data_PCOD9177971
_publ_section_title
;
Structure prediction by ZEFSAII (Michael W. Deem and Ramdas Pophale) SiO2 
 PCOD9177971
Probable space group: C 2/M
;
_chemical_formula_sum "Si O2"
_cell_formula_units_Z 56
_cell_length_a 28.430443
_cell_length_b 8.907484
_cell_length_c 18.870687
_cell_angle_alpha 90.000000
_cell_angle_beta 131.586456
_cell_angle_gamma 90.000000
_cell_volume 3574.389425
_symmetry_space_group_name_H-M "C 2/M"
_symmetry_group_IT_number 12
_symmetry_cell_setting 'monoclinic'
loop_
_space_group_symop_operation_xyz
x,y,z
-x,y,-z
-x,-y,-z
x,-y,z
1/2+x,1/2+y,z
1/2-x,1/2+y,-z
1/2-x,1/2-y,-z
1/2+x,1/2-y,z
loop_
_atom_site_type_symbol
_atom_site_label
_atom_site_fract_x
_atom_site_fract_y
_atom_site_fract_z
Si Si1 0.119368 0.320814 0.718319
Si Si2 0.930219 0.827565 0.465217
Si Si3 0.069781 0.327565 0.104779
Si Si4 0.380632 0.320814 0.979583
Si Si5 0.750000 0.819252 0.922114
Si Si6 0.997219 0.319018 0.823957
Si Si7 0.002781 0.180982 0.329519
O O1 0.112112 0.500000 0.716991
O O2 0.111352 0.271461 0.628644
O O3 0.186712 0.276090 0.817222
O O4 0.063574 0.242543 0.706958
O O5 0.000000 0.827667 0.500000
O O6 0.943878 0.777520 0.559115
O O7 0.907902 0.000000 0.442479
O O8 0.092097 0.500000 0.126673
O O9 0.111352 0.228539 0.094060
O O10 0.056122 0.277521 0.171359
O O11 0.000000 0.327666 0.000000
O O12 0.387888 0.500000 0.992766
O O13 0.313288 0.276090 0.943798
O O14 0.436426 0.242544 0.079809
O O15 0.750000 0.000000 0.928110
O O16 0.750000 0.750000 0.000000
O O17 0.000158 0.500000 0.824268
O O18 0.985558 0.250001 0.735558
O O19 0.999843 0.000000 0.323953
#
# Coordination Sequence:
#
# PCOD9177971 Si02
#       7
#     8   8   8   8   8   8   8
#     4  10  19  31  46  64  89 120 153 184 217 259
#     4   8  16  30  45  63  88 115 144 181 222 264
#     4   8  16  30  45  63  88 115 144 181 222 264
#     4  10  19  31  46  64  89 120 153 184 217 259
#     4  10  22  34  44  64  91 120 153 186 215 250
#     4  10  19  30  45  67  93 117 145 182 223 265
#     4  10  19  30  45  67  93 117 145 182 223 265
#
# _framework density 15.667011
#
# number of rings (size 3 to 8) (size 9 to 14) (size 15 to 20)
#    0.000    2.571    0.000    4.286    0.000   10.857 
#    0.000    0.000    0.000    0.000    0.000    1.000 
#    0.000    0.000    0.000    0.000    0.000    0.000 
#
# Total GULP energy -156037.643446 kJ/mol
# GULP energy per Si atom -5572.772980 kJ/mol
# Density = 1.563135 g / cm^3
# Si number density = 15.667011 Si / 1000 Ang^3
#
#
#
# Elastic Constant Matrix: (Units=GPa)
#
#
# Indices 1 2 3 4 5 6 
#
# 1 104.2187 39.6960 63.0775 0.0000 -23.2100 0.0000
# 2 39.6960 46.4276 42.1145 0.0000 -8.3965 0.0000
# 3 63.0775 42.1145 117.9363 0.0000 -24.4065 0.0000
# 4 0.0000 0.0000 0.0000 25.0889 0.0000 -7.2143
# 5 -23.2100 -8.3965 -24.4065 0.0000 28.0682 0.0000
# 6 0.0000 0.0000 0.0000 -7.2143 0.0000 23.0107
#
#
#
# Elastic Compliance Matrix: (Units=1/GPa)
#
#
# Indices 1 2 3 4 5 6 
#
# 1 0.017714 -0.009772 -0.004339 0.000000 0.007952 0.000000
# 2 -0.009772 0.037253 -0.009076 0.000000 -0.004828 0.000000
# 3 -0.004339 -0.009076 0.015531 0.000000 0.007202 0.000000
# 4 0.000000 0.000000 0.000000 0.043808 0.000000 0.013735
# 5 0.007952 -0.004828 0.007202 0.000000 0.047021 0.000000
# 6 0.000000 0.000000 0.000000 0.013735 0.000000 0.047764
#
#
# Mechanical properties :
#
#
# Convention : Reuss Voigt Hill
#
# Bulk Modulus (GPa) = 41.45013 62.03985 51.74499
# Shear Modulus (GPa) = 18.97479 23.47986 21.22732
#
# Velocity S-wave (km/s) = 3.48390 3.87548 3.68490
# Velocity P-wave (km/s) = 6.53436 7.72728 7.15572
#
# Compressibility (1/GPa) = 0.02412538
#
# Stress axis : x y z
#
# Youngs Moduli (GPa) = 56.45102 26.84335 64.38552
#
# Poissons Ratio (x) = 0.26230 0.27940
# Poissons Ratio (y) = 0.55161 0.58435
# Poissons Ratio (z) = 0.24497 0.24362
#
# Static dielectric constant tensor:
#      x y z
#    x 1.518730 0.000000 -0.022860 
#    y 0.000000 1.526940 0.000000 
#    z -0.022860 0.000000 1.525320 
# 
# From -- ./inp_files/291946.got.cif
#   From: 2010.05.17/outbox.cif.g08.bks.cpg/sg12_146_cif.got.tgz:291946.got - 2010.06.03 13:09:07.
