data_PCOD9177097
_publ_section_title
;
Structure prediction by ZEFSAII (Michael W. Deem and Ramdas Pophale) SiO2 
 PCOD9177097
Probable space group: C 2/M
;
_chemical_formula_sum "Si O2"
_cell_formula_units_Z 40
_cell_length_a 19.623212
_cell_length_b 19.027211
_cell_length_c 15.420932
_cell_angle_alpha 90.000000
_cell_angle_beta 160.326777
_cell_angle_gamma 90.000000
_cell_volume 1938.390246
_symmetry_space_group_name_H-M "C 2/M"
_symmetry_group_IT_number 12
_symmetry_cell_setting 'monoclinic'
loop_
_space_group_symop_operation_xyz
x,y,z
-x,y,-z
-x,-y,-z
x,-y,z
1/2+x,1/2+y,z
1/2-x,1/2+y,-z
1/2-x,1/2-y,-z
1/2+x,1/2-y,z
loop_
_atom_site_type_symbol
_atom_site_label
_atom_site_fract_x
_atom_site_fract_y
_atom_site_fract_z
Si Si1 0.054122 0.720507 0.442501
Si Si2 0.487717 0.179421 0.804566
Si Si3 0.562952 0.378203 0.666767
Si Si4 0.151665 0.818036 0.065221
Si Si5 0.891099 0.080206 0.640840
O O1 0.233582 0.678944 0.705667
O O2 0.055257 0.711355 0.341786
O O3 0.053924 0.802707 0.467424
O O4 0.838513 0.693531 0.221503
O O5 0.309369 0.126638 0.613289
O O6 0.700188 0.139165 0.053757
O O7 0.520290 0.246651 0.904789
O O8 0.500000 0.411840 0.500000
O O9 0.510311 0.416928 0.692434
O O10 0.021956 0.881921 0.872738
O O11 0.844240 0.000000 0.607174
#
# Coordination Sequence:
#
# PCOD9177097 Si02
#       5
#     8   8   8   8   8
#     4  10  18  37  72 102 117 157 220 272 321 366
#     4  11  21  41  67  94 128 164 219 265 314 369
#     4  11  21  42  70  94 125 160 211 279 319 363
#     4  10  19  39  67  99 125 161 215 272 313 371
#     4  12  27  42  60  95 136 176 211 247 319 395
#
# _framework density 20.635679
#
# number of rings (size 3 to 8) (size 9 to 14) (size 15 to 20)
#    0.000    1.200    8.000    1.800    0.000    2.800 
#    0.000    5.000    0.000    0.000    0.000    0.000 
#    0.000    0.000    0.000    0.000    0.000    0.000 
#
# Total GULP energy -111855.016657 kJ/mol
# GULP energy per Si atom -5592.750833 kJ/mol
# Density = 2.058871 g / cm^3
# Si number density = 20.635679 Si / 1000 Ang^3
#
#
#
# Elastic Constant Matrix: (Units=GPa)
#
#
# Indices 1 2 3 4 5 6 
#
# 1 49.9927 12.9394 22.8469 0.0000 3.1770 0.0000
# 2 12.9394 99.7372 44.4621 0.0000 8.7914 0.0000
# 3 22.8469 44.4621 133.0610 0.0001 2.0665 0.0001
# 4 0.0000 0.0000 0.0001 1.9803 0.0001 3.9496
# 5 3.1770 8.7914 2.0665 0.0001 21.6490 0.0001
# 6 0.0000 0.0000 0.0001 3.9496 0.0001 5.5357
#
#
#
# Elastic Compliance Matrix: (Units=1/GPa)
#
#
# Indices 1 2 3 4 5 6 
#
# 1 0.021987 -0.001141 -0.003356 0.000000 -0.002443 0.000000
# 2 -0.001141 0.012278 -0.003837 0.000000 -0.004452 0.000000
# 3 -0.003356 -0.003837 0.009356 0.000000 0.001158 0.000000
# 4 0.000000 0.000000 0.000000 -1.193847 0.000001 0.851770
# 5 -0.002443 -0.004452 0.001158 0.000001 0.048247 -0.000001
# 6 0.000000 0.000000 0.000000 0.851770 -0.000001 -0.427065
#
#
# Mechanical properties :
#
#
# Convention : Reuss Voigt Hill
#
# Bulk Modulus (GPa) = 37.10363 49.25418 43.17890
# Shear Modulus (GPa) = -3.32581 19.33582 8.00500
#
# Velocity S-wave (km/s) = -1.27090 3.06438 1.97171
# Velocity P-wave (km/s) = 3.98319 6.03663 5.11403
#
# Compressibility (1/GPa) = 0.02695154
#
# Stress axis : x y z
#
# Youngs Moduli (GPa) = 45.48091 81.44962 106.88460
#
# Poissons Ratio (x) = 0.09294 0.35871
# Poissons Ratio (y) = 0.05190 0.41016
# Poissons Ratio (z) = 0.15264 0.31256
#
# Static dielectric constant tensor:
#      x y z
#    x 1.768430 0.000000 0.022970 
#    y 0.000000 1.708040 0.000000 
#    z 0.022970 0.000000 1.738420 
# 
# From -- ./inp_files/234774.got.cif
#   From: 2010.05.17/outbox.cif.g08.bks.cpg/sg12_118_cif.got.tgz:234774.got - 2010.06.03 13:09:07.
