data_PCOD9177476
_publ_section_title
;
Structure prediction by ZEFSAII (Michael W. Deem and Ramdas Pophale) SiO2 
 PCOD9177476
Probable space group: C 2/M
;
_chemical_formula_sum "Si O2"
_cell_formula_units_Z 48
_cell_length_a 24.518034
_cell_length_b 7.724992
_cell_length_c 14.336263
_cell_angle_alpha 90.000000
_cell_angle_beta 72.436437
_cell_angle_gamma 90.000000
_cell_volume 2588.731080
_symmetry_space_group_name_H-M "C 2/M"
_symmetry_group_IT_number 12
_symmetry_cell_setting 'monoclinic'
loop_
_space_group_symop_operation_xyz
x,y,z
-x,y,-z
-x,-y,-z
x,-y,z
1/2+x,1/2+y,z
1/2-x,1/2+y,-z
1/2-x,1/2-y,-z
1/2+x,1/2-y,z
loop_
_atom_site_type_symbol
_atom_site_label
_atom_site_fract_x
_atom_site_fract_y
_atom_site_fract_z
Si Si1 0.996692 0.288003 0.392821
Si Si2 0.119202 0.290766 0.276894
Si Si3 0.193702 0.707675 0.418828
Si Si4 0.227151 0.299845 0.112544
Si Si5 0.623667 0.212546 0.632119
Si Si6 0.198428 0.302508 0.752601
O O1 0.996183 0.500000 0.393836
O O2 0.938579 0.233219 0.371625
O O3 0.000000 0.235504 0.500000
O O4 0.054128 0.228537 0.310387
O O5 0.116357 0.500000 0.267523
O O6 0.144660 0.261495 0.367008
O O7 0.167543 0.218768 0.181443
O O8 0.203877 0.500000 0.415906
O O9 0.169698 0.766673 0.530015
O O10 0.250083 0.795262 0.349395
O O11 0.214295 0.500000 0.112506
O O12 0.275015 0.278505 0.168243
O O13 0.250000 0.250000 0.000000
O O14 0.644746 0.271849 0.723008
O O15 0.624443 0.000000 0.632626
O O16 0.185445 0.500000 0.783725
#
# Coordination Sequence:
#
# PCOD9177476 Si02
#       6
#     8   8   8   8   8   8
#     4   9  13  21  40  66  97 129 156 186 227 266
#     4   8  14  24  42  69  95 117 150 193 231 269
#     4   9  15  26  42  64  94 128 162 193 223 264
#     4  10  20  35  54  73  90 113 150 197 244 285
#     4   9  16  24  39  65  98 130 159 190 226 269
#     4  10  19  29  42  67  98 125 154 190 232 279
#
# _framework density 18.541903000000001
#
# number of rings (size 3 to 8) (size 9 to 14) (size 15 to 20)
#    0.000    2.833    1.667    2.500    0.000    0.000 
#    0.000    0.833    0.000    1.000    0.000   29.167 
#    0.000    0.000    0.000    0.000    0.000    0.000 
#
# Total GULP energy -133710.765552 kJ/mol
# GULP energy per Si atom -5571.281898 kJ/mol
# Density = 1.849970 g / cm^3
# Si number density = 18.541903 Si / 1000 Ang^3
#
#
#
# Elastic Constant Matrix: (Units=GPa)
#
#
# Indices 1 2 3 4 5 6 
#
# 1 117.7904 -4.3043 61.4423 0.0000 10.0991 0.0000
# 2 -4.3043 18.9070 3.3972 0.0000 -1.5516 0.0000
# 3 61.4423 3.3972 125.0304 0.0000 4.1911 0.0000
# 4 0.0000 0.0000 0.0000 7.2185 0.0000 1.4200
# 5 10.0991 -1.5516 4.1911 0.0000 8.9795 0.0000
# 6 0.0000 0.0000 0.0000 1.4200 0.0000 10.0236
#
#
#
# Elastic Compliance Matrix: (Units=1/GPa)
#
#
# Indices 1 2 3 4 5 6 
#
# 1 0.012625 0.003043 -0.005921 0.000000 -0.010909 0.000000
# 2 0.003043 0.054785 -0.003237 0.000000 0.007555 0.000000
# 3 -0.005921 -0.003237 0.010963 0.000000 0.000983 0.000000
# 4 0.000000 0.000000 0.000000 0.142504 0.000000 -0.020188
# 5 -0.010909 0.007555 0.000983 0.000000 0.124480 0.000000
# 6 0.000000 0.000000 0.000000 -0.020188 0.000000 0.102624
#
#
# Mechanical properties :
#
#
# Convention : Reuss Voigt Hill
#
# Bulk Modulus (GPa) = 15.11909 42.53312 28.82610
# Shear Modulus (GPa) = 10.36789 18.65718 14.51253
#
# Velocity S-wave (km/s) = 2.36722 3.17553 2.80069
# Velocity P-wave (km/s) = 3.95517 6.03606 5.10281
#
# Compressibility (1/GPa) = 0.06614156
#
# Stress axis : x y z
#
# Youngs Moduli (GPa) = 79.20958 18.25325 91.21791
#
# Poissons Ratio (x) = -0.05554 0.54010
# Poissons Ratio (y) = -0.24101 0.29528
# Poissons Ratio (z) = 0.46900 0.05909
#
# Static dielectric constant tensor:
#      x y z
#    x 1.699550 0.000000 -0.055470 
#    y 0.000000 1.707560 0.000000 
#    z -0.055470 0.000000 1.708750 
# 
# From -- ./inp_files/179205.got.cif
#   From: 2010.05.17/outbox.cif.g08.bks.cpg/sg12_90_cif.got.tgz:179205.got - 2010.06.03 13:09:07.
