data_PCOD9177955
_publ_section_title
;
Structure prediction by ZEFSAII (Michael W. Deem and Ramdas Pophale) SiO2 
 PCOD9177955
Probable space group: C 2/M
;
_chemical_formula_sum "Si O2"
_cell_formula_units_Z 64
_cell_length_a 24.305713
_cell_length_b 7.702243
_cell_length_c 21.642562
_cell_angle_alpha 90.000000
_cell_angle_beta 120.547455
_cell_angle_gamma 90.000000
_cell_volume 3489.334133
_symmetry_space_group_name_H-M "C 2/M"
_symmetry_group_IT_number 12
_symmetry_cell_setting 'monoclinic'
loop_
_space_group_symop_operation_xyz
x,y,z
-x,y,-z
-x,-y,-z
x,-y,z
1/2+x,1/2+y,z
1/2-x,1/2+y,-z
1/2-x,1/2-y,-z
1/2+x,1/2-y,z
loop_
_atom_site_type_symbol
_atom_site_label
_atom_site_fract_x
_atom_site_fract_y
_atom_site_fract_z
Si Si1 0.707958 0.290742 0.915455
Si Si2 0.189684 0.704100 0.120239
Si Si3 0.677287 0.300100 0.253531
Si Si4 0.434860 0.287481 0.718726
Si Si5 0.064549 0.793537 0.850576
Si Si6 0.942876 0.289360 0.011447
Si Si7 0.269049 0.299188 0.409100
Si Si8 0.655015 0.711525 0.437285
O O1 0.702657 0.500000 0.909506
O O2 0.747915 0.225727 0.879058
O O3 0.635634 0.221976 0.878991
O O4 0.750000 0.250000 0.000000
O O5 0.188888 0.500000 0.105222
O O6 0.187650 0.719918 0.192610
O O7 0.124791 0.776318 0.053276
O O8 0.662081 0.500000 0.233484
O O9 0.618083 0.228394 0.260701
O O10 0.740621 0.288495 0.332100
O O11 0.434179 0.500000 0.720413
O O12 0.505100 0.225076 0.776714
O O13 0.409067 0.239783 0.635904
O O14 0.048681 0.765865 0.913357
O O15 0.066841 0.000000 0.840420
O O16 0.942751 0.500000 0.010000
O O17 0.000000 0.229740 0.000000
O O18 0.279925 0.500000 0.399940
O O19 0.329185 0.232349 0.483701
O O20 0.211045 0.283006 0.425200
O O21 0.660086 0.500000 0.439549
#
# Coordination Sequence:
#
# PCOD9177955 Si02
#       8
#     8   8   8   8   8   8   8   8
#     4  10  20  34  51  68  86 114 152 194 235 270
#     4  10  20  33  46  63  89 117 149 190 229 267
#     4  10  19  30  45  66  93 122 150 184 226 271
#     4   8  15  28  44  66  95 119 145 184 222 262
#     4  10  19  31  49  69  88 116 153 189 226 267
#     4  10  20  32  46  65  92 123 149 179 225 275
#     4   9  15  24  41  64  91 123 153 181 217 263
#     4   8  14  25  41  62  91 125 154 180 215 261
#
# _framework density 18.341608000000001
#
# number of rings (size 3 to 8) (size 9 to 14) (size 15 to 20)
#    0.000    2.625    1.250    2.250    0.000    1.750 
#    0.000    2.500    0.000    0.000    0.000    0.875 
#    0.000    7.000    0.000    0.000    0.000    0.000 
#
# Total GULP energy -178276.746477 kJ/mol
# GULP energy per Si atom -5571.148327 kJ/mol
# Density = 1.829986 g / cm^3
# Si number density = 18.341608 Si / 1000 Ang^3
#
#
#
# Elastic Constant Matrix: (Units=GPa)
#
#
# Indices 1 2 3 4 5 6 
#
# 1 93.3605 7.3632 48.6248 0.0000 29.9158 0.0000
# 2 7.3632 27.0049 -4.9973 0.0000 2.0917 0.0000
# 3 48.6248 -4.9973 125.8458 0.0000 39.0418 0.0000
# 4 0.0000 0.0000 0.0000 19.9897 0.0000 -0.9496
# 5 29.9158 2.0917 39.0418 0.0000 17.7632 0.0000
# 6 0.0000 0.0000 0.0000 -0.9496 0.0000 0.7062
#
#
#
# Elastic Compliance Matrix: (Units=1/GPa)
#
#
# Indices 1 2 3 4 5 6 
#
# 1 0.028052 0.000303 0.012073 0.000000 -0.073815 -0.000001
# 2 0.000303 0.040888 0.009928 0.000000 -0.027147 -0.000002
# 3 0.012073 0.009928 0.032522 0.000000 -0.092982 -0.000001
# 4 0.000000 0.000000 0.000000 0.053440 0.000000 0.071863
# 5 -0.073815 -0.027147 -0.092982 0.000000 0.388173 0.000004
# 6 -0.000001 -0.000002 -0.000001 0.071863 0.000004 1.512682
#
#
# Mechanical properties :
#
#
# Convention : Reuss Voigt Hill
#
# Bulk Modulus (GPa) = 6.84598 38.68805 22.76702
# Shear Modulus (GPa) = 2.42738 20.70653 11.56695
#
# Velocity S-wave (km/s) = 1.15165 3.36361 2.51398
# Velocity P-wave (km/s) = 2.34712 6.01864 4.56799
#
# Compressibility (1/GPa) = 0.14607102
#
# Stress axis : x y z
#
# Youngs Moduli (GPa) = 35.64820 24.45722 30.74838
#
# Poissons Ratio (x) = -0.00741 -0.37123
# Poissons Ratio (y) = -0.01080 -0.30529
# Poissons Ratio (z) = -0.43039 -0.24282
#
# Static dielectric constant tensor:
#      x y z
#    x 1.627690 0.000000 0.035420 
#    y 0.000000 1.682630 0.000000 
#    z 0.035420 0.000000 1.654880 
# 
# From -- ./inp_files/323764.got.cif
#   From: 2010.05.17/outbox.cif.g08.bks.cpg/sg12_162_cif.got.tgz:323764.got - 2010.06.03 13:09:07.
