data_PCOD9177151
_publ_section_title
;
Structure prediction by ZEFSAII (Michael W. Deem and Ramdas Pophale) SiO2 
 PCOD9177151
Probable space group: C 2/M
;
_chemical_formula_sum "Si O2"
_cell_formula_units_Z 56
_cell_length_a 9.187707
_cell_length_b 25.739336
_cell_length_c 20.914652
_cell_angle_alpha 90.000000
_cell_angle_beta 141.767052
_cell_angle_gamma 90.000000
_cell_volume 3060.889650
_symmetry_space_group_name_H-M "C 2/M"
_symmetry_group_IT_number 12
_symmetry_cell_setting 'monoclinic'
loop_
_space_group_symop_operation_xyz
x,y,z
-x,y,-z
-x,-y,-z
x,-y,z
1/2+x,1/2+y,z
1/2-x,1/2+y,-z
1/2-x,1/2-y,-z
1/2+x,1/2-y,z
loop_
_atom_site_type_symbol
_atom_site_label
_atom_site_fract_x
_atom_site_fract_y
_atom_site_fract_z
Si Si1 0.346334 0.660937 0.011317
Si Si2 0.674168 0.801019 0.197650
Si Si3 0.520490 0.000000 0.431588
Si Si4 0.438445 0.500000 0.406244
Si Si5 0.434009 0.696641 0.778526
Si Si6 0.904161 0.440715 0.036709
Si Si7 0.189748 0.396315 0.621619
Si Si8 0.686452 0.586393 0.726034
O O1 0.281313 0.600485 0.000579
O O2 0.096317 0.690645 0.917737
O O3 0.500000 0.668291 0.000000
O O4 0.472997 0.679066 0.119756
O O5 0.686813 0.751617 0.248102
O O6 0.848478 0.797177 0.196548
O O7 0.744728 0.853742 0.258683
O O8 0.500000 0.000000 0.500000
O O9 0.405706 0.945636 0.370540
O O10 0.796669 0.000000 0.525196
O O11 0.500000 0.500000 0.500000
O O12 0.313115 0.551075 0.336318
O O13 0.261403 0.653366 0.688683
O O14 0.818464 0.500000 0.002597
O O15 0.127355 0.437399 0.160344
O O16 0.000000 0.424155 0.000000
O O17 0.430448 0.414132 0.670221
O O18 0.000000 0.384212 0.500000
#
# Coordination Sequence:
#
# PCOD9177151 Si02
#       8
#     8   8   4   4   8   8   8   8
#     4  11  22  39  59  86 120 156 195 244 290 354
#     4  10  22  39  63  85 117 152 199 240 296 354
#     4  10  18  38  64  84 110 150 205 242 280 335
#     4  12  22  38  59  88 117 157 193 241 293 344
#     4  11  22  40  60  89 117 157 196 242 295 346
#     4  10  20  35  59  87 117 157 198 239 295 356
#     4  10  19  36  64  87 114 148 202 244 277 341
#     4  10  19  38  60  83 116 155 191 240 290 343
#
# _framework density 18.295335000000001
#
# number of rings (size 3 to 8) (size 9 to 14) (size 15 to 20)
#    0.000    1.571    3.571    4.286    0.000    0.286 
#    9.000    3.571    0.000    0.000    0.000    0.000 
#    0.000    0.000    0.000    0.000    0.000    0.000 
#
# Total GULP energy -156105.464504 kJ/mol
# GULP energy per Si atom -5575.195161 kJ/mol
# Density = 1.825369 g / cm^3
# Si number density = 18.295335 Si / 1000 Ang^3
#
#
#
# Elastic Constant Matrix: (Units=GPa)
#
#
# Indices 1 2 3 4 5 6 
#
# 1 81.0193 40.5466 35.6424 0.0000 -14.5464 0.0000
# 2 40.5466 143.2479 56.9825 -0.0001 -12.0242 0.0000
# 3 35.6424 56.9825 93.3037 0.0002 -14.5820 0.0000
# 4 0.0000 -0.0001 0.0002 18.7453 0.0001 -5.9024
# 5 -14.5464 -12.0242 -14.5820 0.0001 30.2751 0.0000
# 6 0.0000 0.0000 0.0000 -5.9024 0.0000 23.8879
#
#
#
# Elastic Compliance Matrix: (Units=1/GPa)
#
#
# Indices 1 2 3 4 5 6 
#
# 1 0.016233 -0.002670 -0.003804 0.000000 0.004907 0.000000
# 2 -0.002670 0.009690 -0.004863 0.000000 0.000223 0.000000
# 3 -0.003804 -0.004863 0.015738 0.000000 0.003821 0.000000
# 4 0.000000 0.000000 0.000000 0.057847 0.000000 0.014293
# 5 0.004907 0.000223 0.003821 0.000000 0.037317 0.000000
# 6 0.000000 0.000000 0.000000 0.014293 0.000000 0.045394
#
#
# Mechanical properties :
#
#
# Convention : Reuss Voigt Hill
#
# Bulk Modulus (GPa) = 52.66525 64.87933 58.77229
# Shear Modulus (GPa) = 23.67180 26.87496 25.27338
#
# Velocity S-wave (km/s) = 3.60094 3.83685 3.72077
# Velocity P-wave (km/s) = 6.79248 7.42750 7.11707
#
# Compressibility (1/GPa) = 0.01898785
#
# Stress axis : x y z
#
# Youngs Moduli (GPa) = 61.60178 103.20126 63.54126
#
# Poissons Ratio (x) = 0.27554 0.24169
# Poissons Ratio (y) = 0.16447 0.30900
# Poissons Ratio (z) = 0.23431 0.50186
#
# Static dielectric constant tensor:
#      x y z
#    x 1.608790 0.000000 0.010660 
#    y 0.000000 1.700980 0.000000 
#    z 0.010660 0.000000 1.611590 
# 
# From -- ./inp_files/259907.got.cif
#   From: 2010.05.17/outbox.cif.g08.bks.cpg/sg12_130_cif.got.tgz:259907.got - 2010.06.03 13:09:07.
