data_PCOD9177563
_publ_section_title
;
Structure prediction by ZEFSAII (Michael W. Deem and Ramdas Pophale) SiO2 
 PCOD9177563
Probable space group: C 2/M
;
_chemical_formula_sum "Si O2"
_cell_formula_units_Z 56
_cell_length_a 29.132829
_cell_length_b 8.863987
_cell_length_c 19.808076
_cell_angle_alpha 90.000000
_cell_angle_beta 136.811838
_cell_angle_gamma 90.000000
_cell_volume 3500.755900
_symmetry_space_group_name_H-M "C 2/M"
_symmetry_group_IT_number 12
_symmetry_cell_setting 'monoclinic'
loop_
_space_group_symop_operation_xyz
x,y,z
-x,y,-z
-x,-y,-z
x,-y,z
1/2+x,1/2+y,z
1/2-x,1/2+y,-z
1/2-x,1/2-y,-z
1/2+x,1/2-y,z
loop_
_atom_site_type_symbol
_atom_site_label
_atom_site_fract_x
_atom_site_fract_y
_atom_site_fract_z
Si Si1 0.064187 0.169305 0.770131
Si Si2 0.557643 0.180471 0.909588
Si Si3 0.779478 0.169245 0.095523
Si Si4 0.795626 0.322028 0.250728
Si Si5 0.441402 0.682703 0.384686
Si Si6 0.840126 0.680710 0.859869
Si Si7 0.552446 0.328230 0.118226
O O1 0.061592 0.260030 0.837166
O O2 0.142291 0.154812 0.835682
O O3 0.038359 0.232664 0.670155
O O4 0.036396 0.000000 0.751502
O O5 0.489121 0.244429 0.868373
O O6 0.556812 0.000000 0.908653
O O7 0.618860 0.226313 0.026731
O O8 0.771761 0.279044 0.149889
O O9 0.752102 0.000000 0.079253
O O10 0.750000 0.250000 0.000000
O O11 0.799076 0.500000 0.265370
O O12 0.870288 0.250716 0.333153
O O13 0.734578 0.248029 0.226535
O O14 0.500000 0.719003 0.500000
O O15 0.433696 0.500000 0.373252
O O16 0.836873 0.500000 0.856738
O O17 0.884895 0.739538 0.845648
O O18 0.569826 0.500000 0.155873
O O19 0.500000 0.335399 0.000000
#
# Coordination Sequence:
#
# PCOD9177563 Si02
#       7
#     8   8   8   8   8   8   8
#     4   9  18  30  45  66  90 118 153 191 232 279
#     4  10  19  29  44  67  96 130 163 194 228 270
#     4  10  19  30  43  62  91 125 158 191 230 275
#     4  11  21  31  46  69  95 123 157 194 235 283
#     4   9  19  37  56  71  91 120 155 198 247 293
#     4  10  19  31  46  66  96 131 166 198 229 271
#     4   9  17  29  45  65  92 126 162 198 234 270
#
# _framework density 15.996544999999999
#
# number of rings (size 3 to 8) (size 9 to 14) (size 15 to 20)
#    0.000    2.286    0.000    4.714    0.000    8.857 
#    0.000    0.000    0.000    0.000    0.000    1.000 
#    0.000    0.000    0.000    0.000    0.000    0.000 
#
# Total GULP energy -155887.530680 kJ/mol
# GULP energy per Si atom -5567.411810 kJ/mol
# Density = 1.596014 g / cm^3
# Si number density = 15.996545 Si / 1000 Ang^3
#
#
#
# Elastic Constant Matrix: (Units=GPa)
#
#
# Indices 1 2 3 4 5 6 
#
# 1 101.2235 37.9765 21.9305 0.0000 6.1812 0.0000
# 2 37.9765 71.3725 21.2571 0.0000 3.8412 0.0000
# 3 21.9305 21.2571 65.5211 0.0000 4.5518 0.0000
# 4 0.0000 0.0000 0.0000 15.4958 0.0000 0.5778
# 5 6.1812 3.8412 4.5518 0.0000 19.0717 0.0000
# 6 0.0000 0.0000 0.0000 0.5778 0.0000 29.0976
#
#
#
# Elastic Compliance Matrix: (Units=1/GPa)
#
#
# Indices 1 2 3 4 5 6 
#
# 1 0.012748 -0.006013 -0.002149 0.000000 -0.002408 0.000000
# 2 -0.006013 0.018418 -0.003905 0.000000 -0.000829 0.000000
# 3 -0.002149 -0.003905 0.017434 0.000000 -0.002678 0.000000
# 4 0.000000 0.000000 0.000000 0.064582 0.000000 -0.001283
# 5 -0.002408 -0.000829 -0.002678 0.000000 0.054020 0.000000
# 6 0.000000 0.000000 0.000000 -0.001283 0.000000 0.034393
#
#
# Mechanical properties :
#
#
# Convention : Reuss Voigt Hill
#
# Bulk Modulus (GPa) = 40.87280 44.49392 42.68336
# Shear Modulus (GPa) = 21.37807 23.19655 22.28731
#
# Velocity S-wave (km/s) = 3.65967 3.81215 3.73669
# Velocity P-wave (km/s) = 6.59273 6.87399 6.73483
#
# Compressibility (1/GPa) = 0.02446615
#
# Stress axis : x y z
#
# Youngs Moduli (GPa) = 78.44533 54.29359 57.35773
#
# Poissons Ratio (x) = 0.32649 0.12324
# Poissons Ratio (y) = 0.47173 0.22399
# Poissons Ratio (z) = 0.16855 0.21203
#
# Static dielectric constant tensor:
#      x y z
#    x 1.550640 0.000000 0.028420 
#    y 0.000000 1.553760 0.000000 
#    z 0.028420 0.000000 1.537800 
# 
# From -- ./inp_files/291791.got.cif
#   From: 2010.05.17/outbox.cif.g08.bks.cpg/sg12_146_cif.got.tgz:291791.got - 2010.06.03 13:09:07.
