data_PCOD9177264
_publ_section_title
;
Structure prediction by ZEFSAII (Michael W. Deem and Ramdas Pophale) SiO2 
 PCOD9177264
Probable space group: C 2/M
;
_chemical_formula_sum "Si O2"
_cell_formula_units_Z 64
_cell_length_a 22.715460
_cell_length_b 14.417167
_cell_length_c 12.297500
_cell_angle_alpha 90.000000
_cell_angle_beta 132.845557
_cell_angle_gamma 90.000000
_cell_volume 2952.802985
_symmetry_space_group_name_H-M "C 2/M"
_symmetry_group_IT_number 12
_symmetry_cell_setting 'monoclinic'
loop_
_space_group_symop_operation_xyz
x,y,z
-x,y,-z
-x,-y,-z
x,-y,z
1/2+x,1/2+y,z
1/2-x,1/2+y,-z
1/2-x,1/2-y,-z
1/2+x,1/2-y,z
loop_
_atom_site_type_symbol
_atom_site_label
_atom_site_fract_x
_atom_site_fract_y
_atom_site_fract_z
Si Si1 0.667923 0.285057 0.342568
Si Si2 0.676382 0.390498 0.128119
Si Si3 0.217116 0.607139 0.945432
Si Si4 0.827914 0.601565 0.762221
Si Si5 0.966235 0.600463 0.080170
Si Si6 0.390329 0.608319 0.283765
Si Si7 0.416047 0.254993 0.144974
Si Si8 0.365107 0.392797 0.494527
O O1 0.750000 0.250000 0.500000
O O2 0.685352 0.352816 0.262116
O O3 0.636026 0.188702 0.255061
O O4 0.619557 0.335890 0.376801
O O5 0.653846 0.500000 0.099284
O O6 0.752595 0.382166 0.142221
O O7 0.613548 0.321628 0.990248
O O8 0.187951 0.500000 0.919991
O O9 0.298650 0.614730 0.120959
O O10 0.154772 0.688345 0.895805
O O11 0.845382 0.500000 0.735530
O O12 0.870046 0.602991 0.932293
O O13 0.732325 0.609308 0.645521
O O14 0.986457 0.500000 0.151408
O O15 0.980277 0.684042 0.178020
O O16 0.000000 0.604859 0.000000
O O17 0.412479 0.500000 0.302569
O O18 0.395816 0.637291 0.415494
O O19 0.440688 0.674852 0.269976
O O20 0.387738 0.500000 0.540078
#
# Coordination Sequence:
#
# PCOD9177264 Si02
#       8
#     8   8   8   8   8   8   8   8
#     4  10  19  27  45  64  95 134 161 182 220 269
#     4  10  19  30  42  67  98 126 156 191 224 269
#     4   9  18  27  42  64  92 125 155 182 223 276
#     4   9  17  30  45  65  93 124 155 192 231 270
#     4  10  20  33  50  71  91 115 155 203 244 281
#     4   9  17  27  42  66  94 125 154 180 216 276
#     4  11  18  28  49  64  91 123 152 187 236 284
#     4   9  17  28  44  69 101 130 158 182 212 270
#
# _framework density 21.674322
#
# number of rings (size 3 to 8) (size 9 to 14) (size 15 to 20)
#    0.000    2.375    1.250    4.125    5.250    2.500 
#    0.000    0.000    0.000    1.500    0.000    0.875 
#    0.000    5.000    0.000    0.000    0.000    0.000 
#
# Total GULP energy -178503.667752 kJ/mol
# GULP energy per Si atom -5578.239617 kJ/mol
# Density = 2.162499 g / cm^3
# Si number density = 21.674322 Si / 1000 Ang^3
#
#
#
# Elastic Constant Matrix: (Units=GPa)
#
#
# Indices 1 2 3 4 5 6 
#
# 1 66.2478 51.8549 38.0276 0.0000 -28.0099 0.0000
# 2 51.8549 149.4205 59.6318 0.0000 -42.9653 0.0000
# 3 38.0276 59.6318 101.5739 0.0000 -40.1616 0.0000
# 4 0.0000 0.0000 0.0000 32.3735 0.0000 -17.2603
# 5 -28.0099 -42.9653 -40.1616 0.0000 47.7258 0.0000
# 6 0.0000 0.0000 0.0000 -17.2603 0.0000 8.9365
#
#
#
# Elastic Compliance Matrix: (Units=1/GPa)
#
#
# Indices 1 2 3 4 5 6 
#
# 1 0.023716 -0.005000 -0.003327 0.000000 0.006618 0.000000
# 2 -0.005000 0.010800 -0.002674 0.000000 0.004538 0.000000
# 3 -0.003327 -0.002674 0.016390 0.000000 0.009432 0.000000
# 4 0.000000 0.000000 0.000000 -1.037556 0.000000 -2.003975
# 5 0.006618 0.004538 0.009432 0.000000 0.036860 0.000000
# 6 0.000000 0.000000 0.000000 -2.003975 0.000000 -3.758652
#
#
# Mechanical properties :
#
#
# Convention : Reuss Voigt Hill
#
# Bulk Modulus (GPa) = 34.59709 68.47453 51.53581
# Shear Modulus (GPa) = -1.06911 28.98903 13.95996
#
# Velocity S-wave (km/s) = -0.70309 3.66113 2.54062
# Velocity P-wave (km/s) = 3.91635 7.03796 5.69520
#
# Compressibility (1/GPa) = 0.02890416
#
# Stress axis : x y z
#
# Youngs Moduli (GPa) = 42.16509 92.59517 61.01255
#
# Poissons Ratio (x) = 0.46295 0.20299
# Poissons Ratio (y) = 0.21081 0.16316
# Poissons Ratio (z) = 0.14028 0.24762
#
# Static dielectric constant tensor:
#      x y z
#    x 1.909730 0.000000 0.007650 
#    y 0.000000 1.816320 0.000000 
#    z 0.007650 0.000000 1.805970 
# 
# From -- ./inp_files/183044.got.cif
#   From: 2010.05.17/outbox.cif.g08.bks.cpg/sg12_92_cif.got.tgz:183044.got - 2010.06.03 13:09:07.
