data_PCOD9177992
_publ_section_title
;
Structure prediction by ZEFSAII (Michael W. Deem and Ramdas Pophale) SiO2 
 PCOD9177992
Probable space group: C 2/M
;
_chemical_formula_sum "Si O2"
_cell_formula_units_Z 64
_cell_length_a 25.317385
_cell_length_b 25.588060
_cell_length_c 18.562251
_cell_angle_alpha 90.000000
_cell_angle_beta 19.970618
_cell_angle_gamma 90.000000
_cell_volume 4107.013666
_symmetry_space_group_name_H-M "C 2/M"
_symmetry_group_IT_number 12
_symmetry_cell_setting 'monoclinic'
loop_
_space_group_symop_operation_xyz
x,y,z
-x,y,-z
-x,-y,-z
x,-y,z
1/2+x,1/2+y,z
1/2-x,1/2+y,-z
1/2-x,1/2-y,-z
1/2+x,1/2-y,z
loop_
_atom_site_type_symbol
_atom_site_label
_atom_site_fract_x
_atom_site_fract_y
_atom_site_fract_z
Si Si1 0.821469 0.260831 0.236578
Si Si2 0.106487 0.846099 0.591690
Si Si3 0.744879 0.561266 0.157012
Si Si4 0.255838 0.805177 0.534466
Si Si5 0.678336 0.261662 0.264516
Si Si6 0.395642 0.844429 0.902327
Si Si7 0.071828 0.061778 0.525758
Si Si8 0.742071 0.695669 0.966326
O O1 0.720091 0.307070 0.402307
O O2 0.811187 0.210316 0.301880
O O3 0.748879 0.250505 0.251862
O O4 0.000000 0.276616 0.000000
O O5 0.165934 0.845262 0.597868
O O6 0.099646 0.900430 0.557293
O O7 0.934676 0.821984 0.811929
O O8 0.781234 0.500000 0.106750
O O9 0.690701 0.573176 0.307969
O O10 0.596534 0.570789 0.295012
O O11 0.878865 0.598956 0.958802
O O12 0.250000 0.750000 0.500000
O O13 0.432950 0.822095 0.314005
O O14 0.500000 0.278410 0.500000
O O15 0.690231 0.211024 0.197793
O O16 0.780612 0.306904 0.095727
O O17 0.337367 0.843511 0.894532
O O18 0.082713 0.000000 0.528959
O O19 0.750000 0.750000 0.000000
#
# Coordination Sequence:
#
# PCOD9177992 Si02
#       8
#     8   8   8   8   8   8   8   8
#     4  11  20  32  47  67  97 133 165 194 235 289
#     4  11  19  33  49  68  96 134 164 193 239 287
#     4   9  18  31  49  74 100 126 161 203 239 275
#     4  10  21  34  46  66  99 131 165 196 237 285
#     4  11  20  28  45  70  97 124 164 202 234 282
#     4  11  19  32  49  68  98 136 162 192 241 288
#     4   9  18  31  49  74 100 125 162 206 236 273
#     4  10  19  30  45  68  95 124 164 205 236 278
#
# _framework density 15.5831
#
# number of rings (size 3 to 8) (size 9 to 14) (size 15 to 20)
#    0.000    1.750    1.250    9.000    1.750    0.000 
#    0.000    0.625    0.000    1.875    0.000    0.000 
#    0.000   20.000    0.000    0.000    0.000    0.000 
#
# Total GULP energy -178471.903681 kJ/mol
# GULP energy per Si atom -5577.246990 kJ/mol
# Density = 1.554763 g / cm^3
# Si number density = 15.583100 Si / 1000 Ang^3
#
#
#
# Elastic Constant Matrix: (Units=GPa)
#
#
# Indices 1 2 3 4 5 6 
#
# 1 109.1178 18.3269 19.2909 0.0093 -1.0400 -0.0058
# 2 18.3269 41.6180 9.6753 0.0127 3.4770 -0.0369
# 3 19.2909 9.6753 66.1503 0.0082 -20.6597 -0.0793
# 4 0.0093 0.0127 0.0082 9.5149 -0.0031 -3.4394
# 5 -1.0400 3.4770 -20.6597 -0.0031 24.0261 -0.0214
# 6 -0.0058 -0.0369 -0.0793 -3.4394 -0.0214 17.0101
#
#
#
# Elastic Compliance Matrix: (Units=1/GPa)
#
#
# Indices 1 2 3 4 5 6 
#
# 1 0.010294 -0.003721 -0.002940 -0.000011 -0.001544 -0.000023
# 2 -0.003721 0.027800 -0.005862 -0.000026 -0.009225 0.000015
# 3 -0.002940 -0.005862 0.023320 0.000044 0.020774 0.000130
# 4 -0.000011 -0.000026 0.000044 0.113386 0.000076 0.022927
# 5 -0.001544 -0.009225 0.020774 0.000076 0.060753 0.000168
# 6 -0.000023 0.000015 0.000130 0.022927 0.000168 0.063425
#
#
# Mechanical properties :
#
#
# Convention : Reuss Voigt Hill
#
# Bulk Modulus (GPa) = 27.49637 34.60804 31.05221
# Shear Modulus (GPa) = 14.87443 21.41642 18.14542
#
# Velocity S-wave (km/s) = 3.09289 3.71123 3.41608
# Velocity P-wave (km/s) = 5.51706 6.37348 5.96067
#
# Compressibility (1/GPa) = 0.03636844
#
# Stress axis : x y z
#
# Youngs Moduli (GPa) = 97.14029 35.97115 42.88159
#
# Poissons Ratio (x) = 0.13384 0.12608
# Poissons Ratio (y) = 0.36143 0.25138
# Poissons Ratio (z) = 0.28561 0.21087
#
# Static dielectric constant tensor:
#      x y z
#    x 1.562250 0.000000 0.001800 
#    y 0.000000 1.514570 0.000000 
#    z 0.001800 0.000000 1.529700 
# 
# From -- ./inp_files/66962.got.cif
#   From: 2010.05.17/outbox.cif.g08.bks.cpg/sg12_34_cif.got.tgz:66962.got - 2010.06.03 13:09:07.
