data_PCOD9177098
_publ_section_title
;
Structure prediction by ZEFSAII (Michael W. Deem and Ramdas Pophale) SiO2 
 PCOD9177098
Probable space group: C 2/M
;
_chemical_formula_sum "Si O2"
_cell_formula_units_Z 18
_cell_length_a 11.767317
_cell_length_b 12.705087
_cell_length_c 4.795323
_cell_angle_alpha 90.000000
_cell_angle_beta 85.605156
_cell_angle_gamma 90.000000
_cell_volume 714.815735
_symmetry_space_group_name_H-M "C 2/M"
_symmetry_group_IT_number 12
_symmetry_cell_setting 'monoclinic'
loop_
_space_group_symop_operation_xyz
x,y,z
-x,y,-z
-x,-y,-z
x,-y,z
1/2+x,1/2+y,z
1/2-x,1/2+y,-z
1/2-x,1/2-y,-z
1/2+x,1/2-y,z
loop_
_atom_site_type_symbol
_atom_site_label
_atom_site_fract_x
_atom_site_fract_y
_atom_site_fract_z
Si Si1 0.692576 0.616426 0.708861
Si Si2 0.150131 0.655942 0.827258
Si Si3 0.500000 0.000000 0.500000
O O1 0.641223 0.500000 0.743683
O O2 0.737682 0.634812 0.387796
O O3 0.625720 0.719668 0.817075
O O4 0.807120 0.619546 0.878570
O O5 0.053455 0.590114 0.700022
#
# Coordination Sequence:
#
# PCOD9177098 Si02
#       3
#     8   8   2
#     4  10  18  38  51  78 102 153 171 216 251 349
#     4  10  22  30  57  77 111 133 184 212 278 297
#     4  12  20  38  50  94 104 140 168 256 244 326
#
# _framework density 25.181315999999999
#
# number of rings (size 3 to 8) (size 9 to 14) (size 15 to 20)
#    0.000    1.778    4.444    0.000    0.000    3.556 
#    0.000    1.111    0.000    0.000    0.000   18.667 
#    0.000    0.000    0.000    0.000    0.000    0.000 
#
# Total GULP energy -50105.254851 kJ/mol
# GULP energy per Si atom -5567.250539 kJ/mol
# Density = 2.512400 g / cm^3
# Si number density = 25.181316 Si / 1000 Ang^3
#
#
#
# Elastic Constant Matrix: (Units=GPa)
#
#
# Indices 1 2 3 4 5 6 
#
# 1 45.6150 24.3208 7.5941 0.0000 11.9950 0.0000
# 2 24.3208 313.5108 7.7882 0.0000 23.2265 0.0000
# 3 7.5941 7.7882 113.1102 0.0000 11.8880 0.0000
# 4 0.0000 0.0000 0.0000 30.2728 0.0000 34.0924
# 5 11.9950 23.2265 11.8880 0.0000 31.1059 0.0000
# 6 0.0000 0.0000 0.0000 34.0924 0.0000 17.9426
#
#
#
# Elastic Compliance Matrix: (Units=1/GPa)
#
#
# Indices 1 2 3 4 5 6 
#
# 1 0.024934 -0.001296 -0.000704 0.000000 -0.008378 0.000000
# 2 -0.001296 0.003444 0.000070 0.000000 -0.002099 0.000000
# 3 -0.000704 0.000070 0.009231 0.000000 -0.003309 0.000000
# 4 0.000000 0.000000 0.000000 -0.028981 0.000000 0.055066
# 5 -0.008378 -0.002099 -0.003309 0.000000 0.038211 0.000000
# 6 0.000000 0.000000 0.000000 0.055066 0.000000 -0.048896
#
#
# Mechanical properties :
#
#
# Convention : Reuss Voigt Hill
#
# Bulk Modulus (GPa) = 29.63024 61.29359 45.46192
# Shear Modulus (GPa) = 383.08539 44.69979 213.89259
#
# Velocity S-wave (km/s) = 12.34751 4.21778 9.22634
# Velocity P-wave (km/s) = 14.66539 6.93638 11.47142
#
# Compressibility (1/GPa) = 0.03374930
#
# Stress axis : x y z
#
# Youngs Moduli (GPa) = 40.10590 290.36339 108.32894
#
# Poissons Ratio (x) = 0.37634 0.07629
# Poissons Ratio (y) = 0.05198 -0.00763
# Poissons Ratio (z) = 0.02825 -0.02046
#
# Static dielectric constant tensor:
#      x y z
#    x 2.059010 0.000000 -0.105250 
#    y 0.000000 1.975070 0.000000 
#    z -0.105250 0.000000 1.930220 
# 
# From -- ./inp_files/4502.got.cif
#   From: 2010.05.17/outbox.cif.g08.bks.cpg/sg12_3_cif.got.tgz:4502.got - 2010.06.03 13:09:07.
