data_PCOD9177503
_publ_section_title
;
Structure prediction by ZEFSAII (Michael W. Deem and Ramdas Pophale) SiO2 
 PCOD9177503
Probable space group: C 2/M
;
_chemical_formula_sum "Si O2"
_cell_formula_units_Z 64
_cell_length_a 22.603842
_cell_length_b 18.494277
_cell_length_c 19.621051
_cell_angle_alpha 90.000000
_cell_angle_beta 152.732351
_cell_angle_gamma 90.000000
_cell_volume 3757.919185
_symmetry_space_group_name_H-M "C 2/M"
_symmetry_group_IT_number 12
_symmetry_cell_setting 'monoclinic'
loop_
_space_group_symop_operation_xyz
x,y,z
-x,y,-z
-x,-y,-z
x,-y,z
1/2+x,1/2+y,z
1/2-x,1/2+y,-z
1/2-x,1/2-y,-z
1/2+x,1/2-y,z
loop_
_atom_site_type_symbol
_atom_site_label
_atom_site_fract_x
_atom_site_fract_y
_atom_site_fract_z
Si Si1 0.313980 0.418001 0.799953
Si Si2 0.466441 0.921650 0.557451
Si Si3 0.146091 0.783392 0.841230
Si Si4 0.649059 0.081107 0.413014
Si Si5 0.600730 0.765220 0.327833
Si Si6 0.298918 0.831718 0.200229
Si Si7 0.081856 0.121708 0.236721
Si Si8 0.176093 0.918421 0.952694
O O1 0.340148 0.500000 0.851857
O O2 0.171780 0.419080 0.619847
O O3 0.302893 0.358143 0.847659
O O4 0.403589 0.399143 0.827285
O O5 0.438950 0.917824 0.609579
O O6 0.561231 0.858737 0.633582
O O7 0.527904 0.000000 0.605383
O O8 0.187375 0.750179 0.811197
O O9 0.158065 0.868545 0.867560
O O10 0.004150 0.756070 0.720905
O O11 0.250000 0.750000 0.000000
O O12 0.600927 0.148260 0.318093
O O13 0.791508 0.096975 0.590658
O O14 0.646534 0.000000 0.381164
O O15 0.750000 0.750000 0.500000
O O16 0.568883 0.708431 0.235155
O O17 0.269324 0.879096 0.102195
O O18 0.960549 0.084740 0.148015
O O19 0.215807 0.000000 0.979550
#
# Coordination Sequence:
#
# PCOD9177503 Si02
#       8
#     8   8   8   8   8   8   8   8
#     4  10  19  29  43  65  91 121 149 181 217 265
#     4   9  16  26  40  61  89 113 139 175 215 259
#     4   9  19  32  44  64  92 117 146 190 229 263
#     4   9  15  25  44  65  84 109 143 188 228 258
#     4   9  16  29  46  62  82 118 154 185 223 266
#     4  11  19  29  43  62  92 119 148 175 220 267
#     4   9  18  30  43  61  92 119 152 184 217 261
#     4  10  19  31  47  64  87 121 153 187 221 264
#
# _framework density 17.030701000000001
#
# number of rings (size 3 to 8) (size 9 to 14) (size 15 to 20)
#    0.000    2.500    1.250    3.375    0.000    1.500 
#    0.000    1.250    0.000    0.000    0.000    0.875 
#    0.000    2.000    0.000   14.625    0.000    0.000 
#
# Total GULP energy -178209.230775 kJ/mol
# GULP energy per Si atom -5569.038462 kJ/mol
# Density = 1.699194 g / cm^3
# Si number density = 17.030701 Si / 1000 Ang^3
#
#
#
# Elastic Constant Matrix: (Units=GPa)
#
#
# Indices 1 2 3 4 5 6 
#
# 1 64.7923 34.8595 6.0297 0.0001 -1.3839 0.0000
# 2 34.8595 125.3768 3.4871 0.0001 -14.2296 0.0000
# 3 6.0297 3.4871 37.3915 0.0002 9.6334 0.0001
# 4 0.0001 0.0001 0.0002 16.5963 0.0002 0.4252
# 5 -1.3839 -14.2296 9.6334 0.0002 17.6335 0.0001
# 6 0.0000 0.0000 0.0001 0.4252 0.0001 19.0111
#
#
#
# Elastic Compliance Matrix: (Units=1/GPa)
#
#
# Indices 1 2 3 4 5 6 
#
# 1 0.018415 -0.005253 -0.002048 0.000000 -0.001675 0.000000
# 2 -0.005253 0.010594 -0.002604 0.000000 0.009559 0.000000
# 3 -0.002048 -0.002604 0.032470 0.000000 -0.020000 0.000000
# 4 0.000000 0.000000 0.000000 0.060289 -0.000001 -0.001348
# 5 -0.001675 0.009559 -0.020000 -0.000001 0.075219 0.000000
# 6 0.000000 0.000000 0.000000 -0.001348 0.000000 0.052631
#
#
# Mechanical properties :
#
#
# Convention : Reuss Voigt Hill
#
# Bulk Modulus (GPa) = 23.99861 35.14590 29.57226
# Shear Modulus (GPa) = 17.64806 22.86048 20.25427
#
# Velocity S-wave (km/s) = 3.22258 3.66773 3.45233
# Velocity P-wave (km/s) = 5.28854 6.21433 5.77003
#
# Compressibility (1/GPa) = 0.04166907
#
# Stress axis : x y z
#
# Youngs Moduli (GPa) = 54.30324 94.39437 30.79767
#
# Poissons Ratio (x) = 0.49588 0.06308
# Poissons Ratio (y) = 0.28527 0.08018
# Poissons Ratio (z) = 0.11122 0.24576
#
# Static dielectric constant tensor:
#      x y z
#    x 1.599700 0.000000 0.017200 
#    y 0.000000 1.829360 0.000000 
#    z 0.017200 0.000000 1.641110 
# 
# From -- ./inp_files/176861.got.cif
#   From: 2010.05.17/outbox.cif.g08.bks.cpg/sg12_89_cif.got.tgz:176861.got - 2010.06.03 13:09:07.
