data_PCOD9177749
_publ_section_title
;
Structure prediction by ZEFSAII (Michael W. Deem and Ramdas Pophale) SiO2 
 PCOD9177749
Probable space group: C 2/M
;
_chemical_formula_sum "Si O2"
_cell_formula_units_Z 64
_cell_length_a 13.769038
_cell_length_b 32.010896
_cell_length_c 20.567454
_cell_angle_alpha 90.000000
_cell_angle_beta 154.464586
_cell_angle_gamma 90.000000
_cell_volume 3907.766892
_symmetry_space_group_name_H-M "C 2/M"
_symmetry_group_IT_number 12
_symmetry_cell_setting 'monoclinic'
loop_
_space_group_symop_operation_xyz
x,y,z
-x,y,-z
-x,-y,-z
x,-y,z
1/2+x,1/2+y,z
1/2-x,1/2+y,-z
1/2-x,1/2-y,-z
1/2+x,1/2-y,z
loop_
_atom_site_type_symbol
_atom_site_label
_atom_site_fract_x
_atom_site_fract_y
_atom_site_fract_z
Si Si1 0.781894 0.102978 0.915401
Si Si2 0.718324 0.737409 0.670354
Si Si3 0.772824 0.595859 0.406014
Si Si4 0.246030 0.765445 0.840358
Si Si5 0.540831 0.683815 0.235839
Si Si6 0.979353 0.452114 0.339415
Si Si7 0.465131 0.546066 0.837590
Si Si8 0.831371 0.308926 0.104401
O O1 0.619358 0.069283 0.784153
O O2 0.657782 0.146017 0.855531
O O3 0.000000 0.110562 0.000000
O O4 0.879054 0.081729 0.038701
O O5 0.500000 0.721148 0.500000
O O6 0.689870 0.741076 0.730816
O O7 0.771418 0.783370 0.674185
O O8 0.938472 0.709184 0.787247
O O9 0.642970 0.639053 0.315382
O O10 0.849923 0.580063 0.523078
O O11 0.619929 0.559091 0.284128
O O12 0.000000 0.598796 0.500000
O O13 0.075224 0.797257 0.770493
O O14 0.239020 0.724191 0.882120
O O15 0.500000 0.781904 0.000000
O O16 0.356173 0.686170 0.065788
O O17 0.059727 0.500000 0.380030
O O18 0.760147 0.454581 0.254149
O O19 0.566893 0.500000 0.902003
#
# Coordination Sequence:
#
# PCOD9177749 Si02
#       8
#     8   8   8   8   8   8   8   8
#     4  10  19  29  49  74 103 137 174 214 247 302
#     4  11  24  38  54  78 107 136 174 222 260 306
#     4  10  19  30  47  72 105 136 170 214 251 298
#     4  11  20  37  58  72 102 146 172 209 269 305
#     4  11  21  35  55  79 102 139 184 215 251 314
#     4   9  18  30  44  69 105 141 169 200 256 313
#     4   9  16  28  45  66  97 138 170 201 251 308
#     4  11  21  35  56  78 103 138 184 214 254 310
#
# _framework density 16.377641000000001
#
# number of rings (size 3 to 8) (size 9 to 14) (size 15 to 20)
#    0.000    1.750    3.750    2.250    0.000    7.000 
#    0.000    0.000    0.000    0.000    0.000    0.000 
#    0.000   20.000    0.000    0.000    0.000    0.000 
#
# Total GULP energy -178328.668373 kJ/mol
# GULP energy per Si atom -5572.770887 kJ/mol
# Density = 1.634036 g / cm^3
# Si number density = 16.377641 Si / 1000 Ang^3
#
#
#
# Elastic Constant Matrix: (Units=GPa)
#
#
# Indices 1 2 3 4 5 6 
#
# 1 70.4659 21.1984 25.9493 0.0011 -8.5981 0.0008
# 2 21.1984 104.3668 26.6510 0.0001 3.1276 0.0004
# 3 25.9493 26.6510 87.7725 0.0026 -11.9670 0.0021
# 4 0.0011 0.0001 0.0026 27.9924 0.0022 -1.9702
# 5 -8.5981 3.1276 -11.9670 0.0022 12.9976 0.0014
# 6 0.0008 0.0004 0.0021 -1.9702 0.0014 8.9639
#
#
#
# Elastic Compliance Matrix: (Units=1/GPa)
#
#
# Indices 1 2 3 4 5 6 
#
# 1 0.017346 -0.003070 -0.002894 -0.000001 0.009549 -0.000002
# 2 -0.003070 0.011383 -0.003658 0.000001 -0.008138 0.000002
# 3 -0.002894 -0.003658 0.015116 -0.000003 0.012883 -0.000006
# 4 -0.000001 0.000001 -0.000003 0.036285 -0.000010 0.007975
# 5 0.009549 -0.008138 0.012883 -0.000010 0.097074 -0.000021
# 6 -0.000002 0.000002 -0.000006 0.007975 -0.000021 0.113312
#
#
# Mechanical properties :
#
#
# Convention : Reuss Voigt Hill
#
# Bulk Modulus (GPa) = 40.65062 45.57806 43.11434
# Shear Modulus (GPa) = 15.72518 22.57787 19.15152
#
# Velocity S-wave (km/s) = 3.10201 3.71695 3.42332
# Velocity P-wave (km/s) = 6.14041 6.80520 6.48134
#
# Compressibility (1/GPa) = 0.02459987
#
# Stress axis : x y z
#
# Youngs Moduli (GPa) = 57.65097 87.84820 66.15505
#
# Poissons Ratio (x) = 0.26972 0.19145
# Poissons Ratio (y) = 0.17701 0.24201
# Poissons Ratio (z) = 0.16684 0.32137
#
# Static dielectric constant tensor:
#      x y z
#    x 1.534560 0.000000 -0.010930 
#    y 0.000000 1.548900 0.000000 
#    z -0.010930 0.000000 1.568530 
# 
# From -- ./inp_files/266290.got.cif
#   From: 2010.05.17/outbox.cif.g08.bks.cpg/sg12_134_cif.got.tgz:266290.got - 2010.06.03 13:09:07.
