data_PCOD9177587
_publ_section_title
;
Structure prediction by ZEFSAII (Michael W. Deem and Ramdas Pophale) SiO2 
 PCOD9177587
Probable space group: C 2/M
;
_chemical_formula_sum "Si O2"
_cell_formula_units_Z 64
_cell_length_a 29.840042
_cell_length_b 18.285877
_cell_length_c 12.768904
_cell_angle_alpha 90.000000
_cell_angle_beta 149.377299
_cell_angle_gamma 90.000000
_cell_volume 3549.055478
_symmetry_space_group_name_H-M "C 2/M"
_symmetry_group_IT_number 12
_symmetry_cell_setting 'monoclinic'
loop_
_space_group_symop_operation_xyz
x,y,z
-x,y,-z
-x,-y,-z
x,-y,z
1/2+x,1/2+y,z
1/2-x,1/2+y,-z
1/2-x,1/2-y,-z
1/2+x,1/2-y,z
loop_
_atom_site_type_symbol
_atom_site_label
_atom_site_fract_x
_atom_site_fract_y
_atom_site_fract_z
Si Si1 0.848038 0.379556 0.323993
Si Si2 0.387622 0.879517 0.173615
Si Si3 0.315108 0.417033 0.279091
Si Si4 0.315366 0.261923 0.379589
Si Si5 0.521960 0.230915 0.161002
Si Si6 0.885622 0.773423 0.061984
Si Si7 0.486734 0.921939 0.761952
Si Si8 0.854295 0.917956 0.121168
O O1 0.901410 0.392914 0.324446
O O2 0.843963 0.292801 0.342306
O O3 0.893143 0.414362 0.515652
O O4 0.750538 0.409847 0.111185
O O5 0.447756 0.914380 0.205324
O O6 0.288831 0.907772 0.954266
O O7 0.394574 0.792797 0.163368
O O8 0.330881 0.500000 0.350344
O O9 0.332508 0.346299 0.385065
O O10 0.364303 0.409345 0.266431
O O11 0.377300 0.243283 0.601972
O O12 0.211889 0.242340 0.182797
O O13 0.501677 0.145099 0.137176
O O14 0.500000 0.254236 0.000000
O O15 0.459375 0.267862 0.121713
O O16 0.893157 0.850764 0.134929
O O17 0.497824 0.000000 0.835292
O O18 0.883193 0.000000 0.150159
#
# Coordination Sequence:
#
# PCOD9177587 Si02
#       8
#     8   8   8   8   8   8   8   8
#     4   9  16  26  43  70 104 137 162 183 218 280
#     4   9  16  26  43  70 104 137 162 183 218 280
#     4   9  16  27  46  72 101 132 162 192 230 278
#     4   9  18  33  52  72  97 129 162 198 239 283
#     4  10  22  38  54  71  89 118 165 211 249 290
#     4   9  18  33  52  72  97 129 162 198 239 283
#     4  10  19  29  44  70 101 128 154 190 237 286
#     4   9  16  27  46  72 101 132 162 192 230 278
#
# _framework density 18.032966999999999
#
# number of rings (size 3 to 8) (size 9 to 14) (size 15 to 20)
#    0.000    2.750    0.000    1.875    0.000    5.750 
#    0.000    2.500    0.000    3.000    0.000    0.000 
#    0.000    0.000    0.000    0.000    0.000    0.000 
#
# Total GULP energy -178300.048542 kJ/mol
# GULP energy per Si atom -5571.876517 kJ/mol
# Density = 1.799192 g / cm^3
# Si number density = 18.032967 Si / 1000 Ang^3
#
#
#
# Elastic Constant Matrix: (Units=GPa)
#
#
# Indices 1 2 3 4 5 6 
#
# 1 20.8827 2.8695 -5.4467 0.0000 -2.6822 0.0000
# 2 2.8695 128.2553 -8.4478 0.0000 -2.4183 0.0000
# 3 -5.4467 -8.4478 19.4401 0.0000 -6.6078 0.0000
# 4 0.0000 0.0000 0.0000 7.5662 0.0000 1.3417
# 5 -2.6822 -2.4183 -6.6078 0.0000 15.1309 0.0000
# 6 0.0000 0.0000 0.0000 1.3417 0.0000 3.8410
#
#
#
# Elastic Compliance Matrix: (Units=1/GPa)
#
#
# Indices 1 2 3 4 5 6 
#
# 1 0.056350 0.000625 0.022886 0.000000 0.020084 0.000000
# 2 0.000625 0.008176 0.004944 0.000000 0.003577 0.000000
# 3 0.022886 0.004944 0.072395 0.000000 0.036463 0.000000
# 4 0.000000 0.000000 0.000000 0.140895 0.000000 -0.049218
# 5 0.020084 0.003577 0.036463 0.000000 0.086146 0.000000
# 6 0.000000 0.000000 0.000000 -0.049218 0.000000 0.277543
#
#
# Mechanical properties :
#
#
# Convention : Reuss Voigt Hill
#
# Bulk Modulus (GPa) = 5.15911 16.28089 10.72000
# Shear Modulus (GPa) = 7.70175 17.28115 12.49145
#
# Velocity S-wave (km/s) = 2.06886 3.09901 2.63478
# Velocity P-wave (km/s) = 2.92815 4.67474 3.90047
#
# Compressibility (1/GPa) = 0.19383204
#
# Stress axis : x y z
#
# Youngs Moduli (GPa) = 17.74634 122.30865 13.81314
#
# Poissons Ratio (x) = -0.07650 -0.31613
# Poissons Ratio (y) = -0.01110 -0.06829
# Poissons Ratio (z) = -0.40615 -0.60469
#
# Static dielectric constant tensor:
#      x y z
#    x 1.587440 0.000000 0.042070 
#    y 0.000000 1.655840 0.000000 
#    z 0.042070 0.000000 1.639980 
# 
# From -- ./inp_files/157871.got.cif
#   From: 2010.05.17/outbox.cif.g08.bks.cpg/sg12_79_cif.got.tgz:157871.got - 2010.06.03 13:09:07.
