data_PCOD9177332
_publ_section_title
;
Structure prediction by ZEFSAII (Michael W. Deem and Ramdas Pophale) SiO2 
 PCOD9177332
Probable space group: C 2/M
;
_chemical_formula_sum "Si O2"
_cell_formula_units_Z 40
_cell_length_a 26.381881
_cell_length_b 7.421229
_cell_length_c 22.065272
_cell_angle_alpha 90.000000
_cell_angle_beta 151.021550
_cell_angle_gamma 90.000000
_cell_volume 2092.990656
_symmetry_space_group_name_H-M "C 2/M"
_symmetry_group_IT_number 12
_symmetry_cell_setting 'monoclinic'
loop_
_space_group_symop_operation_xyz
x,y,z
-x,y,-z
-x,-y,-z
x,-y,z
1/2+x,1/2+y,z
1/2-x,1/2+y,-z
1/2-x,1/2-y,-z
1/2+x,1/2-y,z
loop_
_atom_site_type_symbol
_atom_site_label
_atom_site_fract_x
_atom_site_fract_y
_atom_site_fract_z
Si Si1 0.590235 0.293209 0.876491
Si Si2 0.668008 0.280334 0.177022
Si Si3 0.611415 0.214258 0.638076
Si Si4 0.495577 0.720173 0.897414
Si Si5 0.824324 0.215976 0.158026
O O1 0.556952 0.500000 0.833193
O O2 0.516062 0.213930 0.850836
O O3 0.606374 0.215778 0.826187
O O4 0.707249 0.290709 0.027371
O O5 0.669041 0.500000 0.177677
O O6 0.785219 0.215506 0.287993
O O7 0.609586 0.225178 0.177576
O O8 0.592197 0.226690 0.042105
O O9 0.500000 0.287881 0.500000
O O10 0.629636 0.240976 0.728557
O O11 0.609896 0.000000 0.625051
O O12 0.496909 0.500000 0.897177
O O13 0.815061 0.000000 0.142445
#
# Coordination Sequence:
#
# PCOD9177332 Si02
#       5
#     8   8   8   8   8
#     4   9  16  28  46  66  89 115 143 178 217 259
#     4   8  13  22  40  66  86 105 141 181 216 247
#     4  10  19  31  47  64  86 117 150 182 212 251
#     4   8  12  21  42  66  86 106 135 182 219 247
#     4  10  19  28  42  66  92 117 143 175 220 262
#
# _framework density 19.111408000000001
#
# number of rings (size 3 to 8) (size 9 to 14) (size 15 to 20)
#    0.000    3.000    2.000    1.800    0.000    1.200 
#    0.000    0.000    0.000    3.600    0.000    0.000 
#    0.000    0.000    0.000    0.000    0.000    0.600 
#
# Total GULP energy -111468.511725 kJ/mol
# GULP energy per Si atom -5573.425586 kJ/mol
# Density = 1.906791 g / cm^3
# Si number density = 19.111408 Si / 1000 Ang^3
#
#
#
# Elastic Constant Matrix: (Units=GPa)
#
#
# Indices 1 2 3 4 5 6 
#
# 1 213.4596 -4.3483 65.6510 0.0000 18.7391 0.0000
# 2 -4.3483 63.3555 -4.8601 0.0000 11.0285 0.0000
# 3 65.6510 -4.8601 83.3237 0.0000 16.2204 0.0000
# 4 0.0000 0.0000 0.0000 3.2206 0.0000 -5.7577
# 5 18.7391 11.0285 16.2204 0.0000 15.4453 0.0000
# 6 0.0000 0.0000 0.0000 -5.7577 0.0000 6.3593
#
#
#
# Elastic Compliance Matrix: (Units=1/GPa)
#
#
# Indices 1 2 3 4 5 6 
#
# 1 0.006327 0.000779 -0.004194 0.000000 -0.003827 0.000000
# 2 0.000779 0.019550 0.004309 0.000000 -0.019430 0.000000
# 3 -0.004194 0.004309 0.019063 0.000000 -0.018008 0.000000
# 4 0.000000 0.000000 0.000000 -0.501916 0.000000 -0.454430
# 5 -0.003827 -0.019430 -0.018008 0.000000 0.102172 0.000000
# 6 0.000000 0.000000 0.000000 -0.454430 0.000000 -0.254186
#
#
# Mechanical properties :
#
#
# Convention : Reuss Voigt Hill
#
# Bulk Modulus (GPa) = 21.40113 52.55822 36.97967
# Shear Modulus (GPa) = -8.40051 25.25145 8.42547
#
# Velocity S-wave (km/s) = -2.09883 3.63888 2.10195
# Velocity P-wave (km/s) = 2.31278 6.72428 5.02816
#
# Compressibility (1/GPa) = 0.04672650
#
# Stress axis : x y z
#
# Youngs Moduli (GPa) = 158.06473 51.15061 52.45773
#
# Poissons Ratio (x) = -0.03983 0.22002
# Poissons Ratio (y) = -0.12307 -0.22605
# Poissons Ratio (z) = 0.66297 -0.22042
#
# Static dielectric constant tensor:
#      x y z
#    x 1.717250 0.000000 0.008930 
#    y 0.000000 1.726520 0.000000 
#    z 0.008930 0.000000 1.609400 
# 
# From -- ./inp_files/171378.got.cif
#   From: 2010.05.17/outbox.cif.g08.bks.cpg/sg12_86_cif.got.tgz:171378.got - 2010.06.03 13:09:07.
