data_PCOD9177508
_publ_section_title
;
Structure prediction by ZEFSAII (Michael W. Deem and Ramdas Pophale) SiO2 
 PCOD9177508
Probable space group: C 2/M
;
_chemical_formula_sum "Si O2"
_cell_formula_units_Z 48
_cell_length_a 32.828925
_cell_length_b 14.249384
_cell_length_c 12.555897
_cell_angle_alpha 90.000000
_cell_angle_beta 150.765951
_cell_angle_gamma 90.000000
_cell_volume 2868.513345
_symmetry_space_group_name_H-M "C 2/M"
_symmetry_group_IT_number 12
_symmetry_cell_setting 'monoclinic'
loop_
_space_group_symop_operation_xyz
x,y,z
-x,y,-z
-x,-y,-z
x,-y,z
1/2+x,1/2+y,z
1/2-x,1/2+y,-z
1/2-x,1/2-y,-z
1/2+x,1/2-y,z
loop_
_atom_site_type_symbol
_atom_site_label
_atom_site_fract_x
_atom_site_fract_y
_atom_site_fract_z
Si Si1 0.379259 0.720452 0.801883
Si Si2 0.771157 0.393586 0.619005
Si Si3 0.866701 0.386455 0.168923
Si Si4 0.801742 0.108168 0.307410
Si Si5 0.019328 0.612365 0.369681
Si Si6 0.553187 0.267702 0.282552
O O1 0.306583 0.643015 0.629444
O O2 0.341999 0.815960 0.765084
O O3 0.405932 0.741643 0.740836
O O4 0.461660 0.689432 0.052513
O O5 0.796214 0.500000 0.650048
O O6 0.739053 0.392966 0.667367
O O7 0.862690 0.500000 0.152830
O O8 0.910731 0.365406 0.381199
O O9 0.931213 0.358541 0.222618
O O10 0.772549 0.352948 0.936358
O O11 0.884957 0.168916 0.506400
O O12 0.820833 0.000000 0.322655
O O13 0.017673 0.500000 0.349948
O O14 0.039030 0.669526 0.309162
#
# Coordination Sequence:
#
# PCOD9177508 Si02
#       6
#     8   8   8   8   8   8
#     4   9  19  31  42  65  92 112 146 182 207 252
#     4   9  17  31  49  63  83 118 149 176 212 251
#     4   8  15  29  47  66  86 109 145 184 211 252
#     4   9  17  29  46  66  86 113 148 180 212 251
#     4   9  17  29  46  67  89 113 141 177 220 258
#     4  10  19  29  43  65  93 117 138 176 221 256
#
# _framework density 16.733405999999999
#
# number of rings (size 3 to 8) (size 9 to 14) (size 15 to 20)
#    0.000    3.000    0.000    2.000    0.000    4.000 
#    0.000    5.000    0.000    0.000    0.000    2.333 
#    0.000    0.000    0.000    0.000    0.000    0.000 
#
# Total GULP energy -133640.736388 kJ/mol
# GULP energy per Si atom -5568.364016 kJ/mol
# Density = 1.669532 g / cm^3
# Si number density = 16.733406 Si / 1000 Ang^3
#
#
#
# Elastic Constant Matrix: (Units=GPa)
#
#
# Indices 1 2 3 4 5 6 
#
# 1 12.5288 -0.1977 8.0267 0.0000 1.6976 0.0000
# 2 -0.1977 25.1682 10.5215 0.0000 0.0785 0.0000
# 3 8.0267 10.5215 118.3941 0.0000 7.0569 0.0000
# 4 0.0000 0.0000 0.0000 15.6457 0.0000 -2.5634
# 5 1.6976 0.0785 7.0569 0.0000 16.2764 0.0000
# 6 0.0000 0.0000 0.0000 -2.5634 0.0000 18.6697
#
#
#
# Elastic Compliance Matrix: (Units=1/GPa)
#
#
# Indices 1 2 3 4 5 6 
#
# 1 0.084319 0.003025 -0.005605 0.000000 -0.006379 0.000000
# 2 0.003025 0.041407 -0.003956 0.000000 0.001200 0.000000
# 3 -0.005605 -0.003956 0.009385 0.000000 -0.003465 0.000000
# 4 0.000000 0.000000 0.000000 0.065386 0.000000 0.008978
# 5 -0.006379 0.001200 -0.003465 0.000000 0.063600 0.000000
# 6 0.000000 0.000000 0.000000 0.008978 0.000000 0.054795
#
#
# Mechanical properties :
#
#
# Convention : Reuss Voigt Hill
#
# Bulk Modulus (GPa) = 8.19418 21.42135 14.80777
# Shear Modulus (GPa) = 13.41764 19.30108 16.35936
#
# Velocity S-wave (km/s) = 2.83476 3.39993 3.13013
# Velocity P-wave (km/s) = 3.95247 5.31432 4.68316
#
# Compressibility (1/GPa) = 0.12203779
#
# Stress axis : x y z
#
# Youngs Moduli (GPa) = 11.85972 24.15071 106.55859
#
# Poissons Ratio (x) = -0.07306 0.59728
# Poissons Ratio (y) = -0.03588 0.42159
# Poissons Ratio (z) = 0.06648 0.09555
#
# Static dielectric constant tensor:
#      x y z
#    x 1.547760 0.000000 -0.004750 
#    y 0.000000 1.542210 0.000000 
#    z -0.004750 0.000000 1.623070 
# 
# From -- ./inp_files/143069.got.cif
#   From: 2010.05.17/outbox.cif.g08.bks.cpg/sg12_72_cif.got.tgz:143069.got - 2010.06.03 13:09:07.
