data_PCOD9177466
_publ_section_title
;
Structure prediction by ZEFSAII (Michael W. Deem and Ramdas Pophale) SiO2 
 PCOD9177466
Probable space group: C 2/M
;
_chemical_formula_sum "Si O2"
_cell_formula_units_Z 44
_cell_length_a 27.312178
_cell_length_b 13.650086
_cell_length_c 6.221649
_cell_angle_alpha 90.000000
_cell_angle_beta 82.943694
_cell_angle_gamma 90.000000
_cell_volume 2301.947007
_symmetry_space_group_name_H-M "C 2/M"
_symmetry_group_IT_number 12
_symmetry_cell_setting 'monoclinic'
loop_
_space_group_symop_operation_xyz
x,y,z
-x,y,-z
-x,-y,-z
x,-y,z
1/2+x,1/2+y,z
1/2-x,1/2+y,-z
1/2-x,1/2-y,-z
1/2+x,1/2-y,z
loop_
_atom_site_type_symbol
_atom_site_label
_atom_site_fract_x
_atom_site_fract_y
_atom_site_fract_z
Si Si1 0.000000 0.759976 0.500000
Si Si2 0.844440 0.177335 0.499391
Si Si3 0.415510 0.243253 0.832612
Si Si4 0.822249 0.704384 0.122164
Si Si5 0.435760 0.387848 0.202259
Si Si6 0.277793 0.391349 0.894713
O O1 0.038035 0.701674 0.325549
O O2 0.031345 0.829481 0.642687
O O3 0.880464 0.211290 0.669957
O O4 0.826157 0.269977 0.371256
O O5 0.879601 0.116613 0.321643
O O6 0.800449 0.123001 0.643893
O O7 0.376744 0.182562 0.998895
O O8 0.435597 0.328107 0.979980
O O9 0.780676 0.626310 0.087580
O O10 0.801576 0.805874 0.027196
O O11 0.451052 0.500000 0.171254
O O12 0.289909 0.500000 0.966228
#
# Coordination Sequence:
#
# PCOD9177466 Si02
#       6
#     4   8   8   8   8   8
#     4  10  19  30  44  62  87 124 164 194 229 276
#     4   9  18  31  46  64  92 127 158 189 229 275
#     4   9  19  31  44  62  88 122 158 193 231 273
#     4   9  19  34  48  68  99 126 156 199 237 276
#     4  10  19  29  42  64  94 124 156 193 229 272
#     4  10  19  31  50  73  95 125 161 194 234 282
#
# _framework density 19.114253999999999
#
# number of rings (size 3 to 8) (size 9 to 14) (size 15 to 20)
#    0.000    2.545    0.000    1.909    0.000   11.636 
#    0.000    0.000    0.000    0.000    0.000    0.636 
#    0.000   18.909    0.000    5.818    0.000    0.727 
#
# Total GULP energy -122514.985948 kJ/mol
# GULP energy per Si atom -5568.862998 kJ/mol
# Density = 1.907075 g / cm^3
# Si number density = 19.114254 Si / 1000 Ang^3
#
#
#
# Elastic Constant Matrix: (Units=GPa)
#
#
# Indices 1 2 3 4 5 6 
#
# 1 87.7961 3.6051 19.4684 0.0000 -15.3822 0.0000
# 2 3.6051 13.5241 5.7061 0.0000 -6.3391 0.0000
# 3 19.4684 5.7061 83.4080 0.0000 8.1526 0.0000
# 4 0.0000 0.0000 0.0000 3.5343 0.0000 4.6800
# 5 -15.3822 -6.3391 8.1526 0.0000 39.9938 0.0000
# 6 0.0000 0.0000 0.0000 4.6800 0.0000 9.5173
#
#
#
# Elastic Compliance Matrix: (Units=1/GPa)
#
#
# Indices 1 2 3 4 5 6 
#
# 1 0.013231 0.000853 -0.003732 0.000000 0.005985 0.000000
# 2 0.000853 0.083946 -0.007422 0.000000 0.015147 0.000000
# 3 -0.003732 -0.007422 0.013900 0.000000 -0.005445 0.000000
# 4 0.000000 0.000000 0.000000 0.811045 0.000000 -0.398824
# 5 0.005985 0.015147 -0.005445 0.000000 0.030816 0.000000
# 6 0.000000 0.000000 0.000000 -0.398824 0.000000 0.301190
#
#
# Mechanical properties :
#
#
# Convention : Reuss Voigt Hill
#
# Bulk Modulus (GPa) = 11.05278 26.92081 18.98680
# Shear Modulus (GPa) = 3.83174 21.00564 12.41869
#
# Velocity S-wave (km/s) = 1.41739 3.31864 2.55170
# Velocity P-wave (km/s) = 2.91096 5.36649 4.31700
#
# Compressibility (1/GPa) = 0.09047496
#
# Stress axis : x y z
#
# Youngs Moduli (GPa) = 75.58003 11.91236 71.94113
#
# Poissons Ratio (x) = -0.01016 0.26845
# Poissons Ratio (y) = -0.06444 0.53397
# Poissons Ratio (z) = 0.28203 0.08842
#
# Static dielectric constant tensor:
#      x y z
#    x 1.736380 0.000000 -0.047210 
#    y 0.000000 1.614230 0.000000 
#    z -0.047210 0.000000 1.699950 
# 
# From -- ./inp_files/27947.got.cif
#   From: 2010.05.17/outbox.cif.g08.bks.cpg/sg12_14_cif.got.tgz:27947.got - 2010.06.03 13:09:07.
