data_PCOD9177385
_publ_section_title
;
Structure prediction by ZEFSAII (Michael W. Deem and Ramdas Pophale) SiO2 
 PCOD9177385
Probable space group: C 2/M
;
_chemical_formula_sum "Si O2"
_cell_formula_units_Z 60
_cell_length_a 5.295734
_cell_length_b 26.989710
_cell_length_c 25.433995
_cell_angle_alpha 90.000000
_cell_angle_beta 104.673100
_cell_angle_gamma 90.000000
_cell_volume 3516.730697
_symmetry_space_group_name_H-M "C 2/M"
_symmetry_group_IT_number 12
_symmetry_cell_setting 'monoclinic'
loop_
_space_group_symop_operation_xyz
x,y,z
-x,y,-z
-x,-y,-z
x,-y,z
1/2+x,1/2+y,z
1/2-x,1/2+y,-z
1/2-x,1/2-y,-z
1/2+x,1/2-y,z
loop_
_atom_site_type_symbol
_atom_site_label
_atom_site_fract_x
_atom_site_fract_y
_atom_site_fract_z
Si Si1 0.339910 0.228554 0.560993
Si Si2 0.402378 0.557025 0.297333
Si Si3 0.213462 0.782410 0.115550
Si Si4 0.902459 0.384823 0.297856
Si Si5 0.704026 0.216507 0.763596
Si Si6 0.500000 0.715557 0.000000
Si Si7 0.938599 0.386326 0.571049
Si Si8 0.563635 0.443398 0.429908
O O1 0.250000 0.250000 0.500000
O O2 0.613093 0.254740 0.588457
O O3 0.368001 0.170192 0.555396
O O4 0.371878 0.500000 0.279567
O O5 0.634711 0.584644 0.279645
O O6 0.484384 0.556121 0.363643
O O7 0.135820 0.587647 0.280058
O O8 0.499083 0.761439 0.114684
O O9 0.240338 0.805286 0.174754
O O10 0.089629 0.810746 0.058834
O O11 0.865881 0.328828 0.277488
O O12 0.980813 0.385552 0.363305
O O13 0.459990 0.253957 0.757617
O O14 0.250000 0.750000 0.000000
O O15 0.689290 0.422073 0.554224
O O16 0.188584 0.407309 0.553751
O O17 0.626080 0.500000 0.447604
#
# Coordination Sequence:
#
# PCOD9177385 Si02
#       8
#     8   8   8   8   8   4   8   8
#     4  10  21  36  52  71  90 118 152 183 215 241
#     4   9  17  30  46  64  88 115 145 181 219 256
#     4   8  14  23  35  50  71 103 142 177 212 247
#     4  10  19  29  44  66  90 119 147 175 213 254
#     4  10  19  29  39  56  87 124 151 174 207 253
#     4   8  12  20  34  50  66  92 137 184 213 244
#     4  10  19  31  49  72  94 116 148 180 209 255
#     4   9  17  30  49  74  98 116 137 173 220 264
#
# _framework density 17.061302000000001
#
# number of rings (size 3 to 8) (size 9 to 14) (size 15 to 20)
#    0.000    2.667    0.000    2.400    0.000    4.267 
#    0.000    0.000    0.000    0.000    0.000   37.333 
#    0.000    0.000    0.000    3.600    0.000    1.333 
#
# Total GULP energy -167275.693090 kJ/mol
# GULP energy per Si atom -5575.856436 kJ/mol
# Density = 1.702247 g / cm^3
# Si number density = 17.061302 Si / 1000 Ang^3
#
#
#
# Elastic Constant Matrix: (Units=GPa)
#
#
# Indices 1 2 3 4 5 6 
#
# 1 138.3157 46.5026 11.2598 0.0000 3.4403 0.0000
# 2 46.5026 98.6490 5.8702 0.0000 4.7872 0.0000
# 3 11.2598 5.8702 41.8453 0.0000 4.3206 0.0000
# 4 0.0000 0.0000 0.0000 -0.6593 0.0000 -0.7518
# 5 3.4403 4.7872 4.3206 0.0000 10.4184 0.0000
# 6 0.0000 0.0000 0.0000 -0.7518 0.0000 26.4407
#
#
#
# Elastic Compliance Matrix: (Units=1/GPa)
#
#
# Indices 1 2 3 4 5 6 
#
# 1 0.008723 -0.003992 -0.001754 0.000000 -0.000319 0.000000
# 2 -0.003992 0.012236 -0.000207 0.000000 -0.004218 0.000000
# 3 -0.001754 -0.000207 0.025417 0.000000 -0.009867 0.000000
# 4 0.000000 0.000000 0.000000 -1.469060 0.000000 -0.041771
# 5 -0.000319 -0.004218 -0.009867 0.000000 0.102119 0.000000
# 6 0.000000 0.000000 0.000000 -0.041771 0.000000 0.036633
#
#
# Mechanical properties :
#
#
# Convention : Reuss Voigt Hill
#
# Bulk Modulus (GPa) = 29.01085 45.11946 37.06515
# Shear Modulus (GPa) = -3.96657 21.58510 8.80927
#
# Velocity S-wave (km/s) = -1.52641 3.56075 2.27476
# Velocity P-wave (km/s) = 3.73286 6.58849 5.35455
#
# Compressibility (1/GPa) = 0.03446986
#
# Stress axis : x y z
#
# Youngs Moduli (GPa) = 114.64339 81.72762 39.34329
#
# Poissons Ratio (x) = 0.32626 0.06902
# Poissons Ratio (y) = 0.45766 0.00813
# Poissons Ratio (z) = 0.20111 0.01690
#
# Static dielectric constant tensor:
#      x y z
#    x 1.662370 0.000000 -0.009920 
#    y 0.000000 1.537490 0.000000 
#    z -0.009920 0.000000 1.638200 
# 
# From -- ./inp_files/371653.got.cif
#   From: 2010.05.17/outbox.cif.g08.bks.cpg/sg12_186_cif.got.tgz:371653.got - 2010.06.03 13:09:07.
