data_PCOD9177920
_publ_section_title
;
Structure prediction by ZEFSAII (Michael W. Deem and Ramdas Pophale) SiO2 
 PCOD9177920
Probable space group: C 2/M
;
_chemical_formula_sum "Si O2"
_cell_formula_units_Z 64
_cell_length_a 24.171577
_cell_length_b 7.277772
_cell_length_c 15.541072
_cell_angle_alpha 90.000000
_cell_angle_beta 62.462944
_cell_angle_gamma 90.000000
_cell_volume 2424.191899
_symmetry_space_group_name_H-M "C 2/M"
_symmetry_group_IT_number 12
_symmetry_cell_setting 'monoclinic'
loop_
_space_group_symop_operation_xyz
x,y,z
-x,y,-z
-x,-y,-z
x,-y,z
1/2+x,1/2+y,z
1/2-x,1/2+y,-z
1/2-x,1/2-y,-z
1/2+x,1/2-y,z
loop_
_atom_site_type_symbol
_atom_site_label
_atom_site_fract_x
_atom_site_fract_y
_atom_site_fract_z
Si Si1 0.720401 0.774860 0.684077
Si Si2 0.073475 0.794589 0.223355
Si Si3 0.969304 0.775295 0.183925
Si Si4 0.638163 0.209150 0.597111
Si Si5 0.825004 0.795909 0.722836
Si Si6 0.612796 0.708790 0.903599
Si Si7 0.031250 0.275884 0.567249
Si Si8 0.720365 0.718619 0.929146
O O1 0.696319 0.710947 0.608047
O O2 0.789244 0.715269 0.665798
O O3 0.668135 0.710035 0.790592
O O4 0.720125 0.000000 0.685333
O O5 0.124093 0.704315 0.250803
O O6 0.038232 0.716916 0.165018
O O7 0.014479 0.803974 0.328887
O O8 0.097786 0.000000 0.183921
O O9 0.917021 0.710224 0.290110
O O10 0.945069 0.713022 0.108130
O O11 0.968524 0.000000 0.185902
O O12 0.601181 0.286104 0.541339
O O13 0.654406 0.000000 0.565214
O O14 0.766715 0.809650 0.828924
O O15 0.849357 0.000000 0.683836
O O16 0.594817 0.500000 0.938650
O O17 0.650421 0.784793 0.958381
O O18 0.030793 0.500000 0.572828
O O19 0.000000 0.225897 0.500000
O O20 0.720569 0.500000 0.913710
O O21 0.750000 0.750000 0.000000
#
# Coordination Sequence:
#
# PCOD9177920 Si02
#       8
#     8   8   8   8   8   8   8   8
#     4   8  13  22  38  58  79 103 132 168 206 242
#     4   9  17  28  44  65  87 111 138 170 209 251
#     4   8  13  23  39  59  81 103 130 167 207 242
#     4   8  13  22  37  57  78 102 135 171 206 242
#     4   9  17  29  44  64  88 111 137 170 208 250
#     4   8  14  24  39  59  81 103 131 168 205 240
#     4   9  17  28  42  61  85 112 142 176 211 247
#     4  10  19  30  45  65  87 112 140 170 206 246
#
# _framework density 26.400549999999999
#
# number of rings (size 3 to 8) (size 9 to 14) (size 15 to 20)
#    0.000    3.375    0.000    0.375    0.000    1.250 
#    0.000    0.000    0.000    1.500    0.000    5.250 
#    0.000    0.000    0.000    0.000    0.000    0.000 
#
# Total GULP energy -178333.505809 kJ/mol
# GULP energy per Si atom -5572.922057 kJ/mol
# Density = 2.634046 g / cm^3
# Si number density = 26.400550 Si / 1000 Ang^3
#
#
#
# Elastic Constant Matrix: (Units=GPa)
#
#
# Indices 1 2 3 4 5 6 
#
# 1 254.1628 10.7959 64.0960 0.0000 97.0919 0.0001
# 2 10.7959 135.3821 1.0108 0.0000 9.5765 -0.0001
# 3 64.0960 1.0108 66.4306 0.0000 20.3617 0.0000
# 4 0.0000 0.0000 0.0000 44.9020 0.0000 50.8944
# 5 97.0919 9.5765 20.3617 0.0000 80.5071 0.0000
# 6 0.0001 -0.0001 0.0000 50.8944 0.0000 58.6186
#
#
#
# Elastic Compliance Matrix: (Units=1/GPa)
#
#
# Indices 1 2 3 4 5 6 
#
# 1 0.008964 -0.000010 -0.005784 0.000000 -0.009346 0.000000
# 2 -0.000010 0.007451 0.000178 -0.000001 -0.000919 0.000001
# 3 -0.005784 0.000178 0.020054 0.000000 0.001882 0.000000
# 4 0.000000 -0.000001 0.000000 1.400493 0.000000 -1.215948
# 5 -0.009346 -0.000919 0.001882 0.000000 0.023326 0.000000
# 6 0.000000 0.000001 0.000000 -1.215948 0.000000 1.072780
#
#
# Mechanical properties :
#
#
# Convention : Reuss Voigt Hill
#
# Bulk Modulus (GPa) = 39.62415 67.53118 53.57767
# Shear Modulus (GPa) = 1.95870 62.14373 32.05121
#
# Velocity S-wave (km/s) = 0.86228 4.85694 3.48808
# Velocity P-wave (km/s) = 4.00410 7.55567 6.04653
#
# Compressibility (1/GPa) = 0.02523714
#
# Stress axis : x y z
#
# Youngs Moduli (GPa) = 111.55744 134.21020 49.86433
#
# Poissons Ratio (x) = 0.00141 0.28842
# Poissons Ratio (y) = 0.00117 -0.00889
# Poissons Ratio (z) = 0.64525 -0.02394
#
# Static dielectric constant tensor:
#      x y z
#    x 2.178580 0.000000 0.110200 
#    y 0.000000 2.091810 0.000000 
#    z 0.110200 0.000000 2.140710 
# 
# From -- ./inp_files/291564.got.cif
#   From: 2010.05.17/outbox.cif.g08.bks.cpg/sg12_146_cif.got.tgz:291564.got - 2010.06.03 13:09:07.
