data_PCOD9177490
_publ_section_title
;
Structure prediction by ZEFSAII (Michael W. Deem and Ramdas Pophale) SiO2 
 PCOD9177490
Probable space group: C 2/M
;
_chemical_formula_sum "Si O2"
_cell_formula_units_Z 56
_cell_length_a 22.667671
_cell_length_b 9.328266
_cell_length_c 21.378241
_cell_angle_alpha 90.000000
_cell_angle_beta 129.602359
_cell_angle_gamma 90.000000
_cell_volume 3482.932881
_symmetry_space_group_name_H-M "C 2/M"
_symmetry_group_IT_number 12
_symmetry_cell_setting 'monoclinic'
loop_
_space_group_symop_operation_xyz
x,y,z
-x,y,-z
-x,-y,-z
x,-y,z
1/2+x,1/2+y,z
1/2-x,1/2+y,-z
1/2-x,1/2-y,-z
1/2+x,1/2-y,z
loop_
_atom_site_type_symbol
_atom_site_label
_atom_site_fract_x
_atom_site_fract_y
_atom_site_fract_z
Si Si1 0.416582 0.670521 0.913966
Si Si2 0.486105 0.830854 0.716588
Si Si3 0.751848 0.165346 0.599176
Si Si4 0.143919 0.328260 0.882872
Si Si5 0.682813 0.671162 0.033825
Si Si6 0.132599 0.835004 0.442321
Si Si7 0.626611 0.830955 0.240989
O O1 0.410656 0.500000 0.896291
O O2 0.354842 0.708110 0.925602
O O3 0.403024 0.759435 0.842301
O O4 0.500000 0.696107 0.000000
O O5 0.572422 0.786448 0.791486
O O6 0.443735 0.740261 0.634809
O O7 0.436624 0.814252 0.746855
O O8 0.484524 0.000000 0.699364
O O9 0.808801 0.165498 0.577374
O O10 0.675472 0.245307 0.524847
O O11 0.797431 0.250979 0.683123
O O12 0.738112 0.000000 0.606906
O O13 0.139058 0.500000 0.888837
O O14 0.226807 0.295432 0.909200
O O15 0.142468 0.251455 0.949010
O O16 0.673672 0.500000 0.018835
O O17 0.120545 0.000000 0.452093
O O18 0.640417 0.000000 0.242532
#
# Coordination Sequence:
#
# PCOD9177490 Si02
#       7
#     8   8   8   8   8   8   8
#     4  10  20  32  45  63  89 119 149 181 218 261
#     4   9  17  28  42  63  90 117 145 179 220 262
#     4   9  16  27  42  60  87 120 148 176 214 259
#     4   9  17  30  47  65  86 113 146 184 222 260
#     4   9  18  31  46  64  86 114 148 184 221 260
#     4   9  16  25  40  63  89 116 146 179 214 256
#     4  10  19  29  43  64  89 117 149 182 216 258
#
# _framework density 16.078403999999999
#
# number of rings (size 3 to 8) (size 9 to 14) (size 15 to 20)
#    0.000    2.714    0.000    2.143    0.000    5.429 
#    0.000    0.000    0.000    0.000    0.000    1.000 
#    0.000    8.000    0.000    0.000    0.000    0.000 
#
# Total GULP energy -156079.306259 kJ/mol
# GULP energy per Si atom -5574.260938 kJ/mol
# Density = 1.604181 g / cm^3
# Si number density = 16.078404 Si / 1000 Ang^3
#
#
#
# Elastic Constant Matrix: (Units=GPa)
#
#
# Indices 1 2 3 4 5 6 
#
# 1 25.7772 26.7664 26.1900 0.0000 5.4435 0.0000
# 2 26.7664 86.4632 74.2691 0.0000 7.1648 0.0000
# 3 26.1900 74.2691 128.4937 0.0000 21.1515 0.0000
# 4 0.0000 0.0000 0.0000 35.6593 0.0000 -0.3503
# 5 5.4435 7.1648 21.1515 0.0000 23.1070 0.0000
# 6 0.0000 0.0000 0.0000 -0.3503 0.0000 12.4940
#
#
#
# Elastic Compliance Matrix: (Units=1/GPa)
#
#
# Indices 1 2 3 4 5 6 
#
# 1 0.058793 -0.016596 -0.001128 0.000000 -0.007672 0.000000
# 2 -0.016596 0.028364 -0.014373 0.000000 0.008272 0.000000
# 3 -0.001128 -0.014373 0.018300 0.000000 -0.012029 0.000000
# 4 0.000000 0.000000 0.000000 0.028051 0.000000 0.000787
# 5 -0.007672 0.008272 -0.012029 0.000000 0.053530 0.000000
# 6 0.000000 0.000000 0.000000 0.000787 0.000000 0.080061
#
#
# Mechanical properties :
#
#
# Convention : Reuss Voigt Hill
#
# Bulk Modulus (GPa) = 24.23499 55.02056 39.62778
# Shear Modulus (GPa) = 14.49076 21.81932 18.15504
#
# Velocity S-wave (km/s) = 3.00535 3.68782 3.36394
# Velocity P-wave (km/s) = 5.21043 7.24071 6.30779
#
# Compressibility (1/GPa) = 0.04126265
#
# Stress axis : x y z
#
# Youngs Moduli (GPa) = 17.00888 35.25606 54.64378
#
# Poissons Ratio (x) = 0.58510 0.06165
# Poissons Ratio (y) = 0.28227 0.78541
# Poissons Ratio (z) = 0.01919 0.50675
#
# Static dielectric constant tensor:
#      x y z
#    x 1.527130 0.000000 0.016470 
#    y 0.000000 1.536580 0.000000 
#    z 0.016470 0.000000 1.519700 
# 
# From -- ./inp_files/287321.got.cif
#   From: 2010.05.17/outbox.cif.g08.bks.cpg/sg12_144_cif.got.tgz:287321.got - 2010.06.03 13:09:07.
