data_PCOD9177570
_publ_section_title
;
Structure prediction by ZEFSAII (Michael W. Deem and Ramdas Pophale) SiO2 
 PCOD9177570
Probable space group: C 2/M
;
_chemical_formula_sum "Si O2"
_cell_formula_units_Z 64
_cell_length_a 13.541342
_cell_length_b 14.542140
_cell_length_c 24.657272
_cell_angle_alpha 90.000000
_cell_angle_beta 42.752246
_cell_angle_gamma 90.000000
_cell_volume 3296.065101
_symmetry_space_group_name_H-M "C 2/M"
_symmetry_group_IT_number 12
_symmetry_cell_setting 'monoclinic'
loop_
_space_group_symop_operation_xyz
x,y,z
-x,y,-z
-x,-y,-z
x,-y,z
1/2+x,1/2+y,z
1/2-x,1/2+y,-z
1/2-x,1/2-y,-z
1/2+x,1/2-y,z
loop_
_atom_site_type_symbol
_atom_site_label
_atom_site_fract_x
_atom_site_fract_y
_atom_site_fract_z
Si Si1 0.160594 0.890599 0.811736
Si Si2 0.091763 0.772873 0.040227
Si Si3 0.757561 0.392905 0.892891
Si Si4 0.053829 0.782081 0.538168
Si Si5 0.530570 0.892313 0.862330
Si Si6 0.569150 0.894249 0.364046
Si Si7 0.696676 0.105394 0.602387
Si Si8 0.199763 0.891118 0.317918
O O1 0.249170 0.876171 0.832253
O O2 0.268196 0.865047 0.718957
O O3 0.011139 0.835251 0.879737
O O4 0.131980 0.000000 0.818851
O O5 0.010915 0.675094 0.072146
O O6 0.250000 0.750000 0.000000
O O7 0.137192 0.829310 0.969248
O O8 0.719352 0.500000 0.917241
O O9 0.911457 0.379118 0.861694
O O10 0.215996 0.821771 0.469861
O O11 0.000000 0.810160 0.500000
O O12 0.011707 0.676238 0.563746
O O13 0.950528 0.836133 0.621622
O O14 0.687567 0.867880 0.774735
O O15 0.527297 0.000000 0.877709
O O16 0.468811 0.893469 0.350542
O O17 0.572445 0.000000 0.382104
O O18 0.720585 0.125681 0.656133
O O19 0.751295 0.000000 0.571142
O O20 0.170685 0.000000 0.327245
#
# Coordination Sequence:
#
# PCOD9177570 Si02
#       8
#     8   8   8   8   8   8   8   8
#     4  10  19  32  51  72  92 116 151 196 239 274
#     4  10  19  29  44  68  95 119 144 178 225 280
#     4   9  17  30  49  71  92 115 147 191 238 274
#     4  10  19  30  46  68  96 127 156 187 228 276
#     4   9  17  29  45  67  95 124 152 183 224 274
#     4  10  20  32  47  68  94 124 156 190 228 273
#     4   9  17  30  48  70  93 118 154 198 238 270
#     4   9  16  28  47  69  92 118 151 193 235 271
#
# _framework density 19.417093000000001
#
# number of rings (size 3 to 8) (size 9 to 14) (size 15 to 20)
#    0.000    2.500    0.000    3.000    0.000    6.250 
#    0.000    0.000    0.000    1.500    0.000    0.000 
#    0.000   12.000    0.000    0.000    0.000    0.000 
#
# Total GULP energy -178248.245463 kJ/mol
# GULP energy per Si atom -5570.257671 kJ/mol
# Density = 1.937290 g / cm^3
# Si number density = 19.417093 Si / 1000 Ang^3
#
#
#
# Elastic Constant Matrix: (Units=GPa)
#
#
# Indices 1 2 3 4 5 6 
#
# 1 15.6762 -8.8975 -0.7033 0.0000 -10.2519 0.0000
# 2 -8.8975 66.0186 55.1189 0.0000 -9.6571 0.0000
# 3 -0.7033 55.1189 103.8484 0.0000 -21.4202 0.0000
# 4 0.0000 0.0000 0.0000 34.7478 0.0000 -8.3338
# 5 -10.2519 -9.6571 -21.4202 0.0000 22.8040 0.0000
# 6 0.0000 0.0000 0.0000 -8.3338 0.0000 9.8688
#
#
#
# Elastic Compliance Matrix: (Units=1/GPa)
#
#
# Indices 1 2 3 4 5 6 
#
# 1 0.121472 0.025075 0.001200 0.000000 0.066356 0.000000
# 2 0.025075 0.032496 -0.014777 0.000000 0.011154 0.000000
# 3 0.001200 -0.014777 0.020218 0.000000 0.013273 0.000000
# 4 0.000000 0.000000 0.000000 0.036088 0.000000 0.030475
# 5 0.066356 0.011154 0.013273 0.000000 0.090875 0.000000
# 6 0.000000 0.000000 0.000000 0.030475 0.000000 0.127064
#
#
# Mechanical properties :
#
#
# Convention : Reuss Voigt Hill
#
# Bulk Modulus (GPa) = 5.07140 30.73102 17.90121
# Shear Modulus (GPa) = 10.61700 22.81915 16.71808
#
# Velocity S-wave (km/s) = 2.34088 3.43185 2.93746
# Velocity P-wave (km/s) = 3.15021 5.61824 4.55458
#
# Compressibility (1/GPa) = 0.19718421
#
# Stress axis : x y z
#
# Youngs Moduli (GPa) = 8.23233 30.77337 49.45987
#
# Poissons Ratio (x) = -0.77166 -0.05937
# Poissons Ratio (y) = -0.20643 0.73087
# Poissons Ratio (z) = -0.00988 0.45474
#
# Static dielectric constant tensor:
#      x y z
#    x 1.704100 0.000000 -0.016350 
#    y 0.000000 1.707600 0.000000 
#    z -0.016350 0.000000 1.675990 
# 
# From -- ./inp_files/340122.got.cif
#   From: 2010.05.17/outbox.cif.g08.bks.cpg/sg12_171_cif.got.tgz:340122.got - 2010.06.03 13:09:07.
