data_PCOD9177978
_publ_section_title
;
Structure prediction by ZEFSAII (Michael W. Deem and Ramdas Pophale) SiO2 
 PCOD9177978
Probable space group: C 2/M
;
_chemical_formula_sum "Si O2"
_cell_formula_units_Z 56
_cell_length_a 20.122507
_cell_length_b 7.662245
_cell_length_c 25.504633
_cell_angle_alpha 90.000000
_cell_angle_beta 45.872638
_cell_angle_gamma 90.000000
_cell_volume 2822.649478
_symmetry_space_group_name_H-M "C 2/M"
_symmetry_group_IT_number 12
_symmetry_cell_setting 'monoclinic'
loop_
_space_group_symop_operation_xyz
x,y,z
-x,y,-z
-x,-y,-z
x,-y,z
1/2+x,1/2+y,z
1/2-x,1/2+y,-z
1/2-x,1/2-y,-z
1/2+x,1/2-y,z
loop_
_atom_site_type_symbol
_atom_site_label
_atom_site_fract_x
_atom_site_fract_y
_atom_site_fract_z
Si Si1 0.224192 0.713496 0.709483
Si Si2 0.554632 0.705803 0.306152
Si Si3 0.109285 0.796698 0.108542
Si Si4 0.560413 0.198649 0.729879
Si Si5 0.937645 0.786808 0.582202
Si Si6 0.810059 0.288654 0.041713
Si Si7 0.235574 0.713209 0.820996
O O1 0.220729 0.500000 0.711649
O O2 0.149522 0.780088 0.708990
O O3 0.329483 0.762218 0.638158
O O4 0.203044 0.767899 0.781107
O O5 0.568458 0.500000 0.305114
O O6 0.480583 0.728645 0.301342
O O7 0.529815 0.772255 0.377768
O O8 0.656767 0.771749 0.233574
O O9 0.207317 0.733458 0.078479
O O10 0.022559 0.704809 0.182287
O O11 0.100914 0.000000 0.127410
O O12 0.118558 0.777046 0.040987
O O13 0.584524 0.000000 0.704711
O O14 0.000000 0.723666 0.500000
O O15 0.940820 0.000000 0.579041
O O16 0.812706 0.500000 0.038177
O O17 0.818922 0.231239 0.097051
O O18 0.234172 0.500000 0.822634
#
# Coordination Sequence:
#
# PCOD9177978 Si02
#       7
#     8   8   8   8   8   8   8
#     4   8  16  28  45  69  97 125 156 197 237 276
#     4   9  16  29  50  73  95 122 158 198 236 275
#     4  10  19  30  45  67  95 125 157 199 244 281
#     4  11  20  30  45  69  99 129 159 192 236 287
#     4   8  14  28  53  79  97 119 158 202 234 268
#     4   9  16  28  47  69  89 116 159 206 246 278
#     4   8  13  27  48  67  87 118 162 204 234 267
#
# _framework density 19.839518000000002
#
# number of rings (size 3 to 8) (size 9 to 14) (size 15 to 20)
#    0.000    3.000    1.429    2.571    0.000    0.571 
#    0.000    1.429    0.000   13.286    0.000    0.000 
#    0.000    0.000    0.000    0.000    0.000    0.000 
#
# Total GULP energy -156052.775156 kJ/mol
# GULP energy per Si atom -5573.313398 kJ/mol
# Density = 1.979436 g / cm^3
# Si number density = 19.839518 Si / 1000 Ang^3
#
#
#
# Elastic Constant Matrix: (Units=GPa)
#
#
# Indices 1 2 3 4 5 6 
#
# 1 127.8296 -3.2653 57.4073 0.0001 19.2841 0.0011
# 2 -3.2653 29.2071 -4.2002 -0.0014 0.7955 0.0007
# 3 57.4073 -4.2002 115.0274 0.0009 29.9011 0.0004
# 4 0.0001 -0.0014 0.0009 7.4055 0.0001 2.4739
# 5 19.2841 0.7955 29.9011 0.0001 22.7110 -0.0002
# 6 0.0011 0.0007 0.0004 2.4739 -0.0002 14.7613
#
#
#
# Elastic Compliance Matrix: (Units=1/GPa)
#
#
# Indices 1 2 3 4 5 6 
#
# 1 0.010225 0.000610 -0.004285 0.000001 -0.003062 -0.000001
# 2 0.000610 0.034740 0.002151 0.000007 -0.004567 -0.000003
# 3 -0.004285 0.002151 0.015179 -0.000001 -0.016422 0.000000
# 4 0.000001 0.000007 -0.000001 0.143042 0.000000 -0.023973
# 5 -0.003062 -0.004567 -0.016422 0.000000 0.068413 0.000002
# 6 -0.000001 -0.000003 0.000000 -0.023973 0.000002 0.071762
#
#
# Mechanical properties :
#
#
# Convention : Reuss Voigt Hill
#
# Bulk Modulus (GPa) = 17.51367 41.32753 29.42060
# Shear Modulus (GPa) = 13.68210 23.78372 18.73291
#
# Velocity S-wave (km/s) = 2.62895 3.46613 3.07615
# Velocity P-wave (km/s) = 4.24994 6.07412 5.24199
#
# Compressibility (1/GPa) = 0.05709824
#
# Stress axis : x y z
#
# Youngs Moduli (GPa) = 97.80315 28.78509 65.87863
#
# Poissons Ratio (x) = -0.01757 0.28226
# Poissons Ratio (y) = -0.05969 -0.14172
# Poissons Ratio (z) = 0.41904 -0.06192
#
# Static dielectric constant tensor:
#      x y z
#    x 1.715380 0.000000 0.022480 
#    y 0.000000 1.765740 0.000000 
#    z 0.022480 0.000000 1.685220 
# 
# From -- ./inp_files/342342.got.cif
#   From: 2010.05.17/outbox.cif.g08.bks.cpg/sg12_172_cif.got.tgz:342342.got - 2010.06.03 13:09:07.
