data_PCOD9177549
_publ_section_title
;
Structure prediction by ZEFSAII (Michael W. Deem and Ramdas Pophale) SiO2 
 PCOD9177549
Probable space group: C 2/M
;
_chemical_formula_sum "Si O2"
_cell_formula_units_Z 56
_cell_length_a 28.233505
_cell_length_b 8.762389
_cell_length_c 16.601812
_cell_angle_alpha 90.000000
_cell_angle_beta 65.214676
_cell_angle_gamma 90.000000
_cell_volume 3728.838766
_symmetry_space_group_name_H-M "C 2/M"
_symmetry_group_IT_number 12
_symmetry_cell_setting 'monoclinic'
loop_
_space_group_symop_operation_xyz
x,y,z
-x,y,-z
-x,-y,-z
x,-y,z
1/2+x,1/2+y,z
1/2-x,1/2+y,-z
1/2-x,1/2-y,-z
1/2+x,1/2-y,z
loop_
_atom_site_type_symbol
_atom_site_label
_atom_site_fract_x
_atom_site_fract_y
_atom_site_fract_z
Si Si1 0.743627 0.817308 0.310088
Si Si2 0.054717 0.684126 0.860837
Si Si3 0.764041 0.182066 0.861427
Si Si4 0.563219 0.185697 0.039701
Si Si5 0.801502 0.816911 0.506067
Si Si6 0.668556 0.183982 0.047736
Si Si7 0.645474 0.683313 0.689508
O O1 0.735786 0.758270 0.225788
O O2 0.701148 0.750330 0.402706
O O3 0.801325 0.769844 0.301358
O O4 0.741507 0.000000 0.314572
O O5 0.056057 0.500000 0.857804
O O6 0.095551 0.747116 0.768076
O O7 0.994554 0.732646 0.891100
O O8 0.069656 0.731596 0.941552
O O9 0.810235 0.240824 0.886098
O O10 0.766540 0.000000 0.851199
O O11 0.710592 0.220111 0.947653
O O12 0.611605 0.235843 0.059386
O O13 0.563720 0.000000 0.039457
O O14 0.750000 0.750000 0.500000
O O15 0.846934 0.775628 0.410209
O O16 0.798128 0.000000 0.511836
O O17 0.668446 0.000000 0.057484
O O18 0.642731 0.500000 0.696171
#
# Coordination Sequence:
#
# PCOD9177549 Si02
#       7
#     8   8   8   8   8   8   8
#     4  10  19  30  44  63  88 117 146 177 214 258
#     4   9  16  27  45  65  85 113 149 180 207 248
#     4  10  19  29  44  66  87 112 147 181 216 257
#     4   8  15  28  44  63  86 114 148 181 210 243
#     4   9  17  29  43  61  87 116 144 176 213 256
#     4   9  17  30  45  61  87 119 147 178 214 252
#     4   9  18  29  41  62  91 116 139 172 214 255
#
# _framework density 15.018081
#
# number of rings (size 3 to 8) (size 9 to 14) (size 15 to 20)
#    0.000    2.857    0.000    3.857    0.000    5.143 
#    0.000    2.857    0.000    0.000    0.000    1.000 
#    0.000    8.000    0.000    0.000    0.000    0.000 
#
# Total GULP energy -155958.272254 kJ/mol
# GULP energy per Si atom -5569.938295 kJ/mol
# Density = 1.498390 g / cm^3
# Si number density = 15.018081 Si / 1000 Ang^3
#
#
#
# Elastic Constant Matrix: (Units=GPa)
#
#
# Indices 1 2 3 4 5 6 
#
# 1 96.7290 25.7520 61.6391 0.0000 -0.5443 0.0000
# 2 25.7520 27.7154 42.1723 0.0000 1.3585 0.0000
# 3 61.6391 42.1723 146.3318 0.0000 -2.3949 0.0000
# 4 0.0000 0.0000 0.0000 27.5857 0.0000 -1.3241
# 5 -0.5443 1.3585 -2.3949 0.0000 23.3409 0.0000
# 6 0.0000 0.0000 0.0000 -1.3241 0.0000 17.7545
#
#
#
# Elastic Compliance Matrix: (Units=1/GPa)
#
#
# Indices 1 2 3 4 5 6 
#
# 1 0.015004 -0.007752 -0.004080 0.000000 0.000382 0.000000
# 2 -0.007752 0.069019 -0.016722 0.000000 -0.005914 0.000000
# 3 -0.004080 -0.016722 0.013409 0.000000 0.002254 0.000000
# 4 0.000000 0.000000 0.000000 0.036381 0.000000 0.002713
# 5 0.000382 -0.005914 0.002254 0.000000 0.043428 0.000000
# 6 0.000000 0.000000 0.000000 0.002713 0.000000 0.056526
#
#
# Mechanical properties :
#
#
# Convention : Reuss Voigt Hill
#
# Bulk Modulus (GPa) = 24.79968 58.87809 41.83888
# Shear Modulus (GPa) = 16.43034 23.15041 19.79037
#
# Velocity S-wave (km/s) = 3.31121 3.93046 3.63405
# Velocity P-wave (km/s) = 5.58282 7.73873 6.74744
#
# Compressibility (1/GPa) = 0.04032310
#
# Stress axis : x y z
#
# Youngs Moduli (GPa) = 66.64976 14.48878 74.57954
#
# Poissons Ratio (x) = 0.11232 0.30426
# Poissons Ratio (y) = 0.51666 1.24715
# Poissons Ratio (z) = 0.27191 0.24229
#
# Static dielectric constant tensor:
#      x y z
#    x 1.494530 0.000000 0.001000 
#    y 0.000000 1.506130 0.000000 
#    z 0.001000 0.000000 1.506330 
# 
# From -- ./inp_files/243031.got.cif
#   From: 2010.05.17/outbox.cif.g08.bks.cpg/sg12_122_cif.got.tgz:243031.got - 2010.06.03 13:09:07.
