data_PCOD9177827
_publ_section_title
;
Structure prediction by ZEFSAII (Michael W. Deem and Ramdas Pophale) SiO2 
 PCOD9177827
Probable space group: C 2/M
;
_chemical_formula_sum "Si O2"
_cell_formula_units_Z 56
_cell_length_a 21.686131
_cell_length_b 24.643792
_cell_length_c 12.324569
_cell_angle_alpha 90.000000
_cell_angle_beta 153.615930
_cell_angle_gamma 90.000000
_cell_volume 2926.994080
_symmetry_space_group_name_H-M "C 2/M"
_symmetry_group_IT_number 12
_symmetry_cell_setting 'monoclinic'
loop_
_space_group_symop_operation_xyz
x,y,z
-x,y,-z
-x,-y,-z
x,-y,z
1/2+x,1/2+y,z
1/2-x,1/2+y,-z
1/2-x,1/2-y,-z
1/2+x,1/2-y,z
loop_
_atom_site_type_symbol
_atom_site_label
_atom_site_fract_x
_atom_site_fract_y
_atom_site_fract_z
Si Si1 0.102832 0.843106 0.966468
Si Si2 0.343843 0.807487 0.776161
Si Si3 0.470876 0.438261 0.633935
Si Si4 0.738953 0.684653 0.395046
Si Si5 0.635501 0.846833 0.782251
Si Si6 0.270652 0.438405 0.128237
Si Si7 0.052626 0.719861 0.841419
O O1 0.156690 0.848556 0.174627
O O2 0.236969 0.842091 0.098862
O O3 0.008783 0.892675 0.779714
O O4 0.037658 0.783549 0.843903
O O5 0.331239 0.744098 0.722192
O O6 0.246963 0.834857 0.532477
O O7 0.500000 0.826872 0.000000
O O8 0.338956 0.804508 0.898602
O O9 0.459332 0.500000 0.657564
O O10 0.335324 0.425733 0.347877
O O11 0.599175 0.438270 0.750275
O O12 0.899878 0.693274 0.612563
O O13 0.500000 0.859584 0.500000
O O14 0.608096 0.792992 0.809626
O O15 0.666328 0.894277 0.917374
O O16 0.215488 0.500000 0.043100
#
# Coordination Sequence:
#
# PCOD9177827 Si02
#       7
#     8   8   8   8   8   8   8
#     4  10  19  30  47  69  97 131 157 192 238 280
#     4   8  16  29  47  63  85 124 161 196 224 264
#     4   8  15  30  48  66  87 118 165 204 233 271
#     4   9  16  30  46  66  93 118 160 198 225 270
#     4  11  20  31  43  68 105 130 155 188 234 288
#     4   8  16  31  48  64  87 124 166 201 227 268
#     4  10  19  30  43  66 101 132 157 185 231 286
#
# _framework density 19.132255000000001
#
# number of rings (size 3 to 8) (size 9 to 14) (size 15 to 20)
#    0.000    2.857    1.429    1.286    0.000    2.571 
#    5.143    0.000    0.000    0.000    0.000    1.000 
#    0.000   62.857    0.000    0.857    0.000    0.143 
#
# Total GULP energy -155981.640163 kJ/mol
# GULP energy per Si atom -5570.772863 kJ/mol
# Density = 1.908871 g / cm^3
# Si number density = 19.132255 Si / 1000 Ang^3
#
#
#
# Elastic Constant Matrix: (Units=GPa)
#
#
# Indices 1 2 3 4 5 6 
#
# 1 50.1161 19.8160 38.9098 0.0000 -5.5266 0.0000
# 2 19.8160 71.1455 68.2886 0.0000 -21.6806 0.0000
# 3 38.9098 68.2886 136.3369 0.0000 -40.2908 0.0000
# 4 0.0000 0.0000 0.0000 27.4759 0.0000 -8.4421
# 5 -5.5266 -21.6806 -40.2908 0.0000 33.0306 0.0000
# 6 0.0000 0.0000 0.0000 -8.4421 0.0000 11.7591
#
#
#
# Elastic Compliance Matrix: (Units=1/GPa)
#
#
# Indices 1 2 3 4 5 6 
#
# 1 0.026804 -0.000546 -0.009627 0.000000 -0.007617 0.000000
# 2 -0.000546 0.027160 -0.012832 0.000000 0.002083 0.000000
# 3 -0.009627 -0.012832 0.021179 0.000000 0.015801 0.000000
# 4 0.000000 0.000000 0.000000 0.046696 0.000000 0.033524
# 5 -0.007617 0.002083 0.015801 0.000000 0.049642 0.000000
# 6 0.000000 0.000000 0.000000 0.033524 0.000000 0.109108
#
#
# Mechanical properties :
#
#
# Convention : Reuss Voigt Hill
#
# Bulk Modulus (GPa) = 34.32714 56.84748 45.58731
# Shear Modulus (GPa) = 14.86720 23.15872 19.01296
#
# Velocity S-wave (km/s) = 2.79063 3.48293 3.15582
# Velocity P-wave (km/s) = 5.32583 6.77878 6.09575
#
# Compressibility (1/GPa) = 0.02913147
#
# Stress axis : x y z
#
# Youngs Moduli (GPa) = 37.30767 36.81942 47.21579
#
# Poissons Ratio (x) = 0.02012 0.45455
# Poissons Ratio (y) = 0.02038 0.60589
# Poissons Ratio (z) = 0.35916 0.47248
#
# Static dielectric constant tensor:
#      x y z
#    x 1.701390 0.000000 -0.009350 
#    y 0.000000 1.643010 0.000000 
#    z -0.009350 0.000000 1.703550 
# 
# From -- ./inp_files/178301.got.cif
#   From: 2010.05.17/outbox.cif.g08.bks.cpg/sg12_90_cif.got.tgz:178301.got - 2010.06.03 13:09:07.
