data_PCOD9177051
_publ_section_title
;
Structure prediction by ZEFSAII (Michael W. Deem and Ramdas Pophale) SiO2 
 PCOD9177051
Probable space group: C 2/M
;
_chemical_formula_sum "Si O2"
_cell_formula_units_Z 48
_cell_length_a 13.908951
_cell_length_b 20.405703
_cell_length_c 8.728777
_cell_angle_alpha 90.000000
_cell_angle_beta 72.009276
_cell_angle_gamma 90.000000
_cell_volume 2356.288705
_symmetry_space_group_name_H-M "C 2/M"
_symmetry_group_IT_number 12
_symmetry_cell_setting 'monoclinic'
loop_
_space_group_symop_operation_xyz
x,y,z
-x,y,-z
-x,-y,-z
x,-y,z
1/2+x,1/2+y,z
1/2-x,1/2+y,-z
1/2-x,1/2-y,-z
1/2+x,1/2-y,z
loop_
_atom_site_type_symbol
_atom_site_label
_atom_site_fract_x
_atom_site_fract_y
_atom_site_fract_z
Si Si1 0.590421 0.231177 0.839991
Si Si2 0.116216 0.926163 0.451919
Si Si3 0.743320 0.072805 0.330933
Si Si4 0.152514 0.708694 0.482998
Si Si5 0.108513 0.130589 0.948421
Si Si6 0.815746 0.189604 0.776707
O O1 0.583669 0.205935 0.668723
O O2 0.597240 0.310239 0.831846
O O3 0.699059 0.209553 0.855051
O O4 0.500000 0.213109 0.000000
O O5 0.161616 0.927964 0.598826
O O6 0.182490 0.875313 0.326825
O O7 0.000000 0.904732 0.500000
O O8 0.120827 0.000000 0.386044
O O9 0.677687 0.135499 0.413598
O O10 0.795933 0.087282 0.142805
O O11 0.696454 0.000000 0.360482
O O12 0.250000 0.750000 0.500000
O O13 0.127857 0.753438 0.347476
O O14 0.130181 0.168867 0.094639
O O15 0.000000 0.095508 0.000000
#
# Coordination Sequence:
#
# PCOD9177051 Si02
#       6
#     8   8   8   8   8   8
#     4  10  20  36  58  88 121 150 202 263 301 350
#     4  10  20  34  55  86 121 158 201 242 301 377
#     4  11  21  36  57  83 122 166 198 245 308 364
#     4  10  18  37  61  82 113 157 207 256 296 358
#     4  11  22  35  55  89 127 155 197 250 307 373
#     4  11  20  36  63  82 125 163 201 248 305 359
#
# _framework density 20.371017999999999
#
# number of rings (size 3 to 8) (size 9 to 14) (size 15 to 20)
#    0.000    1.500    6.667    1.500    0.000    2.333 
#    0.000    0.000    0.000    2.000    0.000    1.167 
#    0.000    0.667    0.000    0.000    0.000    0.000 
#
# Total GULP energy -133878.972163 kJ/mol
# GULP energy per Si atom -5578.290507 kJ/mol
# Density = 2.032465 g / cm^3
# Si number density = 20.371018 Si / 1000 Ang^3
#
#
#
# Elastic Constant Matrix: (Units=GPa)
#
#
# Indices 1 2 3 4 5 6 
#
# 1 53.7806 7.2183 20.6503 0.0000 -6.7465 0.0000
# 2 7.2183 110.2869 45.1413 0.0000 -4.2205 0.0000
# 3 20.6503 45.1413 119.7622 0.0000 -9.4024 0.0000
# 4 0.0000 0.0000 0.0000 17.1999 0.0000 -6.4906
# 5 -6.7465 -4.2205 -9.4024 0.0000 29.6581 0.0000
# 6 0.0000 0.0000 0.0000 -6.4906 0.0000 8.5265
#
#
#
# Elastic Compliance Matrix: (Units=1/GPa)
#
#
# Indices 1 2 3 4 5 6 
#
# 1 0.020281 0.000149 -0.003271 0.000000 0.003598 0.000000
# 2 0.000149 0.010724 -0.004046 0.000000 0.000277 0.000000
# 3 -0.003271 -0.004046 0.010599 0.000000 0.002040 0.000000
# 4 0.000000 0.000000 0.000000 0.081572 0.000000 0.062094
# 5 0.003598 0.000277 0.002040 0.000000 0.035222 0.000000
# 6 0.000000 0.000000 0.000000 0.062094 0.000000 0.164548
#
#
# Mechanical properties :
#
#
# Convention : Reuss Voigt Hill
#
# Bulk Modulus (GPa) = 36.67184 47.76102 42.21643
# Shear Modulus (GPa) = 14.43535 25.13156 19.78346
#
# Velocity S-wave (km/s) = 2.66488 3.51621 3.11972
# Velocity P-wave (km/s) = 5.24498 6.32309 5.80910
#
# Compressibility (1/GPa) = 0.02726888
#
# Stress axis : x y z
#
# Youngs Moduli (GPa) = 49.30655 93.24673 94.34739
#
# Poissons Ratio (x) = -0.01390 0.30859
# Poissons Ratio (y) = -0.00735 0.38174
# Poissons Ratio (z) = 0.16127 0.37729
#
# Static dielectric constant tensor:
#      x y z
#    x 1.837590 0.000000 0.008640 
#    y 0.000000 1.723390 0.000000 
#    z 0.008640 0.000000 1.819890 
# 
# From -- ./inp_files/63350.got.cif
#   From: 2010.05.17/outbox.cif.g08.bks.cpg/sg12_32_cif.got.tgz:63350.got - 2010.06.03 13:09:07.
