data_PCOD9177924
_publ_section_title
;
Structure prediction by ZEFSAII (Michael W. Deem and Ramdas Pophale) SiO2 
 PCOD9177924
Probable space group: C 2/M
;
_chemical_formula_sum "Si O2"
_cell_formula_units_Z 56
_cell_length_a 32.292289
_cell_length_b 7.494206
_cell_length_c 19.909563
_cell_angle_alpha 90.000000
_cell_angle_beta 142.643298
_cell_angle_gamma 90.000000
_cell_volume 2923.574077
_symmetry_space_group_name_H-M "C 2/M"
_symmetry_group_IT_number 12
_symmetry_cell_setting 'monoclinic'
loop_
_space_group_symop_operation_xyz
x,y,z
-x,y,-z
-x,-y,-z
x,-y,z
1/2+x,1/2+y,z
1/2-x,1/2+y,-z
1/2-x,1/2-y,-z
1/2+x,1/2-y,z
loop_
_atom_site_type_symbol
_atom_site_label
_atom_site_fract_x
_atom_site_fract_y
_atom_site_fract_z
Si Si1 0.558834 0.284184 0.626231
Si Si2 0.705639 0.281484 0.759500
Si Si3 0.781743 0.785797 0.376942
Si Si4 0.700393 0.214167 0.999110
Si Si5 0.687355 0.786782 0.368784
Si Si6 0.593017 0.785075 0.360875
Si Si7 0.050554 0.709928 0.771570
O O1 0.500000 0.222887 0.500000
O O2 0.558571 0.500000 0.625703
O O3 0.632718 0.225683 0.695403
O O4 0.545892 0.226407 0.685372
O O5 0.705767 0.500000 0.758965
O O6 0.713972 0.220184 0.693667
O O7 0.763790 0.222512 0.886422
O O8 0.716506 0.717918 0.335608
O O9 0.850534 0.751376 0.508571
O O10 0.775513 0.000000 0.365623
O O11 0.624098 0.284981 0.888323
O O12 0.695766 0.000000 0.997649
O O13 0.750000 0.250000 0.000000
O O14 0.750000 0.750000 0.500000
O O15 0.622566 0.718640 0.327374
O O16 0.678878 0.000000 0.350914
O O17 0.518588 0.715406 0.284921
O O18 0.589323 0.000000 0.351856
O O19 0.051675 0.500000 0.789763
#
# Coordination Sequence:
#
# PCOD9177924 Si02
#       7
#     8   8   8   8   8   8   8
#     4  10  19  30  45  65  89 116 144 178 221 263
#     4   9  17  29  45  64  87 112 143 186 223 251
#     4   9  16  28  47  69  88 113 148 179 214 263
#     4  10  19  33  49  63  82 115 155 189 220 257
#     4   8  14  25  43  64  88 115 142 173 211 259
#     4   9  17  29  43  65  95 119 139 174 222 263
#     4  10  20  31  45  64  88 118 149 180 218 264
#
# _framework density 19.154637999999998
#
# number of rings (size 3 to 8) (size 9 to 14) (size 15 to 20)
#    0.000    2.714    1.429    0.857    0.000    2.000 
#    0.000    1.429    0.000    0.857    0.000    6.000 
#    0.000    0.000    0.000   23.571    0.000   17.429 
#
# Total GULP energy -156116.324786 kJ/mol
# GULP energy per Si atom -5575.583028 kJ/mol
# Density = 1.911104 g / cm^3
# Si number density = 19.154638 Si / 1000 Ang^3
#
#
#
# Elastic Constant Matrix: (Units=GPa)
#
#
# Indices 1 2 3 4 5 6 
#
# 1 199.0640 5.5986 75.0306 0.0000 30.1069 0.0000
# 2 5.5986 54.3993 3.7961 0.0000 1.4212 0.0000
# 3 75.0306 3.7961 115.6390 0.0000 30.2029 0.0000
# 4 0.0000 0.0000 0.0000 -3.6785 0.0000 1.7401
# 5 30.1069 1.4212 30.2029 0.0000 13.6209 0.0000
# 6 0.0000 0.0000 0.0000 1.7401 0.0000 10.3228
#
#
#
# Elastic Compliance Matrix: (Units=1/GPa)
#
#
# Indices 1 2 3 4 5 6 
#
# 1 0.007633 -0.000330 -0.001293 0.000000 -0.013970 0.000000
# 2 -0.000330 0.018450 -0.000188 0.000000 -0.000777 0.000000
# 3 -0.001293 -0.000188 0.020770 0.000000 -0.043178 0.000000
# 4 0.000000 0.000000 0.000000 -0.251775 0.000000 0.042443
# 5 -0.013970 -0.000777 -0.043178 0.000000 0.200119 0.000000
# 6 0.000000 0.000000 0.000000 0.042443 0.000000 0.089719
#
#
# Mechanical properties :
#
#
# Convention : Reuss Voigt Hill
#
# Bulk Modulus (GPa) = 23.13222 59.77256 41.45239
# Shear Modulus (GPa) = 48.56793 23.03149 35.79971
#
# Velocity S-wave (km/s) = 5.04091 3.47132 4.32786
# Velocity P-wave (km/s) = 6.78113 6.88039 6.83094
#
# Compressibility (1/GPa) = 0.04322974
#
# Stress axis : x y z
#
# Youngs Moduli (GPa) = 131.00980 54.20044 48.14643
#
# Poissons Ratio (x) = 0.01791 0.06225
# Poissons Ratio (y) = 0.04328 0.00907
# Poissons Ratio (z) = 0.16939 0.01021
#
# Static dielectric constant tensor:
#      x y z
#    x 1.692870 0.000000 0.015710 
#    y 0.000000 1.745780 0.000000 
#    z 0.015710 0.000000 1.636200 
# 
# From -- ./inp_files/287400.got.cif
#   From: 2010.05.17/outbox.cif.g08.bks.cpg/sg12_144_cif.got.tgz:287400.got - 2010.06.03 13:09:07.
