data_PCOD9177303
_publ_section_title
;
Structure prediction by ZEFSAII (Michael W. Deem and Ramdas Pophale) SiO2 
 PCOD9177303
Probable space group: C 2/M
;
_chemical_formula_sum "Si O2"
_cell_formula_units_Z 56
_cell_length_a 14.508209
_cell_length_b 9.695993
_cell_length_c 20.010578
_cell_angle_alpha 90.000000
_cell_angle_beta 107.599630
_cell_angle_gamma 90.000000
_cell_volume 2683.158951
_symmetry_space_group_name_H-M "C 2/M"
_symmetry_group_IT_number 12
_symmetry_cell_setting 'monoclinic'
loop_
_space_group_symop_operation_xyz
x,y,z
-x,y,-z
-x,-y,-z
x,-y,z
1/2+x,1/2+y,z
1/2-x,1/2+y,-z
1/2-x,1/2-y,-z
1/2+x,1/2-y,z
loop_
_atom_site_type_symbol
_atom_site_label
_atom_site_fract_x
_atom_site_fract_y
_atom_site_fract_z
Si Si1 0.210178 0.655570 0.701986
Si Si2 0.529395 0.656455 0.844052
Si Si3 0.894608 0.168381 0.003549
Si Si4 0.494365 0.845825 0.709704
Si Si5 0.571628 0.658770 0.417324
Si Si6 0.149695 0.841505 0.574253
Si Si7 0.312564 0.342862 0.854452
O O1 0.250434 0.500000 0.701464
O O2 0.097530 0.642622 0.695531
O O3 0.212312 0.744833 0.635635
O O4 0.258550 0.721406 0.778987
O O5 0.554126 0.500000 0.827369
O O6 0.516863 0.760453 0.781057
O O7 0.424207 0.647767 0.855939
O O8 0.603897 0.704208 0.917992
O O9 0.818598 0.217195 0.930805
O O10 0.892305 0.000000 0.001012
O O11 0.000000 0.212877 0.000000
O O12 0.427239 0.758437 0.645533
O O13 0.458087 0.000000 0.715395
O O14 0.594510 0.500000 0.405081
O O15 0.460363 0.657971 0.420235
O O16 0.636861 0.703104 0.494527
O O17 0.183249 0.000000 0.582997
O O18 0.272927 0.500000 0.851081
#
# Coordination Sequence:
#
# PCOD9177303 Si02
#       7
#     8   8   8   8   8   8   8
#     4   9  17  28  43  64  90 117 140 168 212 261
#     4   9  16  28  48  67  82 108 147 185 213 242
#     4   7  11  22  43  67  82  99 140 189 215 233
#     4  10  19  28  40  63  94 119 137 167 214 262
#     4   8  14  26  43  61  82 111 146 178 207 243
#     4   8  14  25  42  63  85 109 140 179 214 244
#     4   8  14  27  47  67  84 107 145 184 212 245
#
# _framework density 20.870920999999999
#
# number of rings (size 3 to 8) (size 9 to 14) (size 15 to 20)
#    0.000    3.571    0.000    3.000    0.000    1.143 
#    0.000    4.286    0.000    5.571    0.000    0.000 
#    0.000    0.000    0.000    0.000    0.000    0.000 
#
# Total GULP energy -155910.937497 kJ/mol
# GULP energy per Si atom -5568.247768 kJ/mol
# Density = 2.082342 g / cm^3
# Si number density = 20.870921 Si / 1000 Ang^3
#
#
#
# Elastic Constant Matrix: (Units=GPa)
#
#
# Indices 1 2 3 4 5 6 
#
# 1 44.9312 3.4048 2.8489 0.0000 9.1499 0.0000
# 2 3.4048 83.7149 109.3769 0.0000 -4.9445 0.0000
# 3 2.8489 109.3769 261.1470 0.0000 14.6870 0.0000
# 4 0.0000 0.0000 0.0000 17.5318 0.0000 0.9992
# 5 9.1499 -4.9445 14.6870 0.0000 22.6812 0.0000
# 6 0.0000 0.0000 0.0000 0.9992 0.0000 2.8305
#
#
#
# Elastic Compliance Matrix: (Units=1/GPa)
#
#
# Indices 1 2 3 4 5 6 
#
# 1 0.025138 -0.005278 0.002669 0.000000 -0.013020 0.000000
# 2 -0.005278 0.032096 -0.014424 0.000000 0.018466 0.000000
# 3 0.002669 -0.014424 0.010460 0.000000 -0.010994 0.000000
# 4 0.000000 0.000000 0.000000 0.058210 0.000000 -0.020549
# 5 -0.013020 0.018466 -0.010994 0.000000 0.060486 0.000000
# 6 0.000000 0.000000 0.000000 -0.020549 0.000000 0.360547
#
#
# Mechanical properties :
#
#
# Convention : Reuss Voigt Hill
#
# Bulk Modulus (GPa) = 29.73763 69.00602 49.37182
# Shear Modulus (GPa) = 8.44290 26.88621 17.66455
#
# Velocity S-wave (km/s) = 2.01347 3.59306 2.91240
# Velocity P-wave (km/s) = 4.43675 7.09567 5.91748
#
# Compressibility (1/GPa) = 0.03362743
#
# Stress axis : x y z
#
# Youngs Moduli (GPa) = 39.77969 31.15663 95.60598
#
# Poissons Ratio (x) = 0.16445 -0.25514
# Poissons Ratio (y) = 0.20996 1.37900
# Poissons Ratio (z) = -0.10616 0.44940
#
# Static dielectric constant tensor:
#      x y z
#    x 1.810200 0.000000 -0.003850 
#    y 0.000000 1.738380 0.000000 
#    z -0.003850 0.000000 1.799240 
# 
# From -- ./inp_files/323418.got.cif
#   From: 2010.05.17/outbox.cif.g08.bks.cpg/sg12_162_cif.got.tgz:323418.got - 2010.06.03 13:09:07.
