data_PCOD9177782
_publ_section_title
;
Structure prediction by ZEFSAII (Michael W. Deem and Ramdas Pophale) SiO2 
 PCOD9177782
Probable space group: C 2/M
;
_chemical_formula_sum "Si O2"
_cell_formula_units_Z 64
_cell_length_a 20.850815
_cell_length_b 35.009675
_cell_length_c 5.419318
_cell_angle_alpha 90.000000
_cell_angle_beta 104.548154
_cell_angle_gamma 90.000000
_cell_volume 3829.153549
_symmetry_space_group_name_H-M "C 2/M"
_symmetry_group_IT_number 12
_symmetry_cell_setting 'monoclinic'
loop_
_space_group_symop_operation_xyz
x,y,z
-x,y,-z
-x,-y,-z
x,-y,z
1/2+x,1/2+y,z
1/2-x,1/2+y,-z
1/2-x,1/2-y,-z
1/2+x,1/2-y,z
loop_
_atom_site_type_symbol
_atom_site_label
_atom_site_fract_x
_atom_site_fract_y
_atom_site_fract_z
Si Si1 0.424674 0.270177 0.463831
Si Si2 0.322768 0.843710 0.275248
Si Si3 0.347358 0.267186 0.891020
Si Si4 0.580461 0.956123 0.078813
Si Si5 0.717885 0.805548 0.266206
Si Si6 0.823832 0.859275 0.864601
Si Si7 0.920111 0.588191 0.421688
Si Si8 0.138657 0.151873 0.598962
O O1 0.500000 0.257945 0.500000
O O2 0.395401 0.259767 0.703322
O O3 0.418125 0.316442 0.451306
O O4 0.381980 0.257651 0.184522
O O5 0.315642 0.816332 0.506334
O O6 0.253908 0.867838 0.215930
O O7 0.384877 0.871083 0.367747
O O8 0.320053 0.823628 0.005666
O O9 0.285133 0.239672 0.783353
O O10 0.330296 0.312246 0.875863
O O11 0.599873 0.932806 0.342904
O O12 0.603222 0.000000 0.111767
O O13 0.500000 0.956919 0.000000
O O14 0.599529 0.935943 0.840706
O O15 0.791334 0.823758 0.338551
O O16 0.859763 0.871268 0.650989
O O17 0.857562 0.871861 0.148712
O O18 0.000000 0.591741 0.500000
#
# Coordination Sequence:
#
# PCOD9177782 Si02
#       8
#     8   8   8   8   8   8   8   8
#     4  10  19  30  41  56  75  91 113 154 214 259
#     4  10  19  30  43  60  80 103 128 159 201 245
#     4  10  19  31  46  58  71  97 133 173 206 232
#     4   9  17  30  49  68  82 102 136 170 195 228
#     4  10  19  31  45  58  73  98 137 172 198 233
#     4   8  16  27  42  60  74  92 127 166 199 228
#     4  10  19  31  45  62  87 112 131 159 206 253
#     4   8  16  27  42  57  69  89 118 156 196 230
#
# _framework density 16.713877
#
# number of rings (size 3 to 8) (size 9 to 14) (size 15 to 20)
#    0.000    2.625    0.000    2.250    0.000   10.500 
#    0.000    3.750    0.000    0.000    0.000    0.000 
#    0.000    0.000    0.000    0.000    0.000    0.000 
#
# Total GULP energy -178285.936429 kJ/mol
# GULP energy per Si atom -5571.435513 kJ/mol
# Density = 1.667584 g / cm^3
# Si number density = 16.713877 Si / 1000 Ang^3
#
#
#
# Elastic Constant Matrix: (Units=GPa)
#
#
# Indices 1 2 3 4 5 6 
#
# 1 28.4210 9.3680 12.6768 0.0000 -4.2436 0.0000
# 2 9.3680 24.4153 11.5185 0.0000 3.4919 0.0000
# 3 12.6768 11.5185 130.0299 0.0000 -26.7881 0.0000
# 4 0.0000 0.0000 0.0000 15.6645 0.0000 -3.5953
# 5 -4.2436 3.4919 -26.7881 0.0000 22.4984 0.0000
# 6 0.0000 0.0000 0.0000 -3.5953 0.0000 6.3162
#
#
#
# Elastic Compliance Matrix: (Units=1/GPa)
#
#
# Indices 1 2 3 4 5 6 
#
# 1 0.042740 -0.017618 -0.000506 0.000000 0.010193 0.000000
# 2 -0.017618 0.054059 -0.007267 0.000000 -0.020366 0.000000
# 3 -0.000506 -0.007267 0.011390 0.000000 0.014594 0.000000
# 4 0.000000 0.000000 0.000000 0.073433 0.000000 0.041800
# 5 0.010193 -0.020366 0.014594 0.000000 0.066908 0.000000
# 6 0.000000 0.000000 0.000000 0.041800 0.000000 0.182116
#
#
# Mechanical properties :
#
#
# Convention : Reuss Voigt Hill
#
# Bulk Modulus (GPa) = 17.41943 27.77698 22.59821
# Shear Modulus (GPa) = 9.98873 18.84936 14.41904
#
# Velocity S-wave (km/s) = 2.44730 3.36187 2.94036
# Velocity P-wave (km/s) = 4.29307 5.63247 5.00775
#
# Compressibility (1/GPa) = 0.05740715
#
# Stress axis : x y z
#
# Youngs Moduli (GPa) = 23.39719 18.49835 87.79445
#
# Poissons Ratio (x) = 0.32591 0.04444
# Poissons Ratio (y) = 0.41222 0.63798
# Poissons Ratio (z) = 0.01184 0.13442
#
# Static dielectric constant tensor:
#      x y z
#    x 1.578370 0.000000 -0.031150 
#    y 0.000000 1.543140 0.000000 
#    z -0.031150 0.000000 1.652130 
# 
# From -- ./inp_files/22790.got.cif
#   From: 2010.05.17/outbox.cif.g08.bks.cpg/sg12_12_cif.got.tgz:22790.got - 2010.06.03 13:09:07.
