data_PCOD9177425
_publ_section_title
;
Structure prediction by ZEFSAII (Michael W. Deem and Ramdas Pophale) SiO2 
 PCOD9177425
Probable space group: C 2/M
;
_chemical_formula_sum "Si O2"
_cell_formula_units_Z 48
_cell_length_a 19.411314
_cell_length_b 12.595395
_cell_length_c 19.366868
_cell_angle_alpha 90.000000
_cell_angle_beta 32.086609
_cell_angle_gamma 90.000000
_cell_volume 2515.270274
_symmetry_space_group_name_H-M "C 2/M"
_symmetry_group_IT_number 12
_symmetry_cell_setting 'monoclinic'
loop_
_space_group_symop_operation_xyz
x,y,z
-x,y,-z
-x,-y,-z
x,-y,z
1/2+x,1/2+y,z
1/2-x,1/2+y,-z
1/2-x,1/2-y,-z
1/2+x,1/2-y,z
loop_
_atom_site_type_symbol
_atom_site_label
_atom_site_fract_x
_atom_site_fract_y
_atom_site_fract_z
Si Si1 0.143753 0.371990 0.903474
Si Si2 0.238916 0.124800 0.583839
Si Si3 0.718549 0.182609 0.694853
Si Si4 0.475104 0.751826 0.316121
Si Si5 0.568451 0.124151 0.113460
Si Si6 0.488534 0.620714 0.431229
O O1 0.147987 0.500000 0.899057
O O2 0.231616 0.332875 0.765865
O O3 0.154254 0.340456 0.974655
O O4 0.000000 0.339189 0.000000
O O5 0.231439 0.195889 0.659532
O O6 0.369170 0.162206 0.433198
O O7 0.113589 0.163965 0.647214
O O8 0.238360 0.000000 0.595197
O O9 0.580517 0.136980 0.787232
O O10 0.831651 0.122101 0.557833
O O11 0.570821 0.805706 0.180139
O O12 0.538223 0.695616 0.328577
O O13 0.593250 0.000000 0.106235
O O14 0.500000 0.660239 0.500000
O O15 0.537244 0.500000 0.385222
#
# Coordination Sequence:
#
# PCOD9177425 Si02
#       6
#     8   8   8   8   8   8
#     4   8  13  22  39  63  86 104 126 160 202 241
#     4   9  16  25  40  61  82 107 132 160 205 247
#     4   9  16  26  42  62  85 107 131 166 199 236
#     4   9  17  26  40  59  82 105 131 168 201 239
#     4   9  15  24  43  67  86 104 126 162 209 245
#     4  10  19  29  42  59  80 108 138 166 196 232
#
# _framework density 19.083435999999999
#
# number of rings (size 3 to 8) (size 9 to 14) (size 15 to 20)
#    0.000    3.000    0.000    4.500    0.000    0.000 
#    0.000    0.000    0.000   27.000    0.000    0.000 
#    0.000    0.000    0.000    0.000    0.000    0.000 
#
# Total GULP energy -133745.751587 kJ/mol
# GULP energy per Si atom -5572.739649 kJ/mol
# Density = 1.904000 g / cm^3
# Si number density = 19.083436 Si / 1000 Ang^3
#
#
#
# Elastic Constant Matrix: (Units=GPa)
#
#
# Indices 1 2 3 4 5 6 
#
# 1 64.1222 27.4090 29.1989 0.0000 37.6436 0.0000
# 2 27.4090 104.4772 30.5824 0.0000 35.2444 0.0000
# 3 29.1989 30.5824 108.2338 0.0001 41.1815 -0.0001
# 4 0.0000 0.0000 0.0001 15.2675 -0.0001 11.9955
# 5 37.6436 35.2444 41.1815 -0.0001 49.2925 0.0000
# 6 0.0000 0.0000 -0.0001 11.9955 0.0000 19.4069
#
#
#
# Elastic Compliance Matrix: (Units=1/GPa)
#
#
# Indices 1 2 3 4 5 6 
#
# 1 0.028327 -0.000189 0.000866 0.000000 -0.022221 0.000000
# 2 -0.000189 0.012618 -0.000200 0.000000 -0.008711 0.000000
# 3 0.000866 -0.000200 0.013574 0.000000 -0.011859 0.000000
# 4 0.000000 0.000000 0.000000 0.127339 0.000001 -0.078709
# 5 -0.022221 -0.008711 -0.011859 0.000001 0.053393 -0.000001
# 6 0.000000 0.000000 0.000000 -0.078709 -0.000001 0.100178
#
#
# Mechanical properties :
#
#
# Convention : Reuss Voigt Hill
#
# Bulk Modulus (GPa) = 18.02654 50.13487 34.08071
# Shear Modulus (GPa) = 14.16569 29.43625 21.80097
#
# Velocity S-wave (km/s) = 2.72748 3.93173 3.38361
# Velocity P-wave (km/s) = 4.40290 6.85126 5.75870
#
# Compressibility (1/GPa) = 0.05547375
#
# Stress axis : x y z
#
# Youngs Moduli (GPa) = 35.30252 79.25189 73.66832
#
# Poissons Ratio (x) = 0.01496 -0.06383
# Poissons Ratio (y) = 0.00667 0.01475
# Poissons Ratio (z) = -0.03059 0.01586
#
# Static dielectric constant tensor:
#      x y z
#    x 1.732330 0.000000 -0.006970 
#    y 0.000000 1.631540 0.000000 
#    z -0.006970 0.000000 1.716490 
# 
# From -- ./inp_files/174088.got.cif
#   From: 2010.05.17/outbox.cif.g08.bks.cpg/sg12_88_cif.got.tgz:174088.got - 2010.06.03 13:09:07.
