data_PCOD9177331
_publ_section_title
;
Structure prediction by ZEFSAII (Michael W. Deem and Ramdas Pophale) SiO2 
 PCOD9177331
Probable space group: C 2/M
;
_chemical_formula_sum "Si O2"
_cell_formula_units_Z 56
_cell_length_a 28.273339
_cell_length_b 8.782392
_cell_length_c 16.580896
_cell_angle_alpha 90.000000
_cell_angle_beta 115.365515
_cell_angle_gamma 90.000000
_cell_volume 3720.239618
_symmetry_space_group_name_H-M "C 2/M"
_symmetry_group_IT_number 12
_symmetry_cell_setting 'monoclinic'
loop_
_space_group_symop_operation_xyz
x,y,z
-x,y,-z
-x,-y,-z
x,-y,z
1/2+x,1/2+y,z
1/2-x,1/2+y,-z
1/2-x,1/2-y,-z
1/2+x,1/2-y,z
loop_
_atom_site_type_symbol
_atom_site_label
_atom_site_fract_x
_atom_site_fract_y
_atom_site_fract_z
Si Si1 0.555405 0.675239 0.992539
Si Si2 0.186550 0.183921 0.533337
Si Si3 0.486205 0.315761 0.358928
Si Si4 0.897099 0.816798 0.810390
Si Si5 0.193537 0.682155 0.361583
Si Si6 0.917201 0.184600 0.456021
Si Si7 0.998255 0.680294 0.192318
O O1 0.566799 0.500000 0.978678
O O2 0.545180 0.771975 0.905505
O O3 0.500000 0.674952 0.000000
O O4 0.595742 0.729401 0.090501
O O5 0.178964 0.256932 0.439869
O O6 0.245152 0.221589 0.605260
O O7 0.140244 0.234376 0.558946
O O8 0.183823 0.000000 0.522571
O O9 0.485291 0.500000 0.350882
O O10 0.540055 0.273979 0.444663
O O11 0.439824 0.267155 0.385984
O O12 0.484473 0.243044 0.270160
O O13 0.844725 0.756449 0.731197
O O14 0.946951 0.753704 0.797340
O O15 0.899302 0.000000 0.809480
O O16 0.188188 0.500000 0.355647
O O17 0.916958 0.000000 0.453649
O O18 0.004218 0.500000 0.198160
#
# Coordination Sequence:
#
# PCOD9177331 Si02
#       7
#     8   8   8   8   8   8   8
#     4   8  16  30  45  61  82 112 146 175 209 256
#     4   9  17  30  45  62  89 121 150 179 212 254
#     4   9  16  28  46  65  85 113 150 181 208 249
#     4  10  19  31  46  62  85 117 149 179 212 254
#     4  10  19  28  42  66  91 116 147 180 217 257
#     4   8  15  28  46  64  82 113 153 184 207 241
#     4  11  20  28  42  66  93 116 139 172 217 261
#
# _framework density 15.052794
#
# number of rings (size 3 to 8) (size 9 to 14) (size 15 to 20)
#    0.000    2.714    0.000    4.714    0.000    4.857 
#    0.000    2.143    0.000    0.000    0.000    1.000 
#    0.000    0.000    0.000    0.000    0.000    0.000 
#
# Total GULP energy -156016.436933 kJ/mol
# GULP energy per Si atom -5572.015605 kJ/mol
# Density = 1.501853 g / cm^3
# Si number density = 15.052794 Si / 1000 Ang^3
#
#
#
# Elastic Constant Matrix: (Units=GPa)
#
#
# Indices 1 2 3 4 5 6 
#
# 1 93.2013 26.8205 60.1458 0.0000 -5.2920 0.0000
# 2 26.8205 42.4315 45.1254 0.0000 -0.7996 0.0000
# 3 60.1458 45.1254 137.9227 0.0000 0.2685 0.0000
# 4 0.0000 0.0000 0.0000 10.7826 0.0000 4.9965
# 5 -5.2920 -0.7996 0.2685 0.0000 22.7694 0.0000
# 6 0.0000 0.0000 0.0000 4.9965 0.0000 14.6456
#
#
#
# Elastic Compliance Matrix: (Units=1/GPa)
#
#
# Indices 1 2 3 4 5 6 
#
# 1 0.015637 -0.003922 -0.005543 0.000000 0.003562 0.000000
# 2 -0.003922 0.037173 -0.010453 0.000000 0.000517 0.000000
# 3 -0.005543 -0.010453 0.013091 0.000000 -0.001810 0.000000
# 4 0.000000 0.000000 0.000000 0.110156 0.000000 -0.037581
# 5 0.003562 0.000517 -0.001810 0.000000 0.044786 0.000000
# 6 0.000000 0.000000 0.000000 -0.037581 0.000000 0.081101
#
#
# Mechanical properties :
#
#
# Convention : Reuss Voigt Hill
#
# Bulk Modulus (GPa) = 38.36502 59.74877 49.05689
# Shear Modulus (GPa) = 14.26663 19.07045 16.66854
#
# Velocity S-wave (km/s) = 3.08193 3.56322 3.33128
# Velocity P-wave (km/s) = 6.18116 7.53045 6.88892
#
# Compressibility (1/GPa) = 0.02606541
#
# Stress axis : x y z
#
# Youngs Moduli (GPa) = 63.94916 26.90143 76.38839
#
# Poissons Ratio (x) = 0.10552 0.42341
# Poissons Ratio (y) = 0.25083 0.79846
# Poissons Ratio (z) = 0.35446 0.28119
#
# Static dielectric constant tensor:
#      x y z
#    x 1.495660 0.000000 0.009080 
#    y 0.000000 1.502880 0.000000 
#    z 0.009080 0.000000 1.497780 
# 
# From -- ./inp_files/247937.got.cif
#   From: 2010.05.17/outbox.cif.g08.bks.cpg/sg12_124_cif.got.tgz:247937.got - 2010.06.03 13:09:07.
