data_PCOD9177901
_publ_section_title
;
Structure prediction by ZEFSAII (Michael W. Deem and Ramdas Pophale) SiO2 
 PCOD9177901
Probable space group: C 2/M
;
_chemical_formula_sum "Si O2"
_cell_formula_units_Z 40
_cell_length_a 9.453586
_cell_length_b 34.163188
_cell_length_c 7.110392
_cell_angle_alpha 90.000000
_cell_angle_beta 53.122839
_cell_angle_gamma 90.000000
_cell_volume 1836.949447
_symmetry_space_group_name_H-M "C 2/M"
_symmetry_group_IT_number 12
_symmetry_cell_setting 'monoclinic'
loop_
_space_group_symop_operation_xyz
x,y,z
-x,y,-z
-x,-y,-z
x,-y,z
1/2+x,1/2+y,z
1/2-x,1/2+y,-z
1/2-x,1/2-y,-z
1/2+x,1/2-y,z
loop_
_atom_site_type_symbol
_atom_site_label
_atom_site_fract_x
_atom_site_fract_y
_atom_site_fract_z
Si Si1 0.288135 0.704132 0.488732
Si Si2 0.838966 0.000000 0.895151
Si Si3 0.328966 0.293525 0.902408
Si Si4 0.540576 0.939940 0.192731
Si Si5 0.470788 0.149874 0.795060
Si Si6 0.243030 0.000000 0.489776
O O1 0.250000 0.750000 0.500000
O O2 0.464927 0.699845 0.227535
O O3 0.317058 0.699442 0.688246
O O4 0.131474 0.673914 0.574903
O O5 0.804911 0.000000 0.695492
O O6 0.052476 0.000000 0.745591
O O7 0.726395 0.036945 0.063362
O O8 0.250000 0.250000 0.000000
O O9 0.203637 0.324837 0.098007
O O10 0.546063 0.895059 0.248435
O O11 0.374973 0.963229 0.415461
O O12 0.500000 0.940750 0.000000
O O13 0.500000 0.149756 0.000000
#
# Coordination Sequence:
#
# PCOD9177901 Si02
#       6
#     8   4   8   8   8   4
#     4  10  19  30  45  63  83 113 150 184 222 261
#     4   8  13  21  34  51  73 102 135 169 207 253
#     4  10  19  30  45  63  83 113 150 184 222 261
#     4   8  14  23  34  51  75 104 136 172 213 251
#     4   9  17  28  40  57  83 110 144 187 219 256
#     4   8  13  21  34  51  73 102 135 169 207 253
#
# _framework density 21.775233
#
# number of rings (size 3 to 8) (size 9 to 14) (size 15 to 20)
#    0.000    3.000    2.000    1.200    0.000    1.600 
#    0.000    8.000    0.000    0.000    0.000    0.000 
#    0.000    0.000    0.000   14.400    0.000   47.200 
#
# Total GULP energy -111632.367271 kJ/mol
# GULP energy per Si atom -5581.618364 kJ/mol
# Density = 2.172567 g / cm^3
# Si number density = 21.775233 Si / 1000 Ang^3
#
#
#
# Elastic Constant Matrix: (Units=GPa)
#
#
# Indices 1 2 3 4 5 6 
#
# 1 55.7353 40.0739 73.0547 0.0000 -16.9363 0.0000
# 2 40.0739 236.8603 122.6749 0.0000 -63.4089 0.0000
# 3 73.0547 122.6749 227.1914 0.0000 -51.1209 0.0000
# 4 0.0000 0.0000 0.0000 18.3166 0.0000 -4.4630
# 5 -16.9363 -63.4089 -51.1209 0.0000 66.5487 0.0000
# 6 0.0000 0.0000 0.0000 -4.4630 0.0000 15.3415
#
#
#
# Elastic Compliance Matrix: (Units=1/GPa)
#
#
# Indices 1 2 3 4 5 6 
#
# 1 0.031018 -0.000064 -0.009886 0.000000 0.000239 0.000000
# 2 -0.000064 0.006788 -0.002651 0.000000 0.004415 0.000000
# 3 -0.009886 -0.002651 0.009524 0.000000 0.002274 0.000000
# 4 0.000000 0.000000 0.000000 0.058760 0.000000 0.017094
# 5 0.000239 0.004415 0.002274 0.000000 0.021040 0.000000
# 6 0.000000 0.000000 0.000000 0.017094 0.000000 0.070155
#
#
# Mechanical properties :
#
#
# Convention : Reuss Voigt Hill
#
# Bulk Modulus (GPa) = 45.19202 110.15489 77.67345
# Shear Modulus (GPa) = 21.75204 38.97361 30.36282
#
# Velocity S-wave (km/s) = 3.16402 4.23521 3.73818
# Velocity P-wave (km/s) = 5.84354 8.63788 7.37428
#
# Compressibility (1/GPa) = 0.02212780
#
# Stress axis : x y z
#
# Youngs Moduli (GPa) = 32.23896 147.32727 105.00216
#
# Poissons Ratio (x) = 0.00940 1.03804
# Poissons Ratio (y) = 0.00206 0.27838
# Poissons Ratio (z) = 0.31871 0.39060
#
# Static dielectric constant tensor:
#      x y z
#    x 1.974370 0.000000 0.135390 
#    y 0.000000 1.717380 0.000000 
#    z 0.135390 0.000000 1.892830 
# 
# From -- ./inp_files/149995.got.cif
#   From: 2010.05.17/outbox.cif.g08.bks.cpg/sg12_75_cif.got.tgz:149995.got - 2010.06.03 13:09:07.
