data_PCOD9177395
_publ_section_title
;
Structure prediction by ZEFSAII (Michael W. Deem and Ramdas Pophale) SiO2 
 PCOD9177395
Probable space group: C 2/M
;
_chemical_formula_sum "Si O2"
_cell_formula_units_Z 64
_cell_length_a 21.631981
_cell_length_b 11.142723
_cell_length_c 19.546911
_cell_angle_alpha 90.000000
_cell_angle_beta 139.714184
_cell_angle_gamma 90.000000
_cell_volume 3046.506470
_symmetry_space_group_name_H-M "C 2/M"
_symmetry_group_IT_number 12
_symmetry_cell_setting 'monoclinic'
loop_
_space_group_symop_operation_xyz
x,y,z
-x,y,-z
-x,-y,-z
x,-y,z
1/2+x,1/2+y,z
1/2-x,1/2+y,-z
1/2-x,1/2-y,-z
1/2+x,1/2-y,z
loop_
_atom_site_type_symbol
_atom_site_label
_atom_site_fract_x
_atom_site_fract_y
_atom_site_fract_z
Si Si1 0.446049 0.368889 0.528286
Si Si2 0.631054 0.130013 0.857804
Si Si3 0.231272 0.365124 0.295514
Si Si4 0.417480 0.368396 0.041013
Si Si5 0.531440 0.871107 0.606136
Si Si6 0.239900 0.866545 0.209347
Si Si7 0.475643 0.133710 0.833630
Si Si8 0.815350 0.126274 0.102894
O O1 0.500000 0.373350 0.500000
O O2 0.462530 0.500000 0.575049
O O3 0.333455 0.354894 0.418633
O O4 0.485177 0.249422 0.597205
O O5 0.527249 0.136040 0.803563
O O6 0.656126 0.250099 0.838715
O O7 0.647889 0.000000 0.839577
O O8 0.705839 0.131997 0.984953
O O9 0.230610 0.500000 0.262604
O O10 0.219872 0.252912 0.235658
O O11 0.138322 0.359792 0.265142
O O12 0.463774 0.500000 0.067012
O O13 0.482891 0.249972 0.091713
O O14 0.375895 0.373774 0.083270
O O15 0.327656 0.359533 0.914270
O O16 0.500000 0.872677 0.500000
O O17 0.645712 0.866060 0.703117
O O18 0.499496 0.000000 0.608803
O O19 0.218604 0.000000 0.222248
O O20 0.499925 0.000000 0.883421
O O21 0.830509 0.000000 0.152383
#
# Coordination Sequence:
#
# PCOD9177395 Si02
#       8
#     8   8   8   8   8   8   8   8
#     4   9  15  25  41  58  73  92 120 159 201 233
#     4   8  13  23  40  58  74  95 124 158 194 227
#     4  10  19  29  41  57  78 105 133 162 194 227
#     4   9  18  30  41  56  80 107 134 162 190 223
#     4   9  15  25  41  58  73  92 120 159 201 233
#     4  10  19  29  41  57  78 105 133 162 194 227
#     4   9  18  30  41  56  80 107 134 162 190 223
#     4   8  13  23  40  58  74  95 124 158 194 227
#
# _framework density 21.007669
#
# number of rings (size 3 to 8) (size 9 to 14) (size 15 to 20)
#    0.000    3.000    2.500    0.000    0.000    1.500 
#    0.000    2.500    0.000    0.000    0.000    0.000 
#    0.000    1.000    0.000    0.750    0.000    2.000 
#
# Total GULP energy -178223.481149 kJ/mol
# GULP energy per Si atom -5569.483786 kJ/mol
# Density = 2.095986 g / cm^3
# Si number density = 21.007669 Si / 1000 Ang^3
#
#
#
# Elastic Constant Matrix: (Units=GPa)
#
#
# Indices 1 2 3 4 5 6 
#
# 1 32.5815 29.7922 27.6218 0.0000 19.6846 0.0000
# 2 29.7922 227.8902 31.1799 0.0000 17.0832 0.0000
# 3 27.6218 31.1799 88.1533 0.0000 19.2548 0.0000
# 4 0.0000 0.0000 0.0000 19.5627 0.0000 10.4796
# 5 19.6846 17.0832 19.2548 0.0000 33.4572 0.0000
# 6 0.0000 0.0000 0.0000 10.4796 0.0000 10.3791
#
#
#
# Elastic Compliance Matrix: (Units=1/GPa)
#
#
# Indices 1 2 3 4 5 6 
#
# 1 0.060723 -0.004336 -0.011636 0.000000 -0.026816 0.000000
# 2 -0.004336 0.004999 -0.000468 0.000000 0.000268 0.000000
# 3 -0.011636 -0.000468 0.015564 0.000000 -0.001872 0.000000
# 4 0.000000 0.000000 0.000000 0.111337 0.000000 -0.112415
# 5 -0.026816 0.000268 -0.001872 0.000000 0.046607 0.000000
# 6 0.000000 0.000000 0.000000 -0.112415 0.000000 0.209850
#
#
# Mechanical properties :
#
#
# Convention : Reuss Voigt Hill
#
# Bulk Modulus (GPa) = 20.65847 58.42365 39.54106
# Shear Modulus (GPa) = 10.03821 30.01521 20.02671
#
# Velocity S-wave (km/s) = 2.18832 3.78401 3.09091
# Velocity P-wave (km/s) = 4.02990 6.85293 5.62151
#
# Compressibility (1/GPa) = 0.04840629
#
# Stress axis : x y z
#
# Youngs Moduli (GPa) = 16.46817 200.04500 64.24928
#
# Poissons Ratio (x) = 0.86742 0.74760
# Poissons Ratio (y) = 0.07141 0.03007
# Poissons Ratio (z) = 0.19162 0.09362
#
# Static dielectric constant tensor:
#      x y z
#    x 1.736650 0.000000 0.010520 
#    y 0.000000 1.897430 0.000000 
#    z 0.010520 0.000000 1.724930 
# 
# From -- ./inp_files/182112.got.cif
#   From: 2010.05.17/outbox.cif.g08.bks.cpg/sg12_92_cif.got.tgz:182112.got - 2010.06.03 13:09:07.
