data_PCOD9177915
_publ_section_title
;
Structure prediction by ZEFSAII (Michael W. Deem and Ramdas Pophale) SiO2 
 PCOD9177915
Probable space group: C 2/M
;
_chemical_formula_sum "Si O2"
_cell_formula_units_Z 48
_cell_length_a 14.239607
_cell_length_b 9.484433
_cell_length_c 19.989392
_cell_angle_alpha 90.000000
_cell_angle_beta 53.918902
_cell_angle_gamma 90.000000
_cell_volume 2181.822047
_symmetry_space_group_name_H-M "C 2/M"
_symmetry_group_IT_number 12
_symmetry_cell_setting 'monoclinic'
loop_
_space_group_symop_operation_xyz
x,y,z
-x,y,-z
-x,-y,-z
x,-y,z
1/2+x,1/2+y,z
1/2-x,1/2+y,-z
1/2-x,1/2-y,-z
1/2+x,1/2-y,z
loop_
_atom_site_type_symbol
_atom_site_label
_atom_site_fract_x
_atom_site_fract_y
_atom_site_fract_z
Si Si1 0.433548 0.157749 0.769047
Si Si2 0.821739 0.338192 0.249765
Si Si3 0.324983 0.344299 0.919039
Si Si4 0.406520 0.166187 0.411834
Si Si5 0.783943 0.333831 0.591900
Si Si6 0.557349 0.340857 0.907940
O O1 0.556529 0.160031 0.758502
O O2 0.350319 0.268483 0.838738
O O3 0.471400 0.183313 0.676875
O O4 0.386094 0.000000 0.795824
O O5 0.788888 0.500000 0.251615
O O6 0.731097 0.257038 0.335203
O O7 0.851452 0.254361 0.169744
O O8 0.274443 0.500000 0.932609
O O9 0.449692 0.355005 0.902467
O O10 0.250000 0.250000 0.000000
O O11 0.320736 0.276209 0.411606
O O12 0.393908 0.185325 0.496414
O O13 0.372016 0.000000 0.413608
O O14 0.771267 0.500000 0.611996
O O15 0.600853 0.500000 0.904555
O O16 0.500000 0.281955 0.000000
#
# Coordination Sequence:
#
# PCOD9177915 Si02
#       6
#     8   8   8   8   8   8
#     4   8  14  25  38  53  77 107 138 172 208 247
#     4   9  16  25  37  55  80 109 139 171 210 253
#     4  10  19  30  45  64  86 113 143 176 214 254
#     4   8  14  22  32  49  74 104 136 170 208 249
#     4   9  14  20  32  50  74 105 138 169 204 248
#     4   9  18  32  48  65  85 111 145 182 217 253
#
# _framework density 21.999962
#
# number of rings (size 3 to 8) (size 9 to 14) (size 15 to 20)
#    0.000    3.167    0.000    2.500    0.000    5.667 
#    0.000    0.000    0.000    0.000    0.000    0.000 
#    0.000    1.333    0.000   15.333    0.000   17.000 
#
# Total GULP energy -133877.517585 kJ/mol
# GULP energy per Si atom -5578.229899 kJ/mol
# Density = 2.194989 g / cm^3
# Si number density = 21.999962 Si / 1000 Ang^3
#
#
#
# Elastic Constant Matrix: (Units=GPa)
#
#
# Indices 1 2 3 4 5 6 
#
# 1 61.8207 4.8922 -1.0841 0.0000 7.4307 0.0000
# 2 4.8922 158.7587 129.1344 0.0000 5.4909 0.0000
# 3 -1.0841 129.1344 227.7319 0.0000 14.4167 0.0000
# 4 0.0000 0.0000 0.0000 36.0371 0.0000 0.0224
# 5 7.4307 5.4909 14.4167 0.0000 8.8527 0.0000
# 6 0.0000 0.0000 0.0000 0.0224 0.0000 -2.9144
#
#
#
# Elastic Compliance Matrix: (Units=1/GPa)
#
#
# Indices 1 2 3 4 5 6 
#
# 1 0.018529 -0.001761 0.002232 0.000000 -0.018096 0.000000
# 2 -0.001761 0.011984 -0.007166 0.000000 0.005714 0.000000
# 3 0.002232 -0.007166 0.009257 0.000000 -0.012504 0.000000
# 4 0.000000 0.000000 0.000000 0.027749 0.000000 0.000213
# 5 -0.018096 0.005714 -0.012504 0.000000 0.144968 0.000000
# 6 0.000000 0.000000 0.000000 0.000213 0.000000 -0.343125
#
#
# Mechanical properties :
#
#
# Convention : Reuss Voigt Hill
#
# Bulk Modulus (GPa) = 37.90515 79.35514 58.63015
# Shear Modulus (GPa) = -46.10152 29.41968 -8.34092
#
# Velocity S-wave (km/s) = -4.58266 3.66082 -1.94925
# Velocity P-wave (km/s) = 3.27627 7.34968 4.65208
#
# Compressibility (1/GPa) = 0.02638164
#
# Stress axis : x y z
#
# Youngs Moduli (GPa) = 53.96821 83.44475 108.03207
#
# Poissons Ratio (x) = 0.14693 -0.24116
# Poissons Ratio (y) = 0.09503 0.77411
# Poissons Ratio (z) = -0.12047 0.59793
#
# Static dielectric constant tensor:
#      x y z
#    x 2.007160 0.000000 0.003200 
#    y 0.000000 1.781000 0.000000 
#    z 0.003200 0.000000 1.819270 
# 
# From -- ./inp_files/279838.got.cif
#   From: 2010.05.17/outbox.cif.g08.bks.cpg/sg12_140_cif.got.tgz:279838.got - 2010.06.03 13:09:07.
