data_PCOD9177225
_publ_section_title
;
Structure prediction by ZEFSAII (Michael W. Deem and Ramdas Pophale) SiO2 
 PCOD9177225
Probable space group: C 2/M
;
_chemical_formula_sum "Si O2"
_cell_formula_units_Z 42
_cell_length_a 21.648328
_cell_length_b 17.187831
_cell_length_c 17.575343
_cell_angle_alpha 90.000000
_cell_angle_beta 19.132322
_cell_angle_gamma 90.000000
_cell_volume 2143.350312
_symmetry_space_group_name_H-M "C 2/M"
_symmetry_group_IT_number 12
_symmetry_cell_setting 'monoclinic'
loop_
_space_group_symop_operation_xyz
x,y,z
-x,y,-z
-x,-y,-z
x,-y,z
1/2+x,1/2+y,z
1/2-x,1/2+y,-z
1/2-x,1/2-y,-z
1/2+x,1/2-y,z
loop_
_atom_site_type_symbol
_atom_site_label
_atom_site_fract_x
_atom_site_fract_y
_atom_site_fract_z
Si Si1 0.714488 0.627681 0.647423
Si Si2 0.115363 0.169846 0.072411
Si Si3 0.267822 0.000000 0.121957
Si Si4 0.000000 0.000000 0.000000
Si Si5 0.000000 0.128967 0.500000
Si Si6 0.001677 0.756252 0.365499
Si Si7 0.389478 0.500000 0.865765
Si Si8 0.818440 0.500000 0.405720
O O1 0.546973 0.674656 0.801032
O O2 0.621868 0.567596 0.813311
O O3 0.858367 0.686380 0.518331
O O4 0.813577 0.575773 0.466066
O O5 0.038395 0.200154 0.242941
O O6 0.162584 0.078207 0.028096
O O7 0.299611 0.219240 0.839750
O O8 0.169923 0.074476 0.273897
O O9 0.207427 0.000000 0.103258
O O10 0.493150 0.000000 0.862694
O O11 0.937674 0.182727 0.502734
O O12 0.618312 0.500000 0.594500
#
# Coordination Sequence:
#
# PCOD9177225 Si02
#       8
#     8   8   4   2   4   8   4   4
#     4  10  22  42  66  89 127 163 206 263 303 370
#     4  10  22  40  68  90 121 162 218 254 304 374
#     4  11  21  45  63  84 132 167 195 269 298 373
#     4  10  24  44  58 100 132 162 208 254 318 378
#     4  11  26  40  62  95 132 162 206 253 330 362
#     4  11  23  41  60  97 122 164 208 257 316 373
#     4  10  18  40  66  91 115 156 216 258 292 376
#     4   9  21  38  69  91 107 166 221 237 310 370
#
# _framework density 19.595490000000002
#
# number of rings (size 3 to 8) (size 9 to 14) (size 15 to 20)
#    0.000    1.714    1.905    2.286    5.333    0.762 
#    0.000    4.762    0.000    0.000    0.000    0.000 
#    0.000    0.000    0.000    0.000    0.000    0.000 
#
# Total GULP energy -117114.452159 kJ/mol
# GULP energy per Si atom -5576.878674 kJ/mol
# Density = 1.955089 g / cm^3
# Si number density = 19.595490 Si / 1000 Ang^3
#
#
#
# Elastic Constant Matrix: (Units=GPa)
#
#
# Indices 1 2 3 4 5 6 
#
# 1 31.6755 14.8077 17.8718 0.0141 -14.7642 0.0218
# 2 14.8077 73.8126 23.6675 0.0348 -11.0248 -0.0082
# 3 17.8718 23.6675 49.1990 0.0199 -4.7511 -0.0212
# 4 0.0141 0.0348 0.0199 -15.3898 -0.0043 -2.1863
# 5 -14.7642 -11.0248 -4.7511 -0.0043 20.9931 0.0068
# 6 0.0218 -0.0082 -0.0212 -2.1863 0.0068 5.9265
#
#
#
# Elastic Compliance Matrix: (Units=1/GPa)
#
#
# Indices 1 2 3 4 5 6 
#
# 1 0.059182 -0.000667 -0.017576 0.000062 0.037294 -0.000301
# 2 -0.000667 0.017041 -0.007296 0.000026 0.006829 0.000002
# 3 -0.017576 -0.007296 0.029297 -0.000015 -0.009562 0.000165
# 4 0.000062 0.000026 -0.000015 -0.061743 0.000049 -0.022777
# 5 0.037294 0.006829 -0.009562 0.000049 0.075285 -0.000230
# 6 -0.000301 0.000002 0.000165 -0.022777 -0.000230 0.160332
#
#
# Mechanical properties :
#
#
# Convention : Reuss Voigt Hill
#
# Bulk Modulus (GPa) = 18.36821 29.70901 24.03861
# Shear Modulus (GPa) = 14.34231 8.86199 11.60215
#
# Velocity S-wave (km/s) = 2.70833 2.12892 2.43591
# Velocity P-wave (km/s) = 4.37883 4.60837 4.49507
#
# Compressibility (1/GPa) = 0.05444187
#
# Stress axis : x y z
#
# Youngs Moduli (GPa) = 16.89715 58.68195 34.13363
#
# Poissons Ratio (x) = 0.03912 0.59993
# Poissons Ratio (y) = 0.01126 0.24904
# Poissons Ratio (z) = 0.29698 0.42815
#
# Static dielectric constant tensor:
#      x y z
#    x 1.680250 0.000000 -0.001170 
#    y 0.000000 1.682880 0.000000 
#    z -0.001170 0.000000 1.678770 
# 
# From -- ./inp_files/285166.got.cif
#   From: 2010.05.17/outbox.cif.g08.bks.cpg/sg12_143_cif.got.tgz:285166.got - 2010.06.03 13:09:07.
