data_PCOD9177041
_publ_section_title
;
Structure prediction by ZEFSAII (Michael W. Deem and Ramdas Pophale) SiO2 
 PCOD9177041
Probable space group: C 2/M
;
_chemical_formula_sum "Si O2"
_cell_formula_units_Z 56
_cell_length_a 9.395792
_cell_length_b 29.017751
_cell_length_c 16.973724
_cell_angle_alpha 90.000000
_cell_angle_beta 38.995863
_cell_angle_gamma 90.000000
_cell_volume 2912.107192
_symmetry_space_group_name_H-M "C 2/M"
_symmetry_group_IT_number 12
_symmetry_cell_setting 'monoclinic'
loop_
_space_group_symop_operation_xyz
x,y,z
-x,y,-z
-x,-y,-z
x,-y,z
1/2+x,1/2+y,z
1/2-x,1/2+y,-z
1/2-x,1/2-y,-z
1/2+x,1/2-y,z
loop_
_atom_site_type_symbol
_atom_site_label
_atom_site_fract_x
_atom_site_fract_y
_atom_site_fract_z
Si Si1 0.678684 0.817754 0.261947
Si Si2 0.095794 0.400393 0.546967
Si Si3 0.407319 0.626214 0.688608
Si Si4 0.914020 0.628261 0.847174
Si Si5 0.601124 0.620358 0.123743
Si Si6 0.507516 0.272217 0.590358
Si Si7 0.260108 0.446921 0.194208
O O1 0.489053 0.850690 0.383936
O O2 0.638593 0.827623 0.186187
O O3 0.659702 0.766512 0.302742
O O4 0.914492 0.840307 0.186317
O O5 0.366470 0.401618 0.431896
O O6 0.000000 0.403940 0.500000
O O7 0.961898 0.437526 0.656556
O O8 0.356002 0.617495 0.802309
O O9 0.469681 0.679781 0.649884
O O10 0.180862 0.618318 0.735802
O O11 0.783172 0.586216 0.861423
O O12 0.813933 0.631575 0.977438
O O13 0.473128 0.574035 0.149665
O O14 0.500000 0.279804 0.500000
O O15 0.750000 0.250000 0.500000
O O16 0.287106 0.500000 0.163241
#
# Coordination Sequence:
#
# PCOD9177041 Si02
#       7
#     8   8   8   8   8   8   8
#     4  10  19  37  58  85 113 157 209 244 281 330
#     4  10  18  37  60  87 118 152 187 240 296 357
#     4  12  22  37  58  89 124 155 192 241 303 352
#     4  10  23  39  59  86 121 158 194 242 303 347
#     4  10  21  41  62  80 118 162 201 238 285 357
#     4  12  23  34  57  89 121 154 205 247 285 347
#     4  10  22  40  68  91 109 148 200 246 290 358
#
# _framework density 19.230060999999999
#
# number of rings (size 3 to 8) (size 9 to 14) (size 15 to 20)
#    0.000    1.714    4.286    4.286    2.000    1.429 
#    0.000    6.429    0.000    1.714    0.000    0.000 
#    0.000    0.000    0.000    0.000    0.000    0.000 
#
# Total GULP energy -156303.863552 kJ/mol
# GULP energy per Si atom -5582.280841 kJ/mol
# Density = 1.918629 g / cm^3
# Si number density = 19.230061 Si / 1000 Ang^3
#
#
#
# Elastic Constant Matrix: (Units=GPa)
#
#
# Indices 1 2 3 4 5 6 
#
# 1 66.7290 -0.1818 4.2419 0.0000 2.4496 0.0000
# 2 -0.1818 66.7441 4.1026 0.0000 2.9080 0.0000
# 3 4.2419 4.1026 75.8315 0.0000 10.0279 0.0000
# 4 0.0000 0.0000 0.0000 -7.3518 0.0000 7.8125
# 5 2.4496 2.9080 10.0279 0.0000 37.4337 0.0000
# 6 0.0000 0.0000 0.0000 7.8125 0.0000 1.3521
#
#
#
# Elastic Compliance Matrix: (Units=1/GPa)
#
#
# Indices 1 2 3 4 5 6 
#
# 1 0.015063 0.000121 -0.000744 0.000000 -0.000796 0.000000
# 2 0.000121 0.015069 -0.000691 0.000000 -0.000994 0.000000
# 3 -0.000744 -0.000691 0.013739 0.000000 -0.003578 0.000000
# 4 0.000000 0.000000 0.000000 -0.019050 0.000000 0.110074
# 5 -0.000796 -0.000994 -0.003578 0.000000 0.027802 0.000000
# 6 0.000000 0.000000 0.000000 0.110074 0.000000 0.103584
#
#
# Mechanical properties :
#
#
# Convention : Reuss Voigt Hill
#
# Bulk Modulus (GPa) = 24.24566 25.07000 24.65783
# Shear Modulus (GPa) = 28.97197 19.69626 24.33411
#
# Velocity S-wave (km/s) = 3.88570 3.20385 3.56113
# Velocity P-wave (km/s) = 5.72426 5.17218 5.45521
#
# Compressibility (1/GPa) = 0.04124450
#
# Stress axis : x y z
#
# Youngs Moduli (GPa) = 66.38860 66.36288 72.78397
#
# Poissons Ratio (x) = -0.00806 0.05415
# Poissons Ratio (y) = -0.00806 0.05027
# Poissons Ratio (z) = 0.04939 0.04583
#
# Static dielectric constant tensor:
#      x y z
#    x 1.674370 0.000000 0.004350 
#    y 0.000000 1.649660 0.000000 
#    z 0.004350 0.000000 1.705220 
# 
# From -- ./inp_files/260101.got.cif
#   From: 2010.05.17/outbox.cif.g08.bks.cpg/sg12_131_cif.got.tgz:260101.got - 2010.06.03 13:09:07.
