data_PCOD9177333
_publ_section_title
;
Structure prediction by ZEFSAII (Michael W. Deem and Ramdas Pophale) SiO2 
 PCOD9177333
Probable space group: C 2/M
;
_chemical_formula_sum "Si O2"
_cell_formula_units_Z 60
_cell_length_a 26.773407
_cell_length_b 28.157467
_cell_length_c 8.338237
_cell_angle_alpha 90.000000
_cell_angle_beta 34.511387
_cell_angle_gamma 90.000000
_cell_volume 3561.435175
_symmetry_space_group_name_H-M "C 2/M"
_symmetry_group_IT_number 12
_symmetry_cell_setting 'monoclinic'
loop_
_space_group_symop_operation_xyz
x,y,z
-x,y,-z
-x,-y,-z
x,-y,z
1/2+x,1/2+y,z
1/2-x,1/2+y,-z
1/2-x,1/2-y,-z
1/2+x,1/2-y,z
loop_
_atom_site_type_symbol
_atom_site_label
_atom_site_fract_x
_atom_site_fract_y
_atom_site_fract_z
Si Si1 0.500000 0.916290 0.500000
Si Si2 0.607102 0.946642 0.719675
Si Si3 0.986744 0.732025 0.206095
Si Si4 0.744649 0.852229 0.861385
Si Si5 0.093730 0.635459 0.519565
Si Si6 0.679926 0.946881 0.888198
Si Si7 0.162343 0.781428 0.191630
Si Si8 0.818623 0.734817 0.182633
O O1 0.485871 0.885226 0.377655
O O2 0.410173 0.944544 0.767773
O O3 0.632092 0.904579 0.534209
O O4 0.647623 0.940226 0.789489
O O5 0.631311 0.000000 0.600487
O O6 0.500000 0.944957 0.000000
O O7 0.937494 0.682029 0.306324
O O8 0.924051 0.758277 0.499629
O O9 0.000000 0.757497 0.000000
O O10 0.084062 0.722813 0.013587
O O11 0.741137 0.903941 0.788684
O O12 0.824617 0.832289 0.757605
O O13 0.722816 0.811819 0.789605
O O14 0.664545 0.851280 0.199089
O O15 0.717619 0.000000 0.802848
O O16 0.250000 0.750000 0.000000
O O17 0.164347 0.776224 0.994790
O O18 0.750000 0.750000 0.500000
#
# Coordination Sequence:
#
# PCOD9177333 Si02
#       8
#     4   8   8   8   8   8   8   8
#     4  10  19  28  42  66  94 136 178 216 257 302
#     4  10  20  32  44  67 102 141 188 231 262 310
#     4  12  22  32  55  77 104 141 183 219 272 327
#     4  10  22  36  52  74 105 137 182 229 269 324
#     4  11  20  30  48  70 101 138 185 221 259 306
#     4  10  20  33  48  68  99 136 177 223 271 318
#     4  10  20  39  51  73 107 138 178 231 266 319
#     4  11  23  37  55  77 107 142 179 226 281 329
#
# _framework density 16.84714
#
# number of rings (size 3 to 8) (size 9 to 14) (size 15 to 20)
#    0.000    1.467    4.000    4.200    1.867    2.133 
#    0.000    0.000    0.000    0.000    0.000    0.000 
#    0.000    6.933    0.000    0.133    0.000    3.600 
#
# Total GULP energy -167161.524023 kJ/mol
# GULP energy per Si atom -5572.050801 kJ/mol
# Density = 1.680880 g / cm^3
# Si number density = 16.847140 Si / 1000 Ang^3
#
#
#
# Elastic Constant Matrix: (Units=GPa)
#
#
# Indices 1 2 3 4 5 6 
#
# 1 61.3597 42.3531 19.8515 0.0000 17.9368 0.0000
# 2 42.3531 112.1806 33.0150 0.0000 13.3854 0.0000
# 3 19.8515 33.0150 82.3811 0.0000 22.5170 0.0000
# 4 0.0000 0.0000 0.0000 19.6788 0.0000 5.8719
# 5 17.9368 13.3854 22.5170 0.0000 22.4949 0.0000
# 6 0.0000 0.0000 0.0000 5.8719 0.0000 27.5810
#
#
#
# Elastic Compliance Matrix: (Units=1/GPa)
#
#
# Indices 1 2 3 4 5 6 
#
# 1 0.026930 -0.008554 0.001950 0.000000 -0.018336 0.000000
# 2 -0.008554 0.012943 -0.003972 0.000000 0.003094 0.000000
# 3 0.001950 -0.003972 0.017951 0.000000 -0.017160 0.000000
# 4 0.000000 0.000000 0.000000 0.054263 0.000000 -0.011552
# 5 -0.018336 0.003094 -0.017160 0.000000 0.074411 0.000000
# 6 0.000000 0.000000 0.000000 -0.011552 0.000000 0.038716
#
#
# Mechanical properties :
#
#
# Convention : Reuss Voigt Hill
#
# Bulk Modulus (GPa) = 27.26704 49.59562 38.43133
# Shear Modulus (GPa) = 19.33566 24.66440 22.00003
#
# Velocity S-wave (km/s) = 3.39146 3.83039 3.61759
# Velocity P-wave (km/s) = 5.61749 7.00464 6.34906
#
# Compressibility (1/GPa) = 0.03667431
#
# Stress axis : x y z
#
# Youngs Moduli (GPa) = 37.13276 77.26069 55.70789
#
# Poissons Ratio (x) = 0.66085 -0.10864
# Poissons Ratio (y) = 0.31762 0.22125
# Poissons Ratio (z) = -0.07241 0.30685
#
# Static dielectric constant tensor:
#      x y z
#    x 1.643000 0.000000 0.018820 
#    y 0.000000 1.568500 0.000000 
#    z 0.018820 0.000000 1.548570 
# 
# From -- ./inp_files/106984.got.cif
#   From: 2010.05.17/outbox.cif.g08.bks.cpg/sg12_54_cif.got.tgz:106984.got - 2010.06.03 13:09:07.
