data_PCOD9177619
_publ_section_title
;
Structure prediction by ZEFSAII (Michael W. Deem and Ramdas Pophale) SiO2 
 PCOD9177619
Probable space group: C 2/M
;
_chemical_formula_sum "Si O2"
_cell_formula_units_Z 64
_cell_length_a 29.441088
_cell_length_b 14.340871
_cell_length_c 9.309470
_cell_angle_alpha 90.000000
_cell_angle_beta 77.116209
_cell_angle_gamma 90.000000
_cell_volume 3831.604667
_symmetry_space_group_name_H-M "C 2/M"
_symmetry_group_IT_number 12
_symmetry_cell_setting 'monoclinic'
loop_
_space_group_symop_operation_xyz
x,y,z
-x,y,-z
-x,-y,-z
x,-y,z
1/2+x,1/2+y,z
1/2-x,1/2+y,-z
1/2-x,1/2-y,-z
1/2+x,1/2-y,z
loop_
_atom_site_type_symbol
_atom_site_label
_atom_site_fract_x
_atom_site_fract_y
_atom_site_fract_z
Si Si1 0.720379 0.108266 0.001846
Si Si2 0.763942 0.896463 0.261748
Si Si3 0.760300 0.311589 0.320687
Si Si4 0.045657 0.387082 0.150133
Si Si5 0.133945 0.612365 0.261436
Si Si6 0.356168 0.195592 0.431680
Si Si7 0.828781 0.102728 0.463934
Si Si8 0.440600 0.112690 0.191974
O O1 0.761238 0.111073 0.092242
O O2 0.675015 0.141278 0.122672
O O3 0.712642 0.000000 0.967419
O O4 0.730929 0.162757 0.850535
O O5 0.744896 0.797368 0.332969
O O6 0.813178 0.899693 0.307502
O O7 0.741975 0.000000 0.310076
O O8 0.808882 0.321043 0.372491
O O9 0.719409 0.374656 0.416209
O O10 0.045226 0.500000 0.155518
O O11 0.084243 0.354331 0.235483
O O12 0.992095 0.358812 0.210594
O O13 0.060565 0.363464 0.976688
O O14 0.133750 0.500000 0.260325
O O15 0.143539 0.644982 0.415317
O O16 0.359727 0.306279 0.460132
O O17 0.399234 0.158998 0.308305
O O18 0.845960 0.000000 0.492434
O O19 0.436733 0.000000 0.206306
#
# Coordination Sequence:
#
# PCOD9177619 Si02
#       8
#     8   8   8   8   8   8   8   8
#     4  10  19  29  45  68  93 125 160 193 228 267
#     4   9  18  32  47  64  89 118 150 193 240 277
#     4  11  20  32  49  67  89 122 164 198 230 276
#     4   8  16  31  49  72 103 131 148 175 223 276
#     4  10  19  30  45  70 103 128 150 186 231 276
#     4  11  21  31  47  72  94 124 161 191 229 277
#     4  10  21  36  49  63  89 123 160 202 240 271
#     4   9  17  31  51  74 100 126 153 182 219 275
#
# _framework density 16.703184
#
# number of rings (size 3 to 8) (size 9 to 14) (size 15 to 20)
#    0.000    2.250    0.000    5.625    0.000    4.500 
#    0.000    2.500    0.000    0.000    0.000    3.500 
#    0.000    0.000    0.000    0.000    0.000    0.000 
#
# Total GULP energy -178248.258712 kJ/mol
# GULP energy per Si atom -5570.258085 kJ/mol
# Density = 1.666517 g / cm^3
# Si number density = 16.703184 Si / 1000 Ang^3
#
#
#
# Elastic Constant Matrix: (Units=GPa)
#
#
# Indices 1 2 3 4 5 6 
#
# 1 83.8767 26.1796 61.7968 0.0000 -2.4974 0.0000
# 2 26.1796 62.8445 28.3393 0.0000 -7.3104 0.0000
# 3 61.7968 28.3393 104.6746 0.0000 -4.4362 0.0000
# 4 0.0000 0.0000 0.0000 25.6411 0.0000 0.1138
# 5 -2.4974 -7.3104 -4.4362 0.0000 28.2473 0.0000
# 6 0.0000 0.0000 0.0000 0.1138 0.0000 18.8908
#
#
#
# Elastic Compliance Matrix: (Units=1/GPa)
#
#
# Indices 1 2 3 4 5 6 
#
# 1 0.021870 -0.003849 -0.011909 0.000000 -0.000933 0.000000
# 2 -0.003849 0.019250 -0.002761 0.000000 0.004208 0.000000
# 3 -0.011909 -0.002761 0.017372 0.000000 0.000961 0.000000
# 4 0.000000 0.000000 0.000000 0.039001 0.000000 -0.000235
# 5 -0.000933 0.004208 0.000961 0.000000 0.036559 0.000000
# 6 0.000000 0.000000 0.000000 -0.000235 0.000000 0.052937
#
#
# Mechanical properties :
#
#
# Convention : Reuss Voigt Hill
#
# Bulk Modulus (GPa) = 46.60972 53.78080 50.19526
# Shear Modulus (GPa) = 21.62831 23.56116 22.59473
#
# Velocity S-wave (km/s) = 3.60232 3.75984 3.68192
# Velocity P-wave (km/s) = 6.72812 7.14957 6.94204
#
# Compressibility (1/GPa) = 0.02145475
#
# Stress axis : x y z
#
# Youngs Moduli (GPa) = 45.72561 51.94733 57.56302
#
# Poissons Ratio (x) = 0.19993 0.68550
# Poissons Ratio (y) = 0.17599 0.15895
# Poissons Ratio (z) = 0.54453 0.14344
#
# Static dielectric constant tensor:
#      x y z
#    x 1.579730 0.000000 0.017950 
#    y 0.000000 1.598970 0.000000 
#    z 0.017950 0.000000 1.569700 
# 
# From -- ./inp_files/104556.got.cif
#   From: 2010.05.17/outbox.cif.g08.bks.cpg/sg12_53_cif.got.tgz:104556.got - 2010.06.03 13:09:07.
