data_PCOD9177633
_publ_section_title
;
Structure prediction by ZEFSAII (Michael W. Deem and Ramdas Pophale) SiO2 
 PCOD9177633
Probable space group: C 2/M
;
_chemical_formula_sum "Si O2"
_cell_formula_units_Z 64
_cell_length_a 31.907759
_cell_length_b 9.023380
_cell_length_c 14.575890
_cell_angle_alpha 90.000000
_cell_angle_beta 89.573585
_cell_angle_gamma 90.000000
_cell_volume 4196.513310
_symmetry_space_group_name_H-M "C 2/M"
_symmetry_group_IT_number 12
_symmetry_cell_setting 'monoclinic'
loop_
_space_group_symop_operation_xyz
x,y,z
-x,y,-z
-x,-y,-z
x,-y,z
1/2+x,1/2+y,z
1/2-x,1/2+y,-z
1/2-x,1/2-y,-z
1/2+x,1/2-y,z
loop_
_atom_site_type_symbol
_atom_site_label
_atom_site_fract_x
_atom_site_fract_y
_atom_site_fract_z
Si Si1 0.496669 0.329912 0.611252
Si Si2 0.910990 0.820899 0.397871
Si Si3 0.249949 0.321966 0.400323
Si Si4 0.669131 0.821632 0.280254
Si Si5 0.700439 0.323252 0.097703
Si Si6 0.411433 0.176861 0.597933
Si Si7 0.669158 0.678386 0.722331
Si Si8 0.799557 0.676747 0.096121
O O1 0.500000 0.330296 0.500000
O O2 0.490019 0.500000 0.640707
O O3 0.542870 0.277903 0.640184
O O4 0.456242 0.233181 0.634275
O O5 0.904596 0.749363 0.497936
O O6 0.873436 0.782616 0.330198
O O7 0.911730 0.000000 0.409443
O O8 0.249919 0.500000 0.410210
O O9 0.250000 0.250000 0.500000
O O10 0.208619 0.279935 0.343760
O O11 0.291309 0.280286 0.342375
O O12 0.675009 0.743659 0.182794
O O13 0.626477 0.782798 0.333803
O O14 0.670373 0.000000 0.267864
O O15 0.695836 0.500000 0.092977
O O16 0.749997 0.289615 0.112386
O O17 0.688750 0.249996 0.000979
O O18 0.412082 0.000000 0.587463
O O19 0.670192 0.500000 0.734630
O O20 0.675027 0.756242 0.819602
O O21 0.804156 0.500000 0.091295
#
# Coordination Sequence:
#
# PCOD9177633 Si02
#       8
#     8   8   8   8   8   8   8   8
#     4   8  15  29  46  64  90 122 157 197 237 275
#     4   9  18  31  47  68  94 126 161 197 234 273
#     4  10  20  31  44  62  91 128 159 189 224 265
#     4  10  20  33  46  66  96 126 156 194 236 274
#     4  10  20  33  51  71  90 120 159 196 233 278
#     4  10  19  29  45  69  96 126 159 196 236 278
#     4  10  19  32  49  68  92 125 161 193 229 277
#     4  10  20  33  50  71  94 120 152 196 241 277
#
# _framework density 15.250756000000001
#
# number of rings (size 3 to 8) (size 9 to 14) (size 15 to 20)
#    0.000    2.375    1.250    2.625    0.000    5.750 
#    0.000    0.000    0.000    0.000    0.000    0.875 
#    0.000    7.000    0.000    0.000    0.000    0.000 
#
# Total GULP energy -178456.291777 kJ/mol
# GULP energy per Si atom -5576.759118 kJ/mol
# Density = 1.521604 g / cm^3
# Si number density = 15.250756 Si / 1000 Ang^3
#
#
#
# Elastic Constant Matrix: (Units=GPa)
#
#
# Indices 1 2 3 4 5 6 
#
# 1 138.4376 46.0134 76.2598 0.0000 3.1770 0.0000
# 2 46.0134 33.9662 48.1564 0.0000 0.3478 0.0000
# 3 76.2598 48.1564 124.0499 0.0000 1.5315 0.0000
# 4 0.0000 0.0000 0.0000 29.9108 0.0000 -0.5710
# 5 3.1770 0.3478 1.5315 0.0000 8.5754 0.0000
# 6 0.0000 0.0000 0.0000 -0.5710 0.0000 22.0563
#
#
#
# Elastic Compliance Matrix: (Units=1/GPa)
#
#
# Indices 1 2 3 4 5 6 
#
# 1 0.013662 -0.014744 -0.002626 0.000000 -0.003995 0.000000
# 2 -0.014744 0.081423 -0.022621 0.000000 0.006200 0.000000
# 3 -0.002626 -0.022621 0.018474 0.000000 -0.001409 0.000000
# 4 0.000000 0.000000 0.000000 0.033449 0.000000 0.000866
# 5 -0.003995 0.006200 -0.001409 0.000000 0.118093 0.000000
# 6 0.000000 0.000000 0.000000 0.000866 0.000000 0.045361
#
#
# Mechanical properties :
#
#
# Convention : Reuss Voigt Hill
#
# Bulk Modulus (GPa) = 29.78201 70.81255 50.29728
# Shear Modulus (GPa) = 12.44904 20.51012 16.47958
#
# Velocity S-wave (km/s) = 2.86018 3.67121 3.29078
# Velocity P-wave (km/s) = 5.52070 8.03140 6.89135
#
# Compressibility (1/GPa) = 0.03357732
#
# Stress axis : x y z
#
# Youngs Moduli (GPa) = 73.19441 12.28156 54.12896
#
# Poissons Ratio (x) = 0.18108 0.14213
# Poissons Ratio (y) = 1.07920 1.22445
# Poissons Ratio (z) = 0.19219 0.27782
#
# Static dielectric constant tensor:
#      x y z
#    x 1.518100 0.000000 0.004990 
#    y 0.000000 1.510370 0.000000 
#    z 0.004990 0.000000 1.471070 
# 
# From -- ./inp_files/248401.got.cif
#   From: 2010.05.17/outbox.cif.g08.bks.cpg/sg12_125_cif.got.tgz:248401.got - 2010.06.03 13:09:07.
