data_PCOD9177789
_publ_section_title
;
Structure prediction by ZEFSAII (Michael W. Deem and Ramdas Pophale) SiO2 
 PCOD9177789
Probable space group: C 2/M
;
_chemical_formula_sum "Si O2"
_cell_formula_units_Z 64
_cell_length_a 24.746953
_cell_length_b 7.601470
_cell_length_c 17.018085
_cell_angle_alpha 90.000000
_cell_angle_beta 82.741311
_cell_angle_gamma 90.000000
_cell_volume 3175.670708
_symmetry_space_group_name_H-M "C 2/M"
_symmetry_group_IT_number 12
_symmetry_cell_setting 'monoclinic'
loop_
_space_group_symop_operation_xyz
x,y,z
-x,y,-z
-x,-y,-z
x,-y,z
1/2+x,1/2+y,z
1/2-x,1/2+y,-z
1/2-x,1/2-y,-z
1/2+x,1/2-y,z
loop_
_atom_site_type_symbol
_atom_site_label
_atom_site_fract_x
_atom_site_fract_y
_atom_site_fract_z
Si Si1 0.445571 0.712013 0.764820
Si Si2 0.440969 0.213680 0.046600
Si Si3 0.183823 0.782915 0.738054
Si Si4 0.563954 0.703071 0.771893
Si Si5 0.735343 0.208112 0.413805
Si Si6 0.653381 0.705650 0.309490
Si Si7 0.864578 0.709782 0.923859
Si Si8 0.732778 0.799937 0.156574
O O1 0.449854 0.500000 0.766552
O O2 0.506713 0.783523 0.754829
O O3 0.407983 0.762331 0.697797
O O4 0.410183 0.763280 0.847761
O O5 0.437171 0.290254 0.133644
O O6 0.438956 0.000000 0.051722
O O7 0.500000 0.259808 0.000000
O O8 0.392192 0.275021 0.998605
O O9 0.122349 0.719965 0.738886
O O10 0.220248 0.725109 0.657427
O O11 0.212641 0.722404 0.814347
O O12 0.183946 0.000000 0.740927
O O13 0.564816 0.500000 0.744969
O O14 0.750000 0.250000 0.500000
O O15 0.677291 0.272191 0.391585
O O16 0.734776 0.000000 0.406295
O O17 0.657543 0.500000 0.287644
O O18 0.692613 0.803108 0.240281
O O19 0.857247 0.500000 0.933036
O O20 0.806365 0.781386 0.903245
O O21 0.745409 0.000000 0.130387
#
# Coordination Sequence:
#
# PCOD9177789 Si02
#       8
#     8   8   8   8   8   8   8   8
#     4   9  17  27  43  67  92 118 154 195 230 265
#     4  10  19  30  42  62  92 123 159 202 242 278
#     4   8  16  31  49  69  93 119 151 187 226 277
#     4  10  19  31  47  66  91 125 158 191 232 278
#     4  10  19  33  54  78  99 121 149 183 224 270
#     4   9  16  27  44  70  98 119 146 188 228 265
#     4   9  16  27  44  62  85 118 157 200 242 279
#     4   8  14  27  46  64  84 118 158 194 233 276
#
# _framework density 20.153223000000001
#
# number of rings (size 3 to 8) (size 9 to 14) (size 15 to 20)
#    0.000    2.875    1.250    1.500    0.000    1.250 
#    0.000    3.750    0.000    0.750    0.000    5.250 
#    0.000    0.000    0.000    0.000    0.000    0.000 
#
# Total GULP energy -178303.970408 kJ/mol
# GULP energy per Si atom -5571.999075 kJ/mol
# Density = 2.010735 g / cm^3
# Si number density = 20.153223 Si / 1000 Ang^3
#
#
#
# Elastic Constant Matrix: (Units=GPa)
#
#
# Indices 1 2 3 4 5 6 
#
# 1 143.5188 -1.3160 39.3009 0.0000 28.2090 0.0000
# 2 -1.3160 47.1843 -3.8495 0.0000 0.1696 0.0000
# 3 39.3009 -3.8495 45.8250 0.0000 22.6311 0.0000
# 4 0.0000 0.0000 0.0000 22.6786 0.0000 2.0126
# 5 28.2090 0.1696 22.6311 0.0000 31.7892 0.0000
# 6 0.0000 0.0000 0.0000 2.0126 0.0000 8.3402
#
#
#
# Elastic Compliance Matrix: (Units=1/GPa)
#
#
# Indices 1 2 3 4 5 6 
#
# 1 0.009431 -0.000223 -0.006130 0.000000 -0.004004 0.000000
# 2 -0.000223 0.021440 0.003009 0.000000 -0.002059 0.000000
# 3 -0.006130 0.003009 0.038021 0.000000 -0.021644 0.000000
# 4 0.000000 0.000000 0.000000 0.045059 0.000000 -0.010873
# 5 -0.004004 -0.002059 -0.021644 0.000000 0.050430 0.000000
# 6 0.000000 0.000000 0.000000 -0.010873 0.000000 0.122525
#
#
# Mechanical properties :
#
#
# Convention : Reuss Voigt Hill
#
# Bulk Modulus (GPa) = 16.07575 33.86652 24.97113
# Shear Modulus (GPa) = 15.90684 26.05444 20.98064
#
# Velocity S-wave (km/s) = 2.81249 3.59948 3.23004
# Velocity P-wave (km/s) = 4.30591 5.84089 5.13112
#
# Compressibility (1/GPa) = 0.06220549
#
# Stress axis : x y z
#
# Youngs Moduli (GPa) = 106.03027 46.64141 26.30097
#
# Poissons Ratio (x) = 0.01039 0.16122
# Poissons Ratio (y) = 0.02361 -0.07914
# Poissons Ratio (z) = 0.64995 -0.14034
#
# Static dielectric constant tensor:
#      x y z
#    x 1.800530 0.000000 0.039180 
#    y 0.000000 1.765930 0.000000 
#    z 0.039180 0.000000 1.699210 
# 
# From -- ./inp_files/287530.got.cif
#   From: 2010.05.17/outbox.cif.g08.bks.cpg/sg12_144_cif.got.tgz:287530.got - 2010.06.03 13:09:07.
