data_PCOD9177950
_publ_section_title
;
Structure prediction by ZEFSAII (Michael W. Deem and Ramdas Pophale) SiO2 
 PCOD9177950
Probable space group: C 2/M
;
_chemical_formula_sum "Si O2"
_cell_formula_units_Z 64
_cell_length_a 28.786265
_cell_length_b 8.806471
_cell_length_c 21.079064
_cell_angle_alpha 90.000000
_cell_angle_beta 133.552899
_cell_angle_gamma 90.000000
_cell_volume 3872.753917
_symmetry_space_group_name_H-M "C 2/M"
_symmetry_group_IT_number 12
_symmetry_cell_setting 'monoclinic'
loop_
_space_group_symop_operation_xyz
x,y,z
-x,y,-z
-x,-y,-z
x,-y,z
1/2+x,1/2+y,z
1/2-x,1/2+y,-z
1/2-x,1/2-y,-z
1/2+x,1/2-y,z
loop_
_atom_site_type_symbol
_atom_site_label
_atom_site_fract_x
_atom_site_fract_y
_atom_site_fract_z
Si Si1 0.931783 0.318467 0.154155
Si Si2 0.287321 0.817346 0.594662
Si Si3 0.765110 0.175212 0.706963
Si Si4 0.745227 0.180896 0.172736
Si Si5 0.933292 0.681924 0.751436
Si Si6 0.193241 0.819633 0.902847
Si Si7 0.419853 0.325708 0.871734
Si Si8 0.606390 0.317514 0.015421
O O1 0.927756 0.500000 0.156132
O O2 0.875719 0.245422 0.142835
O O3 0.005825 0.268617 0.233275
O O4 0.917026 0.267932 0.068460
O O5 0.250000 0.750000 0.500000
O O6 0.257369 0.758383 0.632587
O O7 0.362315 0.766278 0.664341
O O8 0.285826 0.000000 0.592106
O O9 0.734738 0.257883 0.739328
O O10 0.842133 0.175846 0.791655
O O11 0.744741 0.000000 0.684162
O O12 0.791732 0.208711 0.157066
O O13 0.679840 0.267776 0.093775
O O14 0.732973 0.000000 0.165157
O O15 0.932433 0.500000 0.749701
O O16 0.943634 0.733199 0.833928
O O17 0.193983 0.000000 0.914334
O O18 0.250000 0.750000 0.000000
O O19 0.441645 0.500000 0.885848
O O20 0.430310 0.275082 0.954001
O O21 0.602632 0.500000 0.004727
#
# Coordination Sequence:
#
# PCOD9177950 Si02
#       8
#     8   8   8   8   8   8   8   8
#     4  11  22  34  47  66  94 130 172 212 252 295
#     4  10  19  34  56  81 107 133 162 199 245 301
#     4   9  17  30  49  75 103 131 163 200 245 298
#     4  10  19  31  48  70  97 130 168 213 257 296
#     4   9  20  35  49  68  97 131 163 200 246 299
#     4  11  22  34  50  71  96 130 175 220 260 297
#     4   8  16  29  45  65  91 125 164 203 241 287
#     4  10  19  30  45  66  92 127 170 211 252 293
#
# _framework density 16.525707000000001
#
# number of rings (size 3 to 8) (size 9 to 14) (size 15 to 20)
#    0.000    2.250    1.250    3.000    0.000    7.000 
#    0.000    2.500    0.000    0.000    0.000    0.875 
#    0.000    7.000    0.000    0.000    0.000    0.000 
#
# Total GULP energy -178440.316981 kJ/mol
# GULP energy per Si atom -5576.259906 kJ/mol
# Density = 1.648809 g / cm^3
# Si number density = 16.525707 Si / 1000 Ang^3
#
#
#
# Elastic Constant Matrix: (Units=GPa)
#
#
# Indices 1 2 3 4 5 6 
#
# 1 137.2722 49.0418 51.1932 0.0000 -3.9189 0.0000
# 2 49.0418 52.3914 25.7145 0.0000 -7.3037 0.0000
# 3 51.1932 25.7145 72.0802 0.0000 -14.4080 0.0000
# 4 0.0000 0.0000 0.0000 19.9558 0.0000 -7.1427
# 5 -3.9189 -7.3037 -14.4080 0.0000 19.5393 0.0000
# 6 0.0000 0.0000 0.0000 -7.1427 0.0000 26.5943
#
#
#
# Elastic Compliance Matrix: (Units=1/GPa)
#
#
# Indices 1 2 3 4 5 6 
#
# 1 0.013286 -0.009778 -0.007208 0.000000 -0.006306 0.000000
# 2 -0.009778 0.030486 -0.002399 0.000000 0.007665 0.000000
# 3 -0.007208 -0.002399 0.022731 0.000000 0.014419 0.000000
# 4 0.000000 0.000000 0.000000 0.055440 0.000000 0.014890
# 5 -0.006306 0.007665 0.014419 0.000000 0.063412 0.000000
# 6 0.000000 0.000000 0.000000 0.014890 0.000000 0.041601
#
#
# Mechanical properties :
#
#
# Convention : Reuss Voigt Hill
#
# Bulk Modulus (GPa) = 36.05871 57.07143 46.56507
# Shear Modulus (GPa) = 18.18370 22.27084 20.22727
#
# Velocity S-wave (km/s) = 3.32072 3.67502 3.50235
# Velocity P-wave (km/s) = 6.04732 7.25380 6.67786
#
# Compressibility (1/GPa) = 0.02773255
#
# Stress axis : x y z
#
# Youngs Moduli (GPa) = 75.26575 32.80196 43.99256
#
# Poissons Ratio (x) = 0.32073 0.31712
# Poissons Ratio (y) = 0.73594 0.10555
# Poissons Ratio (z) = 0.54254 0.07870
#
# Static dielectric constant tensor:
#      x y z
#    x 1.585070 0.000000 0.017840 
#    y 0.000000 1.555890 0.000000 
#    z 0.017840 0.000000 1.560770 
# 
# From -- ./inp_files/326936.got.cif
#   From: 2010.05.17/outbox.cif.g08.bks.cpg/sg12_164_cif.got.tgz:326936.got - 2010.06.03 13:09:07.
