data_PCOD9177876
_publ_section_title
;
Structure prediction by ZEFSAII (Michael W. Deem and Ramdas Pophale) SiO2 
 PCOD9177876
Probable space group: C 2/M
;
_chemical_formula_sum "Si O2"
_cell_formula_units_Z 56
_cell_length_a 24.246978
_cell_length_b 7.383156
_cell_length_c 14.860773
_cell_angle_alpha 90.000000
_cell_angle_beta 127.219391
_cell_angle_gamma 90.000000
_cell_volume 2118.515043
_symmetry_space_group_name_H-M "C 2/M"
_symmetry_group_IT_number 12
_symmetry_cell_setting 'monoclinic'
loop_
_space_group_symop_operation_xyz
x,y,z
-x,y,-z
-x,-y,-z
x,-y,z
1/2+x,1/2+y,z
1/2-x,1/2+y,-z
1/2-x,1/2-y,-z
1/2+x,1/2-y,z
loop_
_atom_site_type_symbol
_atom_site_label
_atom_site_fract_x
_atom_site_fract_y
_atom_site_fract_z
Si Si1 0.168769 0.216521 0.920884
Si Si2 0.509039 0.218967 0.364454
Si Si3 0.393063 0.277077 0.777998
Si Si4 0.039750 0.205405 0.886496
Si Si5 0.341253 0.710912 0.531376
Si Si6 0.255203 0.704867 0.714925
Si Si7 0.876525 0.295250 0.319451
O O1 0.117488 0.280028 0.950755
O O2 0.143063 0.307135 0.804792
O O3 0.158174 0.000000 0.905027
O O4 0.250000 0.250000 0.000000
O O5 0.488102 0.294810 0.245182
O O6 0.588721 0.269999 0.459173
O O7 0.452915 0.283240 0.381701
O O8 0.505200 0.000000 0.356599
O O9 0.394017 0.500000 0.778204
O O10 0.472087 0.215479 0.869297
O O11 0.365531 0.218482 0.652254
O O12 0.332298 0.219474 0.785384
O O13 0.047138 0.000000 0.928305
O O14 0.324803 0.500000 0.523294
O O15 0.277070 0.801120 0.417825
O O16 0.261971 0.500000 0.757755
O O17 0.191766 0.794186 0.705389
O O18 0.882754 0.500000 0.363666
#
# Coordination Sequence:
#
# PCOD9177876 Si02
#       7
#     8   8   8   8   8   8   8
#     4  10  19  32  54  78  99 119 144 182 228 278
#     4   9  16  28  45  64  89 121 155 193 232 273
#     4   8  15  29  48  67  90 121 159 197 231 266
#     4   8  15  29  48  71  94 117 147 187 230 270
#     4  10  19  30  44  65  92 123 163 205 235 267
#     4  10  19  31  47  66  91 125 159 195 234 273
#     4   9  19  33  48  69  96 122 152 188 232 282
#
# _framework density 26.433609000000001
#
# number of rings (size 3 to 8) (size 9 to 14) (size 15 to 20)
#    0.000    2.857    0.000    2.571    0.000    2.286 
#    0.000    5.714    0.000    0.857    0.000    6.000 
#    0.000    0.000    0.000    0.000    0.000    0.000 
#
# Total GULP energy -156281.912718 kJ/mol
# GULP energy per Si atom -5581.496883 kJ/mol
# Density = 2.637345 g / cm^3
# Si number density = 26.433609 Si / 1000 Ang^3
#
#
#
# Elastic Constant Matrix: (Units=GPa)
#
#
# Indices 1 2 3 4 5 6 
#
# 1 266.5420 0.1188 33.1083 0.0000 48.7061 0.0000
# 2 0.1188 117.6287 -6.6261 0.0000 -1.6118 0.0000
# 3 33.1083 -6.6261 66.2008 0.0000 13.1193 0.0000
# 4 0.0000 0.0000 0.0000 -8.7641 0.0000 -9.5254
# 5 48.7061 -1.6118 13.1193 0.0000 42.0879 0.0000
# 6 0.0000 0.0000 0.0000 -9.5254 0.0000 -5.6519
#
#
#
# Elastic Compliance Matrix: (Units=1/GPa)
#
#
# Indices 1 2 3 4 5 6 
#
# 1 0.004881 -0.000157 -0.001424 0.000000 -0.005210 0.000000
# 2 -0.000157 0.008555 0.000889 0.000000 0.000232 0.000000
# 3 -0.001424 0.000889 0.016599 0.000000 -0.003492 0.000000
# 4 0.000000 0.000000 0.000000 0.137180 0.000000 -0.231197
# 5 -0.005210 0.000232 -0.003492 0.000000 0.030887 0.000000
# 6 0.000000 0.000000 0.000000 -0.231197 0.000000 0.212717
#
#
# Mechanical properties :
#
#
# Convention : Reuss Voigt Hill
#
# Bulk Modulus (GPa) = 34.90378 55.95263 45.42820
# Shear Modulus (GPa) = 11.85528 33.78575 22.82052
#
# Velocity S-wave (km/s) = 2.12006 3.57898 2.94141
# Velocity P-wave (km/s) = 4.38473 6.18805 5.36274
#
# Compressibility (1/GPa) = 0.02865019
#
# Stress axis : x y z
#
# Youngs Moduli (GPa) = 204.88311 116.89461 60.24559
#
# Poissons Ratio (x) = 0.01830 0.08580
# Poissons Ratio (y) = 0.03207 -0.05353
# Poissons Ratio (z) = 0.29177 -0.10387
#
# Static dielectric constant tensor:
#      x y z
#    x 2.208030 0.000000 -0.001490 
#    y 0.000000 2.229040 0.000000 
#    z -0.001490 0.000000 2.081640 
# 
# From -- ./inp_files/238882.got.cif
#   From: 2010.05.17/outbox.cif.g08.bks.cpg/sg12_120_cif.got.tgz:238882.got - 2010.06.03 13:09:07.
