data_PCOD9177727
_publ_section_title
;
Structure prediction by ZEFSAII (Michael W. Deem and Ramdas Pophale) SiO2 
 PCOD9177727
Probable space group: C 2/M
;
_chemical_formula_sum "Si O2"
_cell_formula_units_Z 42
_cell_length_a 19.249444
_cell_length_b 7.365878
_cell_length_c 19.869150
_cell_angle_alpha 90.000000
_cell_angle_beta 148.753541
_cell_angle_gamma 90.000000
_cell_volume 1461.353709
_symmetry_space_group_name_H-M "C 2/M"
_symmetry_group_IT_number 12
_symmetry_cell_setting 'monoclinic'
loop_
_space_group_symop_operation_xyz
x,y,z
-x,y,-z
-x,-y,-z
x,-y,z
1/2+x,1/2+y,z
1/2-x,1/2+y,-z
1/2-x,1/2-y,-z
1/2+x,1/2-y,z
loop_
_atom_site_type_symbol
_atom_site_label
_atom_site_fract_x
_atom_site_fract_y
_atom_site_fract_z
Si Si1 0.721090 0.796434 0.385679
Si Si2 0.500000 0.000000 0.500000
Si Si3 0.580288 0.707941 0.835552
Si Si4 0.017715 0.223294 0.639368
Si Si5 0.136990 0.219318 0.026875
Si Si6 0.323689 0.281505 0.797656
O O1 0.579702 0.703377 0.280995
O O2 0.861710 0.728818 0.529528
O O3 0.745809 0.794666 0.325534
O O4 0.702026 0.000000 0.392864
O O5 0.538080 0.840956 0.588971
O O6 0.618411 0.500000 0.863059
O O7 0.596013 0.782577 0.772995
O O8 0.646857 0.787770 0.958409
O O9 0.021564 0.000000 0.635142
O O10 0.980514 0.256197 0.914634
O O11 0.147734 0.000000 0.034929
O O12 0.209532 0.287001 0.155040
O O13 0.306816 0.500000 0.780706
#
# Coordination Sequence:
#
# PCOD9177727 Si02
#       6
#     8   2   8   8   8   8
#     4  10  19  29  47  77 114 139 167 210 263 317
#     4  12  26  40  64  70 104 140 186 218 260 316
#     4   9  17  31  52  75 109 140 169 212 265 314
#     4  10  23  39  55  80 105 134 181 222 264 309
#     4   7  11  22  41  67  98 139 172 201 244 307
#     4   8  13  23  41  65 101 140 175 198 242 313
#
# _framework density 28.740475
#
# number of rings (size 3 to 8) (size 9 to 14) (size 15 to 20)
#    0.000    3.048    0.000    3.714    4.000    0.000 
#    0.000    7.619    0.000    0.000    0.000    1.333 
#    0.000    0.000    0.000    0.000    0.000    0.000 
#
# Total GULP energy -117258.385938 kJ/mol
# GULP energy per Si atom -5583.732664 kJ/mol
# Density = 2.867506 g / cm^3
# Si number density = 28.740475 Si / 1000 Ang^3
#
#
#
# Elastic Constant Matrix: (Units=GPa)
#
#
# Indices 1 2 3 4 5 6 
#
# 1 167.1517 44.2097 54.1291 0.0000 -49.7426 0.0000
# 2 44.2097 137.0295 60.1251 0.0000 -12.2811 0.0000
# 3 54.1291 60.1251 249.6838 0.0000 -78.1124 0.0000
# 4 0.0000 0.0000 0.0000 23.0346 0.0000 -1.3910
# 5 -49.7426 -12.2811 -78.1124 0.0000 73.3475 0.0000
# 6 0.0000 0.0000 0.0000 -1.3910 0.0000 28.4192
#
#
#
# Elastic Compliance Matrix: (Units=1/GPa)
#
#
# Indices 1 2 3 4 5 6 
#
# 1 0.008129 -0.002375 0.000615 0.000000 0.005770 0.000000
# 2 -0.002375 0.008912 -0.002502 0.000000 -0.002783 0.000000
# 3 0.000615 -0.002502 0.006709 0.000000 0.007143 0.000000
# 4 0.000000 0.000000 0.000000 0.043542 0.000000 0.002131
# 5 0.005770 -0.002783 0.007143 0.000000 0.024687 0.000000
# 6 0.000000 0.000000 0.000000 0.002131 0.000000 0.035292
#
#
# Mechanical properties :
#
#
# Convention : Reuss Voigt Hill
#
# Bulk Modulus (GPa) = 65.68021 96.75477 81.21749
# Shear Modulus (GPa) = 35.49367 51.32034 43.40700
#
# Velocity S-wave (km/s) = 3.51803 4.23028 3.89049
# Velocity P-wave (km/s) = 6.27730 7.58936 6.96430
#
# Compressibility (1/GPa) = 0.01522529
#
# Stress axis : x y z
#
# Youngs Moduli (GPa) = 123.02036 112.20407 149.05840
#
# Poissons Ratio (x) = 0.26651 -0.09163
# Poissons Ratio (y) = 0.29220 0.37292
# Poissons Ratio (z) = -0.07563 0.28072
#
# Static dielectric constant tensor:
#      x y z
#    x 2.413300 0.000000 0.042680 
#    y 0.000000 2.060270 0.000000 
#    z 0.042680 0.000000 2.296470 
# 
# From -- ./inp_files/248046.got.cif
#   From: 2010.05.17/outbox.cif.g08.bks.cpg/sg12_125_cif.got.tgz:248046.got - 2010.06.03 13:09:07.
