data_PCOD9177492
_publ_section_title
;
Structure prediction by ZEFSAII (Michael W. Deem and Ramdas Pophale) SiO2 
 PCOD9177492
Probable space group: C 2/M
;
_chemical_formula_sum "Si O2"
_cell_formula_units_Z 64
_cell_length_a 19.663272
_cell_length_b 7.438208
_cell_length_c 21.403942
_cell_angle_alpha 90.000000
_cell_angle_beta 88.002262
_cell_angle_gamma 90.000000
_cell_volume 3128.627283
_symmetry_space_group_name_H-M "C 2/M"
_symmetry_group_IT_number 12
_symmetry_cell_setting 'monoclinic'
loop_
_space_group_symop_operation_xyz
x,y,z
-x,y,-z
-x,-y,-z
x,-y,z
1/2+x,1/2+y,z
1/2-x,1/2+y,-z
1/2-x,1/2-y,-z
1/2+x,1/2-y,z
loop_
_atom_site_type_symbol
_atom_site_label
_atom_site_fract_x
_atom_site_fract_y
_atom_site_fract_z
Si Si1 0.518660 0.719799 0.638110
Si Si2 0.164029 0.217218 0.872708
Si Si3 0.206556 0.285225 0.064289
Si Si4 0.422771 0.214178 0.999744
Si Si5 0.370215 0.279775 0.602541
Si Si6 0.136906 0.217326 0.540476
Si Si7 0.390209 0.704385 0.255276
Si Si8 0.729253 0.207713 0.650735
O O1 0.519788 0.500000 0.639435
O O2 0.442242 0.776898 0.627770
O O3 0.568538 0.771672 0.579706
O O4 0.552100 0.785021 0.701645
O O5 0.241275 0.282311 0.884322
O O6 0.115616 0.258543 0.933059
O O7 0.131192 0.286875 0.809831
O O8 0.168526 0.000000 0.868069
O O9 0.200436 0.500000 0.072617
O O10 0.250000 0.250000 0.000000
O O11 0.130651 0.215659 0.051211
O O12 0.428054 0.000000 0.989102
O O13 0.500000 0.285594 0.000000
O O14 0.368993 0.500000 0.602061
O O15 0.363052 0.221922 0.530763
O O16 0.305332 0.220219 0.644314
O O17 0.198628 0.281928 0.581669
O O18 0.139217 0.000000 0.540392
O O19 0.412133 0.500000 0.241107
O O20 0.323575 0.699384 0.301529
O O21 0.730699 0.000000 0.669900
#
# Coordination Sequence:
#
# PCOD9177492 Si02
#       8
#     8   8   8   8   8   8   8   8
#     4   8  14  26  45  65  84 110 147 185 215 253
#     4   9  17  30  49  69  87 114 152 187 216 248
#     4   8  14  26  44  65  89 115 144 177 209 246
#     4   9  17  29  46  70  98 123 144 171 214 263
#     4   9  16  26  43  67  88 108 141 184 226 264
#     4   9  16  28  47  66  84 111 146 181 219 266
#     4   9  18  33  50  64  82 115 155 186 213 254
#     4  10  19  29  43  64  90 115 140 179 225 265
#
# _framework density 20.456254999999999
#
# number of rings (size 3 to 8) (size 9 to 14) (size 15 to 20)
#    0.000    3.125    0.000    1.875    0.000    2.250 
#    0.000    1.875    0.000   12.000    0.000    0.000 
#    0.000    0.000    0.000    0.000    0.000    0.000 
#
# Total GULP energy -178356.325060 kJ/mol
# GULP energy per Si atom -5573.635158 kJ/mol
# Density = 2.040970 g / cm^3
# Si number density = 20.456255 Si / 1000 Ang^3
#
#
#
# Elastic Constant Matrix: (Units=GPa)
#
#
# Indices 1 2 3 4 5 6 
#
# 1 141.3391 -3.9625 26.8959 0.0000 -4.5522 0.0000
# 2 -3.9625 64.9608 -8.5282 0.0000 -1.0955 0.0000
# 3 26.8959 -8.5282 61.9659 0.0000 12.5950 0.0000
# 4 0.0000 0.0000 0.0000 8.8781 0.0000 -3.7482
# 5 -4.5522 -1.0955 12.5950 0.0000 7.0396 0.0000
# 6 0.0000 0.0000 0.0000 -3.7482 0.0000 40.4685
#
#
#
# Elastic Compliance Matrix: (Units=1/GPa)
#
#
# Indices 1 2 3 4 5 6 
#
# 1 0.009325 -0.000171 -0.008315 0.000000 0.020881 0.000000
# 2 -0.000171 0.015703 0.002767 0.000000 -0.002618 0.000000
# 3 -0.008315 0.002767 0.033211 0.000000 -0.064366 0.000000
# 4 0.000000 0.000000 0.000000 0.117221 0.000000 0.010857
# 5 0.020881 -0.002618 -0.064366 0.000000 0.270308 0.000000
# 6 0.000000 0.000000 0.000000 0.010857 0.000000 0.025716
#
#
# Mechanical properties :
#
#
# Convention : Reuss Voigt Hill
#
# Bulk Modulus (GPa) = 21.36692 33.00848 27.18770
# Shear Modulus (GPa) = 10.02966 28.20128 19.11547
#
# Velocity S-wave (km/s) = 2.21667 3.71700 3.06020
# Velocity P-wave (km/s) = 4.12545 5.88155 5.07996
#
# Compressibility (1/GPa) = 0.04680132
#
# Stress axis : x y z
#
# Youngs Moduli (GPa) = 107.23570 63.68354 30.11079
#
# Poissons Ratio (x) = 0.01087 0.25038
# Poissons Ratio (y) = 0.01830 -0.08333
# Poissons Ratio (z) = 0.89169 -0.17623
#
# Static dielectric constant tensor:
#      x y z
#    x 1.745580 0.000000 0.039360 
#    y 0.000000 1.770930 0.000000 
#    z 0.039360 0.000000 1.698120 
# 
# From -- ./inp_files/319112.got.cif
#   From: 2010.05.17/outbox.cif.g08.bks.cpg/sg12_160_cif.got.tgz:319112.got - 2010.06.03 13:09:07.
