data_PCOD9177815
_publ_section_title
;
Structure prediction by ZEFSAII (Michael W. Deem and Ramdas Pophale) SiO2 
 PCOD9177815
Probable space group: C 2/M
;
_chemical_formula_sum "Si O2"
_cell_formula_units_Z 64
_cell_length_a 29.579002
_cell_length_b 7.729853
_cell_length_c 22.245046
_cell_angle_alpha 90.000000
_cell_angle_beta 133.200504
_cell_angle_gamma 90.000000
_cell_volume 3707.603730
_symmetry_space_group_name_H-M "C 2/M"
_symmetry_group_IT_number 12
_symmetry_cell_setting 'monoclinic'
loop_
_space_group_symop_operation_xyz
x,y,z
-x,y,-z
-x,-y,-z
x,-y,z
1/2+x,1/2+y,z
1/2-x,1/2+y,-z
1/2-x,1/2-y,-z
1/2+x,1/2-y,z
loop_
_atom_site_type_symbol
_atom_site_label
_atom_site_fract_x
_atom_site_fract_y
_atom_site_fract_z
Si Si1 0.808782 0.212607 0.333769
Si Si2 0.659378 0.797570 0.418852
Si Si3 0.031464 0.796521 0.346851
Si Si4 0.246911 0.700884 0.396112
Si Si5 0.446987 0.711445 0.497837
Si Si6 0.194801 0.707743 0.996160
Si Si7 0.716791 0.291752 0.824082
Si Si8 0.393432 0.206837 0.183638
O O1 0.764127 0.274676 0.346853
O O2 0.878963 0.264033 0.413951
O O3 0.790752 0.271408 0.250700
O O4 0.808080 0.000000 0.333456
O O5 0.585883 0.780287 0.355520
O O6 0.691641 0.711379 0.506142
O O7 0.692365 0.726115 0.388773
O O8 0.675935 0.000000 0.438068
O O9 0.039138 0.728407 0.421915
O O10 0.961923 0.769571 0.260971
O O11 0.043865 0.000000 0.360259
O O12 0.231478 0.500000 0.371794
O O13 0.500000 0.768512 0.500000
O O14 0.448139 0.500000 0.499376
O O15 0.188899 0.500000 0.995896
O O16 0.222365 0.773164 0.084397
O O17 0.250000 0.750000 0.000000
O O18 0.134241 0.772371 0.905480
O O19 0.721229 0.500000 0.825374
O O20 0.655949 0.253515 0.809046
O O21 0.395354 0.000000 0.182651
#
# Coordination Sequence:
#
# PCOD9177815 Si02
#       8
#     8   8   8   8   8   8   8   8
#     4   9  15  26  45  67  88 113 150 187 213 251
#     4  10  19  30  46  66  89 114 145 186 229 265
#     4  11  20  31  47  64  86 117 155 187 216 262
#     4   9  17  31  48  65  86 117 150 182 222 265
#     4   9  16  25  40  61  84 112 146 180 208 240
#     4   8  15  27  43  64  88 115 145 182 221 257
#     4   9  16  28  48  69  88 116 154 184 213 258
#     4  10  19  30  43  63  95 123 146 181 224 262
#
# _framework density 17.261823
#
# number of rings (size 3 to 8) (size 9 to 14) (size 15 to 20)
#    0.000    2.625    1.250    1.875    0.000    3.000 
#    0.000    0.625    0.000    1.500    0.000    0.875 
#    0.000    7.000    0.000    0.000    0.000    0.000 
#
# Total GULP energy -178313.038632 kJ/mol
# GULP energy per Si atom -5572.282457 kJ/mol
# Density = 1.722253 g / cm^3
# Si number density = 17.261823 Si / 1000 Ang^3
#
#
#
# Elastic Constant Matrix: (Units=GPa)
#
#
# Indices 1 2 3 4 5 6 
#
# 1 113.4808 2.2755 69.4925 0.0000 -8.5652 0.0000
# 2 2.2755 28.8819 1.4337 0.0001 -1.7622 0.0002
# 3 69.4925 1.4337 138.9680 0.0000 -7.1807 0.0000
# 4 0.0000 0.0001 0.0000 12.1406 0.0000 1.9225
# 5 -8.5652 -1.7622 -7.1807 0.0000 10.3350 0.0000
# 6 0.0000 0.0002 0.0000 1.9225 0.0000 10.3775
#
#
#
# Elastic Compliance Matrix: (Units=1/GPa)
#
#
# Indices 1 2 3 4 5 6 
#
# 1 0.013118 -0.000329 -0.006221 0.000000 0.006494 0.000000
# 2 -0.000329 0.034996 0.000101 0.000000 0.005765 -0.000001
# 3 -0.006221 0.000101 0.010414 0.000000 0.002097 0.000000
# 4 0.000000 0.000000 0.000000 0.084858 0.000000 -0.015720
# 5 0.006494 0.005765 0.002097 0.000000 0.104580 0.000000
# 6 0.000000 -0.000001 0.000000 -0.015720 0.000000 0.099274
#
#
# Mechanical properties :
#
#
# Convention : Reuss Voigt Hill
#
# Bulk Modulus (GPa) = 21.91446 47.52602 34.72024
# Shear Modulus (GPa) = 13.32094 20.44588 16.88341
#
# Velocity S-wave (km/s) = 2.78096 3.44533 3.13082
# Velocity P-wave (km/s) = 4.79943 6.58933 5.76428
#
# Compressibility (1/GPa) = 0.04563198
#
# Stress axis : x y z
#
# Youngs Moduli (GPa) = 76.22889 28.57434 96.02326
#
# Poissons Ratio (x) = 0.00939 0.59737
# Poissons Ratio (y) = 0.02504 -0.00971
# Poissons Ratio (z) = 0.47423 -0.00289
#
# Static dielectric constant tensor:
#      x y z
#    x 1.581740 0.000000 -0.016570 
#    y 0.000000 1.763300 0.000000 
#    z -0.016570 0.000000 1.605290 
# 
# From -- ./inp_files/326915.got.cif
#   From: 2010.05.17/outbox.cif.g08.bks.cpg/sg12_164_cif.got.tgz:326915.got - 2010.06.03 13:09:07.
