data_PCOD9177927
_publ_section_title
;
Structure prediction by ZEFSAII (Michael W. Deem and Ramdas Pophale) SiO2 
 PCOD9177927
Probable space group: C 2/M
;
_chemical_formula_sum "Si O2"
_cell_formula_units_Z 48
_cell_length_a 6.904491
_cell_length_b 17.555924
_cell_length_c 19.181969
_cell_angle_alpha 90.000000
_cell_angle_beta 121.823730
_cell_angle_gamma 90.000000
_cell_volume 1975.609311
_symmetry_space_group_name_H-M "C 2/M"
_symmetry_group_IT_number 12
_symmetry_cell_setting 'monoclinic'
loop_
_space_group_symop_operation_xyz
x,y,z
-x,y,-z
-x,-y,-z
x,-y,z
1/2+x,1/2+y,z
1/2-x,1/2+y,-z
1/2-x,1/2-y,-z
1/2+x,1/2-y,z
loop_
_atom_site_type_symbol
_atom_site_label
_atom_site_fract_x
_atom_site_fract_y
_atom_site_fract_z
Si Si1 0.096013 0.410665 0.346330
Si Si2 0.753950 0.915173 0.991370
Si Si3 0.754992 0.092252 0.520543
Si Si4 0.054978 0.173582 0.853633
Si Si5 0.570512 0.589265 0.302321
Si Si6 0.937155 0.350394 0.175820
O O1 0.147279 0.500000 0.346294
O O2 0.835351 0.407035 0.326229
O O3 0.095297 0.372021 0.270841
O O4 0.252182 0.380781 0.439807
O O5 0.761736 0.854325 0.055072
O O6 0.736338 0.000000 0.017647
O O7 0.574932 0.901693 0.895439
O O8 0.000000 0.910167 0.000000
O O9 0.500000 0.108135 0.500000
O O10 0.917216 0.116425 0.614929
O O11 0.777452 0.000000 0.521423
O O12 0.038870 0.263827 0.844313
O O13 0.072886 0.138132 0.779956
O O14 0.815296 0.144074 0.838298
O O15 0.505962 0.500000 0.287065
#
# Coordination Sequence:
#
# PCOD9177927 Si02
#       6
#     8   8   8   8   8   8
#     4   8  13  23  41  63  84 109 144 182 214 244
#     4   9  17  30  49  69  84 105 144 186 214 241
#     4   7  10  18  35  60  85 105 134 181 222 242
#     4  10  19  30  45  65  90 116 140 171 212 257
#     4   8  13  23  41  63  84 109 144 182 214 244
#     4  10  19  30  45  65  90 116 140 171 212 257
#
# _framework density 24.296301
#
# number of rings (size 3 to 8) (size 9 to 14) (size 15 to 20)
#    0.000    3.333    0.000    3.500    0.000    4.000 
#    0.000    0.833    0.000    5.000    0.000    0.000 
#    0.000    4.000    0.000    0.000    0.000    0.000 
#
# Total GULP energy -134113.906872 kJ/mol
# GULP energy per Si atom -5588.079453 kJ/mol
# Density = 2.424100 g / cm^3
# Si number density = 24.296301 Si / 1000 Ang^3
#
#
#
# Elastic Constant Matrix: (Units=GPa)
#
#
# Indices 1 2 3 4 5 6 
#
# 1 88.1768 -14.4586 26.2761 0.0000 -5.0990 0.0000
# 2 -14.4586 72.5494 75.3726 0.0000 -7.2169 0.0000
# 3 26.2761 75.3726 222.5467 0.0000 0.1555 0.0000
# 4 0.0000 0.0000 0.0000 2.7560 0.0000 -25.4365
# 5 -5.0990 -7.2169 0.1555 0.0000 43.9430 0.0000
# 6 0.0000 0.0000 0.0000 -25.4365 0.0000 12.8169
#
#
#
# Elastic Compliance Matrix: (Units=1/GPa)
#
#
# Indices 1 2 3 4 5 6 
#
# 1 0.013948 0.007368 -0.004144 0.000000 0.002843 0.000000
# 2 0.007368 0.025717 -0.009584 0.000000 0.005113 0.000000
# 3 -0.004144 -0.009584 0.008230 0.000000 -0.002084 0.000000
# 4 0.000000 0.000000 0.000000 -0.020953 0.000000 -0.041584
# 5 0.002843 0.005113 -0.002084 0.000000 0.023934 0.000000
# 6 0.000000 0.000000 0.000000 -0.041584 0.000000 -0.004506
#
#
# Mechanical properties :
#
#
# Convention : Reuss Voigt Hill
#
# Bulk Modulus (GPa) = 28.42799 61.96146 45.19473
# Shear Modulus (GPa) = 70.60630 31.64205 51.12417
#
# Velocity S-wave (km/s) = 5.39663 3.61271 4.59213
# Velocity P-wave (km/s) = 7.11037 6.55439 6.83803
#
# Compressibility (1/GPa) = 0.03517659
#
# Stress axis : x y z
#
# Youngs Moduli (GPa) = 71.69230 38.88448 121.50678
#
# Poissons Ratio (x) = -0.28652 0.50358
# Poissons Ratio (y) = -0.52826 1.16446
# Poissons Ratio (z) = 0.29712 0.37265
#
# Static dielectric constant tensor:
#      x y z
#    x 2.057730 0.000000 0.000720 
#    y 0.000000 1.833470 0.000000 
#    z 0.000720 0.000000 1.930320 
# 
# From -- ./inp_files/222047.got.cif
#   From: 2010.05.17/outbox.cif.g08.bks.cpg/sg12_112_cif.got.tgz:222047.got - 2010.06.03 13:09:07.
