data_PCOD9177683
_publ_section_title
;
Structure prediction by ZEFSAII (Michael W. Deem and Ramdas Pophale) SiO2 
 PCOD9177683
Probable space group: C 2/M
;
_chemical_formula_sum "Si O2"
_cell_formula_units_Z 48
_cell_length_a 28.772037
_cell_length_b 8.878383
_cell_length_c 12.422246
_cell_angle_alpha 90.000000
_cell_angle_beta 108.723597
_cell_angle_gamma 90.000000
_cell_volume 3005.317987
_symmetry_space_group_name_H-M "C 2/M"
_symmetry_group_IT_number 12
_symmetry_cell_setting 'monoclinic'
loop_
_space_group_symop_operation_xyz
x,y,z
-x,y,-z
-x,-y,-z
x,-y,z
1/2+x,1/2+y,z
1/2-x,1/2+y,-z
1/2-x,1/2-y,-z
1/2+x,1/2-y,z
loop_
_atom_site_type_symbol
_atom_site_label
_atom_site_fract_x
_atom_site_fract_y
_atom_site_fract_z
Si Si1 0.226847 0.679069 0.589300
Si Si2 0.417670 0.679362 0.239046
Si Si3 0.326086 0.821315 0.074408
Si Si4 0.379206 0.320211 0.456134
Si Si5 0.255010 0.820933 0.830232
Si Si6 0.018415 0.816985 0.394683
O O1 0.229287 0.500000 0.586654
O O2 0.250000 0.750000 0.500000
O O3 0.170610 0.733195 0.559356
O O4 0.254511 0.739311 0.715988
O O5 0.415891 0.500000 0.217035
O O6 0.381083 0.764520 0.132778
O O7 0.396928 0.701268 0.345568
O O8 0.474682 0.730275 0.282724
O O9 0.291375 0.737193 0.134814
O O10 0.322756 0.000000 0.091392
O O11 0.302341 0.790692 0.940109
O O12 0.371083 0.500000 0.463478
O O13 0.424725 0.271723 0.566544
O O14 0.250168 0.000000 0.811023
O O15 0.000000 0.772635 0.500000
O O16 0.018425 0.000000 0.392913
#
# Coordination Sequence:
#
# PCOD9177683 Si02
#       6
#     8   8   8   8   8   8
#     4  12  24  36  51  70  94 125 164 202 241 284
#     4   9  15  25  45  70  98 130 159 188 229 283
#     4  10  19  29  46  71  99 128 157 194 239 285
#     4   9  16  29  47  67  95 127 160 197 234 275
#     4  10  20  34  48  66  94 128 163 197 237 283
#     4   7  12  23  41  66  93 125 159 187 225 280
#
# _framework density 15.971686999999999
#
# number of rings (size 3 to 8) (size 9 to 14) (size 15 to 20)
#    0.000    2.500    1.667    4.500    0.000    2.000 
#    0.000    0.833    0.000    3.000    0.000    1.167 
#    0.000    9.333    0.000    0.000    0.000    0.000 
#
# Total GULP energy -133703.810070 kJ/mol
# GULP energy per Si atom -5570.992086 kJ/mol
# Density = 1.593534 g / cm^3
# Si number density = 15.971687 Si / 1000 Ang^3
#
#
#
# Elastic Constant Matrix: (Units=GPa)
#
#
# Indices 1 2 3 4 5 6 
#
# 1 50.6767 42.7493 53.2419 0.0000 22.3601 0.0000
# 2 42.7493 72.5930 57.7868 0.0000 9.2804 0.0000
# 3 53.2419 57.7868 104.8728 0.0000 23.0616 0.0000
# 4 0.0000 0.0000 0.0000 23.5899 0.0000 3.3671
# 5 22.3601 9.2804 23.0616 0.0000 35.0379 0.0000
# 6 0.0000 0.0000 0.0000 3.3671 0.0000 19.3594
#
#
#
# Elastic Compliance Matrix: (Units=1/GPa)
#
#
# Indices 1 2 3 4 5 6 
#
# 1 0.068696 -0.024902 -0.015158 0.000000 -0.027267 0.000000
# 2 -0.024902 0.033804 -0.008781 0.000000 0.012718 0.000000
# 3 -0.015158 -0.008781 0.022719 0.000000 -0.002954 0.000000
# 4 0.000000 0.000000 0.000000 0.043470 0.000000 -0.007561
# 5 -0.027267 0.012718 -0.002954 0.000000 0.044517 0.000000
# 6 0.000000 0.000000 0.000000 -0.007561 0.000000 0.052970
#
#
# Mechanical properties :
#
#
# Convention : Reuss Voigt Hill
#
# Bulk Modulus (GPa) = 36.31521 59.52207 47.91864
# Shear Modulus (GPa) = 13.40347 20.55506 16.97927
#
# Velocity S-wave (km/s) = 2.90004 3.59133 3.26404
# Velocity P-wave (km/s) = 5.83097 7.38546 6.65377
#
# Compressibility (1/GPa) = 0.02753667
#
# Stress axis : x y z
#
# Youngs Moduli (GPa) = 14.55688 29.58210 44.01597
#
# Poissons Ratio (x) = 0.73666 0.66720
# Poissons Ratio (y) = 0.36250 0.38651
# Poissons Ratio (z) = 0.22066 0.25976
#
# Static dielectric constant tensor:
#      x y z
#    x 1.537940 0.000000 0.045770 
#    y 0.000000 1.532900 0.000000 
#    z 0.045770 0.000000 1.546290 
# 
# From -- ./inp_files/185718.got.cif
#   From: 2010.05.17/outbox.cif.g08.bks.cpg/sg12_93_cif.got.tgz:185718.got - 2010.06.03 13:09:07.
