data_PCOD9177777
_publ_section_title
;
Structure prediction by ZEFSAII (Michael W. Deem and Ramdas Pophale) SiO2 
 PCOD9177777
Probable space group: C 2/M
;
_chemical_formula_sum "Si O2"
_cell_formula_units_Z 64
_cell_length_a 11.329965
_cell_length_b 18.757525
_cell_length_c 18.483353
_cell_angle_alpha 90.000000
_cell_angle_beta 56.069789
_cell_angle_gamma 90.000000
_cell_volume 3259.233041
_symmetry_space_group_name_H-M "C 2/M"
_symmetry_group_IT_number 12
_symmetry_cell_setting 'monoclinic'
loop_
_space_group_symop_operation_xyz
x,y,z
-x,y,-z
-x,-y,-z
x,-y,z
1/2+x,1/2+y,z
1/2-x,1/2+y,-z
1/2-x,1/2-y,-z
1/2+x,1/2-y,z
loop_
_atom_site_type_symbol
_atom_site_label
_atom_site_fract_x
_atom_site_fract_y
_atom_site_fract_z
Si Si1 0.021193 0.641032 0.361215
Si Si2 0.380894 0.841354 0.097588
Si Si3 0.457563 0.174433 0.816301
Si Si4 0.819767 0.917625 0.251067
Si Si5 0.084164 0.803691 0.373936
Si Si6 0.642043 0.669580 0.910007
Si Si7 0.280045 0.672175 0.523876
Si Si8 0.422093 0.663369 0.786386
O O1 0.020031 0.647444 0.273637
O O2 0.158231 0.594276 0.333115
O O3 0.054225 0.719023 0.383248
O O4 0.859859 0.624689 0.440988
O O5 0.437511 0.855811 0.159205
O O6 0.369911 0.754756 0.096829
O O7 0.222949 0.867507 0.130645
O O8 0.500000 0.864647 0.000000
O O9 0.294770 0.158030 0.895431
O O10 0.465586 0.260903 0.807136
O O11 0.843005 0.870992 0.170847
O O12 0.941846 0.887005 0.260962
O O13 0.842116 0.000000 0.228227
O O14 0.196313 0.819410 0.398070
O O15 0.126634 0.820366 0.278459
O O16 0.936723 0.845177 0.440842
O O17 0.500000 0.646329 0.000000
O O18 0.250000 0.750000 0.500000
#
# Coordination Sequence:
#
# PCOD9177777 Si02
#       8
#     8   8   8   8   8   8   8   8
#     4   9  19  31  52  75 110 139 170 218 259 318
#     4  10  19  29  52  83 108 134 166 219 287 331
#     4   9  17  30  49  79 106 131 167 214 281 327
#     4  11  23  37  51  72 104 151 193 214 253 312
#     4   9  18  30  54  87 110 133 164 209 285 318
#     4   9  19  31  52  77 105 134 172 227 277 322
#     4   9  17  30  51  86 115 135 155 207 274 330
#     4  10  20  32  51  73 109 143 172 221 261 322
#
# _framework density 19.636523
#
# number of rings (size 3 to 8) (size 9 to 14) (size 15 to 20)
#    0.000    2.500    1.250    1.500    7.000    1.750 
#    0.000    0.000    0.000    8.625    0.000    1.750 
#    0.000    0.000    0.000    0.000    0.000    0.000 
#
# Total GULP energy -178268.150751 kJ/mol
# GULP energy per Si atom -5570.879711 kJ/mol
# Density = 1.959183 g / cm^3
# Si number density = 19.636523 Si / 1000 Ang^3
#
#
#
# Elastic Constant Matrix: (Units=GPa)
#
#
# Indices 1 2 3 4 5 6 
#
# 1 95.8686 9.8004 22.6712 0.0000 -17.4943 0.0000
# 2 9.8004 16.7512 4.2432 0.0000 -8.6492 0.0000
# 3 22.6712 4.2432 52.7701 0.0000 -17.9199 0.0000
# 4 0.0000 0.0000 0.0000 6.8692 0.0000 -1.8892
# 5 -17.4943 -8.6492 -17.9199 0.0000 27.6212 0.0000
# 6 0.0000 0.0000 0.0000 -1.8892 0.0000 3.1403
#
#
#
# Elastic Compliance Matrix: (Units=1/GPa)
#
#
# Indices 1 2 3 4 5 6 
#
# 1 0.012485 -0.004191 -0.003575 0.000000 0.004276 0.000000
# 2 -0.004191 0.072849 0.003576 0.000000 0.022477 0.000000
# 3 -0.003575 0.003576 0.025407 0.000000 0.015339 0.000000
# 4 0.000000 0.000000 0.000000 0.174441 0.000000 0.104943
# 5 0.004276 0.022477 0.015339 0.000000 0.055902 0.000000
# 6 0.000000 0.000000 0.000000 0.104943 0.000000 0.381570
#
#
# Mechanical properties :
#
#
# Convention : Reuss Voigt Hill
#
# Bulk Modulus (GPa) = 9.76930 26.53550 18.15240
# Shear Modulus (GPa) = 6.53461 16.10448 11.31955
#
# Velocity S-wave (km/s) = 1.82620 2.86690 2.40355
# Velocity P-wave (km/s) = 3.07125 4.94990 4.11910
#
# Compressibility (1/GPa) = 0.10236144
#
# Stress axis : x y z
#
# Youngs Moduli (GPa) = 80.09580 13.72696 39.35869
#
# Poissons Ratio (x) = 0.05753 0.14070
# Poissons Ratio (y) = 0.33569 -0.14074
# Poissons Ratio (z) = 0.28633 -0.04908
#
# Static dielectric constant tensor:
#      x y z
#    x 1.792830 0.000000 -0.049070 
#    y 0.000000 1.634610 0.000000 
#    z -0.049070 0.000000 1.755240 
# 
# From -- ./inp_files/306202.got.cif
#   From: 2010.05.17/outbox.cif.g08.bks.cpg/sg12_154_cif.got.tgz:306202.got - 2010.06.03 13:09:07.
