data_PCOD9177457
_publ_section_title
;
Structure prediction by ZEFSAII (Michael W. Deem and Ramdas Pophale) SiO2 
 PCOD9177457
Probable space group: C 2/M
;
_chemical_formula_sum "Si O2"
_cell_formula_units_Z 56
_cell_length_a 29.730413
_cell_length_b 9.022347
_cell_length_c 14.024374
_cell_angle_alpha 90.000000
_cell_angle_beta 104.276643
_cell_angle_gamma 90.000000
_cell_volume 3645.691118
_symmetry_space_group_name_H-M "C 2/M"
_symmetry_group_IT_number 12
_symmetry_cell_setting 'monoclinic'
loop_
_space_group_symop_operation_xyz
x,y,z
-x,y,-z
-x,-y,-z
x,-y,z
1/2+x,1/2+y,z
1/2-x,1/2+y,-z
1/2-x,1/2-y,-z
1/2+x,1/2-y,z
loop_
_atom_site_type_symbol
_atom_site_label
_atom_site_fract_x
_atom_site_fract_y
_atom_site_fract_z
Si Si1 0.055319 0.674560 0.425643
Si Si2 0.511144 0.677528 0.113204
Si Si3 0.896969 0.177078 0.728429
Si Si4 0.799816 0.822143 0.414785
Si Si5 0.960597 0.675118 0.263863
Si Si6 0.103586 0.177443 0.627198
Si Si7 0.796201 0.823075 0.636556
O O1 0.061842 0.500000 0.448089
O O2 0.086635 0.730679 0.354403
O O3 0.070216 0.767536 0.524695
O O4 0.002958 0.696931 0.361285
O O5 0.504108 0.500000 0.116011
O O6 0.564792 0.706313 0.170531
O O7 0.478832 0.754808 0.175073
O O8 0.500000 0.725026 0.000000
O O9 0.843152 0.212158 0.718586
O O10 0.899213 0.000000 0.706837
O O11 0.844640 0.775056 0.377749
O O12 0.805229 0.781621 0.529845
O O13 0.750927 0.755255 0.356602
O O14 0.797640 0.000000 0.409861
O O15 0.953641 0.500000 0.249350
O O16 0.915841 0.751953 0.286227
O O17 0.102380 0.000000 0.632495
O O18 0.789172 0.000000 0.635574
#
# Coordination Sequence:
#
# PCOD9177457 Si02
#       7
#     8   8   8   8   8   8   8
#     4  10  19  29  42  63  92 123 156 189 220 263
#     4   9  18  33  53  74  93 117 150 187 229 276
#     4   9  16  29  47  67  93 121 153 189 224 269
#     4   9  18  29  41  61  89 121 157 191 222 260
#     4  10  21  33  45  66  93 121 153 188 228 272
#     4  11  20  31  45  63  90 125 159 189 225 266
#     4   9  16  28  43  62  88 121 156 188 224 262
#
# _framework density 15.360599000000001
#
# number of rings (size 3 to 8) (size 9 to 14) (size 15 to 20)
#    0.000    2.429    1.429    1.714    0.000    5.429 
#    0.000    0.000    0.000    0.000    0.000    1.000 
#    0.000    0.000    0.000    0.000    0.000    0.000 
#
# Total GULP energy -156062.128269 kJ/mol
# GULP energy per Si atom -5573.647438 kJ/mol
# Density = 1.532564 g / cm^3
# Si number density = 15.360599 Si / 1000 Ang^3
#
#
#
# Elastic Constant Matrix: (Units=GPa)
#
#
# Indices 1 2 3 4 5 6 
#
# 1 125.3937 52.6940 59.7459 0.0000 -11.7329 0.0000
# 2 52.6940 31.8244 30.0414 0.0000 -4.0302 0.0000
# 3 59.7459 30.0414 76.8678 0.0000 -3.0968 0.0000
# 4 0.0000 0.0000 0.0000 11.6297 0.0000 4.4175
# 5 -11.7329 -4.0302 -3.0968 0.0000 11.0985 0.0000
# 6 0.0000 0.0000 0.0000 4.4175 0.0000 17.5348
#
#
#
# Elastic Compliance Matrix: (Units=1/GPa)
#
#
# Indices 1 2 3 4 5 6 
#
# 1 0.029834 -0.041528 -0.006367 0.000000 0.014682 0.000000
# 2 -0.041528 0.109463 -0.010791 0.000000 -0.007164 0.000000
# 3 -0.006367 -0.010791 0.021993 0.000000 -0.004512 0.000000
# 4 0.000000 0.000000 0.000000 0.095086 0.000000 -0.023954
# 5 0.014682 -0.007164 -0.004512 0.000000 0.101763 0.000000
# 6 0.000000 0.000000 0.000000 -0.023954 0.000000 0.063064
#
#
# Mechanical properties :
#
#
# Convention : Reuss Voigt Hill
#
# Bulk Modulus (GPa) = 22.76950 57.67205 40.22077
# Shear Modulus (GPa) = 9.03810 14.15959 11.59884
#
# Velocity S-wave (km/s) = 2.42832 3.03943 2.75090
# Velocity P-wave (km/s) = 4.76632 7.06714 6.02753
#
# Compressibility (1/GPa) = 0.04391840
#
# Stress axis : x y z
#
# Youngs Moduli (GPa) = 33.51917 9.13551 45.46837
#
# Poissons Ratio (x) = 0.37938 0.28949
# Poissons Ratio (y) = 1.39200 0.49063
# Poissons Ratio (z) = 0.21341 0.09858
#
# Static dielectric constant tensor:
#      x y z
#    x 1.529710 0.000000 0.008980 
#    y 0.000000 1.510070 0.000000 
#    z 0.008980 0.000000 1.491220 
# 
# From -- ./inp_files/247822.got.cif
#   From: 2010.05.17/outbox.cif.g08.bks.cpg/sg12_124_cif.got.tgz:247822.got - 2010.06.03 13:09:07.
