data_PCOD9177027
_publ_section_title
;
Structure prediction by ZEFSAII (Michael W. Deem and Ramdas Pophale) SiO2 
 PCOD9177027
Probable space group: C 2/M
;
_chemical_formula_sum "Si O2"
_cell_formula_units_Z 46
_cell_length_a 26.185992
_cell_length_b 11.782779
_cell_length_c 8.760417
_cell_angle_alpha 90.000000
_cell_angle_beta 63.138626
_cell_angle_gamma 90.000000
_cell_volume 2411.327610
_symmetry_space_group_name_H-M "C 2/M"
_symmetry_group_IT_number 12
_symmetry_cell_setting 'monoclinic'
loop_
_space_group_symop_operation_xyz
x,y,z
-x,y,-z
-x,-y,-z
x,-y,z
1/2+x,1/2+y,z
1/2-x,1/2+y,-z
1/2-x,1/2-y,-z
1/2+x,1/2-y,z
loop_
_atom_site_type_symbol
_atom_site_label
_atom_site_fract_x
_atom_site_fract_y
_atom_site_fract_z
Si Si1 0.500000 0.733563 0.500000
Si Si2 0.000000 0.500000 0.000000
Si Si3 0.910125 0.632075 0.420225
Si Si4 0.686773 0.790385 0.228041
Si Si5 0.405032 0.187664 0.088492
Si Si6 0.281082 0.876919 0.135994
Si Si7 0.597647 0.367350 0.166497
O O1 0.538745 0.815018 0.551947
O O2 0.458888 0.657029 0.658278
O O3 0.956699 0.600098 0.989363
O O4 0.922263 0.500000 0.360916
O O5 0.853853 0.643582 0.600516
O O6 0.903656 0.700436 0.272534
O O7 0.738658 0.724339 0.237828
O O8 0.648171 0.696010 0.192029
O O9 0.711095 0.866265 0.057803
O O10 0.343887 0.136064 0.121899
O O11 0.410472 0.301115 0.981862
O O12 0.257227 0.000000 0.208554
O O13 0.608856 0.500000 0.133167
#
# Coordination Sequence:
#
# PCOD9177027 Si02
#       7
#     4   2   8   8   8   8   8
#     4  10  22  38  60  86 114 159 203 246 304 354
#     4  12  20  40  54  90 116 160 188 262 280 372
#     4  11  21  39  56  89 121 158 196 258 299 362
#     4   9  21  34  60  85 119 152 210 241 304 356
#     4  11  23  36  62  86 123 157 202 243 312 350
#     4  10  18  37  57  86 113 161 197 255 297 361
#     4  10  21  40  59  87 118 161 198 250 292 368
#
# _framework density 19.076627999999999
#
# number of rings (size 3 to 8) (size 9 to 14) (size 15 to 20)
#    0.000    1.739    1.739    2.609    0.000    0.696 
#    4.696    9.130    0.000    0.000    0.000    0.000 
#    0.000    0.000    0.000    0.000    0.000    0.000 
#
# Total GULP energy -128159.411447 kJ/mol
# GULP energy per Si atom -5572.148324 kJ/mol
# Density = 1.903321 g / cm^3
# Si number density = 19.076628 Si / 1000 Ang^3
#
#
#
# Elastic Constant Matrix: (Units=GPa)
#
#
# Indices 1 2 3 4 5 6 
#
# 1 99.5956 24.8498 2.3283 0.0000 3.0157 0.0000
# 2 24.8498 101.3436 8.2669 0.0000 9.9624 0.0000
# 3 2.3283 8.2669 51.2113 0.0000 16.6062 0.0000
# 4 0.0000 0.0000 0.0000 19.3261 0.0000 -0.8988
# 5 3.0157 9.9624 16.6062 0.0000 28.6700 0.0000
# 6 0.0000 0.0000 0.0000 -0.8988 0.0000 5.1516
#
#
#
# Elastic Compliance Matrix: (Units=1/GPa)
#
#
# Indices 1 2 3 4 5 6 
#
# 1 0.010696 -0.002601 0.000007 0.000000 -0.000225 0.000000
# 2 -0.002601 0.010865 -0.000616 0.000000 -0.003145 0.000000
# 3 0.000007 -0.000616 0.024080 0.000000 -0.013734 0.000000
# 4 0.000000 0.000000 0.000000 0.052167 0.000000 0.009102
# 5 -0.000225 -0.003145 -0.013734 0.000000 0.043951 0.000000
# 6 0.000000 0.000000 0.000000 0.009102 0.000000 0.195703
#
#
# Mechanical properties :
#
#
# Convention : Reuss Voigt Hill
#
# Bulk Modulus (GPa) = 25.49738 35.89341 30.69540
# Shear Modulus (GPa) = 14.00734 25.07656 19.54195
#
# Velocity S-wave (km/s) = 2.71268 3.62956 3.20408
# Velocity P-wave (km/s) = 4.81729 6.03500 5.46019
#
# Compressibility (1/GPa) = 0.03921971
#
# Stress axis : x y z
#
# Youngs Moduli (GPa) = 93.49043 92.04175 41.52904
#
# Poissons Ratio (x) = 0.23942 -0.00027
# Poissons Ratio (y) = 0.24319 0.02557
# Poissons Ratio (z) = -0.00061 0.05668
#
# Static dielectric constant tensor:
#      x y z
#    x 1.662920 0.000000 -0.034110 
#    y 0.000000 1.623650 0.000000 
#    z -0.034110 0.000000 1.699750 
# 
# From -- ./inp_files/102447.got.cif
#   From: 2010.05.17/outbox.cif.g08.bks.cpg/sg12_52_cif.got.tgz:102447.got - 2010.06.03 13:09:07.
