data_PCOD9177183
_publ_section_title
;
Structure prediction by ZEFSAII (Michael W. Deem and Ramdas Pophale) SiO2 
 PCOD9177183
Probable space group: C 2/M
;
_chemical_formula_sum "Si O2"
_cell_formula_units_Z 56
_cell_length_a 14.665445
_cell_length_b 18.033886
_cell_length_c 11.867961
_cell_angle_alpha 90.000000
_cell_angle_beta 67.071427
_cell_angle_gamma 90.000000
_cell_volume 2890.787541
_symmetry_space_group_name_H-M "C 2/M"
_symmetry_group_IT_number 12
_symmetry_cell_setting 'monoclinic'
loop_
_space_group_symop_operation_xyz
x,y,z
-x,y,-z
-x,-y,-z
x,-y,z
1/2+x,1/2+y,z
1/2-x,1/2+y,-z
1/2-x,1/2-y,-z
1/2+x,1/2-y,z
loop_
_atom_site_type_symbol
_atom_site_label
_atom_site_fract_x
_atom_site_fract_y
_atom_site_fract_z
Si Si1 0.941696 0.580543 0.911365
Si Si2 0.609183 0.233578 0.005424
Si Si3 0.451960 0.419237 0.399913
Si Si4 0.234136 0.413657 0.424774
Si Si5 0.770389 0.764754 0.269450
Si Si6 0.080517 0.658812 0.662958
Si Si7 0.428111 0.281570 0.726440
O O1 0.900010 0.500000 0.900356
O O2 0.867347 0.648037 0.972530
O O3 0.021825 0.608222 0.781184
O O4 0.000000 0.573005 0.000000
O O5 0.603084 0.272353 0.128593
O O6 0.500000 0.234029 0.000000
O O7 0.681546 0.266554 0.877874
O O8 0.500000 0.417871 0.500000
O O9 0.473330 0.500000 0.338641
O O10 0.333723 0.410639 0.453299
O O11 0.504785 0.353490 0.310817
O O12 0.224533 0.500000 0.390334
O O13 0.250933 0.347484 0.326069
O O14 0.140458 0.389304 0.544616
O O15 0.843612 0.715581 0.311481
O O16 0.667632 0.720608 0.306039
O O17 0.995627 0.712292 0.656076
#
# Coordination Sequence:
#
# PCOD9177183 Si02
#       7
#     8   8   8   8   8   8   8
#     4   9  16  31  56  84 115 150 183 241 307 346
#     4  10  18  39  59  86 118 155 198 252 294 360
#     4  10  21  39  60  88 125 156 199 258 304 348
#     4  11  24  41  61  89 123 163 202 249 304 357
#     4  12  22  39  62  87 121 159 206 243 302 362
#     4  11  21  38  59  88 119 158 201 247 295 364
#     4  11  23  36  63  89 117 158 205 247 298 363
#
# _framework density 19.371883
#
# number of rings (size 3 to 8) (size 9 to 14) (size 15 to 20)
#    0.000    1.429    5.714    2.143    2.000    0.000 
#    0.000    6.429    0.000    2.571    0.000    0.000 
#    0.000    0.000    0.000    0.000    0.000    0.000 
#
# Total GULP energy -156168.624856 kJ/mol
# GULP energy per Si atom -5577.450888 kJ/mol
# Density = 1.932779 g / cm^3
# Si number density = 19.371883 Si / 1000 Ang^3
#
#
#
# Elastic Constant Matrix: (Units=GPa)
#
#
# Indices 1 2 3 4 5 6 
#
# 1 51.7598 -16.0332 1.1319 0.0000 -8.8367 0.0000
# 2 -16.0332 104.3187 63.5755 0.0000 -8.7328 0.0000
# 3 1.1319 63.5755 85.4314 0.0000 -15.9817 0.0000
# 4 0.0000 0.0000 0.0000 21.7341 0.0000 3.4284
# 5 -8.8367 -8.7328 -15.9817 0.0000 14.9550 0.0000
# 6 0.0000 0.0000 0.0000 3.4284 0.0000 17.8532
#
#
#
# Elastic Compliance Matrix: (Units=1/GPa)
#
#
# Indices 1 2 3 4 5 6 
#
# 1 0.023961 0.006227 -0.002028 0.000000 0.015627 0.000000
# 2 0.006227 0.019420 -0.014654 0.000000 -0.000641 0.000000
# 3 -0.002028 -0.014654 0.026013 0.000000 0.018043 0.000000
# 4 0.000000 0.000000 0.000000 0.047448 0.000000 -0.009111
# 5 0.015627 -0.000641 0.018043 0.000000 0.095009 0.000000
# 6 0.000000 0.000000 0.000000 -0.009111 0.000000 0.057762
#
#
# Mechanical properties :
#
#
# Convention : Reuss Voigt Hill
#
# Bulk Modulus (GPa) = 20.62562 37.65092 29.13827
# Shear Modulus (GPa) = 16.30338 23.76419 20.03379
#
# Velocity S-wave (km/s) = 2.90418 3.50628 3.21934
# Velocity P-wave (km/s) = 4.68145 5.98916 5.37522
#
# Compressibility (1/GPa) = 0.04848339
#
# Stress axis : x y z
#
# Youngs Moduli (GPa) = 41.73424 51.49257 38.44254
#
# Poissons Ratio (x) = -0.32063 0.07795
# Poissons Ratio (y) = -0.25987 0.56335
# Poissons Ratio (z) = 0.08463 0.75459
#
# Static dielectric constant tensor:
#      x y z
#    x 1.691240 0.000000 0.000820 
#    y 0.000000 1.725730 0.000000 
#    z 0.000820 0.000000 1.667830 
# 
# From -- ./inp_files/145507.got.cif
#   From: 2010.05.17/outbox.cif.g08.bks.cpg/sg12_73_cif.got.tgz:145507.got - 2010.06.03 13:09:07.
