data_PCOD9177862
_publ_section_title
;
Structure prediction by ZEFSAII (Michael W. Deem and Ramdas Pophale) SiO2 
 PCOD9177862
Probable space group: C 2/M
;
_chemical_formula_sum "Si O2"
_cell_formula_units_Z 56
_cell_length_a 24.165081
_cell_length_b 8.830128
_cell_length_c 19.494826
_cell_angle_alpha 90.000000
_cell_angle_beta 51.857530
_cell_angle_gamma 90.000000
_cell_volume 3271.605151
_symmetry_space_group_name_H-M "C 2/M"
_symmetry_group_IT_number 12
_symmetry_cell_setting 'monoclinic'
loop_
_space_group_symop_operation_xyz
x,y,z
-x,y,-z
-x,-y,-z
x,-y,z
1/2+x,1/2+y,z
1/2-x,1/2+y,-z
1/2-x,1/2-y,-z
1/2+x,1/2-y,z
loop_
_atom_site_type_symbol
_atom_site_label
_atom_site_fract_x
_atom_site_fract_y
_atom_site_fract_z
Si Si1 0.620109 0.183541 0.019316
Si Si2 0.111234 0.315489 0.185842
Si Si3 0.810433 0.180823 0.406905
Si Si4 0.681889 0.681558 0.755854
Si Si5 0.042791 0.325184 0.699592
Si Si6 0.751784 0.683310 0.837460
Si Si7 0.464884 0.173864 0.127839
O O1 0.624073 0.227764 0.096703
O O2 0.543060 0.229881 0.049388
O O3 0.622098 0.000000 0.014396
O O4 0.685643 0.253434 0.930124
O O5 0.109101 0.500000 0.188102
O O6 0.175205 0.265174 0.184610
O O7 0.032898 0.266234 0.267682
O O8 0.750000 0.250000 0.500000
O O9 0.803963 0.235182 0.332489
O O10 0.888154 0.231527 0.371087
O O11 0.805411 0.000000 0.411633
O O12 0.680655 0.500000 0.754508
O O13 0.738796 0.729321 0.768649
O O14 0.604656 0.736026 0.838603
O O15 0.052559 0.500000 0.670743
O O16 0.035487 0.325979 0.788325
O O17 0.750513 0.500000 0.841864
O O18 0.457396 0.000000 0.110524
#
# Coordination Sequence:
#
# PCOD9177862 Si02
#       7
#     8   8   8   8   8   8   8
#     4   9  17  29  44  65  89 118 159 199 224 250
#     4   8  15  29  48  66  89 121 157 190 219 253
#     4  10  19  32  51  74  94 112 138 178 223 271
#     4   9  19  32  45  65  93 118 145 181 224 271
#     4   8  14  28  49  70  89 114 147 183 220 259
#     4  10  19  30  44  64  91 124 154 185 224 263
#     4   8  15  28  45  62  86 119 153 187 224 262
#
# _framework density 17.116979000000001
#
# number of rings (size 3 to 8) (size 9 to 14) (size 15 to 20)
#    0.000    3.143    0.000    2.571    0.000    2.286 
#    0.000    5.714    0.000    0.857    0.000    6.000 
#    0.000    0.000    0.000    0.000    0.000    0.000 
#
# Total GULP energy -155984.638871 kJ/mol
# GULP energy per Si atom -5570.879960 kJ/mol
# Density = 1.707802 g / cm^3
# Si number density = 17.116979 Si / 1000 Ang^3
#
#
#
# Elastic Constant Matrix: (Units=GPa)
#
#
# Indices 1 2 3 4 5 6 
#
# 1 120.1082 19.6253 64.5243 -0.0005 -8.9893 -0.0001
# 2 19.6253 12.2998 24.8643 0.0053 -3.9530 -0.0075
# 3 64.5243 24.8643 106.5802 0.0007 -21.6678 -0.0015
# 4 -0.0005 0.0053 0.0007 24.2708 -0.0003 -7.1862
# 5 -8.9893 -3.9530 -21.6678 -0.0003 18.1566 0.0013
# 6 -0.0001 -0.0075 -0.0015 -7.1862 0.0013 18.1268
#
#
#
# Elastic Compliance Matrix: (Units=1/GPa)
#
#
# Indices 1 2 3 4 5 6 
#
# 1 0.012987 -0.008592 -0.006511 0.000001 -0.003211 -0.000003
# 2 -0.008592 0.161671 -0.034624 -0.000017 -0.010376 0.000057
# 3 -0.006511 -0.034624 0.025369 0.000003 0.019513 -0.000012
# 4 0.000001 -0.000017 0.000003 0.046681 0.000000 0.018506
# 5 -0.003211 -0.010376 0.019513 0.000000 0.074515 -0.000008
# 6 -0.000003 0.000057 -0.000012 0.018506 -0.000008 0.062504
#
#
# Mechanical properties :
#
#
# Convention : Reuss Voigt Hill
#
# Bulk Modulus (GPa) = 9.94306 50.77952 30.36129
# Shear Modulus (GPa) = 9.67671 20.77580 15.22625
#
# Velocity S-wave (km/s) = 2.38024 3.48768 2.98575
# Velocity P-wave (km/s) = 3.65726 6.77858 5.44631
#
# Compressibility (1/GPa) = 0.10057271
#
# Stress axis : x y z
#
# Youngs Moduli (GPa) = 76.99916 6.18540 39.41861
#
# Poissons Ratio (x) = 0.05315 0.25664
# Poissons Ratio (y) = 0.66161 1.36483
# Poissons Ratio (z) = 0.50132 0.21416
#
# Static dielectric constant tensor:
#      x y z
#    x 1.616360 0.000000 0.010650 
#    y 0.000000 1.580240 0.000000 
#    z 0.010650 0.000000 1.565300 
# 
# From -- ./inp_files/287403.got.cif
#   From: 2010.05.17/outbox.cif.g08.bks.cpg/sg12_144_cif.got.tgz:287403.got - 2010.06.03 13:09:07.
