data_PCOD9177153
_publ_section_title
;
Structure prediction by ZEFSAII (Michael W. Deem and Ramdas Pophale) SiO2 
 PCOD9177153
Probable space group: C 2/M
;
_chemical_formula_sum "Si O2"
_cell_formula_units_Z 48
_cell_length_a 13.802528
_cell_length_b 11.368005
_cell_length_c 19.479205
_cell_angle_alpha 90.000000
_cell_angle_beta 134.116801
_cell_angle_gamma 90.000000
_cell_volume 2194.277275
_symmetry_space_group_name_H-M "C 2/M"
_symmetry_group_IT_number 12
_symmetry_cell_setting 'monoclinic'
loop_
_space_group_symop_operation_xyz
x,y,z
-x,y,-z
-x,-y,-z
x,-y,z
1/2+x,1/2+y,z
1/2-x,1/2+y,-z
1/2-x,1/2-y,-z
1/2+x,1/2-y,z
loop_
_atom_site_type_symbol
_atom_site_label
_atom_site_fract_x
_atom_site_fract_y
_atom_site_fract_z
Si Si1 0.871008 0.000000 0.705971
Si Si2 0.782374 0.738835 0.904454
Si Si3 0.605074 0.000000 0.486845
Si Si4 0.990311 0.000000 0.577801
Si Si5 0.995053 0.744069 0.580390
Si Si6 0.438138 0.139845 0.110039
Si Si7 0.192264 0.217400 0.228241
Si Si8 0.665614 0.500000 0.784635
O O1 0.751934 0.000000 0.591897
O O2 0.851851 0.113041 0.744041
O O3 0.016849 0.000000 0.744259
O O4 0.657106 0.804163 0.878563
O O5 0.830116 0.813429 0.862840
O O6 0.738599 0.615590 0.848130
O O7 0.887430 0.703170 0.015123
O O8 0.500000 0.000000 0.500000
O O9 0.576837 0.122542 0.433892
O O10 0.000000 0.000000 0.500000
O O11 0.932323 0.129037 0.569026
O O12 0.134461 0.000000 0.688248
O O13 0.148840 0.738069 0.682229
O O14 0.000000 0.743907 0.500000
O O15 0.593179 0.174908 0.197070
O O16 0.420006 0.000000 0.096158
#
# Coordination Sequence:
#
# PCOD9177153 Si02
#       8
#     4   8   4   4   8   8   8   4
#     4  12  24  42  70 100 133 176 232 286 331 429
#     4  11  25  44  68  98 134 186 222 283 345 411
#     4  10  18  38  64  86 132 177 218 262 349 399
#     4  10  22  38  67  96 130 174 229 273 338 409
#     4  10  19  36  63  93 125 169 219 272 335 408
#     4  11  26  45  65  99 141 175 234 286 341 408
#     4  12  23  40  71 101 128 177 234 274 343 413
#     4  12  22  46  69  98 138 185 221 279 358 407
#
# _framework density 21.875083
#
# number of rings (size 3 to 8) (size 9 to 14) (size 15 to 20)
#    0.000    1.000    7.500    0.500    3.500    0.667 
#    0.000    1.667    7.333    0.000    0.000    0.000 
#    0.000    0.000    0.000    0.000    0.000    0.000 
#
# Total GULP energy -134043.765011 kJ/mol
# GULP energy per Si atom -5585.156875 kJ/mol
# Density = 2.182529 g / cm^3
# Si number density = 21.875083 Si / 1000 Ang^3
#
#
#
# Elastic Constant Matrix: (Units=GPa)
#
#
# Indices 1 2 3 4 5 6 
#
# 1 66.6880 31.1746 35.9996 0.0000 3.3089 0.0000
# 2 31.1746 154.4072 36.9068 0.0000 4.4819 0.0000
# 3 35.9996 36.9068 85.6833 0.0000 0.1312 0.0000
# 4 0.0000 0.0000 0.0000 33.8522 0.0000 -7.8643
# 5 3.3089 4.4819 0.1312 0.0000 28.0194 0.0000
# 6 0.0000 0.0000 0.0000 -7.8643 0.0000 15.0760
#
#
#
# Elastic Compliance Matrix: (Units=1/GPa)
#
#
# Indices 1 2 3 4 5 6 
#
# 1 0.020194 -0.002221 -0.007525 0.000000 -0.001994 0.000000
# 2 -0.002221 0.007501 -0.002296 0.000000 -0.000927 0.000000
# 3 -0.007525 -0.002296 0.015820 0.000000 0.001182 0.000000
# 4 0.000000 0.000000 0.000000 0.033614 0.000000 0.017534
# 5 -0.001994 -0.000927 0.001182 0.000000 0.036068 0.000000
# 6 0.000000 0.000000 0.000000 0.017534 0.000000 0.075477
#
#
# Mechanical properties :
#
#
# Convention : Reuss Voigt Hill
#
# Bulk Modulus (GPa) = 51.46502 57.21560 54.34031
# Shear Modulus (GPa) = 22.80663 28.90267 25.85465
#
# Velocity S-wave (km/s) = 3.23241 3.63886 3.44164
# Velocity P-wave (km/s) = 6.12447 6.62325 6.37874
#
# Compressibility (1/GPa) = 0.01943068
#
# Stress axis : x y z
#
# Youngs Moduli (GPa) = 49.51862 133.32436 63.21191
#
# Poissons Ratio (x) = 0.29607 0.47567
# Poissons Ratio (y) = 0.10997 0.14515
# Poissons Ratio (z) = 0.37263 0.30615
#
# Static dielectric constant tensor:
#      x y z
#    x 1.800360 0.000000 -0.013250 
#    y 0.000000 1.837130 0.000000 
#    z -0.013250 0.000000 1.796040 
# 
# From -- ./inp_files/310310.got.cif
#   From: 2010.05.17/outbox.cif.g08.bks.cpg/sg12_156_cif.got.tgz:310310.got - 2010.06.03 13:09:07.
