data_PCOD9177812
_publ_section_title
;
Structure prediction by ZEFSAII (Michael W. Deem and Ramdas Pophale) SiO2 
 PCOD9177812
Probable space group: C 2/M
;
_chemical_formula_sum "Si O2"
_cell_formula_units_Z 64
_cell_length_a 28.939906
_cell_length_b 7.556842
_cell_length_c 16.543574
_cell_angle_alpha 90.000000
_cell_angle_beta 90.000000
_cell_angle_gamma 90.000000
_cell_volume 3617.985288
_symmetry_space_group_name_H-M "C 2/M"
_symmetry_group_IT_number 12
_symmetry_cell_setting 'monoclinic'
loop_
_space_group_symop_operation_xyz
x,y,z
-x,y,-z
-x,-y,-z
x,-y,z
1/2+x,1/2+y,z
1/2-x,1/2+y,-z
1/2-x,1/2-y,-z
1/2+x,1/2-y,z
loop_
_atom_site_type_symbol
_atom_site_label
_atom_site_fract_x
_atom_site_fract_y
_atom_site_fract_z
Si Si1 0.804245 0.712558 1.000000
Si Si2 0.195184 0.711990 0.500000
Si Si3 0.852217 0.708880 0.837318
Si Si4 0.647783 0.791120 0.837318
Si Si5 0.304653 0.787062 0.324086
Si Si6 0.948014 0.786579 0.092527
Si Si7 0.948014 0.786579 0.907473
Si Si8 0.804654 0.712938 0.675914
O O1 0.810843 0.500000 1.000000
O O2 0.827831 0.782910 0.918100
O O3 0.750000 0.750000 0.000000
O O4 0.827831 0.782910 0.081900
O O5 0.188472 0.500000 0.500000
O O6 0.250000 0.750000 0.500000
O O7 0.178996 0.780056 0.587575
O O8 0.178996 0.780056 0.412425
O O9 0.841538 0.500000 0.836125
O O10 0.906850 0.729036 0.849772
O O11 0.832106 0.782222 0.753692
O O12 0.667894 0.717778 0.753692
O O13 0.593150 0.770964 0.849772
O O14 0.658462 0.000000 0.836125
O O15 0.250000 0.750000 0.314763
O O16 0.309687 0.000000 0.326332
O O17 1.000000 0.728121 0.113828
O O18 0.948222 0.000000 0.091343
O O19 0.938358 0.726863 0.000000
O O20 0.948222 0.000000 0.908657
O O21 0.809688 0.500000 0.673668
#
# Coordination Sequence:
#
# PCOD9177812 Si02
#       8
#     8   8   8   8   8   8   8   8
#     4  10  20  30  39  56  85 117 146 171 199 240
#     4   8  14  26  42  60  83 112 143 179 216 245
#     4  10  19  30  43  63  88 114 144 176 211 252
#     4  10  19  30  43  63  88 114 144 176 211 252
#     4   9  17  28  43  63  88 116 147 179 211 250
#     4   9  18  32  48  65  84 108 141 179 217 257
#     4   9  18  32  48  65  84 108 141 179 217 257
#     4   9  17  28  43  63  88 116 147 179 211 250
#
# _framework density 17.689404
#
# number of rings (size 3 to 8) (size 9 to 14) (size 15 to 20)
#    0.000    2.750    1.250    1.500    0.000    2.500 
#    0.000    1.250    0.000    0.000    0.000    0.875 
#    0.000    7.000    0.000    0.000    0.000    0.000 
#
# Total GULP energy -178336.152534 kJ/mol
# GULP energy per Si atom -5573.004767 kJ/mol
# Density = 1.764914 g / cm^3
# Si number density = 17.689404 Si / 1000 Ang^3
#
#
#
# Elastic Constant Matrix: (Units=GPa)
#
#
# Indices 1 2 3 4 5 6 
#
# 1 92.8340 -10.6867 85.5436 0.0000 0.0002 0.0000
# 2 -10.6867 41.4284 12.3042 0.0000 0.0001 0.0000
# 3 85.5436 12.3042 199.8632 0.0000 0.0003 0.0000
# 4 0.0000 0.0000 0.0000 -26.0568 0.0000 0.0000
# 5 0.0002 0.0001 0.0003 0.0000 9.8335 0.0000
# 6 0.0000 0.0000 0.0000 0.0000 0.0000 20.7088
#
#
#
# Elastic Compliance Matrix: (Units=1/GPa)
#
#
# Indices 1 2 3 4 5 6 
#
# 1 0.020015 0.007851 -0.009050 0.000000 0.000000 0.000000
# 2 0.007851 0.027667 -0.005063 0.000000 0.000000 0.000000
# 3 -0.009050 -0.005063 0.009189 0.000000 0.000000 0.000000
# 4 0.000000 0.000000 0.000000 -0.038378 0.000000 0.000000
# 5 0.000000 0.000000 0.000000 0.000000 0.101693 0.000000
# 6 0.000000 0.000000 0.000000 0.000000 0.000000 0.048289
#
#
# Mechanical properties :
#
#
# Convention : Reuss Voigt Hill
#
# Bulk Modulus (GPa) = 22.55032 56.49419 39.52225
# Shear Modulus (GPa) = 25.53867 17.36140 21.45003
#
# Velocity S-wave (km/s) = 3.80376 3.13622 3.48601
# Velocity P-wave (km/s) = 5.66278 6.71719 6.21239
#
# Compressibility (1/GPa) = 0.04434528
#
# Stress axis : x y z
#
# Youngs Moduli (GPa) = 49.96290 36.14410 108.83054
#
# Poissons Ratio (x) = -0.28376 0.98490
# Poissons Ratio (y) = -0.39225 0.55106
# Poissons Ratio (z) = 0.45216 0.18301
#
# Static dielectric constant tensor:
#      x y z
#    x 1.571270 0.000000 0.000000 
#    y 0.000000 1.649140 0.000000 
#    z 0.000000 0.000000 1.656070 
# 
# From -- ./inp_files/248378.got.cif
#   From: 2010.05.17/outbox.cif.g08.bks.cpg/sg12_125_cif.got.tgz:248378.got - 2010.06.03 13:09:07.
