data_PCOD9177413
_publ_section_title
;
Structure prediction by ZEFSAII (Michael W. Deem and Ramdas Pophale) SiO2 
 PCOD9177413
Probable space group: C 2/M
;
_chemical_formula_sum "Si O2"
_cell_formula_units_Z 48
_cell_length_a 25.182977
_cell_length_b 8.680353
_cell_length_c 22.188781
_cell_angle_alpha 90.000000
_cell_angle_beta 141.559580
_cell_angle_gamma 90.000000
_cell_volume 3015.498455
_symmetry_space_group_name_H-M "C 2/M"
_symmetry_group_IT_number 12
_symmetry_cell_setting 'monoclinic'
loop_
_space_group_symop_operation_xyz
x,y,z
-x,y,-z
-x,-y,-z
x,-y,z
1/2+x,1/2+y,z
1/2-x,1/2+y,-z
1/2-x,1/2-y,-z
1/2+x,1/2-y,z
loop_
_atom_site_type_symbol
_atom_site_label
_atom_site_fract_x
_atom_site_fract_y
_atom_site_fract_z
Si Si1 0.108716 0.686988 0.655024
Si Si2 0.579577 0.186300 0.489578
Si Si3 0.532315 0.320747 0.959043
Si Si4 0.204578 0.813359 0.162232
Si Si5 0.362348 0.183490 0.770812
Si Si6 0.265986 0.684331 0.448230
O O1 0.108153 0.500000 0.655752
O O2 0.105749 0.729326 0.581481
O O3 0.198407 0.738413 0.762865
O O4 0.019355 0.735864 0.605135
O O5 0.645373 0.257424 0.501423
O O6 0.583520 0.000000 0.489173
O O7 0.531748 0.500000 0.940416
O O8 0.461746 0.230868 0.858444
O O9 0.500000 0.314691 0.000000
O O10 0.629594 0.261600 0.050163
O O11 0.178862 0.760007 0.206442
O O12 0.201991 0.000000 0.159520
O O13 0.308963 0.232640 0.664909
O O14 0.355684 0.000000 0.771183
O O15 0.266433 0.500000 0.451092
O O16 0.250000 0.750000 0.500000
#
# Coordination Sequence:
#
# PCOD9177413 Si02
#       6
#     8   8   8   8   8   8
#     4   8  14  25  46  71  93 120 150 178 217 269
#     4   9  16  29  48  68  90 120 153 184 221 265
#     4   8  15  25  40  62  87 118 150 177 213 263
#     4   9  15  26  44  66  92 121 150 176 210 265
#     4  10  19  29  41  61  89 117 148 187 228 265
#     4  11  23  35  47  65  88 120 158 193 230 268
#
# _framework density 15.917767
#
# number of rings (size 3 to 8) (size 9 to 14) (size 15 to 20)
#    0.000    2.833    1.667    3.000    0.000    5.000 
#    0.000    2.500    0.000    0.000    0.000    1.167 
#    0.000    0.000    0.000    0.000    0.000    0.000 
#
# Total GULP energy -133622.275845 kJ/mol
# GULP energy per Si atom -5567.594827 kJ/mol
# Density = 1.588154 g / cm^3
# Si number density = 15.917767 Si / 1000 Ang^3
#
#
#
# Elastic Constant Matrix: (Units=GPa)
#
#
# Indices 1 2 3 4 5 6 
#
# 1 91.6617 19.2696 66.8767 0.0000 18.5484 0.0000
# 2 19.2696 14.3837 21.1576 0.0000 3.0770 0.0000
# 3 66.8767 21.1576 126.1690 0.0000 36.3705 0.0000
# 4 0.0000 0.0000 0.0000 20.3725 0.0000 0.7340
# 5 18.5484 3.0770 36.3705 0.0000 29.3591 0.0000
# 6 0.0000 0.0000 0.0000 0.7340 0.0000 16.3070
#
#
#
# Elastic Compliance Matrix: (Units=1/GPa)
#
#
# Indices 1 2 3 4 5 6 
#
# 1 0.019961 -0.015306 -0.007530 0.000000 -0.001679 0.000000
# 2 -0.015306 0.108338 -0.014884 0.000000 0.016754 0.000000
# 3 -0.007530 -0.014884 0.019587 0.000000 -0.017947 0.000000
# 4 0.000000 0.000000 0.000000 0.049166 0.000000 -0.002213
# 5 -0.001679 0.016754 -0.017947 0.000000 0.055599 0.000000
# 6 0.000000 0.000000 0.000000 -0.002213 0.000000 0.061423
#
#
# Mechanical properties :
#
#
# Convention : Reuss Voigt Hill
#
# Bulk Modulus (GPa) = 13.80350 49.64692 31.72521
# Shear Modulus (GPa) = 12.08718 21.53509 16.81113
#
# Velocity S-wave (km/s) = 2.75862 3.68216 3.25333
# Velocity P-wave (km/s) = 4.34019 7.02390 5.83834
#
# Compressibility (1/GPa) = 0.07244542
#
# Stress axis : x y z
#
# Youngs Moduli (GPa) = 50.09816 9.23037 51.05541
#
# Poissons Ratio (x) = 0.14128 0.38443
# Poissons Ratio (y) = 0.76681 0.75991
# Poissons Ratio (z) = 0.37722 0.13739
#
# Static dielectric constant tensor:
#      x y z
#    x 1.507780 0.000000 0.047120 
#    y 0.000000 1.535800 0.000000 
#    z 0.047120 0.000000 1.574310 
# 
# From -- ./inp_files/323858.got.cif
#   From: 2010.05.17/outbox.cif.g08.bks.cpg/sg12_162_cif.got.tgz:323858.got - 2010.06.03 13:09:07.
