data_PCOD9177408
_publ_section_title
;
Structure prediction by ZEFSAII (Michael W. Deem and Ramdas Pophale) SiO2 
 PCOD9177408
Probable space group: C 2/M
;
_chemical_formula_sum "Si O2"
_cell_formula_units_Z 56
_cell_length_a 30.301153
_cell_length_b 14.214444
_cell_length_c 8.045971
_cell_angle_alpha 90.000000
_cell_angle_beta 66.270039
_cell_angle_gamma 90.000000
_cell_volume 3172.511506
_symmetry_space_group_name_H-M "C 2/M"
_symmetry_group_IT_number 12
_symmetry_cell_setting 'monoclinic'
loop_
_space_group_symop_operation_xyz
x,y,z
-x,y,-z
-x,-y,-z
x,-y,z
1/2+x,1/2+y,z
1/2-x,1/2+y,-z
1/2-x,1/2-y,-z
1/2+x,1/2-y,z
loop_
_atom_site_type_symbol
_atom_site_label
_atom_site_fract_x
_atom_site_fract_y
_atom_site_fract_z
Si Si1 0.292147 0.209169 0.134230
Si Si2 0.343288 0.210630 0.417056
Si Si3 0.121701 0.389694 0.146445
Si Si4 0.744092 0.894336 0.290211
Si Si5 0.704562 0.394856 0.424111
Si Si6 0.571050 0.108810 0.580103
Si Si7 0.474025 0.113420 0.870693
O O1 0.321769 0.209770 0.264106
O O2 0.270553 0.313702 0.143451
O O3 0.246920 0.141218 0.238860
O O4 0.329620 0.169671 0.944437
O O5 0.308813 0.141522 0.577270
O O6 0.335647 0.314309 0.504230
O O7 0.396955 0.173097 0.349295
O O8 0.132813 0.500000 0.093901
O O9 0.095661 0.385359 0.363566
O O10 0.079529 0.352779 0.087631
O O11 0.771999 0.896454 0.425849
O O12 0.743142 0.000000 0.222802
O O13 0.688634 0.500000 0.406997
O O14 0.514727 0.133357 0.670727
O O15 0.574694 0.000000 0.631455
O O16 0.468790 0.000000 0.885199
O O17 0.500000 0.144452 0.000000
#
# Coordination Sequence:
#
# PCOD9177408 Si02
#       7
#     8   8   8   8   8   8   8
#     4   9  16  26  43  64  83 110 147 178 206 245
#     4   9  16  26  43  64  83 110 147 178 206 245
#     4  10  19  29  41  60  88 116 138 167 210 253
#     4   8  14  25  41  62  87 112 141 179 214 241
#     4   8  14  25  41  62  87 112 141 179 214 241
#     4  10  19  29  41  60  88 116 138 167 210 253
#     4   9  17  29  45  63  82 107 140 173 203 244
#
# _framework density 17.651630999999998
#
# number of rings (size 3 to 8) (size 9 to 14) (size 15 to 20)
#    0.000    3.000    0.000    3.857    0.000    4.571 
#    0.000    2.857    0.000    2.571    0.000    1.000 
#    0.000    8.000    0.000    0.000    0.000    0.000 
#
# Total GULP energy -156117.820995 kJ/mol
# GULP energy per Si atom -5575.636464 kJ/mol
# Density = 1.761146 g / cm^3
# Si number density = 17.651631 Si / 1000 Ang^3
#
#
#
# Elastic Constant Matrix: (Units=GPa)
#
#
# Indices 1 2 3 4 5 6 
#
# 1 43.9505 10.6402 7.8903 0.0000 -3.4123 0.0000
# 2 10.6402 91.8325 23.9611 0.0000 -11.1073 0.0000
# 3 7.8903 23.9611 67.5585 0.0000 -15.1153 0.0000
# 4 0.0000 0.0000 0.0000 15.8592 0.0000 -3.8958
# 5 -3.4123 -11.1073 -15.1153 0.0000 22.7996 0.0000
# 6 0.0000 0.0000 0.0000 -3.8958 0.0000 12.0966
#
#
#
# Elastic Compliance Matrix: (Units=1/GPa)
#
#
# Indices 1 2 3 4 5 6 
#
# 1 0.023682 -0.002133 -0.001701 0.000000 0.001377 0.000000
# 2 -0.002133 0.012442 -0.003380 0.000000 0.003501 0.000000
# 3 -0.001701 -0.003380 0.018521 0.000000 0.010378 0.000000
# 4 0.000000 0.000000 0.000000 0.068472 0.000000 0.022052
# 5 0.001377 0.003501 0.010378 0.000000 0.052652 0.000000
# 6 0.000000 0.000000 0.000000 0.022052 0.000000 0.089770
#
#
# Mechanical properties :
#
#
# Convention : Reuss Voigt Hill
#
# Bulk Modulus (GPa) = 24.86606 32.03607 28.45106
# Shear Modulus (GPa) = 17.04312 20.87441 18.95876
#
# Velocity S-wave (km/s) = 3.11066 3.44259 3.28083
# Velocity P-wave (km/s) = 5.19801 5.83013 5.52312
#
# Compressibility (1/GPa) = 0.04021546
#
# Stress axis : x y z
#
# Youngs Moduli (GPa) = 42.22678 80.37253 53.99156
#
# Poissons Ratio (x) = 0.17147 0.09184
# Poissons Ratio (y) = 0.09009 0.18251
# Poissons Ratio (z) = 0.07183 0.27169
#
# Static dielectric constant tensor:
#      x y z
#    x 1.618650 0.000000 0.051180 
#    y 0.000000 1.590910 0.000000 
#    z 0.051180 0.000000 1.665430 
# 
# From -- ./inp_files/104737.got.cif
#   From: 2010.05.17/outbox.cif.g08.bks.cpg/sg12_53_cif.got.tgz:104737.got - 2010.06.03 13:09:07.
