data_PCOD9177379
_publ_section_title
;
Structure prediction by ZEFSAII (Michael W. Deem and Ramdas Pophale) SiO2 
 PCOD9177379
Probable space group: C 2/M
;
_chemical_formula_sum "Si O2"
_cell_formula_units_Z 36
_cell_length_a 17.930166
_cell_length_b 25.426597
_cell_length_c 5.404099
_cell_angle_alpha 90.000000
_cell_angle_beta 123.481212
_cell_angle_gamma 90.000000
_cell_volume 2054.928249
_symmetry_space_group_name_H-M "C 2/M"
_symmetry_group_IT_number 12
_symmetry_cell_setting 'monoclinic'
loop_
_space_group_symop_operation_xyz
x,y,z
-x,y,-z
-x,-y,-z
x,-y,z
1/2+x,1/2+y,z
1/2-x,1/2+y,-z
1/2-x,1/2-y,-z
1/2+x,1/2-y,z
loop_
_atom_site_type_symbol
_atom_site_label
_atom_site_fract_x
_atom_site_fract_y
_atom_site_fract_z
Si Si1 0.848738 0.343065 0.893684
Si Si2 0.605862 0.269030 0.215676
Si Si3 0.598754 0.059043 0.307547
Si Si4 0.500000 0.121939 0.500000
Si Si5 0.808695 0.197505 0.122643
O O1 0.848602 0.289169 0.732689
O O2 0.846560 0.395996 0.730833
O O3 0.767282 0.343861 0.938136
O O4 0.945543 0.343030 0.206920
O O5 0.628951 0.293907 0.523516
O O6 0.500000 0.263008 0.000000
O O7 0.641472 0.304071 0.049048
O O8 0.574919 0.083276 0.528466
O O9 0.634703 0.000000 0.376560
O O10 0.500000 0.057124 0.000000
O O11 0.750000 0.250000 0.000000
#
# Coordination Sequence:
#
# PCOD9177379 Si02
#       5
#     8   8   8   4   8
#     4  10  21  31  50  69 103 135 175 202 252 295
#     4  11  22  35  53  75 103 138 175 210 254 303
#     4   9  18  31  45  68  99 134 172 207 244 293
#     4  10  19  28  50  70  98 140 172 204 243 300
#     4  10  22  34  52  74 105 133 173 215 252 295
#
# _framework density 17.51886
#
# number of rings (size 3 to 8) (size 9 to 14) (size 15 to 20)
#    0.000    2.000    0.000    5.667   15.556    0.889 
#    0.000    0.000    0.000    0.000    0.000    0.000 
#    0.000    5.333    0.000    0.000    0.000    0.000 
#
# Total GULP energy -100308.468609 kJ/mol
# GULP energy per Si atom -5572.692700 kJ/mol
# Density = 1.747899 g / cm^3
# Si number density = 17.518860 Si / 1000 Ang^3
#
#
#
# Elastic Constant Matrix: (Units=GPa)
#
#
# Indices 1 2 3 4 5 6 
#
# 1 99.1354 41.9516 13.0897 0.0000 -11.4156 0.0000
# 2 41.9516 84.2827 8.9966 0.0000 -8.0732 0.0000
# 3 13.0897 8.9966 70.6368 0.0000 -8.6885 0.0000
# 4 0.0000 0.0000 0.0000 3.8024 0.0000 4.3057
# 5 -11.4156 -8.0732 -8.6885 0.0000 25.4905 0.0000
# 6 0.0000 0.0000 0.0000 4.3057 0.0000 21.4002
#
#
#
# Elastic Compliance Matrix: (Units=1/GPa)
#
#
# Indices 1 2 3 4 5 6 
#
# 1 0.013253 -0.006122 -0.001236 0.000000 0.003575 0.000000
# 2 -0.006122 0.015151 -0.000566 0.000000 0.001864 0.000000
# 3 -0.001236 -0.000566 0.014997 0.000000 0.004379 0.000000
# 4 0.000000 0.000000 0.000000 0.340582 0.000000 -0.068524
# 5 0.003575 0.001864 0.004379 0.000000 0.042914 0.000000
# 6 0.000000 0.000000 0.000000 -0.068524 0.000000 0.060515
#
#
# Mechanical properties :
#
#
# Convention : Reuss Voigt Hill
#
# Bulk Modulus (GPa) = 36.29567 42.45898 39.37733
# Shear Modulus (GPa) = 9.75714 22.80645 16.28179
#
# Velocity S-wave (km/s) = 2.36254 3.61199 3.05189
# Velocity P-wave (km/s) = 5.31085 6.45632 5.91140
#
# Compressibility (1/GPa) = 0.02755149
#
# Stress axis : x y z
#
# Youngs Moduli (GPa) = 75.45542 66.00185 66.68131
#
# Poissons Ratio (x) = 0.40408 0.08245
# Poissons Ratio (y) = 0.46195 0.03774
# Poissons Ratio (z) = 0.09330 0.03735
#
# Static dielectric constant tensor:
#      x y z
#    x 1.759110 0.000000 -0.037210 
#    y 0.000000 1.604750 0.000000 
#    z -0.037210 0.000000 1.683290 
# 
# From -- ./inp_files/11143.got.cif
#   From: 2010.05.17/outbox.cif.g08.bks.cpg/sg12_6_cif.got.tgz:11143.got - 2010.06.03 13:09:07.
