data_PCOD9177951
_publ_section_title
;
Structure prediction by ZEFSAII (Michael W. Deem and Ramdas Pophale) SiO2 
 PCOD9177951
Probable space group: C 2/M
;
_chemical_formula_sum "Si O2"
_cell_formula_units_Z 56
_cell_length_a 28.453743
_cell_length_b 8.614951
_cell_length_c 19.050301
_cell_angle_alpha 90.000000
_cell_angle_beta 48.933673
_cell_angle_gamma 90.000000
_cell_volume 3520.759632
_symmetry_space_group_name_H-M "C 2/M"
_symmetry_group_IT_number 12
_symmetry_cell_setting 'monoclinic'
loop_
_space_group_symop_operation_xyz
x,y,z
-x,y,-z
-x,-y,-z
x,-y,z
1/2+x,1/2+y,z
1/2-x,1/2+y,-z
1/2-x,1/2-y,-z
1/2+x,1/2-y,z
loop_
_atom_site_type_symbol
_atom_site_label
_atom_site_fract_x
_atom_site_fract_y
_atom_site_fract_z
Si Si1 0.622741 0.683293 0.979647
Si Si2 0.069126 0.678713 0.897542
Si Si3 0.432504 0.679626 0.527540
Si Si4 0.497046 0.186696 0.173078
Si Si5 0.125193 0.810280 0.277220
Si Si6 0.248284 0.686218 0.922911
Si Si7 0.996235 0.188635 0.328735
O O1 0.624527 0.500000 0.988123
O O2 0.611141 0.724288 0.909337
O O3 0.685933 0.757525 0.945988
O O4 0.563508 0.750033 0.080574
O O5 0.091073 0.500000 0.874883
O O6 0.055613 0.735602 0.832016
O O7 0.000000 0.677845 0.000000
O O8 0.500000 0.677448 0.500000
O O9 0.413876 0.500000 0.535169
O O10 0.386753 0.747513 0.631410
O O11 0.447184 0.745123 0.436226
O O12 0.485012 0.246160 0.262833
O O13 0.499491 0.000000 0.168632
O O14 0.189768 0.761060 0.179424
O O15 0.065486 0.766925 0.288252
O O16 0.124600 0.000000 0.280664
O O17 0.248979 0.500000 0.924546
O O18 0.250000 0.750000 0.000000
O O19 0.994416 0.000000 0.329106
#
# Coordination Sequence:
#
# PCOD9177951 Si02
#       7
#     8   8   8   8   8   8   8
#     4  11  21  32  46  64  88 118 153 188 222 260
#     4   8  16  31  47  63  85 114 145 178 221 270
#     4   7  11  22  41  64  87 111 143 182 218 254
#     4  10  19  30  45  66  93 119 143 177 223 272
#     4   8  15  27  43  63  87 119 154 182 211 254
#     4  11  21  32  46  65  92 124 157 187 215 254
#     4   9  15  25  45  70  92 113 143 183 221 259
#
# _framework density 15.905657
#
# number of rings (size 3 to 8) (size 9 to 14) (size 15 to 20)
#    0.000    2.857    0.000    5.571    0.000    4.286 
#    0.000    0.714    0.000    5.571    0.000    1.000 
#    0.000    0.000    0.000    0.000    0.000    0.000 
#
# Total GULP energy -155920.572744 kJ/mol
# GULP energy per Si atom -5568.591884 kJ/mol
# Density = 1.586946 g / cm^3
# Si number density = 15.905657 Si / 1000 Ang^3
#
#
#
# Elastic Constant Matrix: (Units=GPa)
#
#
# Indices 1 2 3 4 5 6 
#
# 1 90.3028 25.8692 66.5177 0.0000 19.0531 0.0002
# 2 25.8692 37.0762 27.5561 0.0041 3.9936 -0.0008
# 3 66.5177 27.5561 143.6804 -0.0007 22.9707 0.0001
# 4 0.0000 0.0041 -0.0007 15.8681 0.0005 6.6768
# 5 19.0531 3.9936 22.9707 0.0005 27.4492 -0.0002
# 6 0.0002 -0.0008 0.0001 6.6768 -0.0002 18.5432
#
#
#
# Elastic Compliance Matrix: (Units=1/GPa)
#
#
# Indices 1 2 3 4 5 6 
#
# 1 0.019609 -0.008179 -0.006377 0.000003 -0.007085 -0.000002
# 2 -0.008179 0.034874 -0.003461 -0.000012 0.003500 0.000006
# 3 -0.006377 -0.003461 0.011299 0.000002 -0.004526 -0.000001
# 4 0.000003 -0.000012 0.000002 0.074272 -0.000003 -0.026743
# 5 -0.007085 0.003500 -0.004526 -0.000003 0.044627 0.000002
# 6 -0.000002 0.000006 -0.000001 -0.026743 0.000002 0.063558
#
#
# Mechanical properties :
#
#
# Convention : Reuss Voigt Hill
#
# Bulk Modulus (GPa) = 33.61605 56.77170 45.19387
# Shear Modulus (GPa) = 16.99586 22.44655 19.72120
#
# Velocity S-wave (km/s) = 3.27240 3.76071 3.52502
# Velocity P-wave (km/s) = 5.95472 7.39104 6.71142
#
# Compressibility (1/GPa) = 0.02974769
#
# Stress axis : x y z
#
# Youngs Moduli (GPa) = 50.99719 28.67468 88.49974
#
# Poissons Ratio (x) = 0.23454 0.56434
# Poissons Ratio (y) = 0.41712 0.30633
# Poissons Ratio (z) = 0.32520 0.09925
#
# Static dielectric constant tensor:
#      x y z
#    x 1.516520 0.000000 0.020280 
#    y 0.000000 1.542000 0.000000 
#    z 0.020280 0.000000 1.558150 
# 
# From -- ./inp_files/291485.got.cif
#   From: 2010.05.17/outbox.cif.g08.bks.cpg/sg12_146_cif.got.tgz:291485.got - 2010.06.03 13:09:07.
