data_PCOD9177734
_publ_section_title
;
Structure prediction by ZEFSAII (Michael W. Deem and Ramdas Pophale) SiO2 
 PCOD9177734
Probable space group: C 2/M
;
_chemical_formula_sum "Si O2"
_cell_formula_units_Z 56
_cell_length_a 23.974975
_cell_length_b 28.585097
_cell_length_c 5.223651
_cell_angle_alpha 90.000000
_cell_angle_beta 70.155691
_cell_angle_gamma 90.000000
_cell_volume 3367.328732
_symmetry_space_group_name_H-M "C 2/M"
_symmetry_group_IT_number 12
_symmetry_cell_setting 'monoclinic'
loop_
_space_group_symop_operation_xyz
x,y,z
-x,y,-z
-x,-y,-z
x,-y,z
1/2+x,1/2+y,z
1/2-x,1/2+y,-z
1/2-x,1/2-y,-z
1/2+x,1/2-y,z
loop_
_atom_site_type_symbol
_atom_site_label
_atom_site_fract_x
_atom_site_fract_y
_atom_site_fract_z
Si Si1 0.430524 0.596325 0.159134
Si Si2 0.868517 0.944581 0.750625
Si Si3 0.288280 0.705766 0.860848
Si Si4 0.741117 0.388851 0.295912
Si Si5 0.656649 0.673967 0.717668
Si Si6 0.432798 0.056580 0.638785
Si Si7 0.640907 0.056442 0.742440
O O1 0.410986 0.569857 0.447793
O O2 0.324303 0.709463 0.537831
O O3 0.406332 0.649436 0.222183
O O4 0.500000 0.593917 0.000000
O O5 0.805354 0.920522 0.788209
O O6 0.861884 0.000000 0.772975
O O7 0.896655 0.925655 0.968424
O O8 0.248177 0.659160 0.878660
O O9 0.250000 0.750000 0.000000
O O10 0.333207 0.694248 0.019734
O O11 0.703606 0.368503 0.594564
O O12 0.798273 0.417053 0.291592
O O13 0.500000 0.074070 0.500000
O O14 0.388928 0.071068 0.478582
O O15 0.435607 0.000000 0.616612
O O16 0.404922 0.067162 0.957151
O O17 0.650761 0.000000 0.723325
#
# Coordination Sequence:
#
# PCOD9177734 Si02
#       7
#     8   8   8   8   8   8   8
#     4  11  21  36  53  74 105 149 192 227 257 305
#     4  11  22  35  50  72 111 153 181 227 267 298
#     4  10  19  34  57  77 102 125 159 210 277 319
#     4   9  21  32  52  74 112 126 173 206 269 314
#     4   9  19  35  51  77 108 129 162 223 264 317
#     4   9  18  31  45  66  97 129 170 210 234 273
#     4  10  19  29  48  72  98 136 170 198 242 303
#
# _framework density 16.630393999999999
#
# number of rings (size 3 to 8) (size 9 to 14) (size 15 to 20)
#    0.857    1.286    1.429    2.143    2.000    3.429 
#    0.000    2.857    0.000    0.000    0.000    4.000 
#    0.000    0.000    0.000    0.000    0.000    0.000 
#
# Total GULP energy -155950.040647 kJ/mol
# GULP energy per Si atom -5569.644309 kJ/mol
# Density = 1.659254 g / cm^3
# Si number density = 16.630394 Si / 1000 Ang^3
#
#
#
# Elastic Constant Matrix: (Units=GPa)
#
#
# Indices 1 2 3 4 5 6 
#
# 1 51.4276 18.8945 4.4102 0.0000 -4.3289 0.0000
# 2 18.8945 55.7775 8.1341 0.0000 -7.9776 0.0000
# 3 4.4102 8.1341 50.3851 0.0000 13.4208 0.0000
# 4 0.0000 0.0000 0.0000 13.7816 0.0000 3.5470
# 5 -4.3289 -7.9776 13.4208 0.0000 29.9969 0.0000
# 6 0.0000 0.0000 0.0000 3.5470 0.0000 11.6360
#
#
#
# Elastic Compliance Matrix: (Units=1/GPa)
#
#
# Indices 1 2 3 4 5 6 
#
# 1 0.022327 -0.007095 -0.001322 0.000000 0.001927 0.000000
# 2 -0.007095 0.022029 -0.004795 0.000000 0.006980 0.000000
# 3 -0.001322 -0.004795 0.023986 0.000000 -0.012197 0.000000
# 4 0.000000 0.000000 0.000000 0.078738 0.000000 -0.024002
# 5 0.001927 0.006980 -0.012197 0.000000 0.040928 0.000000
# 6 0.000000 0.000000 0.000000 -0.024002 0.000000 0.093257
#
#
# Mechanical properties :
#
#
# Convention : Reuss Voigt Hill
#
# Bulk Modulus (GPa) = 23.85550 24.49644 24.17597
# Shear Modulus (GPa) = 15.54434 19.49299 17.51867
#
# Velocity S-wave (km/s) = 3.06059 3.42735 3.24915
# Velocity P-wave (km/s) = 5.18318 5.51582 5.35208
#
# Compressibility (1/GPa) = 0.04191905
#
# Stress axis : x y z
#
# Youngs Moduli (GPa) = 44.78875 45.39426 41.69135
#
# Poissons Ratio (x) = 0.32207 0.05512
# Poissons Ratio (y) = 0.31777 0.19989
# Poissons Ratio (z) = 0.05921 0.21764
#
# Static dielectric constant tensor:
#      x y z
#    x 1.543760 0.000000 0.009310 
#    y 0.000000 1.558780 0.000000 
#    z 0.009310 0.000000 1.580090 
# 
# From -- ./inp_files/26388.got.cif
#   From: 2010.05.17/outbox.cif.g08.bks.cpg/sg12_14_cif.got.tgz:26388.got - 2010.06.03 13:09:07.
