data_PCOD9177387
_publ_section_title
;
Structure prediction by ZEFSAII (Michael W. Deem and Ramdas Pophale) SiO2 
 PCOD9177387
Probable space group: C 2/M
;
_chemical_formula_sum "Si O2"
_cell_formula_units_Z 64
_cell_length_a 32.035497
_cell_length_b 7.368020
_cell_length_c 16.336929
_cell_angle_alpha 90.000000
_cell_angle_beta 56.080128
_cell_angle_gamma 90.000000
_cell_volume 3199.896630
_symmetry_space_group_name_H-M "C 2/M"
_symmetry_group_IT_number 12
_symmetry_cell_setting 'monoclinic'
loop_
_space_group_symop_operation_xyz
x,y,z
-x,y,-z
-x,-y,-z
x,-y,z
1/2+x,1/2+y,z
1/2-x,1/2+y,-z
1/2-x,1/2-y,-z
1/2+x,1/2-y,z
loop_
_atom_site_type_symbol
_atom_site_label
_atom_site_fract_x
_atom_site_fract_y
_atom_site_fract_z
Si Si1 0.895223 0.709381 0.071423
Si Si2 0.938025 0.721049 0.195396
Si Si3 0.546193 0.778427 0.145879
Si Si4 0.029596 0.721159 0.345322
Si Si5 0.833246 0.719324 0.382309
Si Si6 0.316780 0.222569 0.583545
Si Si7 0.711227 0.292988 0.744281
Si Si8 0.424468 0.779035 0.533329
O O1 0.911326 0.500000 0.052268
O O2 0.923617 0.787304 0.120085
O O3 0.836069 0.712091 0.156049
O O4 0.912285 0.783266 0.965251
O O5 0.938413 0.500000 0.192953
O O6 0.891572 0.771200 0.304741
O O7 0.992049 0.776599 0.168690
O O8 0.549631 0.716866 0.235799
O O9 0.547056 0.000000 0.149061
O O10 0.029797 0.500000 0.345388
O O11 0.061485 0.777239 0.389779
O O12 0.971575 0.775345 0.424912
O O13 0.830644 0.500000 0.382035
O O14 0.814231 0.779108 0.491329
O O15 0.803551 0.787769 0.335755
O O16 0.267307 0.284934 0.686114
O O17 0.370040 0.280318 0.562315
O O18 0.315829 0.000000 0.584786
O O19 0.713537 0.500000 0.769352
O O20 0.423791 0.000000 0.532810
#
# Coordination Sequence:
#
# PCOD9177387 Si02
#       8
#     8   8   8   8   8   8   8   8
#     4   9  17  28  41  57  80 111 142 171 200 231
#     4   8  13  21  36  58  80 101 128 163 200 239
#     4   9  14  21  37  60  81 103 136 170 200 239
#     4   8  13  20  34  58  86 109 125 156 207 251
#     4   9  16  27  43  62  83 107 134 164 200 240
#     4   9  16  25  39  57  78 108 140 164 193 242
#     4  10  19  29  40  56  81 112 142 170 199 231
#     4   8  13  22  35  56  86 110 127 154 202 256
#
# _framework density 20.000644999999999
#
# number of rings (size 3 to 8) (size 9 to 14) (size 15 to 20)
#    0.000    3.250    0.000    3.375    0.000    4.500 
#    0.000    0.625    0.000    6.750    0.000    0.000 
#    0.000    2.000    0.000   22.000    0.000   17.625 
#
# Total GULP energy -178488.227565 kJ/mol
# GULP energy per Si atom -5577.757111 kJ/mol
# Density = 1.995512 g / cm^3
# Si number density = 20.000645 Si / 1000 Ang^3
#
#
#
# Elastic Constant Matrix: (Units=GPa)
#
#
# Indices 1 2 3 4 5 6 
#
# 1 60.3642 -9.9347 35.5798 0.0001 -14.7863 -0.0001
# 2 -9.9347 67.0437 -3.8138 -0.0010 2.7657 -0.0018
# 3 35.5798 -3.8138 135.4237 0.0002 3.0549 0.0000
# 4 0.0001 -0.0010 0.0002 -3.9124 0.0000 -7.7398
# 5 -14.7863 2.7657 3.0549 0.0000 18.3153 -0.0001
# 6 -0.0001 -0.0018 0.0000 -7.7398 -0.0001 -1.0804
#
#
#
# Elastic Compliance Matrix: (Units=1/GPa)
#
#
# Indices 1 2 3 4 5 6 
#
# 1 0.026981 0.002636 -0.007525 -0.000001 0.022639 0.000000
# 2 0.002636 0.015297 -0.000259 -0.000003 -0.000139 0.000000
# 3 -0.007525 -0.000259 0.009526 0.000000 -0.007625 0.000000
# 4 -0.000001 -0.000003 0.000000 0.019404 -0.000001 -0.139011
# 5 0.022639 -0.000139 -0.007625 -0.000001 0.074169 0.000001
# 6 0.000000 0.000000 0.000000 -0.139011 0.000001 0.070268
#
#
# Mechanical properties :
#
#
# Convention : Reuss Voigt Hill
#
# Bulk Modulus (GPa) = 24.09122 34.05491 29.07307
# Shear Modulus (GPa) = 20.85270 18.73120 19.79195
#
# Velocity S-wave (km/s) = 3.23244 3.06360 3.14915
# Velocity P-wave (km/s) = 5.09930 5.43857 5.27167
#
# Compressibility (1/GPa) = 0.04150889
#
# Stress axis : x y z
#
# Youngs Moduli (GPa) = 37.06317 65.37114 104.97550
#
# Poissons Ratio (x) = -0.17233 0.78996
# Poissons Ratio (y) = -0.09770 0.02715
# Poissons Ratio (z) = 0.27891 0.01691
#
# Static dielectric constant tensor:
#      x y z
#    x 1.676430 0.000000 -0.010130 
#    y 0.000000 1.790240 0.000000 
#    z -0.010130 0.000000 1.707000 
# 
# From -- ./inp_files/249087.got.cif
#   From: 2010.05.17/outbox.cif.g08.bks.cpg/sg12_125_cif.got.tgz:249087.got - 2010.06.03 13:09:07.
