data_PCOD9177664
_publ_section_title
;
Structure prediction by ZEFSAII (Michael W. Deem and Ramdas Pophale) SiO2 
 PCOD9177664
Probable space group: C 2/M
;
_chemical_formula_sum "Si O2"
_cell_formula_units_Z 64
_cell_length_a 16.677193
_cell_length_b 14.032939
_cell_length_c 23.565540
_cell_angle_alpha 90.000000
_cell_angle_beta 33.899494
_cell_angle_gamma 90.000000
_cell_volume 3075.948436
_symmetry_space_group_name_H-M "C 2/M"
_symmetry_group_IT_number 12
_symmetry_cell_setting 'monoclinic'
loop_
_space_group_symop_operation_xyz
x,y,z
-x,y,-z
-x,-y,-z
x,-y,z
1/2+x,1/2+y,z
1/2-x,1/2+y,-z
1/2-x,1/2-y,-z
1/2+x,1/2-y,z
loop_
_atom_site_type_symbol
_atom_site_label
_atom_site_fract_x
_atom_site_fract_y
_atom_site_fract_z
Si Si1 0.838259 0.610031 0.324726
Si Si2 0.918888 0.390869 0.492678
Si Si3 0.551669 0.386138 0.564263
Si Si4 0.859288 0.276543 0.687328
Si Si5 0.573014 0.608994 0.019336
Si Si6 0.419861 0.608723 0.318957
Si Si7 0.923205 0.784919 0.206512
Si Si8 0.858975 0.608183 0.791173
O O1 0.815497 0.500000 0.321920
O O2 0.693019 0.641902 0.444261
O O3 0.887250 0.676360 0.244000
O O4 0.976871 0.613500 0.284811
O O5 0.962932 0.500000 0.460633
O O6 0.750334 0.387181 0.592363
O O7 0.000000 0.351733 0.500000
O O8 0.989414 0.331926 0.401942
O O9 0.535417 0.500000 0.566730
O O10 0.407631 0.326631 0.636193
O O11 0.567236 0.365483 0.622578
O O12 0.734822 0.320681 0.721430
O O13 0.813811 0.303298 0.777616
O O14 0.532974 0.500000 0.060574
O O15 0.522203 0.684370 0.096081
O O16 0.500000 0.623466 0.000000
O O17 0.744294 0.611879 0.909527
O O18 0.470413 0.500000 0.283489
O O19 0.480251 0.670583 0.231951
O O20 0.838281 0.500000 0.777773
#
# Coordination Sequence:
#
# PCOD9177664 Si02
#       8
#     8   8   8   8   8   8   8   8
#     4  10  23  42  60  82 116 159 203 242 283 339
#     4  10  19  29  45  76 113 140 171 225 290 347
#     4  10  23  41  58  79 118 166 204 236 279 339
#     4  12  22  33  56  85 115 152 198 236 284 345
#     4  10  21  39  62  90 121 149 183 237 305 365
#     4  10  20  35  54  81 115 149 187 237 293 346
#     4  12  23  35  59  89 116 150 195 245 290 340
#     4  10  21  39  63  87 115 153 192 237 298 359
#
# _framework density 20.80659
#
# number of rings (size 3 to 8) (size 9 to 14) (size 15 to 20)
#    0.000    1.500    2.500    3.000    0.000    5.500 
#    0.000    1.250    0.000    1.125    0.000    0.000 
#    0.000    0.000    0.000    0.000    0.000    0.000 
#
# Total GULP energy -178307.668888 kJ/mol
# GULP energy per Si atom -5572.114653 kJ/mol
# Density = 2.075923 g / cm^3
# Si number density = 20.806590 Si / 1000 Ang^3
#
#
#
# Elastic Constant Matrix: (Units=GPa)
#
#
# Indices 1 2 3 4 5 6 
#
# 1 36.9733 10.4442 13.4717 0.0000 8.6363 0.0000
# 2 10.4442 59.7558 32.4674 -0.0004 20.0440 0.0001
# 3 13.4717 32.4674 86.2225 -0.0009 14.0419 0.0002
# 4 0.0000 -0.0004 -0.0009 31.5393 0.0003 4.7885
# 5 8.6363 20.0440 14.0419 0.0003 29.0849 -0.0001
# 6 0.0000 0.0001 0.0002 4.7885 -0.0001 23.3667
#
#
#
# Elastic Compliance Matrix: (Units=1/GPa)
#
#
# Indices 1 2 3 4 5 6 
#
# 1 0.030089 -0.001393 -0.003124 0.000000 -0.006466 0.000000
# 2 -0.001393 0.025442 -0.007136 0.000000 -0.013675 0.000000
# 3 -0.003124 -0.007136 0.015000 0.000000 -0.001397 0.000000
# 4 0.000000 0.000000 0.000000 0.032725 -0.000001 -0.006706
# 5 -0.006466 -0.013675 -0.001397 -0.000001 0.046401 0.000000
# 6 0.000000 0.000000 0.000000 -0.006706 0.000000 0.044170
#
#
# Mechanical properties :
#
#
# Convention : Reuss Voigt Hill
#
# Bulk Modulus (GPa) = 21.17418 32.85757 27.01587
# Shear Modulus (GPa) = 21.47088 25.23608 23.35348
#
# Velocity S-wave (km/s) = 3.21585 3.48643 3.35387
# Velocity P-wave (km/s) = 4.89772 5.65978 5.29249
#
# Compressibility (1/GPa) = 0.04722734
#
# Stress axis : x y z
#
# Youngs Moduli (GPa) = 33.23524 39.30455 66.66482
#
# Poissons Ratio (x) = 0.05474 0.20823
# Poissons Ratio (y) = 0.04629 0.47570
# Poissons Ratio (z) = 0.10381 0.28047
#
# Static dielectric constant tensor:
#      x y z
#    x 1.818010 0.000000 0.051710 
#    y 0.000000 1.843460 0.000000 
#    z 0.051710 0.000000 1.789150 
# 
# From -- ./inp_files/344030.got.cif
#   From: 2010.05.17/outbox.cif.g08.bks.cpg/sg12_173_cif.got.tgz:344030.got - 2010.06.03 13:09:07.
