data_PCOD9177603
_publ_section_title
;
Structure prediction by ZEFSAII (Michael W. Deem and Ramdas Pophale) SiO2 
 PCOD9177603
Probable space group: C 2/M
;
_chemical_formula_sum "Si O2"
_cell_formula_units_Z 56
_cell_length_a 25.292604
_cell_length_b 10.329033
_cell_length_c 14.278143
_cell_angle_alpha 90.000000
_cell_angle_beta 115.620232
_cell_angle_gamma 90.000000
_cell_volume 3363.390727
_symmetry_space_group_name_H-M "C 2/M"
_symmetry_group_IT_number 12
_symmetry_cell_setting 'monoclinic'
loop_
_space_group_symop_operation_xyz
x,y,z
-x,y,-z
-x,-y,-z
x,-y,z
1/2+x,1/2+y,z
1/2-x,1/2+y,-z
1/2-x,1/2-y,-z
1/2+x,1/2-y,z
loop_
_atom_site_type_symbol
_atom_site_label
_atom_site_fract_x
_atom_site_fract_y
_atom_site_fract_z
Si Si1 0.864541 0.349649 0.687167
Si Si2 0.064056 0.725354 0.528528
Si Si3 0.216619 0.846838 0.905923
Si Si4 0.684958 0.858429 0.550513
Si Si5 0.411910 0.654461 0.252154
Si Si6 0.958254 0.848900 0.685712
Si Si7 0.756478 0.350288 0.722339
O O1 0.884815 0.500000 0.700399
O O2 0.820682 0.333810 0.564559
O O3 0.916083 0.247491 0.709815
O O4 0.824385 0.328992 0.747190
O O5 0.117461 0.639724 0.533432
O O6 0.085017 0.787612 0.641500
O O7 0.053808 0.825744 0.434867
O O8 0.000000 0.665238 0.500000
O O9 0.147883 0.809424 0.845467
O O10 0.242478 0.834316 0.820770
O O11 0.221055 0.000000 0.935677
O O12 0.250000 0.750000 0.000000
O O13 0.717866 0.747671 0.632004
O O14 0.711938 0.000000 0.586721
O O15 0.410544 0.500000 0.262041
O O16 0.473252 0.685944 0.248695
O O17 0.948660 0.000000 0.700232
O O18 0.742574 0.500000 0.686710
#
# Coordination Sequence:
#
# PCOD9177603 Si02
#       7
#     8   8   8   8   8   8   8
#     4   9  19  33  47  71 106 139 168 198 241 298
#     4   9  16  27  44  70 104 138 169 198 239 297
#     4  10  21  37  56  76  98 126 167 217 261 300
#     4  10  19  29  44  72 106 135 168 207 243 287
#     4   9  16  30  50  73 100 130 167 208 251 296
#     4   9  17  28  49  77 102 132 168 204 240 293
#     4  10  20  35  54  70  95 137 173 204 249 302
#
# _framework density 16.649863
#
# number of rings (size 3 to 8) (size 9 to 14) (size 15 to 20)
#    0.000    2.571    1.429    0.857    0.000    5.429 
#    0.000    2.857    0.000    0.857    0.000    6.000 
#    0.000    0.000    0.000    0.000    0.000    0.000 
#
# Total GULP energy -155958.192535 kJ/mol
# GULP energy per Si atom -5569.935448 kJ/mol
# Density = 1.661197 g / cm^3
# Si number density = 16.649863 Si / 1000 Ang^3
#
#
#
# Elastic Constant Matrix: (Units=GPa)
#
#
# Indices 1 2 3 4 5 6 
#
# 1 96.9382 65.7204 38.7310 0.0000 9.5765 0.0000
# 2 65.7204 86.6357 48.1560 0.0000 11.3404 0.0000
# 3 38.7310 48.1560 61.3569 0.0000 20.7159 0.0000
# 4 0.0000 0.0000 0.0000 21.3870 0.0000 6.9295
# 5 9.5765 11.3404 20.7159 0.0000 18.5033 0.0000
# 6 0.0000 0.0000 0.0000 6.9295 0.0000 17.8414
#
#
#
# Elastic Compliance Matrix: (Units=1/GPa)
#
#
# Indices 1 2 3 4 5 6 
#
# 1 0.021302 -0.015417 -0.001309 0.000000 -0.000110 0.000000
# 2 -0.015417 0.032554 -0.018932 0.000000 0.009223 0.000000
# 3 -0.001309 -0.018932 0.044754 0.000000 -0.037825 0.000000
# 4 0.000000 0.000000 0.000000 0.053489 0.000000 -0.020775
# 5 -0.000110 0.009223 -0.037825 0.000000 0.090796 0.000000
# 6 0.000000 0.000000 0.000000 -0.020775 0.000000 0.064118
#
#
# Mechanical properties :
#
#
# Convention : Reuss Voigt Hill
#
# Bulk Modulus (GPa) = 36.63948 61.12731 48.88340
# Shear Modulus (GPa) = 12.90563 17.70124 15.30343
#
# Velocity S-wave (km/s) = 2.78712 3.26413 3.03501
# Velocity P-wave (km/s) = 5.69307 7.14137 6.45795
#
# Compressibility (1/GPa) = 0.02729296
#
# Stress axis : x y z
#
# Youngs Moduli (GPa) = 46.94351 30.71843 22.34434
#
# Poissons Ratio (x) = 0.47359 0.02926
# Poissons Ratio (y) = 0.72374 0.42302
# Poissons Ratio (z) = 0.06147 0.58156
#
# Static dielectric constant tensor:
#      x y z
#    x 1.606990 0.000000 0.008220 
#    y 0.000000 1.560170 0.000000 
#    z 0.008220 0.000000 1.530510 
# 
# From -- ./inp_files/244314.got.cif
#   From: 2010.05.17/outbox.cif.g08.bks.cpg/sg12_123_cif.got.tgz:244314.got - 2010.06.03 13:09:07.
