data_PCOD9177543
_publ_section_title
;
Structure prediction by ZEFSAII (Michael W. Deem and Ramdas Pophale) SiO2 
 PCOD9177543
Probable space group: C 2/M
;
_chemical_formula_sum "Si O2"
_cell_formula_units_Z 64
_cell_length_a 23.747120
_cell_length_b 21.889972
_cell_length_c 13.743220
_cell_angle_alpha 90.000000
_cell_angle_beta 148.194640
_cell_angle_gamma 90.000000
_cell_volume 3765.167978
_symmetry_space_group_name_H-M "C 2/M"
_symmetry_group_IT_number 12
_symmetry_cell_setting 'monoclinic'
loop_
_space_group_symop_operation_xyz
x,y,z
-x,y,-z
-x,-y,-z
x,-y,z
1/2+x,1/2+y,z
1/2-x,1/2+y,-z
1/2-x,1/2-y,-z
1/2+x,1/2-y,z
loop_
_atom_site_type_symbol
_atom_site_label
_atom_site_fract_x
_atom_site_fract_y
_atom_site_fract_z
Si Si1 0.735447 0.643551 0.132678
Si Si2 0.143994 0.697864 0.152910
Si Si3 0.584262 0.927873 0.710897
Si Si4 0.023107 0.336446 0.788269
Si Si5 0.879920 0.155427 0.846321
Si Si6 0.585531 0.283252 0.772649
Si Si7 0.300287 0.182985 0.554865
Si Si8 0.150398 0.230991 0.656392
O O1 0.804310 0.598077 0.167959
O O2 0.677331 0.623301 0.146402
O O3 0.818055 0.697409 0.287334
O O4 0.638994 0.671525 0.927235
O O5 0.113434 0.770495 0.119754
O O6 0.152566 0.666863 0.270541
O O7 0.260510 0.700058 0.277367
O O8 0.070905 0.664137 0.967105
O O9 0.500000 0.916165 0.500000
O O10 0.543700 0.893954 0.748960
O O11 0.591105 0.000000 0.737551
O O12 0.085865 0.282450 0.824763
O O13 0.898390 0.319315 0.622640
O O14 0.799730 0.147730 0.637797
O O15 0.000000 0.135637 0.000000
O O16 0.462873 0.285870 0.557028
O O17 0.651069 0.288659 0.769571
O O18 0.250000 0.250000 0.500000
#
# Coordination Sequence:
#
# PCOD9177543 Si02
#       8
#     8   8   8   8   8   8   8   8
#     4  11  20  34  52  79 112 145 177 227 272 332
#     4  10  19  29  47  72 112 149 176 204 267 335
#     4  11  24  40  58  79 106 147 192 237 282 319
#     4  12  19  33  54  78 112 146 180 227 275 338
#     4  10  19  30  46  75 114 148 177 211 268 335
#     4  11  19  28  50  75 113 138 174 216 279 336
#     4  10  20  30  47  75 116 151 176 210 262 337
#     4  10  19  29  43  77 109 145 173 207 268 340
#
# _framework density 16.997914000000002
#
# number of rings (size 3 to 8) (size 9 to 14) (size 15 to 20)
#    0.000    1.375    3.750    6.750    1.750    0.000 
#    0.000    0.000    0.000    1.875    0.000    7.000 
#    0.000    0.000    0.000    0.000    0.000    0.000 
#
# Total GULP energy -178307.938681 kJ/mol
# GULP energy per Si atom -5572.123084 kJ/mol
# Density = 1.695923 g / cm^3
# Si number density = 16.997914 Si / 1000 Ang^3
#
#
#
# Elastic Constant Matrix: (Units=GPa)
#
#
# Indices 1 2 3 4 5 6 
#
# 1 118.9709 27.8816 43.3457 0.0000 3.0105 0.0000
# 2 27.8816 27.9135 29.4160 0.0000 -3.2881 0.0000
# 3 43.3457 29.4160 101.6235 0.0000 -13.1968 0.0000
# 4 0.0000 0.0000 0.0000 10.6045 0.0000 -4.2196
# 5 3.0105 -3.2881 -13.1968 0.0000 38.8157 0.0000
# 6 0.0000 0.0000 0.0000 -4.2196 0.0000 9.1867
#
#
#
# Elastic Compliance Matrix: (Units=1/GPa)
#
#
# Indices 1 2 3 4 5 6 
#
# 1 0.011555 -0.009064 -0.002638 0.000000 -0.002561 0.000000
# 2 -0.009064 0.058680 -0.012955 0.000000 0.001270 0.000000
# 3 -0.002638 -0.012955 0.015273 0.000000 0.004300 0.000000
# 4 0.000000 0.000000 0.000000 0.115389 0.000000 0.053000
# 5 -0.002561 0.001270 0.004300 0.000000 0.027531 0.000000
# 6 0.000000 0.000000 0.000000 0.053000 0.000000 0.133197
#
#
# Mechanical properties :
#
#
# Convention : Reuss Voigt Hill
#
# Bulk Modulus (GPa) = 27.62708 49.97716 38.80212
# Shear Modulus (GPa) = 11.82021 21.57901 16.69961
#
# Velocity S-wave (km/s) = 2.63989 3.56688 3.13781
# Velocity P-wave (km/s) = 5.05772 6.81391 6.00041
#
# Compressibility (1/GPa) = 0.03619637
#
# Stress axis : x y z
#
# Youngs Moduli (GPa) = 86.53895 17.04145 65.47311
#
# Poissons Ratio (x) = 0.15447 0.17269
# Poissons Ratio (y) = 0.78443 0.84817
# Poissons Ratio (z) = 0.22825 0.22076
#
# Static dielectric constant tensor:
#      x y z
#    x 1.614310 0.000000 -0.006030 
#    y 0.000000 1.547360 0.000000 
#    z -0.006030 0.000000 1.640630 
# 
# From -- ./inp_files/169707.got.cif
#   From: 2010.05.17/outbox.cif.g08.bks.cpg/sg12_85_cif.got.tgz:169707.got - 2010.06.03 13:09:07.
