data_PCOD9177454
_publ_section_title
;
Structure prediction by ZEFSAII (Michael W. Deem and Ramdas Pophale) SiO2 
 PCOD9177454
Probable space group: C 2/M
;
_chemical_formula_sum "Si O2"
_cell_formula_units_Z 64
_cell_length_a 27.847289
_cell_length_b 9.112516
_cell_length_c 16.617188
_cell_angle_alpha 90.000000
_cell_angle_beta 86.906355
_cell_angle_gamma 90.000000
_cell_volume 4210.613551
_symmetry_space_group_name_H-M "C 2/M"
_symmetry_group_IT_number 12
_symmetry_cell_setting 'monoclinic'
loop_
_space_group_symop_operation_xyz
x,y,z
-x,y,-z
-x,-y,-z
x,-y,z
1/2+x,1/2+y,z
1/2-x,1/2+y,-z
1/2-x,1/2-y,-z
1/2+x,1/2-y,z
loop_
_atom_site_type_symbol
_atom_site_label
_atom_site_fract_x
_atom_site_fract_y
_atom_site_fract_z
Si Si1 0.290963 0.669241 0.103343
Si Si2 0.350099 0.673883 0.784330
Si Si3 0.417464 0.176713 0.648095
Si Si4 0.216750 0.174339 0.569745
Si Si5 0.520763 0.167770 0.589493
Si Si6 0.320591 0.169319 0.945671
Si Si7 0.239975 0.673752 0.736151
Si Si8 0.608771 0.327123 0.517586
O O1 0.305384 0.500000 0.112539
O O2 0.235524 0.669044 0.077057
O O3 0.289335 0.756020 0.187170
O O4 0.321207 0.749485 0.031236
O O5 0.359260 0.500000 0.787606
O O6 0.387905 0.754143 0.723547
O O7 0.348278 0.744704 0.873058
O O8 0.296641 0.693681 0.751330
O O9 0.474477 0.213442 0.645554
O O10 0.397058 0.241176 0.566096
O O11 0.413490 0.000000 0.647088
O O12 0.250000 0.250000 0.500000
O O13 0.227523 0.246249 0.654647
O O14 0.161349 0.196281 0.549441
O O15 0.226168 0.000000 0.571471
O O16 0.500000 0.166713 0.500000
O O17 0.567221 0.269458 0.581044
O O18 0.534237 0.000000 0.608024
O O19 0.335820 0.000000 0.950249
O O20 0.231013 0.500000 0.731338
O O21 0.602166 0.500000 0.502608
#
# Coordination Sequence:
#
# PCOD9177454 Si02
#       8
#     8   8   8   8   8   8   8   8
#     4   9  16  27  43  61  83 112 145 181 218 255
#     4  10  19  29  42  63  90 117 147 181 217 259
#     4  10  19  30  45  65  88 114 144 177 217 265
#     4  11  23  35  46  63  87 116 151 187 221 257
#     4   8  16  30  46  64  84 108 140 176 216 263
#     4   9  16  26  41  61  85 114 145 176 214 259
#     4  10  20  32  45  62  85 116 153 187 218 256
#     4  10  20  32  46  64  85 111 146 185 221 258
#
# _framework density 15.199685000000001
#
# number of rings (size 3 to 8) (size 9 to 14) (size 15 to 20)
#    0.000    2.375    0.000    4.125    0.000   12.250 
#    0.000    0.000    0.000    0.000    0.000    0.000 
#    0.000    1.000    0.000   10.500    0.000    6.250 
#
# Total GULP energy -178427.005753 kJ/mol
# GULP energy per Si atom -5575.843930 kJ/mol
# Density = 1.516509 g / cm^3
# Si number density = 15.199685 Si / 1000 Ang^3
#
#
#
# Elastic Constant Matrix: (Units=GPa)
#
#
# Indices 1 2 3 4 5 6 
#
# 1 60.7445 66.4270 54.0763 0.0000 -18.6618 0.0000
# 2 66.4270 126.4976 83.6328 0.0000 -18.2987 0.0000
# 3 54.0763 83.6328 142.0774 0.0000 -24.9896 0.0000
# 4 0.0000 0.0000 0.0000 30.3280 0.0000 -4.7952
# 5 -18.6618 -18.2987 -24.9896 0.0000 21.2786 0.0000
# 6 0.0000 0.0000 0.0000 -4.7952 0.0000 21.5691
#
#
#
# Elastic Compliance Matrix: (Units=1/GPa)
#
#
# Indices 1 2 3 4 5 6 
#
# 1 0.047017 -0.020066 -0.002352 0.000000 0.021217 0.000000
# 2 -0.020066 0.021635 -0.006202 0.000000 -0.006277 0.000000
# 3 -0.002352 -0.006202 0.012960 0.000000 0.007825 0.000000
# 4 0.000000 0.000000 0.000000 0.034174 0.000000 0.007597
# 5 0.021217 -0.006277 0.007825 0.000000 0.069396 0.000000
# 6 0.000000 0.000000 0.000000 0.007597 0.000000 0.048052
#
#
# Mechanical properties :
#
#
# Convention : Reuss Voigt Hill
#
# Bulk Modulus (GPa) = 41.02807 81.95463 61.49135
# Shear Modulus (GPa) = 16.74497 22.98072 19.86285
#
# Velocity S-wave (km/s) = 3.32274 3.89256 3.61888
# Velocity P-wave (km/s) = 6.46313 8.61617 7.61612
#
# Compressibility (1/GPa) = 0.02437356
#
# Stress axis : x y z
#
# Youngs Moduli (GPa) = 21.26874 46.22217 77.15758
#
# Poissons Ratio (x) = 0.92749 0.18146
# Poissons Ratio (y) = 0.42677 0.47851
# Poissons Ratio (z) = 0.05002 0.28666
#
# Static dielectric constant tensor:
#      x y z
#    x 1.492520 0.000000 -0.015590 
#    y 0.000000 1.509260 0.000000 
#    z -0.015590 0.000000 1.489560 
# 
# From -- ./inp_files/243931.got.cif
#   From: 2010.05.17/outbox.cif.g08.bks.cpg/sg12_122_cif.got.tgz:243931.got - 2010.06.03 13:09:07.
