data_PCOD9177605
_publ_section_title
;
Structure prediction by ZEFSAII (Michael W. Deem and Ramdas Pophale) SiO2 
 PCOD9177605
Probable space group: C 2/M
;
_chemical_formula_sum "Si O2"
_cell_formula_units_Z 48
_cell_length_a 13.567137
_cell_length_b 13.489129
_cell_length_c 20.442687
_cell_angle_alpha 90.000000
_cell_angle_beta 135.270805
_cell_angle_gamma 90.000000
_cell_volume 2632.889915
_symmetry_space_group_name_H-M "C 2/M"
_symmetry_group_IT_number 12
_symmetry_cell_setting 'monoclinic'
loop_
_space_group_symop_operation_xyz
x,y,z
-x,y,-z
-x,-y,-z
x,-y,z
1/2+x,1/2+y,z
1/2-x,1/2+y,-z
1/2-x,1/2-y,-z
1/2+x,1/2-y,z
loop_
_atom_site_type_symbol
_atom_site_label
_atom_site_fract_x
_atom_site_fract_y
_atom_site_fract_z
Si Si1 0.863674 0.886249 0.901425
Si Si2 0.945882 0.619205 0.710627
Si Si3 0.667967 0.884166 0.067777
Si Si4 0.824149 0.248164 0.248664
Si Si5 0.363699 0.884990 0.089511
Si Si6 0.140897 0.883812 0.607243
O O1 0.800936 0.829159 0.810411
O O2 0.748669 0.883712 0.905140
O O3 0.893405 0.000000 0.898150
O O4 0.000000 0.842226 0.000000
O O5 0.977799 0.500000 0.716958
O O6 0.780081 0.631997 0.629259
O O7 0.038233 0.689176 0.707694
O O8 0.995105 0.648629 0.807826
O O9 0.763918 0.824277 0.163542
O O10 0.707745 0.000000 0.091616
O O11 0.500000 0.878891 0.000000
O O12 0.686769 0.842796 0.002915
O O13 0.850105 0.187008 0.326008
O O14 0.390860 0.000000 0.085172
O O15 0.000000 0.867206 0.500000
O O16 0.144515 0.000000 0.629492
#
# Coordination Sequence:
#
# PCOD9177605 Si02
#       6
#     8   8   8   8   8   8
#     4   9  18  31  47  71 106 145 178 207 246 306
#     4   9  19  36  56  77 105 140 174 214 267 326
#     4  10  19  29  44  72 110 144 175 216 259 303
#     4  11  20  31  54  80 103 136 186 226 262 314
#     4   8  15  28  44  65  97 135 168 199 244 301
#     4  10  22  40  59  78 103 137 178 227 283 336
#
# _framework density 18.230917000000002
#
# number of rings (size 3 to 8) (size 9 to 14) (size 15 to 20)
#    0.000    2.500    0.000    3.500    0.000    7.333 
#    0.000    0.000    0.000    5.000    0.000    0.000 
#    0.000    0.000    0.000    0.000    0.000    0.000 
#
# Total GULP energy -133712.534234 kJ/mol
# GULP energy per Si atom -5571.355593 kJ/mol
# Density = 1.818942 g / cm^3
# Si number density = 18.230917 Si / 1000 Ang^3
#
#
#
# Elastic Constant Matrix: (Units=GPa)
#
#
# Indices 1 2 3 4 5 6 
#
# 1 49.8680 31.3772 39.0693 0.0000 13.5843 0.0000
# 2 31.3772 104.8002 45.8331 0.0000 1.4441 0.0000
# 3 39.0693 45.8331 99.9232 0.0000 21.1869 0.0000
# 4 0.0000 0.0000 0.0000 26.1020 0.0000 -4.7824
# 5 13.5843 1.4441 21.1869 0.0000 30.7591 0.0000
# 6 0.0000 0.0000 0.0000 -4.7824 0.0000 25.6416
#
#
#
# Elastic Compliance Matrix: (Units=1/GPa)
#
#
# Indices 1 2 3 4 5 6 
#
# 1 0.032569 -0.006069 -0.008152 0.000000 -0.008484 0.000000
# 2 -0.006069 0.013451 -0.004955 0.000000 0.005462 0.000000
# 3 -0.008152 -0.004955 0.017161 0.000000 -0.007988 0.000000
# 4 0.000000 0.000000 0.000000 0.039667 0.000000 0.007398
# 5 -0.008484 0.005462 -0.007988 0.000000 0.041503 0.000000
# 6 0.000000 0.000000 0.000000 0.007398 0.000000 0.040379
#
#
# Mechanical properties :
#
#
# Convention : Reuss Voigt Hill
#
# Bulk Modulus (GPa) = 40.27366 54.12785 47.20076
# Shear Modulus (GPa) = 21.61152 25.72131 23.66641
#
# Velocity S-wave (km/s) = 3.44675 3.76022 3.60689
# Velocity P-wave (km/s) = 6.16270 6.97187 6.57973
#
# Compressibility (1/GPa) = 0.02483012
#
# Stress axis : x y z
#
# Youngs Moduli (GPa) = 30.70380 74.34552 58.27085
#
# Poissons Ratio (x) = 0.45123 0.47500
# Poissons Ratio (y) = 0.18635 0.28871
# Poissons Ratio (z) = 0.25029 0.36835
#
# Static dielectric constant tensor:
#      x y z
#    x 1.661690 0.000000 0.021640 
#    y 0.000000 1.689130 0.000000 
#    z 0.021640 0.000000 1.637260 
# 
# From -- ./inp_files/310515.got.cif
#   From: 2010.05.17/outbox.cif.g08.bks.cpg/sg12_156_cif.got.tgz:310515.got - 2010.06.03 13:09:07.
