data_PCOD9177938
_publ_section_title
;
Structure prediction by ZEFSAII (Michael W. Deem and Ramdas Pophale) SiO2 
 PCOD9177938
Probable space group: C 2/M
;
_chemical_formula_sum "Si O2"
_cell_formula_units_Z 56
_cell_length_a 27.949222
_cell_length_b 8.888742
_cell_length_c 16.607876
_cell_angle_alpha 90.000000
_cell_angle_beta 115.733134
_cell_angle_gamma 90.000000
_cell_volume 3716.764736
_symmetry_space_group_name_H-M "C 2/M"
_symmetry_group_IT_number 12
_symmetry_cell_setting 'monoclinic'
loop_
_space_group_symop_operation_xyz
x,y,z
-x,y,-z
-x,-y,-z
x,-y,z
1/2+x,1/2+y,z
1/2-x,1/2+y,-z
1/2-x,1/2-y,-z
1/2+x,1/2-y,z
loop_
_atom_site_type_symbol
_atom_site_label
_atom_site_fract_x
_atom_site_fract_y
_atom_site_fract_z
Si Si1 0.896828 0.321562 0.310846
Si Si2 0.440686 0.326902 0.495184
Si Si3 0.814806 0.680068 0.971923
Si Si4 0.579946 0.180458 0.044566
Si Si5 0.013228 0.819417 0.130410
Si Si6 0.498121 0.681514 0.691190
Si Si7 0.692852 0.320596 0.860635
O O1 0.897361 0.500000 0.305738
O O2 0.905168 0.269477 0.409131
O O3 0.843882 0.255671 0.232591
O O4 0.947012 0.255642 0.297663
O O5 0.500000 0.325939 0.500000
O O6 0.422156 0.500000 0.481565
O O7 0.451759 0.274409 0.594324
O O8 0.816383 0.500000 0.988035
O O9 0.860972 0.716156 0.942542
O O10 0.755398 0.717376 0.899056
O O11 0.824092 0.763118 0.063262
O O12 0.562550 0.254462 0.115876
O O13 0.573924 0.000000 0.044674
O O14 0.538457 0.245738 0.948864
O O15 0.014267 0.782958 0.225580
O O16 0.010745 0.000000 0.119402
O O17 0.504179 0.500000 0.688072
O O18 0.686795 0.500000 0.852013
#
# Coordination Sequence:
#
# PCOD9177938 Si02
#       7
#     8   8   8   8   8   8   8
#     4  11  20  28  42  66  93 118 146 179 215 257
#     4   8  15  29  45  61  85 116 146 176 215 261
#     4   9  19  33  47  65  88 114 147 184 218 256
#     4  10  19  31  45  63  89 117 144 178 218 254
#     4  10  19  30  45  66  88 114 149 179 209 254
#     4   9  18  31  46  64  88 118 149 180 215 258
#     4  10  19  31  47  65  87 117 149 179 216 259
#
# _framework density 15.066865999999999
#
# number of rings (size 3 to 8) (size 9 to 14) (size 15 to 20)
#    0.000    2.429    0.000    5.143    0.000    7.714 
#    0.000    0.000    0.000    0.000    0.000    1.000 
#    0.000    0.000    0.000    0.000    0.000    0.000 
#
# Total GULP energy -156106.505578 kJ/mol
# GULP energy per Si atom -5575.232342 kJ/mol
# Density = 1.503257 g / cm^3
# Si number density = 15.066866 Si / 1000 Ang^3
#
#
#
# Elastic Constant Matrix: (Units=GPa)
#
#
# Indices 1 2 3 4 5 6 
#
# 1 73.5315 31.4362 45.6761 0.0000 -7.4236 0.0000
# 2 31.4362 51.8960 47.1111 0.0000 0.7843 0.0000
# 3 45.6761 47.1111 129.3963 0.0000 -4.9855 0.0000
# 4 0.0000 0.0000 0.0000 19.4827 0.0000 0.9107
# 5 -7.4236 0.7843 -4.9855 0.0000 22.3978 0.0000
# 6 0.0000 0.0000 0.0000 0.9107 0.0000 16.3716
#
#
#
# Elastic Compliance Matrix: (Units=1/GPa)
#
#
# Indices 1 2 3 4 5 6 
#
# 1 0.020402 -0.009164 -0.003623 0.000000 0.006276 0.000000
# 2 -0.009164 0.033153 -0.009075 0.000000 -0.006218 0.000000
# 3 -0.003623 -0.009075 0.012384 0.000000 0.001873 0.000000
# 4 0.000000 0.000000 0.000000 0.051462 0.000000 -0.002863
# 5 0.006276 -0.006218 0.001873 0.000000 0.047362 0.000000
# 6 0.000000 0.000000 0.000000 -0.002863 0.000000 0.061241
#
#
# Mechanical properties :
#
#
# Convention : Reuss Voigt Hill
#
# Bulk Modulus (GPa) = 45.01863 55.91894 50.46879
# Shear Modulus (GPa) = 18.04194 20.35711 19.19952
#
# Velocity S-wave (km/s) = 3.46418 3.67974 3.57359
# Velocity P-wave (km/s) = 6.77826 7.43293 7.11313
#
# Compressibility (1/GPa) = 0.02221303
#
# Stress axis : x y z
#
# Youngs Moduli (GPa) = 49.01513 30.16336 80.75237
#
# Poissons Ratio (x) = 0.27642 0.29260
# Poissons Ratio (y) = 0.44917 0.73284
# Poissons Ratio (z) = 0.17760 0.27374
#
# Static dielectric constant tensor:
#      x y z
#    x 1.485630 0.000000 -0.003080 
#    y 0.000000 1.504570 0.000000 
#    z -0.003080 0.000000 1.507250 
# 
# From -- ./inp_files/243233.got.cif
#   From: 2010.05.17/outbox.cif.g08.bks.cpg/sg12_122_cif.got.tgz:243233.got - 2010.06.03 13:09:07.
