data_PCOD9177965
_publ_section_title
;
Structure prediction by ZEFSAII (Michael W. Deem and Ramdas Pophale) SiO2 
 PCOD9177965
Probable space group: C 2/M
;
_chemical_formula_sum "Si O2"
_cell_formula_units_Z 64
_cell_length_a 9.978831
_cell_length_b 26.323743
_cell_length_c 15.153250
_cell_angle_alpha 90.000000
_cell_angle_beta 78.688875
_cell_angle_gamma 90.000000
_cell_volume 3903.144416
_symmetry_space_group_name_H-M "C 2/M"
_symmetry_group_IT_number 12
_symmetry_cell_setting 'monoclinic'
loop_
_space_group_symop_operation_xyz
x,y,z
-x,y,-z
-x,-y,-z
x,-y,z
1/2+x,1/2+y,z
1/2-x,1/2+y,-z
1/2-x,1/2-y,-z
1/2+x,1/2-y,z
loop_
_atom_site_type_symbol
_atom_site_label
_atom_site_fract_x
_atom_site_fract_y
_atom_site_fract_z
Si Si1 0.651452 0.938776 0.713432
Si Si2 0.369258 0.895413 0.959295
Si Si3 0.961599 0.803860 0.110371
Si Si4 0.435672 0.438959 0.603654
Si Si5 0.149470 0.439819 0.230384
Si Si6 0.704246 0.442236 0.122893
Si Si7 0.946492 0.098782 0.233187
Si Si8 0.824620 0.280770 0.912362
O O1 0.773893 0.926749 0.630545
O O2 0.497879 0.920756 0.714453
O O3 0.708701 0.923802 0.802966
O O4 0.642109 0.000000 0.718212
O O5 0.360140 0.927996 0.872318
O O6 0.376319 0.835892 0.935823
O O7 0.500000 0.910418 0.000000
O O8 0.238291 0.906817 0.036447
O O9 0.051343 0.755734 0.128388
O O10 0.982794 0.850172 0.174701
O O11 0.800809 0.791011 0.136542
O O12 0.000000 0.814310 0.000000
O O13 0.500000 0.430078 0.500000
O O14 0.449819 0.500000 0.621570
O O15 0.508754 0.406858 0.670973
O O16 0.161871 0.500000 0.244889
O O17 0.286777 0.413274 0.245902
O O18 0.745396 0.500000 0.097000
O O19 0.546372 0.440997 0.170861
O O20 0.750000 0.250000 0.000000
#
# Coordination Sequence:
#
# PCOD9177965 Si02
#       8
#     8   8   8   8   8   8   8   8
#     4   8  16  31  47  68 101 137 174 211 247 302
#     4  12  21  31  48  71 102 148 191 220 257 310
#     4  10  20  36  52  73 104 139 182 234 272 311
#     4   9  18  36  60  82 107 141 177 214 263 326
#     4  11  21  32  47  72 112 147 176 215 257 307
#     4  10  19  30  45  67 102 147 187 213 247 302
#     4  11  21  34  53  78 108 138 180 231 269 314
#     4  10  20  35  50  68  96 136 184 232 271 302
#
# _framework density 16.397037000000001
#
# number of rings (size 3 to 8) (size 9 to 14) (size 15 to 20)
#    0.000    1.875    2.500    4.875    0.000    0.500 
#    0.000    1.875    0.000    3.000    0.000    0.875 
#    0.000    0.000    0.000    0.000    0.000    0.000 
#
# Total GULP energy -178245.790565 kJ/mol
# GULP energy per Si atom -5570.180955 kJ/mol
# Density = 1.635972 g / cm^3
# Si number density = 16.397037 Si / 1000 Ang^3
#
#
#
# Elastic Constant Matrix: (Units=GPa)
#
#
# Indices 1 2 3 4 5 6 
#
# 1 115.0476 13.0860 40.5881 0.0000 -10.2775 0.0000
# 2 13.0860 64.5759 26.3290 0.0000 1.3427 0.0000
# 3 40.5881 26.3290 77.0919 0.0000 -14.2963 0.0000
# 4 0.0000 0.0000 0.0000 7.0413 0.0000 3.1775
# 5 -10.2775 1.3427 -14.2963 0.0000 19.4274 0.0000
# 6 0.0000 0.0000 0.0000 3.1775 0.0000 26.2514
#
#
#
# Elastic Compliance Matrix: (Units=1/GPa)
#
#
# Indices 1 2 3 4 5 6 
#
# 1 0.010727 -0.000049 -0.005301 0.000000 0.001777 0.000000
# 2 -0.000049 0.018771 -0.007678 0.000000 -0.006974 0.000000
# 3 -0.005301 -0.007678 0.020802 0.000000 0.013034 0.000000
# 4 0.000000 0.000000 0.000000 0.150225 0.000000 -0.018183
# 5 0.001777 -0.006974 0.013034 0.000000 0.062487 0.000000
# 6 0.000000 0.000000 0.000000 -0.018183 0.000000 0.040294
#
#
# Mechanical properties :
#
#
# Convention : Reuss Voigt Hill
#
# Bulk Modulus (GPa) = 41.24959 46.30239 43.77599
# Shear Modulus (GPa) = 14.81726 22.32485 18.57106
#
# Velocity S-wave (km/s) = 3.00935 3.69388 3.36904
# Velocity P-wave (km/s) = 6.10625 6.81854 6.47220
#
# Compressibility (1/GPa) = 0.02424266
#
# Stress axis : x y z
#
# Youngs Moduli (GPa) = 93.22626 53.27316 48.07250
#
# Poissons Ratio (x) = 0.00262 0.25484
# Poissons Ratio (y) = 0.00459 0.36911
# Poissons Ratio (z) = 0.49420 0.40904
#
# Static dielectric constant tensor:
#      x y z
#    x 1.614570 0.000000 -0.016500 
#    y 0.000000 1.537840 0.000000 
#    z -0.016500 0.000000 1.538070 
# 
# From -- ./inp_files/200590.got.cif
#   From: 2010.05.17/outbox.cif.g08.bks.cpg/sg12_101_cif.got.tgz:200590.got - 2010.06.03 13:09:07.
