data_PCOD9177282
_publ_section_title
;
Structure prediction by ZEFSAII (Michael W. Deem and Ramdas Pophale) SiO2 
 PCOD9177282
Probable space group: C 2/M
;
_chemical_formula_sum "Si O2"
_cell_formula_units_Z 48
_cell_length_a 13.569525
_cell_length_b 26.980443
_cell_length_c 5.381453
_cell_angle_alpha 90.000000
_cell_angle_beta 89.999977
_cell_angle_gamma 90.000000
_cell_volume 1970.213422
_symmetry_space_group_name_H-M "C 2/M"
_symmetry_group_IT_number 12
_symmetry_cell_setting 'monoclinic'
loop_
_space_group_symop_operation_xyz
x,y,z
-x,y,-z
-x,-y,-z
x,-y,z
1/2+x,1/2+y,z
1/2-x,1/2+y,-z
1/2-x,1/2-y,-z
1/2+x,1/2-y,z
loop_
_atom_site_type_symbol
_atom_site_label
_atom_site_fract_x
_atom_site_fract_y
_atom_site_fract_z
Si Si1 0.262557 0.680666 0.250000
Si Si2 0.549615 0.225745 0.250000
Si Si3 0.390338 0.670551 0.750000
Si Si4 0.880486 0.055243 0.750000
Si Si5 0.968348 0.554894 0.750000
Si Si6 0.245698 0.067688 0.750000
O O1 0.166843 0.715367 0.250000
O O2 0.326336 0.681627 0.502486
O O3 0.226032 0.624865 0.250000
O O4 0.326335 0.681627 0.997513
O O5 0.500000 0.205852 0.500000
O O6 0.531417 0.285317 0.250000
O O7 0.500000 0.205852 0.000000
O O8 0.425936 0.612173 0.750000
O O9 0.815903 0.055777 0.497925
O O10 0.932488 0.000000 0.750000
O O11 0.815903 0.055777 0.002074
O O12 0.020020 0.500000 0.750000
O O13 0.853499 0.546294 0.750000
O O14 0.000000 0.581105 0.500000
O O15 0.000000 0.581105 0.000000
#
# Coordination Sequence:
#
# PCOD9177282 Si02
#       6
#     8   8   8   8   8   8
#     4  10  21  38  59  82 111 152 191 227 283 344
#     4  12  24  38  60  88 118 150 190 238 286 340
#     4  10  21  39  60  84 116 152 190 233 285 342
#     4  10  19  33  56  80 103 136 182 233 276 324
#     4  10  19  28  39  57  88 130 166 203 258 315
#     4  10  20  32  50  75 102 134 179 232 272 317
#
# _framework density 24.362843999999999
#
# number of rings (size 3 to 8) (size 9 to 14) (size 15 to 20)
#    0.000    1.667    0.000    5.500    0.000    2.667 
#    0.000    0.000    0.000    1.000    0.000    0.000 
#    0.000    0.000    0.000    0.000    0.000    0.000 
#
# Total GULP energy -133882.421248 kJ/mol
# GULP energy per Si atom -5578.434219 kJ/mol
# Density = 2.430739 g / cm^3
# Si number density = 24.362844 Si / 1000 Ang^3
#
#
#
# Elastic Constant Matrix: (Units=GPa)
#
#
# Indices 1 2 3 4 5 6 
#
# 1 40.8754 9.1110 44.8220 0.0000 -0.0001 0.0000
# 2 9.1110 156.4719 17.2988 0.0000 0.0000 0.0000
# 3 44.8220 17.2988 245.0374 0.0000 -0.0002 0.0000
# 4 0.0000 0.0000 0.0000 22.9478 0.0000 0.0000
# 5 -0.0001 0.0000 -0.0002 0.0000 26.0614 0.0000
# 6 0.0000 0.0000 0.0000 0.0000 0.0000 -5.2323
#
#
#
# Elastic Compliance Matrix: (Units=1/GPa)
#
#
# Indices 1 2 3 4 5 6 
#
# 1 0.030818 -0.001180 -0.005554 0.000000 0.000000 0.000000
# 2 -0.001180 0.006486 -0.000242 0.000000 0.000000 0.000000
# 3 -0.005554 -0.000242 0.005114 0.000000 0.000000 0.000000
# 4 0.000000 0.000000 0.000000 0.043577 0.000000 0.000000
# 5 0.000000 0.000000 0.000000 0.000000 0.038371 0.000000
# 6 0.000000 0.000000 0.000000 0.000000 0.000000 -0.191121
#
#
# Mechanical properties :
#
#
# Convention : Reuss Voigt Hill
#
# Bulk Modulus (GPa) = 35.13006 64.98315 50.05661
# Shear Modulus (GPa) = -115.43558 33.49891 -40.96833
#
# Velocity S-wave (km/s) = -6.89091 3.71212 -4.10517
# Velocity P-wave (km/s) = 6.99014 6.71596 1.37076
#
# Compressibility (1/GPa) = 0.02846565
#
# Stress axis : x y z
#
# Youngs Moduli (GPa) = 32.44882 154.16844 195.54196
#
# Poissons Ratio (x) = 0.18199 1.08600
# Poissons Ratio (y) = 0.03830 0.04732
# Poissons Ratio (z) = 0.18021 0.03731
#
# Static dielectric constant tensor:
#      x y z
#    x 1.868770 0.000000 0.000000 
#    y 0.000000 2.009430 0.000000 
#    z 0.000000 0.000000 2.008730 
# 
# From -- ./inp_files/12365.got.cif
#   From: 2010.05.17/outbox.cif.g08.bks.cpg/sg12_7_cif.got.tgz:12365.got - 2010.06.03 13:09:07.
