data_PCOD9177008
_publ_section_title
;
Structure prediction by ZEFSAII (Michael W. Deem and Ramdas Pophale) SiO2 
 PCOD9177008
Probable space group: C 2/M
;
_chemical_formula_sum "Si O2"
_cell_formula_units_Z 56
_cell_length_a 20.377966
_cell_length_b 20.157641
_cell_length_c 16.718451
_cell_angle_alpha 90.000000
_cell_angle_beta 28.881515
_cell_angle_gamma 90.000000
_cell_volume 3316.985920
_symmetry_space_group_name_H-M "C 2/M"
_symmetry_group_IT_number 12
_symmetry_cell_setting 'monoclinic'
loop_
_space_group_symop_operation_xyz
x,y,z
-x,y,-z
-x,-y,-z
x,-y,z
1/2+x,1/2+y,z
1/2-x,1/2+y,-z
1/2-x,1/2-y,-z
1/2+x,1/2-y,z
loop_
_atom_site_type_symbol
_atom_site_label
_atom_site_fract_x
_atom_site_fract_y
_atom_site_fract_z
Si Si1 0.361143 0.076788 0.188304
Si Si2 0.943694 0.790673 0.297331
Si Si3 0.759534 0.804443 0.061200
Si Si4 0.438702 0.710785 0.653867
Si Si5 0.665274 0.147785 0.618719
Si Si6 0.909843 0.423754 0.830264
Si Si7 0.795572 0.073216 0.805966
O O1 0.321081 0.117551 0.307965
O O2 0.250328 0.077597 0.236760
O O3 0.385444 0.000000 0.185963
O O4 0.500000 0.102040 0.000000
O O5 0.814825 0.838387 0.425306
O O6 0.907568 0.719263 0.299384
O O7 0.968594 0.776567 0.366241
O O8 0.080012 0.817854 0.110182
O O9 0.685784 0.763420 0.209741
O O10 0.674339 0.870180 0.131422
O O11 0.750000 0.750000 0.000000
O O12 0.500000 0.714007 0.500000
O O13 0.387924 0.635957 0.724025
O O14 0.563702 0.100967 0.677324
O O15 0.902471 0.500000 0.810154
O O16 0.836364 0.421962 0.995929
O O17 0.856634 0.000000 0.755203
#
# Coordination Sequence:
#
# PCOD9177008 Si02
#       7
#     8   8   8   8   8   8   8
#     4  10  19  29  45  74 113 150 178 206 250 322
#     4  10  21  34  53  76 106 143 177 238 269 312
#     4  10  18  37  54  76 105 143 183 229 269 319
#     4  11  20  34  55  79 106 143 184 227 274 319
#     4  11  19  33  50  74 106 140 189 221 263 311
#     4  11  19  33  57  77 103 149 187 217 266 324
#     4  10  19  31  49  76 113 150 181 211 256 319
#
# _framework density 16.882797
#
# number of rings (size 3 to 8) (size 9 to 14) (size 15 to 20)
#    0.000    1.571    7.143    1.286    0.000    0.286 
#    0.000    2.857    0.000    0.429    0.000    0.000 
#    0.000    1.143    0.000    0.000    0.000    0.000 
#
# Total GULP energy -156054.842550 kJ/mol
# GULP energy per Si atom -5573.387234 kJ/mol
# Density = 1.684437 g / cm^3
# Si number density = 16.882797 Si / 1000 Ang^3
#
#
#
# Elastic Constant Matrix: (Units=GPa)
#
#
# Indices 1 2 3 4 5 6 
#
# 1 29.5983 27.6900 20.0426 -0.0005 -2.4012 -0.0007
# 2 27.6900 117.3693 47.7716 -0.0003 -2.3368 -0.0002
# 3 20.0426 47.7716 85.5859 0.0005 -8.8138 -0.0004
# 4 -0.0005 -0.0003 0.0005 26.9366 0.0006 7.7198
# 5 -2.4012 -2.3368 -8.8138 0.0006 16.6494 0.0013
# 6 -0.0007 -0.0002 -0.0004 7.7198 0.0013 78.9900
#
#
#
# Elastic Compliance Matrix: (Units=1/GPa)
#
#
# Indices 1 2 3 4 5 6 
#
# 1 0.045744 -0.008390 -0.005787 0.000001 0.002356 0.000000
# 2 -0.008390 0.012615 -0.005308 0.000000 -0.002250 0.000000
# 3 -0.005787 -0.005308 0.016753 -0.000001 0.007289 0.000000
# 4 0.000001 0.000000 -0.000001 0.038194 -0.000001 -0.003733
# 5 0.002356 -0.002250 0.007289 -0.000001 0.063945 -0.000001
# 6 0.000000 0.000000 0.000000 -0.003733 -0.000001 0.013025
#
#
# Mechanical properties :
#
#
# Convention : Reuss Voigt Hill
#
# Bulk Modulus (GPa) = 27.66830 47.06244 37.36537
# Shear Modulus (GPa) = 20.72162 33.65182 27.18672
#
# Velocity S-wave (km/s) = 3.50720 4.46944 4.01723
# Velocity P-wave (km/s) = 5.72928 7.38722 6.61043
#
# Compressibility (1/GPa) = 0.03614245
#
# Stress axis : x y z
#
# Youngs Moduli (GPa) = 21.86065 79.26875 59.69084
#
# Poissons Ratio (x) = 0.66505 0.34542
# Poissons Ratio (y) = 0.18341 0.31687
# Poissons Ratio (z) = 0.12650 0.42079
#
# Static dielectric constant tensor:
#      x y z
#    x 1.579590 0.000000 -0.035650 
#    y 0.000000 1.580380 0.000000 
#    z -0.035650 0.000000 1.616270 
# 
# From -- ./inp_files/284967.got.cif
#   From: 2010.05.17/outbox.cif.g08.bks.cpg/sg12_143_cif.got.tgz:284967.got - 2010.06.03 13:09:07.
