data_PCOD9177430
_publ_section_title
;
Structure prediction by ZEFSAII (Michael W. Deem and Ramdas Pophale) SiO2 
 PCOD9177430
Probable space group: C 2/M
;
_chemical_formula_sum "Si O2"
_cell_formula_units_Z 64
_cell_length_a 27.573813
_cell_length_b 9.288685
_cell_length_c 18.912201
_cell_angle_alpha 90.000000
_cell_angle_beta 69.226205
_cell_angle_gamma 90.000000
_cell_volume 4528.967136
_symmetry_space_group_name_H-M "C 2/M"
_symmetry_group_IT_number 12
_symmetry_cell_setting 'monoclinic'
loop_
_space_group_symop_operation_xyz
x,y,z
-x,y,-z
-x,-y,-z
x,-y,z
1/2+x,1/2+y,z
1/2-x,1/2+y,-z
1/2-x,1/2-y,-z
1/2+x,1/2-y,z
loop_
_atom_site_type_symbol
_atom_site_label
_atom_site_fract_x
_atom_site_fract_y
_atom_site_fract_z
Si Si1 0.167850 0.329282 0.528962
Si Si2 0.250508 0.828869 0.390650
Si Si3 0.551368 0.674412 0.383871
Si Si4 0.327415 0.165930 0.925254
Si Si5 0.251767 0.829359 0.227036
Si Si6 0.136107 0.171970 0.227519
Si Si7 0.209427 0.834282 0.924736
Si Si8 0.933229 0.173924 0.461809
O O1 0.162608 0.500000 0.521064
O O2 0.203547 0.259548 0.449335
O O3 0.199695 0.305574 0.585124
O O4 0.112655 0.251694 0.555395
O O5 0.259906 0.789946 0.304437
O O6 0.237652 0.000000 0.399580
O O7 0.552691 0.500000 0.382660
O O8 0.590141 0.723169 0.302666
O O9 0.491116 0.714636 0.406641
O O10 0.569397 0.715174 0.453552
O O11 0.360726 0.246843 0.848587
O O12 0.268210 0.167850 0.925852
O O13 0.342645 0.000000 0.925692
O O14 0.324968 0.248146 0.000968
O O15 0.191257 0.805761 0.238383
O O16 0.285838 0.741880 0.153414
O O17 0.261715 0.000000 0.213254
O O18 0.131092 0.000000 0.218341
O O19 0.193382 0.000000 0.927533
O O20 0.928160 0.000000 0.459847
#
# Coordination Sequence:
#
# PCOD9177430 Si02
#       8
#     8   8   8   8   8   8   8   8
#     4  10  19  29  42  61  83 106 135 172 209 240
#     4   9  18  31  44  58  79 109 141 168 199 243
#     4   8  15  27  44  62  78 104 142 173 197 239
#     4   9  16  25  36  52  76 106 135 159 190 234
#     4   9  16  26  41  58  77 104 135 166 198 233
#     4   9  15  24  39  58  78 101 133 170 201 228
#     4   9  16  25  37  54  77 104 132 162 194 229
#     4   9  16  29  46  60  78 107 140 170 203 243
#
# _framework density 14.131257
#
# number of rings (size 3 to 8) (size 9 to 14) (size 15 to 20)
#    0.000    3.000    0.000    2.625    0.000    6.000 
#    0.000    5.000    0.000    0.000    0.000    0.000 
#    0.000    1.000    0.000   11.500    0.000    4.000 
#
# Total GULP energy -178215.211749 kJ/mol
# GULP energy per Si atom -5569.225367 kJ/mol
# Density = 1.409909 g / cm^3
# Si number density = 14.131257 Si / 1000 Ang^3
#
#
#
# Elastic Constant Matrix: (Units=GPa)
#
#
# Indices 1 2 3 4 5 6 
#
# 1 46.2926 32.3310 36.0008 0.0000 -3.7470 0.0000
# 2 32.3310 59.0973 61.4472 0.0000 -0.3421 0.0000
# 3 36.0008 61.4472 143.8404 0.0000 -4.8090 0.0000
# 4 0.0000 0.0000 0.0000 22.7495 0.0000 0.3564
# 5 -3.7470 -0.3421 -4.8090 0.0000 18.3538 0.0000
# 6 0.0000 0.0000 0.0000 0.3564 0.0000 17.6897
#
#
#
# Elastic Compliance Matrix: (Units=1/GPa)
#
#
# Indices 1 2 3 4 5 6 
#
# 1 0.035862 -0.018861 -0.000691 0.000000 0.006789 0.000000
# 2 -0.018861 0.040514 -0.012802 0.000000 -0.006450 0.000000
# 3 -0.000691 -0.012802 0.012693 0.000000 0.002946 0.000000
# 4 0.000000 0.000000 0.000000 0.043971 0.000000 -0.000886
# 5 0.006789 -0.006450 0.002946 0.000000 0.056522 0.000000
# 6 0.000000 0.000000 0.000000 -0.000886 0.000000 0.056548
#
#
# Mechanical properties :
#
#
# Convention : Reuss Voigt Hill
#
# Bulk Modulus (GPa) = 41.05289 56.53203 48.79246
# Shear Modulus (GPa) = 15.67708 19.72203 17.69955
#
# Velocity S-wave (km/s) = 3.33436 3.73987 3.54292
# Velocity P-wave (km/s) = 6.62859 7.66424 7.16515
#
# Compressibility (1/GPa) = 0.02435882
#
# Stress axis : x y z
#
# Youngs Moduli (GPa) = 27.88501 24.68313 78.78647
#
# Poissons Ratio (x) = 0.46555 0.05446
# Poissons Ratio (y) = 0.52594 1.00862
# Poissons Ratio (z) = 0.01928 0.31599
#
# Static dielectric constant tensor:
#      x y z
#    x 1.446340 0.000000 -0.001420 
#    y 0.000000 1.472340 0.000000 
#    z -0.001420 0.000000 1.460530 
# 
# From -- ./inp_files/294533.got.cif
#   From: 2010.05.17/outbox.cif.g08.bks.cpg/sg12_148_cif.got.tgz:294533.got - 2010.06.03 13:09:07.
