data_PCOD9177519
_publ_section_title
;
Structure prediction by ZEFSAII (Michael W. Deem and Ramdas Pophale) SiO2 
 PCOD9177519
Probable space group: C 2/M
;
_chemical_formula_sum "Si O2"
_cell_formula_units_Z 48
_cell_length_a 15.741709
_cell_length_b 7.477891
_cell_length_c 14.806566
_cell_angle_alpha 90.000000
_cell_angle_beta 77.130186
_cell_angle_gamma 90.000000
_cell_volume 1699.166466
_symmetry_space_group_name_H-M "C 2/M"
_symmetry_group_IT_number 12
_symmetry_cell_setting 'monoclinic'
loop_
_space_group_symop_operation_xyz
x,y,z
-x,y,-z
-x,-y,-z
x,-y,z
1/2+x,1/2+y,z
1/2-x,1/2+y,-z
1/2-x,1/2-y,-z
1/2+x,1/2-y,z
loop_
_atom_site_type_symbol
_atom_site_label
_atom_site_fract_x
_atom_site_fract_y
_atom_site_fract_z
Si Si1 0.292310 0.206277 0.820394
Si Si2 0.058189 0.285225 0.854745
Si Si3 0.523963 0.706232 0.305432
Si Si4 0.112809 0.783218 0.527629
Si Si5 0.748747 0.288266 0.644050
Si Si6 0.132427 0.283223 0.019067
O O1 0.392251 0.201595 0.757341
O O2 0.243742 0.290591 0.745701
O O3 0.303293 0.289284 0.917682
O O4 0.268467 0.000000 0.836586
O O5 0.061943 0.500000 0.848055
O O6 0.050777 0.210895 0.755583
O O7 0.963951 0.237640 0.920273
O O8 0.128151 0.227343 0.914797
O O9 0.548472 0.500000 0.313681
O O10 0.478282 0.776117 0.407214
O O11 0.155639 0.734120 0.422592
O O12 0.183371 0.715442 0.584714
O O13 0.109464 0.000000 0.529862
O O14 0.733584 0.500000 0.655626
O O15 0.137011 0.500000 0.018948
#
# Coordination Sequence:
#
# PCOD9177519 Si02
#       6
#     8   8   8   8   8   8
#     4   9  17  30  48  69  90 112 146 188 221 252
#     4   8  13  24  42  62  86 116 149 180 210 250
#     4  10  19  29  43  66  95 121 143 174 221 268
#     4   9  19  34  48  64  89 119 147 177 220 269
#     4   9  18  33  52  68  82 111 154 189 215 253
#     4   7  11  22  41  63  86 112 142 179 218 251
#
# _framework density 28.249144999999999
#
# number of rings (size 3 to 8) (size 9 to 14) (size 15 to 20)
#    0.000    3.333    0.000    2.500    0.000    2.667 
#    0.000   10.000    0.000    1.000    0.000    0.000 
#    0.000    0.000    0.000    0.000    0.000    1.000 
#
# Total GULP energy -134266.848399 kJ/mol
# GULP energy per Si atom -5594.452017 kJ/mol
# Density = 2.818485 g / cm^3
# Si number density = 28.249145 Si / 1000 Ang^3
#
#
#
# Elastic Constant Matrix: (Units=GPa)
#
#
# Indices 1 2 3 4 5 6 
#
# 1 83.5932 13.1866 17.1533 0.0000 9.2837 0.0000
# 2 13.1866 106.6921 4.8464 0.0000 -6.2703 0.0000
# 3 17.1533 4.8464 234.3806 0.0000 -7.5194 0.0000
# 4 0.0000 0.0000 0.0000 21.6521 0.0000 -9.2491
# 5 9.2837 -6.2703 -7.5194 0.0000 66.3024 0.0000
# 6 0.0000 0.0000 0.0000 -9.2491 0.0000 21.8942
#
#
#
# Elastic Compliance Matrix: (Units=1/GPa)
#
#
# Indices 1 2 3 4 5 6 
#
# 1 0.012643 -0.001639 -0.000957 0.000000 -0.002034 0.000000
# 2 -0.001639 0.009644 -0.000043 0.000000 0.001137 0.000000
# 3 -0.000957 -0.000043 0.004357 0.000000 0.000624 0.000000
# 4 0.000000 0.000000 0.000000 0.056354 0.000000 0.023807
# 5 -0.002034 0.001137 0.000624 0.000000 0.015545 0.000000
# 6 0.000000 0.000000 0.000000 0.023807 0.000000 0.055731
#
#
# Mechanical properties :
#
#
# Convention : Reuss Voigt Hill
#
# Bulk Modulus (GPa) = 46.79878 55.00429 50.90153
# Shear Modulus (GPa) = 29.99838 47.93505 38.96672
#
# Velocity S-wave (km/s) = 3.26225 4.12377 3.71805
# Velocity P-wave (km/s) = 5.54906 6.49518 6.04068
#
# Compressibility (1/GPa) = 0.02136808
#
# Stress axis : x y z
#
# Youngs Moduli (GPa) = 79.09275 103.69085 229.48985
#
# Poissons Ratio (x) = 0.16992 0.21955
# Poissons Ratio (y) = 0.12961 0.00987
# Poissons Ratio (z) = 0.07567 0.00446
#
# Static dielectric constant tensor:
#      x y z
#    x 2.366100 0.000000 0.040480 
#    y 0.000000 2.004170 0.000000 
#    z 0.040480 0.000000 2.217120 
# 
# From -- ./inp_files/229275.got.cif
#   From: 2010.05.17/outbox.cif.g08.bks.cpg/sg12_115_cif.got.tgz:229275.got - 2010.06.03 13:09:07.
