data_PCOD9177022
_publ_section_title
;
Structure prediction by ZEFSAII (Michael W. Deem and Ramdas Pophale) SiO2 
 PCOD9177022
Probable space group: C 2/M
;
_chemical_formula_sum "Si O2"
_cell_formula_units_Z 52
_cell_length_a 22.092041
_cell_length_b 12.483129
_cell_length_c 11.257067
_cell_angle_alpha 90.000000
_cell_angle_beta 108.684265
_cell_angle_gamma 90.000000
_cell_volume 2940.839371
_symmetry_space_group_name_H-M "C 2/M"
_symmetry_group_IT_number 12
_symmetry_cell_setting 'monoclinic'
loop_
_space_group_symop_operation_xyz
x,y,z
-x,y,-z
-x,-y,-z
x,-y,z
1/2+x,1/2+y,z
1/2-x,1/2+y,-z
1/2-x,1/2-y,-z
1/2+x,1/2-y,z
loop_
_atom_site_type_symbol
_atom_site_label
_atom_site_fract_x
_atom_site_fract_y
_atom_site_fract_z
Si Si1 0.935756 0.374322 0.036691
Si Si2 0.502719 0.500000 0.360157
Si Si3 0.664510 0.125752 0.232981
Si Si4 0.583930 0.673783 0.823800
Si Si5 0.424713 0.500000 0.983312
Si Si6 0.322762 0.715464 0.561206
Si Si7 0.636676 0.500000 0.310407
Si Si8 0.683067 0.371641 0.691506
O O1 0.932094 0.500000 0.068788
O O2 0.934898 0.291895 0.145319
O O3 0.877201 0.350230 0.909732
O O4 0.000000 0.359305 0.000000
O O5 0.500000 0.500000 0.500000
O O6 0.467323 0.605320 0.285186
O O7 0.573761 0.500000 0.353304
O O8 0.644453 0.196612 0.334091
O O9 0.740231 0.143596 0.257627
O O10 0.655893 0.000000 0.254313
O O11 0.648034 0.670269 0.786351
O O12 0.590772 0.603238 0.947206
O O13 0.386276 0.500000 0.838271
O O14 0.500000 0.500000 0.000000
O O15 0.250000 0.750000 0.500000
O O16 0.324550 0.605226 0.633915
O O17 0.345514 0.687882 0.442428
O O18 0.671625 0.500000 0.673807
#
# Coordination Sequence:
#
# PCOD9177022 Si02
#       8
#     8   4   8   8   4   8   4   8
#     4  10  22  40  59  80 113 157 206 245 286 347
#     4  11  23  36  58  94 119 153 185 231 319 370
#     4   9  20  37  62  84 110 157 205 241 297 349
#     4  11  21  36  59  86 124 152 187 244 305 354
#     4  11  20  34  54  94 126 148 187 250 294 358
#     4  10  21  35  59  84 114 156 196 243 289 349
#     4  12  21  35  60  85 122 152 197 248 300 351
#     4  10  18  37  56  84 121 154 187 241 307 365
#
# _framework density 17.682024999999999
#
# number of rings (size 3 to 8) (size 9 to 14) (size 15 to 20)
#    0.000    1.692    3.846    2.308    3.231    0.615 
#    0.000    0.769    1.692    0.462    0.000    0.000 
#    0.000    0.000    0.000    0.000    0.000    0.000 
#
# Total GULP energy -145056.678587 kJ/mol
# GULP energy per Si atom -5579.103023 kJ/mol
# Density = 1.764178 g / cm^3
# Si number density = 17.682025 Si / 1000 Ang^3
#
#
#
# Elastic Constant Matrix: (Units=GPa)
#
#
# Indices 1 2 3 4 5 6 
#
# 1 61.5144 45.1148 42.3923 0.0000 -14.1004 0.0000
# 2 45.1148 116.2190 69.6172 0.0000 -6.7000 0.0000
# 3 42.3923 69.6172 127.2175 0.0000 -11.1050 0.0000
# 4 0.0000 0.0000 0.0000 41.5790 0.0000 -2.4325
# 5 -14.1004 -6.7000 -11.1050 0.0000 32.7683 0.0000
# 6 0.0000 0.0000 0.0000 -2.4325 0.0000 20.9079
#
#
#
# Elastic Compliance Matrix: (Units=1/GPa)
#
#
# Indices 1 2 3 4 5 6 
#
# 1 0.026350 -0.007325 -0.004032 0.000000 0.008474 0.000000
# 2 -0.007325 0.014838 -0.005863 0.000000 -0.002105 0.000000
# 3 -0.004032 -0.005863 0.012527 0.000000 0.001311 0.000000
# 4 0.000000 0.000000 0.000000 0.024215 0.000000 0.002817
# 5 0.008474 -0.002105 0.001311 0.000000 0.034178 0.000000
# 6 0.000000 0.000000 0.000000 0.002817 0.000000 0.048157
#
#
# Mechanical properties :
#
#
# Convention : Reuss Voigt Hill
#
# Bulk Modulus (GPa) = 51.88027 68.79994 60.34010
# Shear Modulus (GPa) = 24.85949 28.90613 26.88281
#
# Velocity S-wave (km/s) = 3.75363 4.04762 3.90339
# Velocity P-wave (km/s) = 6.94195 7.79989 7.38339
#
# Compressibility (1/GPa) = 0.01927515
#
# Stress axis : x y z
#
# Youngs Moduli (GPa) = 37.95124 67.39242 79.82636
#
# Poissons Ratio (x) = 0.49362 0.32190
# Poissons Ratio (y) = 0.27798 0.46803
# Poissons Ratio (z) = 0.15304 0.39512
#
# Static dielectric constant tensor:
#      x y z
#    x 1.602300 0.000000 0.011220 
#    y 0.000000 1.615200 0.000000 
#    z 0.011220 0.000000 1.609280 
# 
# From -- ./inp_files/165163.got.cif
#   From: 2010.05.17/outbox.cif.g08.bks.cpg/sg12_83_cif.got.tgz:165163.got - 2010.06.03 13:09:07.
