data_PCOD9177204
_publ_section_title
;
Structure prediction by ZEFSAII (Michael W. Deem and Ramdas Pophale) SiO2 
 PCOD9177204
Probable space group: C 2/M
;
_chemical_formula_sum "Si O2"
_cell_formula_units_Z 44
_cell_length_a 10.383867
_cell_length_b 15.019152
_cell_length_c 21.680232
_cell_angle_alpha 90.000000
_cell_angle_beta 142.117739
_cell_angle_gamma 90.000000
_cell_volume 2076.183480
_symmetry_space_group_name_H-M "C 2/M"
_symmetry_group_IT_number 12
_symmetry_cell_setting 'monoclinic'
loop_
_space_group_symop_operation_xyz
x,y,z
-x,y,-z
-x,-y,-z
x,-y,z
1/2+x,1/2+y,z
1/2-x,1/2+y,-z
1/2-x,1/2-y,-z
1/2+x,1/2-y,z
loop_
_atom_site_type_symbol
_atom_site_label
_atom_site_fract_x
_atom_site_fract_y
_atom_site_fract_z
Si Si1 0.086264 0.827443 0.752951
Si Si2 0.274212 0.500000 0.380456
Si Si3 0.028524 0.000000 0.361014
Si Si4 0.972245 0.397266 0.064013
Si Si5 0.562462 0.135485 0.698308
Si Si6 0.525693 0.393725 0.865901
Si Si7 0.518220 0.000000 0.433920
O O1 0.975422 0.912721 0.681735
O O2 0.337319 0.839442 0.838848
O O3 0.020047 0.738863 0.692454
O O4 0.038662 0.835241 0.808121
O O5 0.500000 0.500000 0.500000
O O6 0.330190 0.500000 0.330172
O O7 0.124778 0.583057 0.339490
O O8 0.233073 0.000000 0.480644
O O9 0.002738 0.500000 0.094592
O O10 0.731051 0.371201 0.983978
O O11 0.000000 0.395602 0.000000
O O12 0.799650 0.118252 0.811663
O O13 0.568239 0.087798 0.633093
O O14 0.548800 0.500000 0.858467
O O15 0.500000 0.000000 0.500000
#
# Coordination Sequence:
#
# PCOD9177204 Si02
#       7
#     8   4   4   8   8   8   4
#     4  11  22  37  64 102 124 162 217 257 316 377
#     4  11  24  50  61  79 128 172 209 259 334 382
#     4  12  23  41  65  85 132 171 199 264 326 379
#     4   8  15  32  61  94 129 167 203 254 313 367
#     4  11  24  41  66  95 122 168 214 263 317 373
#     4  10  18  39  67  92 128 169 216 261 303 369
#     4  11  23  46  67  91 120 160 213 273 314 364
#
# _framework density 21.192731999999999
#
# number of rings (size 3 to 8) (size 9 to 14) (size 15 to 20)
#    0.000    1.636    5.455    2.182    2.545    1.455 
#    0.000    0.000    0.000    1.091    0.000    0.000 
#    0.000    0.000    0.000    0.000    0.000    0.000 
#
# Total GULP energy -122727.144021 kJ/mol
# GULP energy per Si atom -5578.506546 kJ/mol
# Density = 2.114450 g / cm^3
# Si number density = 21.192732 Si / 1000 Ang^3
#
#
#
# Elastic Constant Matrix: (Units=GPa)
#
#
# Indices 1 2 3 4 5 6 
#
# 1 60.8067 15.7349 10.6595 0.0000 22.0994 0.0000
# 2 15.7349 159.2207 40.9216 0.0000 -4.3185 0.0000
# 3 10.6595 40.9216 108.7759 0.0000 34.7420 0.0000
# 4 0.0000 0.0000 0.0000 -1.7613 0.0000 -2.9589
# 5 22.0994 -4.3185 34.7420 0.0000 38.2579 0.0000
# 6 0.0000 0.0000 0.0000 -2.9589 0.0000 5.8663
#
#
#
# Elastic Compliance Matrix: (Units=1/GPa)
#
#
# Indices 1 2 3 4 5 6 
#
# 1 0.023439 -0.004185 0.005286 0.000000 -0.018812 0.000000
# 2 -0.004185 0.008283 -0.005320 0.000000 0.008183 0.000000
# 3 0.005286 -0.005320 0.016682 0.000000 -0.018803 0.000000
# 4 0.000000 0.000000 0.000000 -0.307339 0.000000 -0.155017
# 5 -0.018812 0.008183 -0.018803 0.000000 0.055003 0.000000
# 6 0.000000 0.000000 0.000000 -0.155017 0.000000 0.092277
#
#
# Mechanical properties :
#
#
# Convention : Reuss Voigt Hill
#
# Bulk Modulus (GPa) = 25.02127 51.49282 38.25705
# Shear Modulus (GPa) = -55.62050 25.90505 -14.85773
#
# Velocity S-wave (km/s) = -5.12855 3.50001 -2.65066
# Velocity P-wave (km/s) = 4.82050 6.37837 2.95350
#
# Compressibility (1/GPa) = 0.03996600
#
# Stress axis : x y z
#
# Youngs Moduli (GPa) = 42.66428 120.72358 59.94516
#
# Poissons Ratio (x) = 0.50524 -0.31686
# Poissons Ratio (y) = 0.17855 0.31890
# Poissons Ratio (z) = -0.22552 0.64222
#
# Static dielectric constant tensor:
#      x y z
#    x 1.821830 0.000000 0.042630 
#    y 0.000000 1.760990 0.000000 
#    z 0.042630 0.000000 1.789760 
# 
# From -- ./inp_files/358289.got.cif
#   From: 2010.05.17/outbox.cif.g08.bks.cpg/sg12_180_cif.got.tgz:358289.got - 2010.06.03 13:09:07.
