data_PCOD9177626
_publ_section_title
;
Structure prediction by ZEFSAII (Michael W. Deem and Ramdas Pophale) SiO2 
 PCOD9177626
Probable space group: C 2/M
;
_chemical_formula_sum "Si O2"
_cell_formula_units_Z 56
_cell_length_a 32.935202
_cell_length_b 8.962739
_cell_length_c 13.951791
_cell_angle_alpha 90.000000
_cell_angle_beta 64.134576
_cell_angle_gamma 90.000000
_cell_volume 3705.845154
_symmetry_space_group_name_H-M "C 2/M"
_symmetry_group_IT_number 12
_symmetry_cell_setting 'monoclinic'
loop_
_space_group_symop_operation_xyz
x,y,z
-x,y,-z
-x,-y,-z
x,-y,z
1/2+x,1/2+y,z
1/2-x,1/2+y,-z
1/2-x,1/2-y,-z
1/2+x,1/2-y,z
loop_
_atom_site_type_symbol
_atom_site_label
_atom_site_fract_x
_atom_site_fract_y
_atom_site_fract_z
Si Si1 0.002305 0.328918 0.381353
Si Si2 0.264076 0.178485 0.130812
Si Si3 0.679447 0.323080 0.531457
Si Si4 0.723626 0.822248 0.664291
Si Si5 0.679901 0.822540 0.115970
Si Si6 0.594351 0.322783 0.294974
Si Si7 0.597675 0.820591 0.502632
O O1 0.010483 0.500000 0.342626
O O2 0.951924 0.281378 0.404247
O O3 0.000000 0.329217 0.500000
O O4 0.044746 0.228126 0.311413
O O5 0.280160 0.218831 0.220468
O O6 0.218499 0.263111 0.148277
O O7 0.254851 0.000000 0.139620
O O8 0.300632 0.208800 0.010275
O O9 0.671250 0.500000 0.539302
O O10 0.691350 0.265419 0.625311
O O11 0.724853 0.294131 0.422666
O O12 0.637759 0.237854 0.527315
O O13 0.715575 0.000000 0.662240
O O14 0.633475 0.741195 0.187416
O O15 0.674598 0.000000 0.132262
O O16 0.597029 0.500000 0.299131
O O17 0.601531 0.251937 0.393311
O O18 0.598917 0.000000 0.491230
#
# Coordination Sequence:
#
# PCOD9177626 Si02
#       7
#     8   8   8   8   8   8   8
#     4   8  16  30  45  63  88 117 148 181 220 266
#     4   9  18  32  48  66  89 119 155 192 224 258
#     4  10  19  29  45  69  93 118 149 183 220 265
#     4   9  18  32  46  62  89 121 152 186 220 257
#     4  10  19  30  46  67  91 120 153 187 225 267
#     4  11  20  29  44  66  93 122 151 184 221 265
#     4  10  19  31  47  66  91 121 150 183 223 266
#
# _framework density 15.111262
#
# number of rings (size 3 to 8) (size 9 to 14) (size 15 to 20)
#    0.000    2.429    0.000    4.286    0.000    6.000 
#    0.000    0.000    0.000    0.000    0.000    1.000 
#    0.000    8.000    0.000    0.000    0.000    0.000 
#
# Total GULP energy -156135.651897 kJ/mol
# GULP energy per Si atom -5576.273282 kJ/mol
# Density = 1.507687 g / cm^3
# Si number density = 15.111262 Si / 1000 Ang^3
#
#
#
# Elastic Constant Matrix: (Units=GPa)
#
#
# Indices 1 2 3 4 5 6 
#
# 1 100.8427 52.7178 41.0213 0.0000 -8.4807 0.0000
# 2 52.7178 71.0036 41.7554 0.0000 -12.1488 0.0000
# 3 41.0213 41.7554 62.9251 0.0000 -3.2342 0.0000
# 4 0.0000 0.0000 0.0000 17.8188 0.0000 -0.5926
# 5 -8.4807 -12.1488 -3.2342 0.0000 25.7016 0.0000
# 6 0.0000 0.0000 0.0000 -0.5926 0.0000 28.1445
#
#
#
# Elastic Compliance Matrix: (Units=1/GPa)
#
#
# Indices 1 2 3 4 5 6 
#
# 1 0.016928 -0.009888 -0.004456 0.000000 0.000351 0.000000
# 2 -0.009888 0.031171 -0.013737 0.000000 0.009743 0.000000
# 3 -0.004456 -0.013737 0.027682 0.000000 -0.004480 0.000000
# 4 0.000000 0.000000 0.000000 0.056160 0.000000 0.001183
# 5 0.000351 0.009743 -0.004480 0.000000 0.043065 0.000000
# 6 0.000000 0.000000 0.000000 0.001183 0.000000 0.035556
#
#
# Mechanical properties :
#
#
# Convention : Reuss Voigt Hill
#
# Bulk Modulus (GPa) = 50.97253 56.19561 53.58407
# Shear Modulus (GPa) = 18.29741 20.95145 19.62443
#
# Velocity S-wave (km/s) = 3.48350 3.72759 3.60761
# Velocity P-wave (km/s) = 7.06996 7.46962 7.27253
#
# Compressibility (1/GPa) = 0.01961841
#
# Stress axis : x y z
#
# Youngs Moduli (GPa) = 59.07524 32.08159 36.12418
#
# Poissons Ratio (x) = 0.31721 0.16097
# Poissons Ratio (y) = 0.58411 0.49625
# Poissons Ratio (z) = 0.26324 0.44072
#
# Static dielectric constant tensor:
#      x y z
#    x 1.493350 0.000000 -0.010570 
#    y 0.000000 1.503210 0.000000 
#    z -0.010570 0.000000 1.491720 
# 
# From -- ./inp_files/248160.got.cif
#   From: 2010.05.17/outbox.cif.g08.bks.cpg/sg12_125_cif.got.tgz:248160.got - 2010.06.03 13:09:07.
