data_PCOD9177239
_publ_section_title
;
Structure prediction by ZEFSAII (Michael W. Deem and Ramdas Pophale) SiO2 
 PCOD9177239
Probable space group: C 2/M
;
_chemical_formula_sum "Si O2"
_cell_formula_units_Z 46
_cell_length_a 13.521143
_cell_length_b 17.372304
_cell_length_c 12.939421
_cell_angle_alpha 90.000000
_cell_angle_beta 44.392767
_cell_angle_gamma 90.000000
_cell_volume 2126.271884
_symmetry_space_group_name_H-M "C 2/M"
_symmetry_group_IT_number 12
_symmetry_cell_setting 'monoclinic'
loop_
_space_group_symop_operation_xyz
x,y,z
-x,y,-z
-x,-y,-z
x,-y,z
1/2+x,1/2+y,z
1/2-x,1/2+y,-z
1/2-x,1/2-y,-z
1/2+x,1/2-y,z
loop_
_atom_site_type_symbol
_atom_site_label
_atom_site_fract_x
_atom_site_fract_y
_atom_site_fract_z
Si Si1 0.000000 0.828207 0.500000
Si Si2 0.946448 0.714188 0.345871
Si Si3 0.215768 0.156835 0.646724
Si Si4 0.244483 0.801184 0.855594
Si Si5 0.249061 0.377482 0.811519
Si Si6 0.573476 0.415799 0.117520
Si Si7 0.000000 0.500000 0.000000
O O1 0.030725 0.774349 0.576028
O O2 0.138827 0.875031 0.366083
O O3 0.861534 0.761985 0.324035
O O4 0.844548 0.649833 0.470405
O O5 0.104925 0.691303 0.197446
O O6 0.268241 0.163073 0.724458
O O7 0.090534 0.095861 0.733453
O O8 0.210081 0.711444 0.865924
O O9 0.124819 0.848748 0.003006
O O10 0.335423 0.406990 0.846960
O O11 0.119184 0.432501 0.889405
O O12 0.598433 0.500000 0.052778
#
# Coordination Sequence:
#
# PCOD9177239 Si02
#       7
#     4   8   8   8   8   8   2
#     4  10  18  43  72  96 135 172 214 276 341 404
#     4  10  20  38  66 108 127 161 229 279 329 402
#     4  11  21  38  68  98 129 171 220 277 326 406
#     4  11  23  41  72  96 132 179 221 277 339 401
#     4  11  24  45  67 102 137 172 222 281 341 408
#     4  12  26  45  62  94 139 180 223 278 334 399
#     4  12  28  42  68 104 144 172 218 282 344 408
#
# _framework density 21.63411
#
# number of rings (size 3 to 8) (size 9 to 14) (size 15 to 20)
#    0.000    1.043    7.826    1.043    2.435    1.739 
#    0.000    0.870    0.000    2.087    0.000    0.000 
#    0.000    0.000    0.000    0.000    0.000    0.000 
#
# Total GULP energy -128327.920603 kJ/mol
# GULP energy per Si atom -5579.474809 kJ/mol
# Density = 2.158487 g / cm^3
# Si number density = 21.634110 Si / 1000 Ang^3
#
#
#
# Elastic Constant Matrix: (Units=GPa)
#
#
# Indices 1 2 3 4 5 6 
#
# 1 27.8647 -9.0718 13.6556 0.0000 -5.0116 0.0000
# 2 -9.0718 108.6165 64.6469 0.0000 -21.1404 0.0000
# 3 13.6556 64.6469 118.5368 -0.0001 -30.0983 0.0001
# 4 0.0000 0.0000 -0.0001 10.1340 0.0000 -9.1193
# 5 -5.0116 -21.1404 -30.0983 0.0000 34.5043 0.0000
# 6 0.0000 0.0000 0.0001 -9.1193 0.0000 6.1738
#
#
#
# Elastic Compliance Matrix: (Units=1/GPa)
#
#
# Indices 1 2 3 4 5 6 
#
# 1 0.044812 0.010374 -0.009703 0.000000 0.004401 0.000000
# 2 0.010374 0.016189 -0.009150 0.000000 0.003444 0.000000
# 3 -0.009703 -0.009150 0.016394 0.000000 0.007285 0.000000
# 4 0.000000 0.000000 0.000000 -0.299755 0.000000 -0.442767
# 5 0.004401 0.003444 0.007285 0.000000 0.038086 0.000000
# 6 0.000000 0.000000 0.000000 -0.442767 0.000000 -0.492033
#
#
# Mechanical properties :
#
#
# Convention : Reuss Voigt Hill
#
# Bulk Modulus (GPa) = 16.54576 43.71994 30.13285
# Shear Modulus (GPa) = -7.82222 22.54823 7.36301
#
# Velocity S-wave (km/s) = -1.90356 3.23190 1.84684
# Velocity P-wave (km/s) = 1.68322 5.84633 4.30190
#
# Compressibility (1/GPa) = 0.06043844
#
# Stress axis : x y z
#
# Youngs Moduli (GPa) = 22.31562 61.76884 60.99859
#
# Poissons Ratio (x) = -0.64080 0.59185
# Poissons Ratio (y) = -0.23151 0.55812
# Poissons Ratio (z) = 0.21652 0.56517
#
# Static dielectric constant tensor:
#      x y z
#    x 1.822200 0.000000 -0.018310 
#    y 0.000000 1.764430 0.000000 
#    z -0.018310 0.000000 1.813760 
# 
# From -- ./inp_files/216257.got.cif
#   From: 2010.05.17/outbox.cif.g08.bks.cpg/sg12_109_cif.got.tgz:216257.got - 2010.06.03 13:09:07.
