data_PCOD9177904
_publ_section_title
;
Structure prediction by ZEFSAII (Michael W. Deem and Ramdas Pophale) SiO2 
 PCOD9177904
Probable space group: C 2/M
;
_chemical_formula_sum "Si O2"
_cell_formula_units_Z 56
_cell_length_a 14.000810
_cell_length_b 9.789186
_cell_length_c 20.320745
_cell_angle_alpha 90.000000
_cell_angle_beta 64.999133
_cell_angle_gamma 90.000000
_cell_volume 2524.131725
_symmetry_space_group_name_H-M "C 2/M"
_symmetry_group_IT_number 12
_symmetry_cell_setting 'monoclinic'
loop_
_space_group_symop_operation_xyz
x,y,z
-x,y,-z
-x,-y,-z
x,-y,z
1/2+x,1/2+y,z
1/2-x,1/2+y,-z
1/2-x,1/2-y,-z
1/2+x,1/2-y,z
loop_
_atom_site_type_symbol
_atom_site_label
_atom_site_fract_x
_atom_site_fract_y
_atom_site_fract_z
Si Si1 0.712824 0.842677 0.875711
Si Si2 0.931422 0.346192 0.580786
Si Si3 0.110230 0.156040 0.009419
Si Si4 0.490783 0.154928 0.859821
Si Si5 0.384038 0.154845 0.304476
Si Si6 0.712563 0.347826 0.568903
Si Si7 0.163011 0.157150 0.287076
O O1 0.601155 0.844600 0.868488
O O2 0.800548 0.799756 0.796723
O O3 0.732602 0.000000 0.889398
O O4 0.691543 0.743101 0.942412
O O5 0.972237 0.500000 0.582482
O O6 0.814882 0.360621 0.585009
O O7 0.914380 0.255324 0.650209
O O8 0.000000 0.287233 0.500000
O O9 0.081801 0.233293 0.084983
O O10 0.143138 0.000000 0.008778
O O11 0.000000 0.154413 0.000000
O O12 0.525475 0.182458 0.775113
O O13 0.448019 0.000000 0.877418
O O14 0.372639 0.267688 0.363415
O O15 0.273109 0.155284 0.296473
O O16 0.395912 0.000000 0.326453
O O17 0.680814 0.500000 0.556489
O O18 0.750000 0.250000 0.500000
O O19 0.125235 0.000000 0.295553
#
# Coordination Sequence:
#
# PCOD9177904 Si02
#       7
#     8   8   8   8   8   8   8
#     4   8  13  21  31  43  63  92 125 158 193 235
#     4   9  18  31  45  62  84 110 139 171 210 253
#     4   9  15  19  25  41  64  90 123 161 195 229
#     4   8  13  21  32  44  62  92 125 157 194 235
#     4   8  14  25  39  54  73  98 131 167 202 244
#     4  10  19  30  45  63  84 110 139 173 210 249
#     4   8  14  24  38  55  73  97 131 168 203 241
#
# _framework density 22.185848
#
# number of rings (size 3 to 8) (size 9 to 14) (size 15 to 20)
#    0.000    3.429    0.000    2.571    0.000    3.714 
#    0.000    5.714    0.000    0.000    0.000    0.000 
#    0.000    0.000    0.000    1.286    0.000   16.857 
#
# Total GULP energy -156350.976272 kJ/mol
# GULP energy per Si atom -5583.963438 kJ/mol
# Density = 2.213535 g / cm^3
# Si number density = 22.185848 Si / 1000 Ang^3
#
#
#
# Elastic Constant Matrix: (Units=GPa)
#
#
# Indices 1 2 3 4 5 6 
#
# 1 71.2367 3.8828 8.8951 0.0000 -6.7509 0.0000
# 2 3.8828 184.8748 151.6475 0.0000 -9.0841 0.0000
# 3 8.8951 151.6475 200.4079 0.0000 -8.7301 0.0000
# 4 0.0000 0.0000 0.0000 40.3300 0.0000 -5.9586
# 5 -6.7509 -9.0841 -8.7301 0.0000 18.1875 0.0000
# 6 0.0000 0.0000 0.0000 -5.9586 0.0000 -4.7492
#
#
#
# Elastic Compliance Matrix: (Units=1/GPa)
#
#
# Indices 1 2 3 4 5 6 
#
# 1 0.014627 0.000783 -0.001009 0.000000 0.005336 0.000000
# 2 0.000783 0.014373 -0.010811 0.000000 0.002280 0.000000
# 3 -0.001009 -0.010811 0.013241 0.000000 0.000581 0.000000
# 4 0.000000 0.000000 0.000000 0.020918 0.000000 -0.026245
# 5 0.005336 0.002280 0.000581 0.000000 0.058381 0.000000
# 6 0.000000 0.000000 0.000000 -0.026245 0.000000 -0.177635
#
#
# Mechanical properties :
#
#
# Convention : Reuss Voigt Hill
#
# Bulk Modulus (GPa) = 49.59074 87.26334 68.42704
# Shear Modulus (GPa) = -183.16011 30.22658 -76.46676
#
# Velocity S-wave (km/s) = -9.09596 3.69511 -5.87718
# Velocity P-wave (km/s) = 9.37626 7.59101 3.89171
#
# Compressibility (1/GPa) = 0.02016506
#
# Stress axis : x y z
#
# Youngs Moduli (GPa) = 68.36810 69.57574 75.52443
#
# Poissons Ratio (x) = -0.05445 0.07620
# Poissons Ratio (y) = -0.05351 0.81651
# Poissons Ratio (z) = 0.06898 0.75220
#
# Static dielectric constant tensor:
#      x y z
#    x 2.604340 0.000000 -0.042110 
#    y 0.000000 1.789980 0.000000 
#    z -0.042110 0.000000 1.790450 
# 
# From -- ./inp_files/345465.got.cif
#   From: 2010.05.17/outbox.cif.g08.bks.cpg/sg12_173_cif.got.tgz:345465.got - 2010.06.03 13:09:07.
