data_PCOD9177880
_publ_section_title
;
Structure prediction by ZEFSAII (Michael W. Deem and Ramdas Pophale) SiO2 
 PCOD9177880
Probable space group: C 2/M
;
_chemical_formula_sum "Si O2"
_cell_formula_units_Z 64
_cell_length_a 23.882126
_cell_length_b 9.224034
_cell_length_c 16.803582
_cell_angle_alpha 90.000000
_cell_angle_beta 100.728869
_cell_angle_gamma 90.000000
_cell_volume 3636.945235
_symmetry_space_group_name_H-M "C 2/M"
_symmetry_group_IT_number 12
_symmetry_cell_setting 'monoclinic'
loop_
_space_group_symop_operation_xyz
x,y,z
-x,y,-z
-x,-y,-z
x,-y,z
1/2+x,1/2+y,z
1/2-x,1/2+y,-z
1/2-x,1/2-y,-z
1/2+x,1/2-y,z
loop_
_atom_site_type_symbol
_atom_site_label
_atom_site_fract_x
_atom_site_fract_y
_atom_site_fract_z
Si Si1 0.084092 0.173525 0.509737
Si Si2 0.198205 0.838380 0.453842
Si Si3 0.008634 0.676385 0.092297
Si Si4 0.117186 0.675136 0.224199
Si Si5 0.648253 0.673871 0.689459
Si Si6 0.068591 0.669037 0.783485
Si Si7 0.457447 0.167565 0.642131
Si Si8 0.729803 0.665754 0.278815
O O1 0.138941 0.218160 0.470651
O O2 0.106311 0.213961 0.603765
O O3 0.037191 0.243799 0.438747
O O4 0.075154 0.000000 0.507094
O O5 0.250000 0.750000 0.500000
O O6 0.206072 0.843139 0.362350
O O7 0.202099 0.000000 0.488503
O O8 0.008384 0.500000 0.092293
O O9 0.069061 0.718017 0.147240
O O10 0.958178 0.717948 0.139626
O O11 0.000000 0.726761 0.000000
O O12 0.123051 0.500000 0.225711
O O13 0.089268 0.713880 0.303157
O O14 0.178005 0.748367 0.223550
O O15 0.654765 0.500000 0.689680
O O16 0.617427 0.731144 0.760432
O O17 0.709998 0.750505 0.701196
O O18 0.086766 0.500000 0.793985
O O19 0.015909 0.673191 0.707480
O O20 0.445551 0.000000 0.618342
O O21 0.737522 0.500000 0.251957
#
# Coordination Sequence:
#
# PCOD9177880 Si02
#       8
#     8   8   8   8   8   8   8   8
#     4  10  20  32  45  66  96 132 178 222 258 295
#     4  10  19  30  44  65  93 129 174 222 260 292
#     4   8  15  32  61  90 109 128 157 197 249 307
#     4   9  17  30  51  80 108 131 161 204 253 303
#     4  11  23  36  49  68  99 141 181 215 253 297
#     4   9  19  36  54  76 104 132 167 207 249 304
#     4   9  18  31  49  71  98 133 170 213 259 298
#     4  11  21  32  49  72 100 136 174 214 257 298
#
# _framework density 17.597186000000001
#
# number of rings (size 3 to 8) (size 9 to 14) (size 15 to 20)
#    0.000    2.375    2.500    2.250    0.000    3.000 
#    0.000    4.375    0.000    2.250    0.000    0.000 
#    0.000    0.000    0.000    0.000    0.000    0.000 
#
# Total GULP energy -178187.965074 kJ/mol
# GULP energy per Si atom -5568.373909 kJ/mol
# Density = 1.755713 g / cm^3
# Si number density = 17.597186 Si / 1000 Ang^3
#
#
#
# Elastic Constant Matrix: (Units=GPa)
#
#
# Indices 1 2 3 4 5 6 
#
# 1 57.9587 25.7385 35.6921 0.0000 -8.6100 0.0000
# 2 25.7385 39.2360 32.5202 0.0000 -1.0324 0.0000
# 3 35.6921 32.5202 113.9954 0.0000 -6.2528 0.0000
# 4 0.0000 0.0000 0.0000 13.5112 0.0000 -1.6467
# 5 -8.6100 -1.0324 -6.2528 0.0000 20.2481 0.0000
# 6 0.0000 0.0000 0.0000 -1.6467 0.0000 22.2046
#
#
#
# Elastic Compliance Matrix: (Units=1/GPa)
#
#
# Indices 1 2 3 4 5 6 
#
# 1 0.027615 -0.014585 -0.003949 0.000000 0.009780 0.000000
# 2 -0.014585 0.041114 -0.007515 0.000000 -0.006426 0.000000
# 3 -0.003949 -0.007515 0.012247 0.000000 0.001719 0.000000
# 4 0.000000 0.000000 0.000000 0.074688 0.000000 0.005539
# 5 0.009780 -0.006426 0.001719 0.000000 0.053749 0.000000
# 6 0.000000 0.000000 0.000000 0.005539 0.000000 0.045446
#
#
# Mechanical properties :
#
#
# Convention : Reuss Voigt Hill
#
# Bulk Modulus (GPa) = 34.62805 44.34353 39.48579
# Shear Modulus (GPa) = 15.79361 19.00872 17.40116
#
# Velocity S-wave (km/s) = 2.99909 3.29023 3.14803
# Velocity P-wave (km/s) = 5.63149 6.29984 5.97502
#
# Compressibility (1/GPa) = 0.02887832
#
# Stress axis : x y z
#
# Youngs Moduli (GPa) = 36.21164 24.32272 81.65330
#
# Poissons Ratio (x) = 0.35474 0.32247
# Poissons Ratio (y) = 0.52814 0.61360
# Poissons Ratio (z) = 0.14301 0.18278
#
# Static dielectric constant tensor:
#      x y z
#    x 1.634570 0.000000 0.018350 
#    y 0.000000 1.614870 0.000000 
#    z 0.018350 0.000000 1.612230 
# 
# From -- ./inp_files/287769.got.cif
#   From: 2010.05.17/outbox.cif.g08.bks.cpg/sg12_144_cif.got.tgz:287769.got - 2010.06.03 13:09:07.
