data_PCOD9177247
_publ_section_title
;
Structure prediction by ZEFSAII (Michael W. Deem and Ramdas Pophale) SiO2 
 PCOD9177247
Probable space group: C 2/M
;
_chemical_formula_sum "Si O2"
_cell_formula_units_Z 52
_cell_length_a 23.442744
_cell_length_b 29.841877
_cell_length_c 7.346468
_cell_angle_alpha 90.000000
_cell_angle_beta 35.745010
_cell_angle_gamma 90.000000
_cell_volume 3002.334658
_symmetry_space_group_name_H-M "C 2/M"
_symmetry_group_IT_number 12
_symmetry_cell_setting 'monoclinic'
loop_
_space_group_symop_operation_xyz
x,y,z
-x,y,-z
-x,-y,-z
x,-y,z
1/2+x,1/2+y,z
1/2-x,1/2+y,-z
1/2-x,1/2-y,-z
1/2+x,1/2-y,z
loop_
_atom_site_type_symbol
_atom_site_label
_atom_site_fract_x
_atom_site_fract_y
_atom_site_fract_z
Si Si1 0.278690 0.799356 0.800681
Si Si2 0.000000 0.124549 0.500000
Si Si3 0.386011 0.765979 0.833509
Si Si4 0.170986 0.852998 0.806987
Si Si5 0.148769 0.950963 0.735603
Si Si6 0.073228 0.951651 0.534760
Si Si7 0.613085 0.265875 0.761384
O O1 0.333847 0.804743 0.849010
O O2 0.254110 0.841060 0.737782
O O3 0.337299 0.763936 0.522793
O O4 0.171977 0.776698 0.099398
O O5 0.077396 0.091091 0.395874
O O6 0.063779 0.149596 0.183901
O O7 0.500000 0.765315 0.500000
O O8 0.375242 0.761357 0.078271
O O9 0.188846 0.903276 0.693988
O O10 0.162737 0.814132 0.675022
O O11 0.138778 0.948856 0.543360
O O12 0.192159 0.000000 0.671190
O O13 0.038181 0.951596 0.102113
O O14 0.090886 0.000000 0.397848
O O15 0.500000 0.272106 0.000000
#
# Coordination Sequence:
#
# PCOD9177247 Si02
#       7
#     8   4   8   8   8   8   8
#     4  10  22  37  50  73 103 131 171 214 256 298
#     4  10  19  26  40  68  94 126 168 210 239 292
#     4  10  19  35  54  71  96 132 165 207 251 301
#     4  10  21  30  46  72  96 129 171 206 249 294
#     4   8  15  29  44  62  92 129 163 200 240 293
#     4   8  14  26  41  59  89 127 165 199 238 283
#     4  11  22  35  53  71 101 137 173 207 260 299
#
# _framework density 17.319853999999999
#
# number of rings (size 3 to 8) (size 9 to 14) (size 15 to 20)
#    0.000    2.462    1.538    3.000    8.615    0.615 
#    2.769    0.000    0.000    0.000    0.000    0.000 
#    0.000    1.231    0.000    0.000    0.000    2.615 
#
# Total GULP energy -144735.313154 kJ/mol
# GULP energy per Si atom -5566.742814 kJ/mol
# Density = 1.728043 g / cm^3
# Si number density = 17.319854 Si / 1000 Ang^3
#
#
#
# Elastic Constant Matrix: (Units=GPa)
#
#
# Indices 1 2 3 4 5 6 
#
# 1 113.5177 44.5854 18.2981 0.0000 -1.3951 0.0000
# 2 44.5854 103.1959 12.3713 0.0000 -0.1806 0.0000
# 3 18.2981 12.3713 29.5646 0.0000 -1.5454 0.0000
# 4 0.0000 0.0000 0.0000 7.9028 0.0000 0.1185
# 5 -1.3951 -0.1806 -1.5454 0.0000 28.3829 0.0000
# 6 0.0000 0.0000 0.0000 0.1185 0.0000 27.1751
#
#
#
# Elastic Compliance Matrix: (Units=1/GPa)
#
#
# Indices 1 2 3 4 5 6 
#
# 1 0.011329 -0.004269 -0.005213 0.000000 0.000246 0.000000
# 2 -0.004269 0.011812 -0.002314 0.000000 -0.000261 0.000000
# 3 -0.005213 -0.002314 0.038113 0.000000 0.001804 0.000000
# 4 0.000000 0.000000 0.000000 0.126546 0.000000 -0.000552
# 5 0.000246 -0.000261 0.001804 0.000000 0.035341 0.000000
# 6 0.000000 0.000000 0.000000 -0.000552 0.000000 0.036801
#
#
# Mechanical properties :
#
#
# Convention : Reuss Voigt Hill
#
# Bulk Modulus (GPa) = 26.55169 44.08754 35.31962
# Shear Modulus (GPa) = 16.88687 24.09371 20.49029
#
# Velocity S-wave (km/s) = 3.12589 3.73380 3.44328
# Velocity P-wave (km/s) = 5.32839 6.64067 6.02039
#
# Compressibility (1/GPa) = 0.03766239
#
# Stress axis : x y z
#
# Youngs Moduli (GPa) = 88.26657 84.66074 26.23785
#
# Poissons Ratio (x) = 0.36146 0.13676
# Poissons Ratio (y) = 0.37685 0.06071
# Poissons Ratio (z) = 0.46009 0.19589
#
# Static dielectric constant tensor:
#      x y z
#    x 1.659520 0.000000 0.038820 
#    y 0.000000 1.647290 0.000000 
#    z 0.038820 0.000000 1.616740 
# 
# From -- ./inp_files/106953.got.cif
#   From: 2010.05.17/outbox.cif.g08.bks.cpg/sg12_54_cif.got.tgz:106953.got - 2010.06.03 13:09:07.
