data_PCOD9177887
_publ_section_title
;
Structure prediction by ZEFSAII (Michael W. Deem and Ramdas Pophale) SiO2 
 PCOD9177887
Probable space group: C 2/M
;
_chemical_formula_sum "Si O2"
_cell_formula_units_Z 56
_cell_length_a 29.798640
_cell_length_b 12.573725
_cell_length_c 33.339679
_cell_angle_alpha 90.000000
_cell_angle_beta 17.905936
_cell_angle_gamma 90.000000
_cell_volume 3840.640554
_symmetry_space_group_name_H-M "C 2/M"
_symmetry_group_IT_number 12
_symmetry_cell_setting 'monoclinic'
loop_
_space_group_symop_operation_xyz
x,y,z
-x,y,-z
-x,-y,-z
x,-y,z
1/2+x,1/2+y,z
1/2-x,1/2+y,-z
1/2-x,1/2-y,-z
1/2+x,1/2-y,z
loop_
_atom_site_type_symbol
_atom_site_label
_atom_site_fract_x
_atom_site_fract_y
_atom_site_fract_z
Si Si1 0.319522 0.126998 0.894514
Si Si2 0.333158 0.625899 0.388841
Si Si3 0.967926 0.255714 0.346678
Si Si4 0.848283 0.871213 0.650298
Si Si5 0.196662 0.373206 0.701590
Si Si6 0.010621 0.127055 0.389995
Si Si7 0.968984 0.745422 0.840484
O O1 0.411990 0.176311 0.779259
O O2 0.403275 0.160983 0.864329
O O3 0.307452 0.000000 0.902162
O O4 0.164138 0.186007 0.028932
O O5 0.337482 0.500000 0.383838
O O6 0.168641 0.669044 0.526720
O O7 0.404031 0.669021 0.369778
O O8 0.426493 0.677692 0.273963
O O9 0.021522 0.195126 0.340582
O O10 0.724703 0.837597 0.723870
O O11 0.000000 0.840512 0.500000
O O12 0.869167 0.840196 0.678747
O O13 0.844522 0.000000 0.653669
O O14 0.169407 0.500000 0.724599
O O15 0.349107 0.357974 0.547287
O O16 0.066297 0.312864 0.790804
O O17 0.024596 0.000000 0.370453
#
# Coordination Sequence:
#
# PCOD9177887 Si02
#       7
#     8   8   8   8   8   8   8
#     4  10  21  34  46  64  94 125 155 191 223 266
#     4  10  19  30  44  66  92 116 154 195 220 261
#     4  10  19  30  45  68  91 123 154 179 230 275
#     4   7  12  22  40  68  97 119 141 177 229 277
#     4   9  15  26  46  72  97 119 147 185 227 274
#     4   9  15  26  45  71 100 122 143 181 229 276
#     4  10  19  32  49  68  88 122 159 184 227 268
#
# _framework density 14.580901000000001
#
# number of rings (size 3 to 8) (size 9 to 14) (size 15 to 20)
#    0.000    2.714    1.429    3.429    0.000    0.000 
#    0.000    2.143    0.000    0.857    0.000    9.000 
#    0.000    0.000    0.000    0.000    0.000    0.000 
#
# Total GULP energy -155899.336628 kJ/mol
# GULP energy per Si atom -5567.833451 kJ/mol
# Density = 1.454771 g / cm^3
# Si number density = 14.580901 Si / 1000 Ang^3
#
#
#
# Elastic Constant Matrix: (Units=GPa)
#
#
# Indices 1 2 3 4 5 6 
#
# 1 139.1599 64.9463 50.3772 0.0266 -14.4117 0.0035
# 2 64.9463 88.2568 42.4438 0.0399 -5.7251 -0.0066
# 3 50.3772 42.4438 88.0489 0.0669 -2.3400 -0.0037
# 4 0.0266 0.0399 0.0669 5.1180 0.0148 -2.3094
# 5 -14.4117 -5.7251 -2.3400 0.0148 17.4889 -0.0059
# 6 0.0035 -0.0066 -0.0037 -2.3094 -0.0059 22.5154
#
#
#
# Elastic Compliance Matrix: (Units=1/GPa)
#
#
# Indices 1 2 3 4 5 6 
#
# 1 0.012542 -0.007010 -0.003596 0.000014 0.007559 -0.000001
# 2 -0.007010 0.018936 -0.005125 -0.000043 -0.000263 0.000001
# 3 -0.003596 -0.005125 0.015818 -0.000147 -0.002524 -0.000014
# 4 0.000014 -0.000043 -0.000147 0.204872 -0.000189 0.021014
# 5 0.007559 -0.000263 -0.002524 -0.000189 0.062985 -0.000005
# 6 -0.000001 0.000001 -0.000014 0.021014 -0.000005 0.046569
#
#
# Mechanical properties :
#
#
# Convention : Reuss Voigt Hill
#
# Bulk Modulus (GPa) = 63.14784 70.11113 66.62949
# Shear Modulus (GPa) = 12.54825 19.53770 16.04297
#
# Velocity S-wave (km/s) = 2.93677 3.66451 3.32063
# Velocity P-wave (km/s) = 7.40960 8.12979 7.77803
#
# Compressibility (1/GPa) = 0.01583585
#
# Stress axis : x y z
#
# Youngs Moduli (GPa) = 79.73134 52.80866 63.21858
#
# Poissons Ratio (x) = 0.37017 0.22734
# Poissons Ratio (y) = 0.55889 0.32397
# Poissons Ratio (z) = 0.28672 0.27062
#
# Static dielectric constant tensor:
#      x y z
#    x 1.498300 0.000000 -0.001620 
#    y 0.000000 1.450710 0.000000 
#    z -0.001620 0.000000 1.476250 
# 
# From -- ./inp_files/370750.got.cif
#   From: 2010.05.17/outbox.cif.g08.bks.cpg/sg12_186_cif.got.tgz:370750.got - 2010.06.03 13:09:07.
