data_PCOD9177173
_publ_section_title
;
Structure prediction by ZEFSAII (Michael W. Deem and Ramdas Pophale) SiO2 
 PCOD9177173
Probable space group: C 2/M
;
_chemical_formula_sum "Si O2"
_cell_formula_units_Z 38
_cell_length_a 15.421724
_cell_length_b 9.742384
_cell_length_c 13.975767
_cell_angle_alpha 90.000000
_cell_angle_beta 116.144878
_cell_angle_gamma 90.000000
_cell_volume 1884.936316
_symmetry_space_group_name_H-M "C 2/M"
_symmetry_group_IT_number 12
_symmetry_cell_setting 'monoclinic'
loop_
_space_group_symop_operation_xyz
x,y,z
-x,y,-z
-x,-y,-z
x,-y,z
1/2+x,1/2+y,z
1/2-x,1/2+y,-z
1/2-x,1/2-y,-z
1/2+x,1/2-y,z
loop_
_atom_site_type_symbol
_atom_site_label
_atom_site_fract_x
_atom_site_fract_y
_atom_site_fract_z
Si Si1 0.000000 0.500000 0.000000
Si Si2 0.068258 0.500000 0.625204
Si Si3 0.394539 0.000000 0.682888
Si Si4 0.931844 0.000000 0.874890
Si Si5 0.147976 0.699032 0.166401
Si Si6 0.992176 0.000000 0.692582
Si Si7 0.858022 0.200319 0.327183
Si Si8 0.314611 0.500000 0.476899
O O1 0.916787 0.619496 0.941684
O O2 0.128827 0.361373 0.655959
O O3 0.000000 0.500000 0.500000
O O4 0.995251 0.500000 0.679076
O O5 0.386070 0.869048 0.749220
O O6 0.300968 0.000000 0.568439
O O7 0.870534 0.860348 0.845187
O O8 0.992867 0.000000 0.806497
O O9 0.000000 0.000000 0.000000
O O10 0.262035 0.669563 0.219361
O O11 0.049291 0.129699 0.676067
O O12 0.881976 0.000000 0.601704
O O13 0.842385 0.129087 0.422749
#
# Coordination Sequence:
#
# PCOD9177173 Si02
#       8
#     2   4   4   4   8   4   8   4
#     4  10  18  38  68  84 104 154 200 246 300 352
#     4  12  22  35  56  91 134 160 189 240 297 354
#     4   9  21  38  62  91 117 163 201 233 296 372
#     4  12  24  40  59  89 117 155 205 254 296 339
#     4  10  21  40  65  85 117 153 203 251 298 358
#     4  11  21  39  63  85 124 164 197 246 295 357
#     4  10  21  38  62  92 124 154 197 246 306 357
#     4   9  19  39  62  90 118 164 204 231 289 375
#
# _framework density 20.159832000000002
#
# number of rings (size 3 to 8) (size 9 to 14) (size 15 to 20)
#    0.000    1.684    1.053    6.316    0.000    1.684 
#    0.000    6.316    9.263    0.000    0.000    0.000 
#    0.000    0.000    0.000    0.000    0.000    0.000 
#
# Total GULP energy -105894.130752 kJ/mol
# GULP energy per Si atom -5573.375303 kJ/mol
# Density = 2.011395 g / cm^3
# Si number density = 20.159832 Si / 1000 Ang^3
#
#
#
# Elastic Constant Matrix: (Units=GPa)
#
#
# Indices 1 2 3 4 5 6 
#
# 1 27.0956 16.9057 13.4552 0.0000 16.7343 0.0000
# 2 16.9057 176.0132 22.3011 0.0000 15.1521 0.0000
# 3 13.4552 22.3011 84.9812 0.0000 26.0818 0.0000
# 4 0.0000 0.0000 0.0000 27.2668 0.0000 20.2295
# 5 16.7343 15.1521 26.0818 0.0000 31.7318 0.0000
# 6 0.0000 0.0000 0.0000 20.2295 0.0000 2.5077
#
#
#
# Elastic Compliance Matrix: (Units=1/GPa)
#
#
# Indices 1 2 3 4 5 6 
#
# 1 0.056215 -0.003012 0.000732 0.000000 -0.028809 0.000000
# 2 -0.003012 0.006140 -0.000966 0.000000 -0.000550 0.000000
# 3 0.000732 -0.000966 0.015890 0.000000 -0.012986 0.000000
# 4 0.000000 0.000000 0.000000 -0.007357 0.000000 0.059349
# 5 -0.028809 -0.000550 -0.012986 0.000000 0.057643 0.000000
# 6 0.000000 0.000000 0.000000 0.059349 0.000000 -0.079995
#
#
# Mechanical properties :
#
#
# Convention : Reuss Voigt Hill
#
# Bulk Modulus (GPa) = 13.93658 43.71267 28.82462
# Shear Modulus (GPa) = 63.33387 27.99646 45.66516
#
# Velocity S-wave (km/s) = 5.61107 3.73060 4.76453
# Velocity P-wave (km/s) = 6.99334 6.34718 6.67808
#
# Compressibility (1/GPa) = 0.07175364
#
# Stress axis : x y z
#
# Youngs Moduli (GPa) = 17.78886 162.85633 62.93112
#
# Poissons Ratio (x) = 0.49052 -0.04605
# Poissons Ratio (y) = 0.05358 0.06077
# Poissons Ratio (z) = -0.01302 0.15727
#
# Static dielectric constant tensor:
#      x y z
#    x 1.706130 0.000000 -0.006470 
#    y 0.000000 1.742620 0.000000 
#    z -0.006470 0.000000 1.721300 
# 
# From -- ./inp_files/220655.got.cif
#   From: 2010.05.17/outbox.cif.g08.bks.cpg/sg12_111_cif.got.tgz:220655.got - 2010.06.03 13:09:07.
