data_PCOD9177826
_publ_section_title
;
Structure prediction by ZEFSAII (Michael W. Deem and Ramdas Pophale) SiO2 
 PCOD9177826
Probable space group: C 2/M
;
_chemical_formula_sum "Si O2"
_cell_formula_units_Z 56
_cell_length_a 18.428590
_cell_length_b 13.445260
_cell_length_c 21.742646
_cell_angle_alpha 90.000000
_cell_angle_beta 158.517235
_cell_angle_gamma 90.000000
_cell_volume 1972.955762
_symmetry_space_group_name_H-M "C 2/M"
_symmetry_group_IT_number 12
_symmetry_cell_setting 'monoclinic'
loop_
_space_group_symop_operation_xyz
x,y,z
-x,y,-z
-x,-y,-z
x,-y,z
1/2+x,1/2+y,z
1/2-x,1/2+y,-z
1/2-x,1/2-y,-z
1/2+x,1/2-y,z
loop_
_atom_site_type_symbol
_atom_site_label
_atom_site_fract_x
_atom_site_fract_y
_atom_site_fract_z
Si Si1 0.274710 0.115344 0.505900
Si Si2 0.223798 0.380780 0.881123
Si Si3 0.264617 0.113379 0.978377
Si Si4 0.229691 0.326565 0.625288
Si Si5 0.270167 0.884829 0.839520
Si Si6 0.757392 0.392367 0.630765
Si Si7 0.282617 0.826922 0.254803
O O1 0.495857 0.156114 0.691780
O O2 0.174530 0.162203 0.366790
O O3 0.182652 0.118539 0.501117
O O4 0.291205 0.000000 0.503693
O O5 0.213809 0.500000 0.881645
O O6 0.303325 0.340199 0.009318
O O7 0.311578 0.361685 0.883345
O O8 0.502776 0.105768 0.177307
O O9 0.182503 0.000000 0.911642
O O10 0.246806 0.146108 0.893244
O O11 0.205725 0.210252 0.620309
O O12 0.312894 0.362700 0.755991
O O13 0.008244 0.367485 0.439297
O O14 0.198099 0.791954 0.742366
O O15 0.200196 0.000000 0.776912
O O16 0.500000 0.889557 0.000000
O O17 0.305528 0.500000 0.394091
#
# Coordination Sequence:
#
# PCOD9177826 Si02
#       7
#     8   8   8   8   8   8   8
#     4   8  15  28  47  69  91 119 155 187 217 261
#     4   8  15  30  49  69  92 116 148 189 227 265
#     4   8  15  29  50  71  88 114 154 192 223 259
#     4  10  19  30  43  66 100 125 146 182 225 269
#     4  10  20  34  50  67  89 117 153 194 226 261
#     4   9  16  28  48  71  93 120 151 183 224 268
#     4  10  21  31  44  69  94 122 154 181 223 275
#
# _framework density 28.38381
#
# number of rings (size 3 to 8) (size 9 to 14) (size 15 to 20)
#    0.000    3.000    0.000    3.000    0.000    3.429 
#    0.000    4.286    0.000    0.429    0.000    3.000 
#    0.000    0.000    0.000    0.000    0.000    0.000 
#
# Total GULP energy -156379.522621 kJ/mol
# GULP energy per Si atom -5584.982951 kJ/mol
# Density = 2.831921 g / cm^3
# Si number density = 28.383810 Si / 1000 Ang^3
#
#
#
# Elastic Constant Matrix: (Units=GPa)
#
#
# Indices 1 2 3 4 5 6 
#
# 1 146.1116 21.7638 49.8042 -0.0175 -59.1415 0.0011
# 2 21.7638 88.7197 21.7402 -0.0769 -24.7163 -0.0341
# 3 49.8042 21.7402 161.6785 -0.0395 -49.8177 -0.0122
# 4 -0.0175 -0.0769 -0.0395 19.5734 -0.0253 -2.8924
# 5 -59.1415 -24.7163 -49.8177 -0.0253 78.4806 -0.0033
# 6 0.0011 -0.0341 -0.0122 -2.8924 -0.0033 1.6864
#
#
#
# Elastic Compliance Matrix: (Units=1/GPa)
#
#
# Indices 1 2 3 4 5 6 
#
# 1 0.009970 -0.000317 -0.000925 0.000018 0.006826 0.000025
# 2 -0.000317 0.012409 -0.000547 0.000119 0.003322 0.000459
# 3 -0.000925 -0.000547 0.007802 0.000035 0.004083 0.000114
# 4 0.000018 0.000119 0.000035 0.068436 0.000101 0.117380
# 5 0.006826 0.003322 0.004083 0.000101 0.021523 0.000308
# 6 0.000025 0.000459 0.000114 0.117380 0.000308 0.794326
#
#
# Mechanical properties :
#
#
# Convention : Reuss Voigt Hill
#
# Bulk Modulus (GPa) = 37.59317 64.79180 51.19249
# Shear Modulus (GPa) = 5.39426 40.16151 22.77789
#
# Velocity S-wave (km/s) = 1.38007 3.76566 2.83591
# Velocity P-wave (km/s) = 3.97653 6.46401 5.36639
#
# Compressibility (1/GPa) = 0.02660058
#
# Stress axis : x y z
#
# Youngs Moduli (GPa) = 100.30569 80.58640 128.17623
#
# Poissons Ratio (x) = 0.02557 0.11859
# Poissons Ratio (y) = 0.03183 0.07015
# Poissons Ratio (z) = 0.09280 0.04411
#
# Static dielectric constant tensor:
#      x y z
#    x 2.273010 -0.000010 0.012880 
#    y -0.000010 2.171090 -0.000010 
#    z 0.012880 -0.000010 2.188490 
# 
# From -- ./inp_files/183470.got.cif
#   From: 2010.05.17/outbox.cif.g08.bks.cpg/sg12_92_cif.got.tgz:183470.got - 2010.06.03 13:09:07.
