data_PCOD9177082
_publ_section_title
;
Structure prediction by ZEFSAII (Michael W. Deem and Ramdas Pophale) SiO2 
 PCOD9177082
Probable space group: C 2/M
;
_chemical_formula_sum "Si O2"
_cell_formula_units_Z 52
_cell_length_a 13.414711
_cell_length_b 18.156421
_cell_length_c 19.957886
_cell_angle_alpha 90.000000
_cell_angle_beta 147.425530
_cell_angle_gamma 90.000000
_cell_volume 2617.142697
_symmetry_space_group_name_H-M "C 2/M"
_symmetry_group_IT_number 12
_symmetry_cell_setting 'monoclinic'
loop_
_space_group_symop_operation_xyz
x,y,z
-x,y,-z
-x,-y,-z
x,-y,z
1/2+x,1/2+y,z
1/2-x,1/2+y,-z
1/2-x,1/2-y,-z
1/2+x,1/2-y,z
loop_
_atom_site_type_symbol
_atom_site_label
_atom_site_fract_x
_atom_site_fract_y
_atom_site_fract_z
Si Si1 0.521486 0.202264 0.700714
Si Si2 0.879844 0.158031 0.556899
Si Si3 0.025416 0.000000 0.595959
Si Si4 0.716661 0.000000 0.143173
Si Si5 0.916461 0.307556 0.108096
Si Si6 0.179917 0.186520 0.235145
Si Si7 0.650835 0.582287 0.901253
Si Si8 0.000000 0.742880 0.500000
O O1 0.342034 0.165492 0.564512
O O2 0.481903 0.290316 0.669699
O O3 0.540019 0.185551 0.789109
O O4 0.704007 0.173395 0.766324
O O5 0.933464 0.203843 0.520879
O O6 0.934491 0.074215 0.574319
O O7 0.000000 0.000000 0.500000
O O8 0.228741 0.000000 0.747661
O O9 0.814604 0.931852 0.158464
O O10 0.500000 0.000000 0.000000
O O11 0.092344 0.267922 0.175773
O O12 0.750000 0.250000 0.000000
O O13 0.840752 0.382348 0.035133
O O14 0.332166 0.193908 0.379112
O O15 0.019898 0.131621 0.169426
O O16 0.624190 0.500000 0.913497
#
# Coordination Sequence:
#
# PCOD9177082 Si02
#       8
#     8   8   4   4   8   8   8   4
#     4  10  22  39  66  96 132 174 225 275 338 399
#     4  10  22  40  62  97 135 172 217 277 340 406
#     4  12  26  42  71 101 140 181 225 284 354 407
#     4  10  26  44  65  92 134 183 223 274 351 410
#     4  10  21  39  64  92 126 172 229 270 328 407
#     4  10  21  39  66  93 130 170 226 273 337 405
#     4   9  23  45  61  91 132 175 217 286 338 400
#     4  10  18  37  65  90 130 174 210 278 328 407
#
# _framework density 19.868997
#
# number of rings (size 3 to 8) (size 9 to 14) (size 15 to 20)
#    0.462    1.538    2.308    0.000    4.308    6.154 
#    2.769    1.154    0.000    0.000    0.000    0.000 
#    0.000    0.000    0.000    0.000    0.000    0.000 
#
# Total GULP energy -144829.150001 kJ/mol
# GULP energy per Si atom -5570.351923 kJ/mol
# Density = 1.982377 g / cm^3
# Si number density = 19.868997 Si / 1000 Ang^3
#
#
#
# Elastic Constant Matrix: (Units=GPa)
#
#
# Indices 1 2 3 4 5 6 
#
# 1 76.7644 15.8278 22.5708 0.0000 9.7594 0.0000
# 2 15.8278 111.2814 37.3360 0.0006 3.1463 0.0001
# 3 22.5708 37.3360 93.7968 0.0019 2.9838 0.0004
# 4 0.0000 0.0006 0.0019 25.1413 0.0006 0.9897
# 5 9.7594 3.1463 2.9838 0.0006 38.0980 0.0001
# 6 0.0000 0.0001 0.0004 0.9897 0.0001 21.8912
#
#
#
# Elastic Compliance Matrix: (Units=1/GPa)
#
#
# Indices 1 2 3 4 5 6 
#
# 1 0.014543 -0.000963 -0.003008 0.000000 -0.003410 0.000000
# 2 -0.000963 0.010446 -0.003916 0.000000 -0.000309 0.000000
# 3 -0.003008 -0.003916 0.012942 -0.000001 0.000080 0.000000
# 4 0.000000 0.000000 -0.000001 0.039846 -0.000001 -0.001801
# 5 -0.003410 -0.000309 0.000080 -0.000001 0.027141 0.000000
# 6 0.000000 0.000000 0.000000 -0.001801 0.000000 0.045762
#
#
# Mechanical properties :
#
#
# Convention : Reuss Voigt Hill
#
# Bulk Modulus (GPa) = 45.13383 48.14574 46.63979
# Shear Modulus (GPa) = 28.76210 30.76663 29.76437
#
# Velocity S-wave (km/s) = 3.80884 3.93933 3.87464
# Velocity P-wave (km/s) = 6.48907 6.70637 6.59861
#
# Compressibility (1/GPa) = 0.02215633
#
# Stress axis : x y z
#
# Youngs Moduli (GPa) = 68.75971 95.73095 77.27059
#
# Poissons Ratio (x) = 0.09218 0.23242
# Poissons Ratio (y) = 0.06621 0.30263
# Poissons Ratio (z) = 0.20682 0.37493
#
# Static dielectric constant tensor:
#      x y z
#    x 1.673700 0.000000 -0.028560 
#    y 0.000000 1.716500 0.000000 
#    z -0.028560 0.000000 1.721860 
# 
# From -- ./inp_files/311553.got.cif
#   From: 2010.05.17/outbox.cif.g08.bks.cpg/sg12_156_cif.got.tgz:311553.got - 2010.06.03 13:09:07.
