data_PCOD9177495
_publ_section_title
;
Structure prediction by ZEFSAII (Michael W. Deem and Ramdas Pophale) SiO2 
 PCOD9177495
Probable space group: C 2/M
;
_chemical_formula_sum "Si O2"
_cell_formula_units_Z 64
_cell_length_a 28.418318
_cell_length_b 8.964283
_cell_length_c 21.238986
_cell_angle_alpha 90.000000
_cell_angle_beta 50.834817
_cell_angle_gamma 90.000000
_cell_volume 4195.013916
_symmetry_space_group_name_H-M "C 2/M"
_symmetry_group_IT_number 12
_symmetry_cell_setting 'monoclinic'
loop_
_space_group_symop_operation_xyz
x,y,z
-x,y,-z
-x,-y,-z
x,-y,z
1/2+x,1/2+y,z
1/2-x,1/2+y,-z
1/2-x,1/2-y,-z
1/2+x,1/2-y,z
loop_
_atom_site_type_symbol
_atom_site_label
_atom_site_fract_x
_atom_site_fract_y
_atom_site_fract_z
Si Si1 0.375934 0.678410 0.971844
Si Si2 0.310072 0.178790 0.918384
Si Si3 0.158977 0.329912 0.608300
Si Si4 0.885531 0.177777 0.232696
Si Si5 0.264417 0.179105 0.277220
Si Si6 0.995864 0.322563 0.928543
Si Si7 0.796829 0.171036 0.546606
Si Si8 0.251838 0.322573 0.154351
O O1 0.381463 0.500000 0.962400
O O2 0.363764 0.748761 0.913274
O O3 0.434556 0.750001 0.953971
O O4 0.316313 0.709814 0.065320
O O5 0.301041 0.209623 0.851921
O O6 0.309539 0.000000 0.927056
O O7 0.250000 0.250000 0.000000
O O8 0.137248 0.500000 0.629479
O O9 0.122687 0.227826 0.687801
O O10 0.163012 0.269402 0.533983
O O11 0.228446 0.329069 0.575489
O O12 0.827735 0.245096 0.244184
O O13 0.946317 0.247112 0.152897
O O14 0.885390 0.000000 0.227393
O O15 0.214347 0.221519 0.372346
O O16 0.247533 0.231743 0.222044
O O17 0.271678 0.000000 0.274427
O O18 0.995986 0.500000 0.916692
O O19 0.000000 0.298838 0.000000
O O20 0.818286 0.000000 0.527656
O O21 0.251172 0.500000 0.168148
#
# Coordination Sequence:
#
# PCOD9177495 Si02
#       8
#     8   8   8   8   8   8   8   8
#     4  10  20  33  48  66  88 116 150 187 226 266
#     4   9  17  30  47  66  87 113 146 184 224 266
#     4   9  16  27  43  61  82 110 146 183 217 258
#     4  11  21  32  46  62  86 119 152 187 223 261
#     4  10  19  29  43  64  91 120 150 183 219 264
#     4  11  23  36  49  65  87 117 153 190 224 259
#     4   8  15  26  39  59  85 113 144 177 216 260
#     4   9  18  30  45  66  91 117 146 181 222 267
#
# _framework density 15.256206000000001
#
# number of rings (size 3 to 8) (size 9 to 14) (size 15 to 20)
#    0.000    2.375    0.000    5.250    0.000    9.500 
#    0.000    0.000    0.000    0.000    0.000    0.000 
#    0.000    1.000    0.000   10.500    0.000    6.000 
#
# Total GULP energy -178357.476056 kJ/mol
# GULP energy per Si atom -5573.671127 kJ/mol
# Density = 1.522148 g / cm^3
# Si number density = 15.256206 Si / 1000 Ang^3
#
#
#
# Elastic Constant Matrix: (Units=GPa)
#
#
# Indices 1 2 3 4 5 6 
#
# 1 93.8957 53.8322 44.4986 -0.0005 21.1870 0.0007
# 2 53.8322 89.7705 56.3474 0.0039 17.3938 0.0037
# 3 44.4986 56.3474 86.1078 -0.0004 24.5709 0.0000
# 4 -0.0005 0.0039 -0.0004 24.9313 -0.0004 4.3010
# 5 21.1870 17.3938 24.5709 -0.0004 20.6272 0.0001
# 6 0.0007 0.0037 0.0000 4.3010 0.0001 24.4219
#
#
#
# Elastic Compliance Matrix: (Units=1/GPa)
#
#
# Indices 1 2 3 4 5 6 
#
# 1 0.018252 -0.008264 -0.001005 0.000001 -0.010582 0.000001
# 2 -0.008264 0.022692 -0.011423 -0.000003 0.002961 -0.000003
# 3 -0.001005 -0.011423 0.025094 0.000002 -0.019227 0.000002
# 4 0.000001 -0.000003 0.000002 0.041367 0.000000 -0.007285
# 5 -0.010582 0.002961 -0.019227 0.000000 0.079755 -0.000001
# 6 0.000001 -0.000003 0.000002 -0.007285 -0.000001 0.042230
#
#
# Mechanical properties :
#
#
# Convention : Reuss Voigt Hill
#
# Bulk Modulus (GPa) = 40.56190 64.34780 52.45485
# Shear Modulus (GPa) = 17.92164 21.66913 19.79539
#
# Velocity S-wave (km/s) = 3.43112 3.77284 3.60603
# Velocity P-wave (km/s) = 6.50705 7.82616 7.19689
#
# Compressibility (1/GPa) = 0.02465368
#
# Stress axis : x y z
#
# Youngs Moduli (GPa) = 54.78860 44.06911 39.84956
#
# Poissons Ratio (x) = 0.36419 0.04004
# Poissons Ratio (y) = 0.45277 0.45521
# Poissons Ratio (z) = 0.05506 0.50341
#
# Static dielectric constant tensor:
#      x y z
#    x 1.518590 0.000000 0.016110 
#    y 0.000000 1.508980 0.000000 
#    z 0.016110 0.000000 1.509580 
# 
# From -- ./inp_files/326804.got.cif
#   From: 2010.05.17/outbox.cif.g08.bks.cpg/sg12_164_cif.got.tgz:326804.got - 2010.06.03 13:09:07.
