data_PCOD9177550
_publ_section_title
;
Structure prediction by ZEFSAII (Michael W. Deem and Ramdas Pophale) SiO2 
 PCOD9177550
Probable space group: C 2/M
;
_chemical_formula_sum "Si O2"
_cell_formula_units_Z 56
_cell_length_a 31.030617
_cell_length_b 13.938469
_cell_length_c 9.069343
_cell_angle_alpha 90.000000
_cell_angle_beta 106.993960
_cell_angle_gamma 90.000000
_cell_volume 3751.384863
_symmetry_space_group_name_H-M "C 2/M"
_symmetry_group_IT_number 12
_symmetry_cell_setting 'monoclinic'
loop_
_space_group_symop_operation_xyz
x,y,z
-x,y,-z
-x,-y,-z
x,-y,z
1/2+x,1/2+y,z
1/2-x,1/2+y,-z
1/2-x,1/2-y,-z
1/2+x,1/2-y,z
loop_
_atom_site_type_symbol
_atom_site_label
_atom_site_fract_x
_atom_site_fract_y
_atom_site_fract_z
Si Si1 0.819408 0.701071 0.643595
Si Si2 0.766798 0.891006 0.591138
Si Si3 0.093048 0.385563 0.768585
Si Si4 0.500000 0.883527 0.830222
Si Si5 0.766799 0.108994 0.942461
Si Si6 0.680592 0.798930 0.004780
Si Si7 0.093048 0.385563 0.417510
O O1 0.804151 0.810444 0.595468
O O2 0.778321 0.636694 0.541404
O O3 0.823395 0.689809 0.823395
O O4 0.865219 0.669825 0.611691
O O5 0.757073 0.884162 0.757074
O O6 0.780479 0.000000 0.572376
O O7 0.098895 0.500000 0.802799
O O8 0.091786 0.372340 0.591786
O O9 0.045668 0.354773 0.792992
O O10 0.134781 0.330176 0.881253
O O11 0.454332 0.854774 0.701655
O O12 0.500000 0.000000 0.829705
O O13 0.500000 0.851754 0.000000
O O14 0.804151 0.189557 0.012835
O O15 0.780481 0.000000 0.988585
O O16 0.721679 0.136692 0.984763
O O17 0.098895 0.500000 0.394990
#
# Coordination Sequence:
#
# PCOD9177550 Si02
#       7
#     8   8   8   8   8   8   8
#     4  10  19  29  44  66  88 113 148 184 216 254
#     4   9  18  32  46  61  86 118 148 180 219 260
#     4  10  19  30  44  63  90 121 147 173 212 261
#     4   9  17  29  45  65  88 113 144 181 215 250
#     4   9  18  32  46  61  86 118 148 180 219 260
#     4  10  19  29  44  66  88 113 148 184 216 254
#     4  10  19  30  44  63  90 121 147 173 212 261
#
# _framework density 14.927820000000001
#
# number of rings (size 3 to 8) (size 9 to 14) (size 15 to 20)
#    0.000    2.429    0.000    3.000    0.000    8.571 
#    0.000    0.000    0.000    0.000    0.000    1.000 
#    0.000    8.000    0.000    0.000    0.000    0.000 
#
# Total GULP energy -156136.763305 kJ/mol
# GULP energy per Si atom -5576.312975 kJ/mol
# Density = 1.489384 g / cm^3
# Si number density = 14.927820 Si / 1000 Ang^3
#
#
#
# Elastic Constant Matrix: (Units=GPa)
#
#
# Indices 1 2 3 4 5 6 
#
# 1 152.3368 58.7826 73.3518 0.0000 7.3848 0.0000
# 2 58.7826 83.2818 52.4853 0.0000 3.4537 0.0000
# 3 73.3518 52.4853 98.3459 0.0000 22.2249 0.0000
# 4 0.0000 0.0000 0.0000 19.0953 0.0000 0.7771
# 5 7.3848 3.4537 22.2249 0.0000 24.6210 0.0000
# 6 0.0000 0.0000 0.0000 0.7771 0.0000 20.5122
#
#
#
# Elastic Compliance Matrix: (Units=1/GPa)
#
#
# Indices 1 2 3 4 5 6 
#
# 1 0.011293 -0.003430 -0.007457 0.000000 0.003825 0.000000
# 2 -0.003430 0.020397 -0.009941 0.000000 0.007141 0.000000
# 3 -0.007457 -0.009941 0.025395 0.000000 -0.019293 0.000000
# 4 0.000000 0.000000 0.000000 0.052450 0.000000 -0.001987
# 5 0.003825 0.007141 -0.019293 0.000000 0.055882 0.000000
# 6 0.000000 0.000000 0.000000 -0.001987 0.000000 0.048827
#
#
# Mechanical properties :
#
#
# Convention : Reuss Voigt Hill
#
# Bulk Modulus (GPa) = 64.81111 78.13376 71.47244
# Shear Modulus (GPa) = 19.15392 22.80205 20.97798
#
# Velocity S-wave (km/s) = 3.58593 3.91255 3.75279
# Velocity P-wave (km/s) = 7.78818 8.53612 8.17071
#
# Compressibility (1/GPa) = 0.01542945
#
# Stress axis : x y z
#
# Youngs Moduli (GPa) = 88.54930 49.02576 39.37767
#
# Poissons Ratio (x) = 0.16817 0.29363
# Poissons Ratio (y) = 0.30375 0.39146
# Poissons Ratio (z) = 0.66029 0.48737
#
# Static dielectric constant tensor:
#      x y z
#    x 1.471790 0.000000 -0.011640 
#    y 0.000000 1.489740 0.000000 
#    z -0.011640 0.000000 1.493010 
# 
# From -- ./inp_files/103991.got.cif
#   From: 2010.05.17/outbox.cif.g08.bks.cpg/sg12_52_cif.got.tgz:103991.got - 2010.06.03 13:09:07.
