data_PCOD9177499
_publ_section_title
;
Structure prediction by ZEFSAII (Michael W. Deem and Ramdas Pophale) SiO2 
 PCOD9177499
Probable space group: C 2/M
;
_chemical_formula_sum "Si O2"
_cell_formula_units_Z 56
_cell_length_a 7.045116
_cell_length_b 18.954857
_cell_length_c 21.545595
_cell_angle_alpha 90.000000
_cell_angle_beta 60.987781
_cell_angle_gamma 90.000000
_cell_volume 2516.141491
_symmetry_space_group_name_H-M "C 2/M"
_symmetry_group_IT_number 12
_symmetry_cell_setting 'monoclinic'
loop_
_space_group_symop_operation_xyz
x,y,z
-x,y,-z
-x,-y,-z
x,-y,z
1/2+x,1/2+y,z
1/2-x,1/2+y,-z
1/2-x,1/2-y,-z
1/2+x,1/2-y,z
loop_
_atom_site_type_symbol
_atom_site_label
_atom_site_fract_x
_atom_site_fract_y
_atom_site_fract_z
Si Si1 0.704535 0.667033 0.012300
Si Si2 0.630471 0.081891 0.302485
Si Si3 0.560385 0.582949 0.851614
Si Si4 0.864639 0.335629 0.435715
Si Si5 0.787252 0.917155 0.723273
Si Si6 0.974979 0.418633 0.879860
Si Si7 0.954272 0.830525 0.411322
O O1 0.621575 0.632972 0.089766
O O2 0.500000 0.653127 0.000000
O O3 0.750000 0.750000 0.000000
O O4 0.906684 0.627992 0.948696
O O5 0.837955 0.106982 0.230154
O O6 0.557818 0.119797 0.376245
O O7 0.422595 0.087158 0.289200
O O8 0.665719 0.000000 0.309174
O O9 0.494235 0.500000 0.858674
O O10 0.769492 0.583877 0.864852
O O11 0.653837 0.347242 0.425737
O O12 0.769458 0.351904 0.518947
O O13 0.932969 0.254229 0.415236
O O14 0.685550 0.897786 0.806227
O O15 0.970704 0.867663 0.664062
O O16 0.851643 0.000000 0.714353
O O17 0.998917 0.500000 0.894741
#
# Coordination Sequence:
#
# PCOD9177499 Si02
#       7
#     8   8   8   8   8   8   8
#     4  10  19  29  43  65  89 110 136 170 206 244
#     4   8  14  25  42  64  85 104 134 177 214 239
#     4   8  14  26  44  63  82 107 140 174 205 240
#     4   9  17  28  42  61  85 112 139 167 203 247
#     4   8  14  25  42  64  85 104 134 177 214 239
#     4   8  14  26  44  63  82 107 140 174 205 240
#     4   9  17  28  42  61  85 112 139 167 203 247
#
# _framework density 22.256301000000001
#
# number of rings (size 3 to 8) (size 9 to 14) (size 15 to 20)
#    0.000    3.429    0.000    2.143    0.000    3.429 
#    0.000    2.857    0.000    2.571    0.000    8.000 
#    0.000    0.000    0.000    0.000    0.000    0.000 
#
# Total GULP energy -156270.116043 kJ/mol
# GULP energy per Si atom -5581.075573 kJ/mol
# Density = 2.220565 g / cm^3
# Si number density = 22.256301 Si / 1000 Ang^3
#
#
#
# Elastic Constant Matrix: (Units=GPa)
#
#
# Indices 1 2 3 4 5 6 
#
# 1 85.2510 7.4731 38.1579 0.0000 -22.8097 0.0000
# 2 7.4731 90.7543 145.5837 0.0000 -12.2389 0.0000
# 3 38.1579 145.5837 303.1387 0.0000 -23.0364 0.0000
# 4 0.0000 0.0000 0.0000 21.7079 0.0000 -21.0016
# 5 -22.8097 -12.2389 -23.0364 0.0000 36.5942 0.0000
# 6 0.0000 0.0000 0.0000 -21.0016 0.0000 9.5680
#
#
#
# Elastic Compliance Matrix: (Units=1/GPa)
#
#
# Indices 1 2 3 4 5 6 
#
# 1 0.015953 0.008840 -0.005538 0.000000 0.009414 0.000000
# 2 0.008840 0.052981 -0.026037 0.000000 0.006839 0.000000
# 3 -0.005538 -0.026037 0.016359 0.000000 -0.001862 0.000000
# 4 0.000000 0.000000 0.000000 -0.041000 0.000000 -0.089995
# 5 0.009414 0.006839 -0.001862 0.000000 0.034309 0.000000
# 6 0.000000 0.000000 0.000000 -0.089995 0.000000 -0.093022
#
#
# Mechanical properties :
#
#
# Convention : Reuss Voigt Hill
#
# Bulk Modulus (GPa) = 25.11220 95.73038 60.42129
# Shear Modulus (GPa) = 112.80223 32.76931 72.78577
#
# Velocity S-wave (km/s) = 7.12694 3.84130 5.72490
# Velocity P-wave (km/s) = 8.89000 7.92339 8.42058
#
# Compressibility (1/GPa) = 0.03982128
#
# Stress axis : x y z
#
# Youngs Moduli (GPa) = 62.68534 18.87467 61.12838
#
# Poissons Ratio (x) = -0.16685 0.33853
# Poissons Ratio (y) = -0.55412 1.59162
# Poissons Ratio (z) = 0.34715 0.49145
#
# Static dielectric constant tensor:
#      x y z
#    x 1.927340 0.000000 0.008300 
#    y 0.000000 1.754890 0.000000 
#    z 0.008300 0.000000 1.831520 
# 
# From -- ./inp_files/257616.got.cif
#   From: 2010.05.17/outbox.cif.g08.bks.cpg/sg12_129_cif.got.tgz:257616.got - 2010.06.03 13:09:07.
