data_PCOD9177838
_publ_section_title
;
Structure prediction by ZEFSAII (Michael W. Deem and Ramdas Pophale) SiO2 
 PCOD9177838
Probable space group: C 2/M
;
_chemical_formula_sum "Si O2"
_cell_formula_units_Z 56
_cell_length_a 13.933409
_cell_length_b 8.879734
_cell_length_c 20.933567
_cell_angle_alpha 90.000000
_cell_angle_beta 110.642914
_cell_angle_gamma 90.000000
_cell_volume 2423.715531
_symmetry_space_group_name_H-M "C 2/M"
_symmetry_group_IT_number 12
_symmetry_cell_setting 'monoclinic'
loop_
_space_group_symop_operation_xyz
x,y,z
-x,y,-z
-x,-y,-z
x,-y,z
1/2+x,1/2+y,z
1/2-x,1/2+y,-z
1/2-x,1/2-y,-z
1/2+x,1/2-y,z
loop_
_atom_site_type_symbol
_atom_site_label
_atom_site_fract_x
_atom_site_fract_y
_atom_site_fract_z
Si Si1 0.636197 0.178736 0.296892
Si Si2 0.778951 0.833837 0.570163
Si Si3 0.018310 0.317817 0.152371
Si Si4 0.336474 0.816820 0.275745
Si Si5 0.388487 0.175524 0.010260
Si Si6 0.282853 0.319725 0.871803
Si Si7 0.946070 0.670056 0.423250
O O1 0.642717 0.239538 0.369439
O O2 0.535457 0.211532 0.231353
O O3 0.731037 0.258783 0.283532
O O4 0.651646 0.000000 0.300297
O O5 0.750000 0.750000 0.500000
O O6 0.671324 0.845059 0.581508
O O7 0.819807 0.000000 0.567666
O O8 0.025410 0.500000 0.146135
O O9 0.116177 0.241426 0.141620
O O10 0.918890 0.271562 0.088673
O O11 0.313204 0.773603 0.196083
O O12 0.425601 0.764964 0.346596
O O13 0.342526 0.000000 0.278242
O O14 0.359616 0.000000 0.005208
O O15 0.500000 0.184506 0.000000
O O16 0.305623 0.262219 0.948581
O O17 0.282158 0.500000 0.873203
O O18 0.991415 0.500000 0.427135
O O19 0.000000 0.739816 0.500000
#
# Coordination Sequence:
#
# PCOD9177838 Si02
#       7
#     8   8   8   8   8   8   8
#     4   9  15  24  38  53  70  95 127 160 194 232
#     4  10  19  30  44  62  83 106 133 165 200 238
#     4   8  14  22  30  41  60  88 120 152 185 222
#     4   8  14  23  34  50  72  96 124 159 196 234
#     4   8  13  20  27  37  57  86 119 151 182 218
#     4   9  14  18  26  42  63  87 117 152 187 222
#     4   8  14  26  44  62  78 101 135 170 200 231
#
# _framework density 23.105022000000002
#
# number of rings (size 3 to 8) (size 9 to 14) (size 15 to 20)
#    0.000    3.429    0.000    3.000    0.000    3.714 
#    0.000    0.000    0.000   10.714    0.000    0.000 
#    0.000    0.000    0.000    1.286    0.000   13.143 
#
# Total GULP energy -155922.855845 kJ/mol
# GULP energy per Si atom -5568.673423 kJ/mol
# Density = 2.305243 g / cm^3
# Si number density = 23.105022 Si / 1000 Ang^3
#
#
#
# Elastic Constant Matrix: (Units=GPa)
#
#
# Indices 1 2 3 4 5 6 
#
# 1 65.0411 -6.6123 26.4595 0.0000 25.5383 0.0000
# 2 -6.6123 -50.2215 20.1268 0.0000 7.4876 0.0000
# 3 26.4595 20.1268 307.7015 0.0000 23.1186 0.0000
# 4 0.0000 0.0000 0.0000 36.7628 0.0000 -0.8465
# 5 25.5383 7.4876 23.1186 0.0000 34.8149 0.0000
# 6 0.0000 0.0000 0.0000 -0.8465 0.0000 -6.4243
#
#
#
# Elastic Compliance Matrix: (Units=1/GPa)
#
#
# Indices 1 2 3 4 5 6 
#
# 1 0.020402 -0.004885 -0.000410 0.000000 -0.013643 0.000000
# 2 -0.004885 -0.017836 0.001083 0.000000 0.006700 0.000000
# 3 -0.000410 0.001083 0.003378 0.000000 -0.002175 0.000000
# 4 0.000000 0.000000 0.000000 0.027119 0.000000 -0.003573
# 5 -0.013643 0.006700 -0.002175 0.000000 0.038735 0.000000
# 6 0.000000 0.000000 0.000000 -0.003573 0.000000 -0.155187
#
#
# Mechanical properties :
#
#
# Convention : Reuss Voigt Hill
#
# Bulk Modulus (GPa) = -403.54625 44.71879 -179.41373
# Shear Modulus (GPa) = -65.96913 31.86715 -17.05099
#
# Velocity S-wave (km/s) = -5.34919 3.71783 -2.71952
# Velocity P-wave (km/s) = 14.60097 6.15031 9.36382
#
# Compressibility (1/GPa) = -0.00247803
#
# Stress axis : x y z
#
# Youngs Moduli (GPa) = 49.01479 -56.06737 296.05728
#
# Poissons Ratio (x) = -0.27386 0.12134
# Poissons Ratio (y) = 0.23941 -0.32072
# Poissons Ratio (z) = 0.02009 0.06074
#
# Static dielectric constant tensor:
#      x y z
#    x 19.944840 0.000000 -6.776160 
#    y 0.000000 1.802360 0.000000 
#    z -6.776160 0.000000 4.482530 
# 
# From -- ./inp_files/348341.got.cif
#   From: 2010.05.17/outbox.cif.g08.bks.cpg/sg12_175_cif.got.tgz:348341.got - 2010.06.03 13:09:07.
