data_PCOD9177059
_publ_section_title
;
Structure prediction by ZEFSAII (Michael W. Deem and Ramdas Pophale) SiO2 
 PCOD9177059
Probable space group: C 2/M
;
_chemical_formula_sum "Si O2"
_cell_formula_units_Z 44
_cell_length_a 7.490318
_cell_length_b 24.359708
_cell_length_c 12.251161
_cell_angle_alpha 90.000000
_cell_angle_beta 68.830082
_cell_angle_gamma 90.000000
_cell_volume 2084.513567
_symmetry_space_group_name_H-M "C 2/M"
_symmetry_group_IT_number 12
_symmetry_cell_setting 'monoclinic'
loop_
_space_group_symop_operation_xyz
x,y,z
-x,y,-z
-x,-y,-z
x,-y,z
1/2+x,1/2+y,z
1/2-x,1/2+y,-z
1/2-x,1/2-y,-z
1/2+x,1/2-y,z
loop_
_atom_site_type_symbol
_atom_site_label
_atom_site_fract_x
_atom_site_fract_y
_atom_site_fract_z
Si Si1 0.181747 0.385256 0.190728
Si Si2 0.223743 0.122994 0.248069
Si Si3 0.204973 0.500000 0.081639
Si Si4 0.000000 0.114074 0.500000
Si Si5 0.737757 0.500000 0.176986
Si Si6 0.788126 0.437803 0.595345
Si Si7 0.776761 0.686074 0.018707
O O1 0.247862 0.443752 0.130447
O O2 0.228992 0.391415 0.307491
O O3 0.950838 0.377790 0.227326
O O4 0.269691 0.342466 0.086419
O O5 0.182999 0.157088 0.145961
O O6 0.107088 0.145055 0.377909
O O7 0.173384 0.058126 0.241320
O O8 0.970958 0.500000 0.128146
O O9 0.301746 0.500000 0.942526
O O10 0.845656 0.076177 0.475525
O O11 0.754157 0.500000 0.644210
O O12 0.000000 0.436697 0.500000
O O13 0.750000 0.750000 0.000000
O O14 0.000000 0.677051 0.000000
#
# Coordination Sequence:
#
# PCOD9177059 Si02
#       7
#     8   8   4   4   4   8   8
#     4  10  18  37  62  89 118 163 212 252 313 368
#     4  10  21  35  60  92 124 166 203 254 306 374
#     4   9  14  28  55  89 117 153 199 256 309 370
#     4  12  25  38  58  90 138 166 212 241 306 376
#     4   9  16  27  54  89 123 153 200 246 311 368
#     4  11  23  37  57  88 132 175 207 244 300 374
#     4  10  22  40  67  91 119 159 212 265 318 364
#
# _framework density 21.108042000000001
#
# number of rings (size 3 to 8) (size 9 to 14) (size 15 to 20)
#    0.000    1.818    4.545    0.273    2.545    1.455 
#    0.000    0.000    2.000    5.455    0.000    0.000 
#    0.000    0.000    0.000    0.000    0.000    0.000 
#
# Total GULP energy -122785.190417 kJ/mol
# GULP energy per Si atom -5581.145019 kJ/mol
# Density = 2.106000 g / cm^3
# Si number density = 21.108042 Si / 1000 Ang^3
#
#
#
# Elastic Constant Matrix: (Units=GPa)
#
#
# Indices 1 2 3 4 5 6 
#
# 1 80.7577 13.2505 35.6515 0.0000 16.6264 0.0000
# 2 13.2505 105.4068 61.8520 0.0000 10.3803 0.0000
# 3 35.6515 61.8520 165.1424 0.0000 12.7610 0.0000
# 4 0.0000 0.0000 0.0000 9.4718 0.0000 5.3846
# 5 16.6264 10.3803 12.7610 0.0000 37.5507 0.0000
# 6 0.0000 0.0000 0.0000 5.3846 0.0000 18.4747
#
#
#
# Elastic Compliance Matrix: (Units=1/GPa)
#
#
# Indices 1 2 3 4 5 6 
#
# 1 0.014763 0.000404 -0.002901 0.000000 -0.005662 0.000000
# 2 0.000404 0.012299 -0.004536 0.000000 -0.002037 0.000000
# 3 -0.002901 -0.004536 0.008405 0.000000 -0.000318 0.000000
# 4 0.000000 0.000000 0.000000 0.126543 0.000000 -0.036882
# 5 -0.005662 -0.002037 -0.000318 0.000000 0.029809 0.000000
# 6 0.000000 0.000000 0.000000 -0.036882 0.000000 0.064878
#
#
# Mechanical properties :
#
#
# Convention : Reuss Voigt Hill
#
# Bulk Modulus (GPa) = 46.72731 63.64612 55.18672
# Shear Modulus (GPa) = 17.99235 29.13631 23.56433
#
# Velocity S-wave (km/s) = 2.92274 3.71933 3.34483
# Velocity P-wave (km/s) = 5.79441 6.97585 6.41240
#
# Compressibility (1/GPa) = 0.02140076
#
# Stress axis : x y z
#
# Youngs Moduli (GPa) = 67.73771 81.30983 118.97494
#
# Poissons Ratio (x) = -0.03285 0.34512
# Poissons Ratio (y) = -0.02737 0.53968
# Poissons Ratio (z) = 0.19649 0.36883
#
# Static dielectric constant tensor:
#      x y z
#    x 1.836800 0.000000 -0.026870 
#    y 0.000000 1.722820 0.000000 
#    z -0.026870 0.000000 1.817750 
# 
# From -- ./inp_files/121791.got.cif
#   From: 2010.05.17/outbox.cif.g08.bks.cpg/sg12_61_cif.got.tgz:121791.got - 2010.06.03 13:09:07.
