data_PCOD9177687
_publ_section_title
;
Structure prediction by ZEFSAII (Michael W. Deem and Ramdas Pophale) SiO2 
 PCOD9177687
Probable space group: C 2/M
;
_chemical_formula_sum "Si O2"
_cell_formula_units_Z 64
_cell_length_a 24.472764
_cell_length_b 7.773526
_cell_length_c 22.613218
_cell_angle_alpha 90.000000
_cell_angle_beta 50.671376
_cell_angle_gamma 90.000000
_cell_volume 3327.645580
_symmetry_space_group_name_H-M "C 2/M"
_symmetry_group_IT_number 12
_symmetry_cell_setting 'monoclinic'
loop_
_space_group_symop_operation_xyz
x,y,z
-x,y,-z
-x,-y,-z
x,-y,z
1/2+x,1/2+y,z
1/2-x,1/2+y,-z
1/2-x,1/2-y,-z
1/2+x,1/2-y,z
loop_
_atom_site_type_symbol
_atom_site_label
_atom_site_fract_x
_atom_site_fract_y
_atom_site_fract_z
Si Si1 0.361053 0.300946 0.324728
Si Si2 0.831301 0.298054 0.704435
Si Si3 0.924125 0.203733 0.397360
Si Si4 0.474607 0.210178 0.081267
Si Si5 0.921350 0.291939 0.533291
Si Si6 0.819791 0.700203 0.227812
Si Si7 0.420159 0.201039 0.750196
Si Si8 0.018380 0.290035 0.175190
O O1 0.339748 0.500000 0.340651
O O2 0.366913 0.232712 0.387972
O O3 0.318244 0.217863 0.300299
O O4 0.442438 0.280215 0.247990
O O5 0.850486 0.500000 0.691914
O O6 0.867707 0.227318 0.620125
O O7 0.747926 0.283452 0.755410
O O8 0.865815 0.222113 0.740193
O O9 0.905125 0.231883 0.478302
O O10 0.001033 0.285587 0.331845
O O11 0.932231 0.000000 0.381047
O O12 0.395185 0.267666 0.152485
O O13 0.524722 0.258409 0.102215
O O14 0.473280 0.000000 0.080945
O O15 0.500000 0.270336 0.000000
O O16 0.919976 0.500000 0.532113
O O17 0.000000 0.240213 0.500000
O O18 0.817336 0.500000 0.215045
O O19 0.427018 0.270934 0.812282
O O20 0.402476 0.000000 0.769463
O O21 0.014251 0.500000 0.180757
#
# Coordination Sequence:
#
# PCOD9177687 Si02
#       8
#     8   8   8   8   8   8   8   8
#     4   9  17  30  47  67  94 125 155 192 241 287
#     4  10  20  33  49  67  93 129 160 195 241 283
#     4  10  19  29  46  72  96 120 155 204 249 278
#     4   8  14  27  49  76 100 120 149 192 237 278
#     4  10  19  33  49  67  92 126 165 199 238 285
#     4  10  20  33  50  72  95 123 160 196 232 282
#     4   9  16  29  47  67  93 126 164 198 232 279
#     4   8  14  25  46  73  95 120 158 198 229 268
#
# _framework density 19.232816
#
# number of rings (size 3 to 8) (size 9 to 14) (size 15 to 20)
#    0.000    2.750    1.250    1.875    0.000    2.750 
#    0.000    0.625    0.000   10.125    0.000    0.000 
#    0.000    0.000    0.000    0.000    0.000    0.500 
#
# Total GULP energy -178223.704120 kJ/mol
# GULP energy per Si atom -5569.490754 kJ/mol
# Density = 1.918904 g / cm^3
# Si number density = 19.232816 Si / 1000 Ang^3
#
#
#
# Elastic Constant Matrix: (Units=GPa)
#
#
# Indices 1 2 3 4 5 6 
#
# 1 141.5611 -5.1067 65.5131 -0.0106 37.2891 0.0006
# 2 -5.1067 23.5704 -0.2412 0.0017 1.9691 -0.0177
# 3 65.5131 -0.2412 83.7016 0.0108 34.9271 0.0018
# 4 -0.0106 0.0017 0.0108 -3.9041 -0.0259 -12.8747
# 5 37.2891 1.9691 34.9271 -0.0259 35.4603 -0.0045
# 6 0.0006 -0.0177 0.0018 -12.8747 -0.0045 4.3618
#
#
#
# Elastic Compliance Matrix: (Units=1/GPa)
#
#
# Indices 1 2 3 4 5 6 
#
# 1 0.011898 0.003006 -0.006814 -0.000003 -0.005967 -0.000002
# 2 0.003006 0.043559 0.000171 -0.000048 -0.005749 0.000029
# 3 -0.006814 0.000171 0.024270 0.000026 -0.016749 0.000052
# 4 -0.000003 -0.000048 0.000026 -0.023863 -0.000046 -0.070435
# 5 -0.005967 -0.005749 -0.016749 -0.000046 0.051292 -0.000099
# 6 -0.000002 0.000029 0.000052 -0.070435 -0.000099 0.021359
#
#
# Mechanical properties :
#
#
# Convention : Reuss Voigt Hill
#
# Bulk Modulus (GPa) = 13.80160 41.01818 27.40989
# Shear Modulus (GPa) = 31.26196 19.76147 25.51171
#
# Velocity S-wave (km/s) = 4.03606 3.20892 3.64602
# Velocity P-wave (km/s) = 5.37693 5.92478 5.65749
#
# Compressibility (1/GPa) = 0.07245535
#
# Stress axis : x y z
#
# Youngs Moduli (GPa) = 84.05043 22.95713 41.20312
#
# Poissons Ratio (x) = -0.06902 0.28075
# Poissons Ratio (y) = -0.25269 -0.00706
# Poissons Ratio (z) = 0.57270 -0.00393
#
# Static dielectric constant tensor:
#      x y z
#    x 1.712480 0.000000 0.045890 
#    y 0.000000 1.697910 0.000000 
#    z 0.045890 0.000000 1.657560 
# 
# From -- ./inp_files/323676.got.cif
#   From: 2010.05.17/outbox.cif.g08.bks.cpg/sg12_162_cif.got.tgz:323676.got - 2010.06.03 13:09:07.
