data_PCOD9177936
_publ_section_title
;
Structure prediction by ZEFSAII (Michael W. Deem and Ramdas Pophale) SiO2 
 PCOD9177936
Probable space group: C 2/M
;
_chemical_formula_sum "Si O2"
_cell_formula_units_Z 56
_cell_length_a 27.527805
_cell_length_b 17.432047
_cell_length_c 7.949366
_cell_angle_alpha 90.000000
_cell_angle_beta 100.379469
_cell_angle_gamma 90.000000
_cell_volume 3752.208136
_symmetry_space_group_name_H-M "C 2/M"
_symmetry_group_IT_number 12
_symmetry_cell_setting 'monoclinic'
loop_
_space_group_symop_operation_xyz
x,y,z
-x,y,-z
-x,-y,-z
x,-y,z
1/2+x,1/2+y,z
1/2-x,1/2+y,-z
1/2-x,1/2-y,-z
1/2+x,1/2-y,z
loop_
_atom_site_type_symbol
_atom_site_label
_atom_site_fract_x
_atom_site_fract_y
_atom_site_fract_z
Si Si1 0.341987 0.407789 0.332144
Si Si2 0.554652 0.588327 0.084990
Si Si3 0.753182 0.336721 0.569251
Si Si4 0.343844 0.339879 0.969299
Si Si5 0.947584 0.088494 0.515252
Si Si6 0.792515 0.690854 0.962893
Si Si7 0.754621 0.409209 0.230758
O O1 0.339840 0.500000 0.348713
O O2 0.300937 0.369794 0.423043
O O3 0.331435 0.382082 0.136301
O O4 0.397087 0.379304 0.409629
O O5 0.558986 0.500000 0.024713
O O6 0.556807 0.587012 0.287511
O O7 0.500000 0.616104 0.000000
O O8 0.601680 0.634610 0.049630
O O9 0.750000 0.250000 0.500000
O O10 0.718963 0.162774 0.233372
O O11 0.774396 0.385624 0.427140
O O12 0.339002 0.248203 0.986600
O O13 0.299995 0.370142 0.820228
O O14 0.000000 0.124821 0.500000
O O15 0.949384 0.000000 0.452912
O O16 0.750000 0.750000 0.000000
O O17 0.788280 0.625165 0.101131
O O18 0.749526 0.500000 0.211858
#
# Coordination Sequence:
#
# PCOD9177936 Si02
#       7
#     8   8   8   8   8   8   8
#     4  11  20  29  46  67  89 121 165 205 237 279
#     4  10  19  30  45  65  92 126 164 203 237 273
#     4  12  20  33  47  66  94 127 165 202 247 289
#     4  11  19  32  48  67  94 131 162 196 241 291
#     4   9  18  30  41  60  88 118 156 201 239 268
#     4  10  20  35  48  67  97 129 160 202 246 290
#     4  11  21  33  51  72  96 127 169 208 240 288
#
# _framework density 14.924545
#
# number of rings (size 3 to 8) (size 9 to 14) (size 15 to 20)
#    0.000    1.429    5.714    3.429    0.000    4.000 
#    0.000    0.000    0.000    0.000    0.000    0.000 
#    0.000    0.571    0.000    1.286    0.000    0.571 
#
# Total GULP energy -156047.929754 kJ/mol
# GULP energy per Si atom -5573.140348 kJ/mol
# Density = 1.489058 g / cm^3
# Si number density = 14.924545 Si / 1000 Ang^3
#
#
#
# Elastic Constant Matrix: (Units=GPa)
#
#
# Indices 1 2 3 4 5 6 
#
# 1 82.9937 40.2545 28.0676 0.0000 -5.9199 0.0000
# 2 40.2545 64.2876 24.1717 0.0000 -6.4619 0.0000
# 3 28.0676 24.1717 87.7876 0.0000 -13.5986 0.0000
# 4 0.0000 0.0000 0.0000 20.9047 0.0000 -5.0856
# 5 -5.9199 -6.4619 -13.5986 0.0000 20.0349 0.0000
# 6 0.0000 0.0000 0.0000 -5.0856 0.0000 23.9709
#
#
#
# Elastic Compliance Matrix: (Units=1/GPa)
#
#
# Indices 1 2 3 4 5 6 
#
# 1 0.017965 -0.010137 -0.002947 0.000000 0.000039 0.000000
# 2 -0.010137 0.023197 -0.002739 0.000000 0.002627 0.000000
# 3 -0.002947 -0.002739 0.014321 0.000000 0.007967 0.000000
# 4 0.000000 0.000000 0.000000 0.050439 0.000000 0.010701
# 5 0.000039 0.002627 0.007967 0.000000 0.056179 0.000000
# 6 0.000000 0.000000 0.000000 0.010701 0.000000 0.043988
#
#
# Mechanical properties :
#
#
# Convention : Reuss Voigt Hill
#
# Bulk Modulus (GPa) = 41.95074 46.67295 44.31185
# Shear Modulus (GPa) = 20.35157 22.48710 21.41934
#
# Velocity S-wave (km/s) = 3.69674 3.88586 3.79248
# Velocity P-wave (km/s) = 6.81108 7.17452 6.99516
#
# Compressibility (1/GPa) = 0.02383748
#
# Stress axis : x y z
#
# Youngs Moduli (GPa) = 55.66274 43.10960 69.82539
#
# Poissons Ratio (x) = 0.43702 0.20575
# Poissons Ratio (y) = 0.56428 0.19125
# Poissons Ratio (z) = 0.16402 0.11807
#
# Static dielectric constant tensor:
#      x y z
#    x 1.504840 0.000000 0.002770 
#    y 0.000000 1.494150 0.000000 
#    z 0.002770 0.000000 1.549960 
# 
# From -- ./inp_files/97373.got.cif
#   From: 2010.05.17/outbox.cif.g08.bks.cpg/sg12_49_cif.got.tgz:97373.got - 2010.06.03 13:09:07.
