data_PCOD9177389
_publ_section_title
;
Structure prediction by ZEFSAII (Michael W. Deem and Ramdas Pophale) SiO2 
 PCOD9177389
Probable space group: C 2/M
;
_chemical_formula_sum "Si O2"
_cell_formula_units_Z 48
_cell_length_a 26.096887
_cell_length_b 10.100015
_cell_length_c 11.570068
_cell_angle_alpha 90.000000
_cell_angle_beta 144.764609
_cell_angle_gamma 90.000000
_cell_volume 1759.442134
_symmetry_space_group_name_H-M "C 2/M"
_symmetry_group_IT_number 12
_symmetry_cell_setting 'monoclinic'
loop_
_space_group_symop_operation_xyz
x,y,z
-x,y,-z
-x,-y,-z
x,-y,z
1/2+x,1/2+y,z
1/2-x,1/2+y,-z
1/2-x,1/2-y,-z
1/2+x,1/2-y,z
loop_
_atom_site_type_symbol
_atom_site_label
_atom_site_fract_x
_atom_site_fract_y
_atom_site_fract_z
Si Si1 0.877068 0.282541 0.034484
Si Si2 0.412858 0.218646 0.605956
Si Si3 0.187052 0.000000 0.571639
Si Si4 0.675299 0.500000 0.298331
Si Si5 0.893415 0.714102 0.317669
Si Si6 0.278519 0.500000 0.858576
Si Si7 0.299391 0.500000 0.149992
Si Si8 0.848391 0.716806 0.727195
O O1 0.856709 0.337515 0.126188
O O2 0.982875 0.279555 0.221392
O O3 0.848214 0.340160 0.856307
O O4 0.836122 0.135880 0.963866
O O5 0.372739 0.366633 0.536934
O O6 0.372217 0.160667 0.409662
O O7 0.397113 0.159427 0.704922
O O8 0.225937 0.000000 0.514096
O O9 0.236006 0.000000 0.784222
O O10 0.745633 0.500000 0.322701
O O11 0.616338 0.367857 0.186455
O O12 0.000000 0.704526 0.500000
O O13 0.860654 0.866718 0.260106
O O14 0.246450 0.500000 0.931929
O O15 0.750000 0.750000 0.500000
#
# Coordination Sequence:
#
# PCOD9177389 Si02
#       8
#     8   8   4   4   8   4   4   8
#     4   9  15  24  38  57  79 103 128 157 191 232
#     4   9  15  24  38  57  79 103 128 157 191 232
#     4   8  13  20  34  56  80 101 123 148 181 228
#     4   8  16  28  39  52  75 106 134 158 188 222
#     4   8  13  20  33  53  77 101 126 153 186 227
#     4   8  13  20  34  56  80 101 123 148 181 228
#     4   8  11  16  28  50  78 104 122 142 173 218
#     4  10  19  29  40  57  80 107 135 162 192 228
#
# _framework density 27.281376000000002
#
# number of rings (size 3 to 8) (size 9 to 14) (size 15 to 20)
#    0.000    3.333    0.000    1.250    0.000    4.000 
#    0.000    5.833    0.000    0.000    0.000    2.333 
#    0.000    0.000    0.000    6.000    0.000    0.000 
#
# Total GULP energy -133807.826815 kJ/mol
# GULP energy per Si atom -5575.326117 kJ/mol
# Density = 2.721928 g / cm^3
# Si number density = 27.281376 Si / 1000 Ang^3
#
#
#
# Elastic Constant Matrix: (Units=GPa)
#
#
# Indices 1 2 3 4 5 6 
#
# 1 287.4646 37.0752 88.4796 0.0000 -99.4671 0.0000
# 2 37.0752 83.2109 20.1087 0.0000 -21.4821 0.0000
# 3 88.4796 20.1087 141.6680 0.0000 -78.5884 0.0000
# 4 0.0000 0.0000 0.0000 46.3375 0.0000 4.6167
# 5 -99.4671 -21.4821 -78.5884 0.0000 80.5239 0.0000
# 6 0.0000 0.0000 0.0000 4.6167 0.0000 58.6416
#
#
#
# Elastic Compliance Matrix: (Units=1/GPa)
#
#
# Indices 1 2 3 4 5 6 
#
# 1 0.006171 -0.000830 0.000806 0.000000 0.008187 0.000000
# 2 -0.000830 0.013020 0.000062 0.000000 0.002508 0.000000
# 3 0.000806 0.000062 0.015499 0.000000 0.016138 0.000000
# 4 0.000000 0.000000 0.000000 0.021751 0.000000 -0.001712
# 5 0.008187 0.002508 0.016138 0.000000 0.038951 0.000000
# 6 0.000000 0.000000 0.000000 -0.001712 0.000000 0.017188
#
#
# Mechanical properties :
#
#
# Convention : Reuss Voigt Hill
#
# Bulk Modulus (GPa) = 28.76521 89.29670 59.03096
# Shear Modulus (GPa) = 40.29184 61.54593 50.91888
#
# Velocity S-wave (km/s) = 3.84721 4.75486 4.32491
# Velocity P-wave (km/s) = 5.50468 7.93396 6.82822
#
# Compressibility (1/GPa) = 0.03476422
#
# Stress axis : x y z
#
# Youngs Moduli (GPa) = 162.05730 76.80358 64.51849
#
# Poissons Ratio (x) = 0.06378 -0.05197
# Poissons Ratio (y) = 0.13458 -0.00399
# Poissons Ratio (z) = -0.13054 -0.00475
#
# Static dielectric constant tensor:
#      x y z
#    x 2.149200 0.000000 -0.068280 
#    y 0.000000 2.237580 0.000000 
#    z -0.068280 0.000000 2.112130 
# 
# From -- ./inp_files/142961.got.cif
#   From: 2010.05.17/outbox.cif.g08.bks.cpg/sg12_72_cif.got.tgz:142961.got - 2010.06.03 13:09:07.
