data_PCOD9177660
_publ_section_title
;
Structure prediction by ZEFSAII (Michael W. Deem and Ramdas Pophale) SiO2 
 PCOD9177660
Probable space group: C 2/M
;
_chemical_formula_sum "Si O2"
_cell_formula_units_Z 48
_cell_length_a 19.648502
_cell_length_b 8.714412
_cell_length_c 14.328456
_cell_angle_alpha 90.000000
_cell_angle_beta 108.636058
_cell_angle_gamma 90.000000
_cell_volume 2324.754415
_symmetry_space_group_name_H-M "C 2/M"
_symmetry_group_IT_number 12
_symmetry_cell_setting 'monoclinic'
loop_
_space_group_symop_operation_xyz
x,y,z
-x,y,-z
-x,-y,-z
x,-y,z
1/2+x,1/2+y,z
1/2-x,1/2+y,-z
1/2-x,1/2-y,-z
1/2+x,1/2-y,z
loop_
_atom_site_type_symbol
_atom_site_label
_atom_site_fract_x
_atom_site_fract_y
_atom_site_fract_z
Si Si1 0.914873 0.684748 0.995945
Si Si2 0.872368 0.684640 0.777332
Si Si3 0.712743 0.676067 0.927238
Si Si4 0.966951 0.316407 0.216189
Si Si5 0.743140 0.181778 0.599822
Si Si6 0.857519 0.182289 0.297977
O O1 0.906954 0.500000 0.996484
O O2 0.798323 0.700044 0.993947
O O3 0.923031 0.749647 0.107035
O O4 0.000000 0.700900 0.000000
O O5 0.860102 0.500000 0.777006
O O6 0.878088 0.747910 0.884644
O O7 0.949150 0.709635 0.761638
O O8 0.809200 0.758554 0.690823
O O9 0.694120 0.500000 0.936267
O O10 0.694724 0.717855 0.814495
O O11 0.954839 0.500000 0.214026
O O12 0.933448 0.240990 0.293201
O O13 0.750000 0.250000 0.500000
O O14 0.672418 0.238243 0.623679
O O15 0.743386 0.000000 0.594899
O O16 0.856867 0.000000 0.309330
#
# Coordination Sequence:
#
# PCOD9177660 Si02
#       6
#     8   8   8   8   8   8
#     4   9  17  30  51  81 118 158 194 227 269 328
#     4  10  20  36  59  88 122 157 195 239 285 336
#     4  10  19  29  45  73 110 151 191 232 277 329
#     4   9  18  34  58  89 124 161 196 229 275 338
#     4  12  26  44  65  86 110 144 191 245 299 351
#     4  10  21  38  58  82 115 151 189 237 290 340
#
# _framework density 20.647341000000001
#
# number of rings (size 3 to 8) (size 9 to 14) (size 15 to 20)
#    0.000    2.000    0.000    4.000    0.000    9.333 
#    0.000    0.833    0.000   10.000    0.000    0.000 
#    0.000    0.000    0.000    0.000    0.000    0.000 
#
# Total GULP energy -133660.598227 kJ/mol
# GULP energy per Si atom -5569.191593 kJ/mol
# Density = 2.060035 g / cm^3
# Si number density = 20.647341 Si / 1000 Ang^3
#
#
#
# Elastic Constant Matrix: (Units=GPa)
#
#
# Indices 1 2 3 4 5 6 
#
# 1 55.1556 34.2162 54.8245 0.0000 -24.8956 0.0000
# 2 34.2162 62.9261 44.2055 0.0000 -18.8623 0.0000
# 3 54.8245 44.2055 120.7107 0.0000 -38.7205 0.0000
# 4 0.0000 0.0000 0.0000 26.6836 0.0000 -4.3873
# 5 -24.8956 -18.8623 -38.7205 0.0000 34.4894 0.0000
# 6 0.0000 0.0000 0.0000 -4.3873 0.0000 16.9992
#
#
#
# Elastic Compliance Matrix: (Units=1/GPa)
#
#
# Indices 1 2 3 4 5 6 
#
# 1 0.041033 -0.011292 -0.010910 0.000000 0.011195 0.000000
# 2 -0.011292 0.024968 -0.003515 0.000000 0.001558 0.000000
# 3 -0.010910 -0.003515 0.017791 0.000000 0.010175 0.000000
# 4 0.000000 0.000000 0.000000 0.039137 0.000000 0.010101
# 5 0.011195 0.001558 0.010175 0.000000 0.049351 0.000000
# 6 0.000000 0.000000 0.000000 0.010101 0.000000 0.061433
#
#
# Mechanical properties :
#
#
# Convention : Reuss Voigt Hill
#
# Bulk Modulus (GPa) = 30.90504 56.14276 43.52390
# Shear Modulus (GPa) = 16.89561 22.67084 19.78323
#
# Velocity S-wave (km/s) = 2.86369 3.31721 3.09876
# Velocity P-wave (km/s) = 5.09262 6.47473 5.82482
#
# Compressibility (1/GPa) = 0.03235719
#
# Stress axis : x y z
#
# Youngs Moduli (GPa) = 24.37035 40.05115 56.20834
#
# Poissons Ratio (x) = 0.45225 0.61326
# Poissons Ratio (y) = 0.27518 0.19760
# Poissons Ratio (z) = 0.26589 0.14080
#
# Static dielectric constant tensor:
#      x y z
#    x 1.777470 0.000000 -0.008140 
#    y 0.000000 1.708990 0.000000 
#    z -0.008140 0.000000 1.719560 
# 
# From -- ./inp_files/221519.got.cif
#   From: 2010.05.17/outbox.cif.g08.bks.cpg/sg12_111_cif.got.tgz:221519.got - 2010.06.03 13:09:07.
