data_PCOD9177941
_publ_section_title
;
Structure prediction by ZEFSAII (Michael W. Deem and Ramdas Pophale) SiO2 
 PCOD9177941
Probable space group: C 2/M
;
_chemical_formula_sum "Si O2"
_cell_formula_units_Z 56
_cell_length_a 11.844782
_cell_length_b 31.671471
_cell_length_c 14.901855
_cell_angle_alpha 90.000000
_cell_angle_beta 151.039809
_cell_angle_gamma 90.000000
_cell_volume 2706.836705
_symmetry_space_group_name_H-M "C 2/M"
_symmetry_group_IT_number 12
_symmetry_cell_setting 'monoclinic'
loop_
_space_group_symop_operation_xyz
x,y,z
-x,y,-z
-x,-y,-z
x,-y,z
1/2+x,1/2+y,z
1/2-x,1/2+y,-z
1/2-x,1/2-y,-z
1/2+x,1/2-y,z
loop_
_atom_site_type_symbol
_atom_site_label
_atom_site_fract_x
_atom_site_fract_y
_atom_site_fract_z
Si Si1 0.751439 0.952197 0.726644
Si Si2 0.482385 0.257420 0.218116
Si Si3 0.486266 0.387306 0.777667
Si Si4 0.849768 0.167333 0.257205
Si Si5 0.025739 0.379163 0.669604
Si Si6 0.654731 0.167553 0.307295
Si Si7 0.356611 0.314091 0.814275
O O1 0.500000 0.953211 0.500000
O O2 0.955120 0.932034 0.806020
O O3 0.692395 0.918457 0.763283
O O4 0.802564 0.000000 0.789014
O O5 0.405259 0.289164 0.242825
O O6 0.578504 0.211099 0.302225
O O7 0.667099 0.279516 0.279261
O O8 0.250000 0.250000 0.000000
O O9 0.661980 0.371190 0.822564
O O10 0.228595 0.384190 0.551947
O O11 0.498243 0.351253 0.862245
O O12 0.656014 0.171449 0.200407
O O13 0.086857 0.159305 0.477088
O O14 0.996517 0.369528 0.754052
O O15 0.133848 0.338337 0.695888
O O16 0.500000 0.297906 0.000000
#
# Coordination Sequence:
#
# PCOD9177941 Si02
#       7
#     8   8   8   8   8   8   8
#     4   8  13  24  48  78  97 114 145 188 235 283
#     4  11  23  33  46  64  93 121 158 207 241 278
#     4   8  16  32  49  67  93 123 153 188 231 281
#     4   9  20  36  46  66  87 125 167 198 231 274
#     4   9  17  31  49  69  92 123 155 189 233 281
#     4  10  20  33  50  63  89 125 165 199 232 274
#     4  10  19  30  45  66  90 121 153 192 238 277
#
# _framework density 20.688355000000001
#
# number of rings (size 3 to 8) (size 9 to 14) (size 15 to 20)
#    0.000    2.714    0.000    2.571    4.000    0.000 
#    5.143    0.000    0.000    7.714    0.000    6.000 
#    0.000    0.000    0.000   27.429    0.000   25.714 
#
# Total GULP energy -156111.978030 kJ/mol
# GULP energy per Si atom -5575.427787 kJ/mol
# Density = 2.064127 g / cm^3
# Si number density = 20.688355 Si / 1000 Ang^3
#
#
#
# Elastic Constant Matrix: (Units=GPa)
#
#
# Indices 1 2 3 4 5 6 
#
# 1 155.5492 78.5475 13.3578 0.0000 -28.9535 0.0000
# 2 78.5475 124.8317 -1.8045 0.0000 -8.3917 0.0000
# 3 13.3578 -1.8045 39.7028 0.0000 -4.7172 0.0000
# 4 0.0000 0.0000 0.0000 5.5580 0.0000 3.9686
# 5 -28.9535 -8.3917 -4.7172 0.0000 25.9825 0.0000
# 6 0.0000 0.0000 0.0000 3.9686 0.0000 16.7129
#
#
#
# Elastic Compliance Matrix: (Units=1/GPa)
#
#
# Indices 1 2 3 4 5 6 
#
# 1 0.012269 -0.007038 -0.003162 0.000000 0.010825 0.000000
# 2 -0.007038 0.012245 0.002517 0.000000 -0.003431 0.000000
# 3 -0.003162 0.002517 0.026617 0.000000 0.002122 0.000000
# 4 0.000000 0.000000 0.000000 0.216652 0.000000 -0.051445
# 5 0.010825 -0.003431 0.002122 0.000000 0.049827 0.000000
# 6 0.000000 0.000000 0.000000 -0.051445 0.000000 0.072050
#
#
# Mechanical properties :
#
#
# Convention : Reuss Voigt Hill
#
# Bulk Modulus (GPa) = 27.95968 55.58725 41.77347
# Shear Modulus (GPa) = 11.99186 24.98290 18.48738
#
# Velocity S-wave (km/s) = 2.41019 3.47880 2.99258
# Velocity P-wave (km/s) = 4.61404 6.56226 5.67242
#
# Compressibility (1/GPa) = 0.03576578
#
# Stress axis : x y z
#
# Youngs Moduli (GPa) = 81.50361 81.66496 37.56944
#
# Poissons Ratio (x) = 0.57478 0.11878
# Poissons Ratio (y) = 0.57364 -0.09456
# Poissons Ratio (z) = 0.25769 -0.20554
#
# Static dielectric constant tensor:
#      x y z
#    x 1.828180 0.000000 -0.011120 
#    y 0.000000 1.732060 0.000000 
#    z -0.011120 0.000000 1.792500 
# 
# From -- ./inp_files/209679.got.cif
#   From: 2010.05.17/outbox.cif.g08.bks.cpg/sg12_105_cif.got.tgz:209679.got - 2010.06.03 13:09:07.
