data_PCOD9177496
_publ_section_title
;
Structure prediction by ZEFSAII (Michael W. Deem and Ramdas Pophale) SiO2 
 PCOD9177496
Probable space group: C 2/M
;
_chemical_formula_sum "Si O2"
_cell_formula_units_Z 64
_cell_length_a 22.460252
_cell_length_b 20.538109
_cell_length_c 15.234517
_cell_angle_alpha 90.000000
_cell_angle_beta 154.823869
_cell_angle_gamma 90.000000
_cell_volume 2989.534799
_symmetry_space_group_name_H-M "C 2/M"
_symmetry_group_IT_number 12
_symmetry_cell_setting 'monoclinic'
loop_
_space_group_symop_operation_xyz
x,y,z
-x,y,-z
-x,-y,-z
x,-y,z
1/2+x,1/2+y,z
1/2-x,1/2+y,-z
1/2-x,1/2-y,-z
1/2+x,1/2-y,z
loop_
_atom_site_type_symbol
_atom_site_label
_atom_site_fract_x
_atom_site_fract_y
_atom_site_fract_z
Si Si1 0.401846 0.209470 0.447924
Si Si2 0.640037 0.789960 0.910291
Si Si3 0.146360 0.571575 0.279164
Si Si4 0.920719 0.572007 0.130483
Si Si5 0.278067 0.206227 0.673534
Si Si6 0.829614 0.428498 0.391893
Si Si7 0.464198 0.707479 0.799676
Si Si8 0.895345 0.071184 0.755139
O O1 0.500000 0.232241 0.500000
O O2 0.503551 0.202815 0.667206
O O3 0.286663 0.259929 0.327963
O O4 0.344298 0.136497 0.353780
O O5 0.674416 0.864175 0.983174
O O6 0.591320 0.745588 0.925985
O O7 0.750000 0.750000 0.000000
O O8 0.140795 0.500000 0.229987
O O9 0.166837 0.632932 0.243771
O O10 0.278688 0.570806 0.522392
O O11 0.013827 0.580679 0.166723
O O12 0.853686 0.500000 0.038362
O O13 0.036046 0.569683 0.363053
O O14 0.395742 0.251327 0.786552
O O15 0.155423 0.203907 0.435797
O O16 0.824020 0.500000 0.340595
O O17 0.696442 0.421608 0.279053
O O18 0.489601 0.633945 0.864576
O O19 0.964210 0.000000 0.847110
#
# Coordination Sequence:
#
# PCOD9177496 Si02
#       8
#     8   8   8   8   8   8   8   8
#     4  10  19  29  43  64  92 121 147 177 214 258
#     4  10  19  30  44  64  91 120 146 177 216 260
#     4   8  12  19  36  62  84 100 130 182 231 259
#     4   8  13  23  40  63  88 110 137 179 222 253
#     4   9  14  23  40  62  83 104 139 181 219 253
#     4   8  13  22  38  62  90 115 141 177 214 246
#     4   9  14  23  40  61  82 108 141 180 217 247
#     4   8  12  19  34  59  87 108 134 178 221 250
#
# _framework density 21.408011999999999
#
# number of rings (size 3 to 8) (size 9 to 14) (size 15 to 20)
#    0.000    3.250    2.500    1.500    0.000    0.250 
#    0.000    0.625    0.000    1.875    0.000    0.000 
#    0.000    4.000    0.000    0.000    0.000    0.000 
#
# Total GULP energy -178591.015414 kJ/mol
# GULP energy per Si atom -5580.969232 kJ/mol
# Density = 2.135929 g / cm^3
# Si number density = 21.408012 Si / 1000 Ang^3
#
#
#
# Elastic Constant Matrix: (Units=GPa)
#
#
# Indices 1 2 3 4 5 6 
#
# 1 80.2833 75.0401 23.9243 0.0000 29.8703 0.0000
# 2 75.0401 245.4202 36.9611 0.0000 41.1439 0.0000
# 3 23.9243 36.9611 51.0767 0.0000 -5.5703 0.0000
# 4 0.0000 0.0000 0.0000 4.9787 0.0000 11.1298
# 5 29.8703 41.1439 -5.5703 0.0000 41.2216 0.0000
# 6 0.0000 0.0000 0.0000 11.1298 0.0000 17.1819
#
#
#
# Elastic Compliance Matrix: (Units=1/GPa)
#
#
# Indices 1 2 3 4 5 6 
#
# 1 0.024794 -0.003180 -0.011089 0.000000 -0.016291 0.000000
# 2 -0.003180 0.006345 -0.003595 0.000000 -0.004515 0.000000
# 3 -0.011089 -0.003595 0.029070 0.000000 0.015551 0.000000
# 4 0.000000 0.000000 0.000000 -0.448275 0.000000 0.290375
# 5 -0.016291 -0.004515 0.015551 0.000000 0.042672 0.000000
# 6 0.000000 0.000000 0.000000 0.290375 0.000000 -0.129893
#
#
# Mechanical properties :
#
#
# Convention : Reuss Voigt Hill
#
# Bulk Modulus (GPa) = 40.84663 72.07014 56.45838
# Shear Modulus (GPa) = -11.59017 28.73342 8.57163
#
# Velocity S-wave (km/s) = -2.32931 3.66755 2.00315
# Velocity P-wave (km/s) = 3.44779 7.18837 5.63737
#
# Compressibility (1/GPa) = 0.02448183
#
# Stress axis : x y z
#
# Youngs Moduli (GPa) = 40.33266 157.60104 34.40016
#
# Poissons Ratio (x) = 0.50115 0.38146
# Poissons Ratio (y) = 0.12825 0.12365
# Poissons Ratio (z) = 0.44725 0.56650
#
# Static dielectric constant tensor:
#      x y z
#    x 1.752350 0.000000 -0.050290 
#    y 0.000000 1.818950 0.000000 
#    z -0.050290 0.000000 1.815790 
# 
# From -- ./inp_files/326197.got.cif
#   From: 2010.05.17/outbox.cif.g08.bks.cpg/sg12_164_cif.got.tgz:326197.got - 2010.06.03 13:09:07.
