data_PCOD9177056
_publ_section_title
;
Structure prediction by ZEFSAII (Michael W. Deem and Ramdas Pophale) SiO2 
 PCOD9177056
Probable space group: C 2/M
;
_chemical_formula_sum "Si O2"
_cell_formula_units_Z 40
_cell_length_a 11.463943
_cell_length_b 25.827496
_cell_length_c 7.960030
_cell_angle_alpha 90.000000
_cell_angle_beta 57.892405
_cell_angle_gamma 90.000000
_cell_volume 1996.369046
_symmetry_space_group_name_H-M "C 2/M"
_symmetry_group_IT_number 12
_symmetry_cell_setting 'monoclinic'
loop_
_space_group_symop_operation_xyz
x,y,z
-x,y,-z
-x,-y,-z
x,-y,z
1/2+x,1/2+y,z
1/2-x,1/2+y,-z
1/2-x,1/2-y,-z
1/2+x,1/2-y,z
loop_
_atom_site_type_symbol
_atom_site_label
_atom_site_fract_x
_atom_site_fract_y
_atom_site_fract_z
Si Si1 0.563419 0.386327 0.763206
Si Si2 0.563359 0.500000 0.762400
Si Si3 0.148279 0.500000 0.300509
Si Si4 0.576246 0.713051 0.282790
Si Si5 0.852536 0.386273 0.704419
Si Si6 0.875510 0.692739 0.987358
O O1 0.527841 0.443522 0.717963
O O2 0.501150 0.339643 0.705847
O O3 0.727181 0.380880 0.668731
O O4 0.500000 0.383853 0.000000
O O5 0.728247 0.500000 0.659539
O O6 0.500000 0.500000 0.000000
O O7 0.161601 0.444095 0.204043
O O8 0.000000 0.500000 0.500000
O O9 0.500000 0.737389 0.500000
O O10 0.576825 0.752507 0.126932
O O11 0.736007 0.701452 0.197271
O O12 0.839924 0.343791 0.857923
O O13 0.000000 0.382382 0.500000
O O14 0.000000 0.670606 0.000000
#
# Coordination Sequence:
#
# PCOD9177056 Si02
#       6
#     8   4   4   8   8   8
#     4  10  18  37  61  86 117 148 195 236 277 334
#     4   8  16  28  57  88 108 148 189 232 276 324
#     4   8  16  32  55  86 118 146 191 230 272 335
#     4  11  25  41  60  83 114 153 188 240 290 337
#     4  10  20  36  62  90 116 154 191 235 282 333
#     4  11  25  41  58  84 117 149 192 235 289 346
#
# _framework density 20.036377999999999
#
# number of rings (size 3 to 8) (size 9 to 14) (size 15 to 20)
#    0.000    2.000    2.000    1.200    5.600    0.800 
#    0.000    1.000    0.000    0.000    0.000    0.000 
#    0.000    0.000    0.000    0.000    0.000    0.000 
#
# Total GULP energy -111555.261111 kJ/mol
# GULP energy per Si atom -5577.763056 kJ/mol
# Density = 1.999077 g / cm^3
# Si number density = 20.036378 Si / 1000 Ang^3
#
#
#
# Elastic Constant Matrix: (Units=GPa)
#
#
# Indices 1 2 3 4 5 6 
#
# 1 73.0232 20.9957 26.8722 0.0000 -20.5445 0.0000
# 2 20.9957 117.6532 -3.6404 0.0000 0.0713 0.0000
# 3 26.8722 -3.6404 65.5328 0.0000 -28.3057 0.0000
# 4 0.0000 0.0000 0.0000 16.7721 0.0000 -3.2326
# 5 -20.5445 0.0713 -28.3057 0.0000 26.9700 0.0000
# 6 0.0000 0.0000 0.0000 -3.2326 0.0000 24.9179
#
#
#
# Elastic Compliance Matrix: (Units=1/GPa)
#
#
# Indices 1 2 3 4 5 6 
#
# 1 0.019005 -0.003496 -0.003165 0.000000 0.011165 0.000000
# 2 -0.003496 0.009168 0.001431 0.000000 -0.001186 0.000000
# 3 -0.003165 0.001431 0.028525 0.000000 0.027523 0.000000
# 4 0.000000 0.000000 0.000000 0.061152 0.000000 0.007933
# 5 0.011165 -0.001186 0.027523 0.000000 0.074472 0.000000
# 6 0.000000 0.000000 0.000000 0.007933 0.000000 0.041161
#
#
# Mechanical properties :
#
#
# Convention : Reuss Voigt Hill
#
# Bulk Modulus (GPa) = 21.62754 38.29605 29.96179
# Shear Modulus (GPa) = 19.27846 27.86412 23.57129
#
# Velocity S-wave (km/s) = 3.10526 3.73322 3.43363
# Velocity P-wave (km/s) = 4.86563 6.14307 5.54129
#
# Compressibility (1/GPa) = 0.04623734
#
# Stress axis : x y z
#
# Youngs Moduli (GPa) = 52.61660 109.06941 35.05729
#
# Poissons Ratio (x) = 0.38134 0.11096
# Poissons Ratio (y) = 0.18396 -0.05016
# Poissons Ratio (z) = 0.16654 -0.15605
#
# Static dielectric constant tensor:
#      x y z
#    x 1.714900 0.000000 -0.030780 
#    y 0.000000 1.757200 0.000000 
#    z -0.030780 0.000000 1.688580 
# 
# From -- ./inp_files/50455.got.cif
#   From: 2010.05.17/outbox.cif.g08.bks.cpg/sg12_26_cif.got.tgz:50455.got - 2010.06.03 13:09:07.
