data_PCOD9177406
_publ_section_title
;
Structure prediction by ZEFSAII (Michael W. Deem and Ramdas Pophale) SiO2 
 PCOD9177406
Probable space group: C 2/M
;
_chemical_formula_sum "Si O2"
_cell_formula_units_Z 60
_cell_length_a 5.169042
_cell_length_b 26.139150
_cell_length_c 28.910914
_cell_angle_alpha 90.000000
_cell_angle_beta 100.402619
_cell_angle_gamma 90.000000
_cell_volume 3842.073095
_symmetry_space_group_name_H-M "C 2/M"
_symmetry_group_IT_number 12
_symmetry_cell_setting 'monoclinic'
loop_
_space_group_symop_operation_xyz
x,y,z
-x,y,-z
-x,-y,-z
x,-y,z
1/2+x,1/2+y,z
1/2-x,1/2+y,-z
1/2-x,1/2-y,-z
1/2+x,1/2-y,z
loop_
_atom_site_type_symbol
_atom_site_label
_atom_site_fract_x
_atom_site_fract_y
_atom_site_fract_z
Si Si1 0.411575 0.784342 0.851266
Si Si2 0.606069 0.785072 0.049743
Si Si3 0.254924 0.557954 0.682234
Si Si4 0.239256 0.378824 0.317582
Si Si5 0.500000 0.714107 0.500000
Si Si6 0.643956 0.377673 0.569368
Si Si7 0.638123 0.941642 0.568324
Si Si8 0.215468 0.784960 0.748591
O O1 0.704327 0.762791 0.851854
O O2 0.399904 0.812251 0.900501
O O3 0.306213 0.809151 0.800776
O O4 0.394272 0.738516 0.049708
O O5 0.500000 0.812275 0.000000
O O6 0.236692 0.500000 0.699258
O O7 0.545816 0.580610 0.693176
O O8 0.178097 0.556394 0.625296
O O9 0.047614 0.596699 0.697833
O O10 0.292285 0.371029 0.374105
O O11 0.274794 0.326634 0.291068
O O12 0.250000 0.750000 0.500000
O O13 0.436948 0.675757 0.455753
O O14 0.402981 0.417134 0.557403
O O15 0.894627 0.403697 0.553098
O O16 0.593622 0.000000 0.552048
O O17 0.430351 0.740751 0.745135
#
# Coordination Sequence:
#
# PCOD9177406 Si02
#       8
#     8   8   8   8   4   8   8   8
#     4   8  14  23  33  47  70 100 132 168 206 238
#     4   8  12  18  29  44  62  88 126 167 201 236
#     4   9  17  30  49  71  92 112 135 167 210 258
#     4  10  19  31  49  69  88 112 143 175 207 248
#     4  12  26  42  55  66  89 124 154 182 210 232
#     4  10  21  36  52  72  92 113 146 175 203 254
#     4   9  17  33  56  78  98 113 127 163 216 262
#     4  10  19  29  41  59  85 114 145 179 209 238
#
# _framework density 15.616569999999999
#
# number of rings (size 3 to 8) (size 9 to 14) (size 15 to 20)
#    0.000    2.667    0.000    2.400    0.000    4.267 
#    0.000    2.000    0.000    0.000    0.000    0.000 
#    0.000    0.000    0.000    0.000    0.000    4.000 
#
# Total GULP energy -167114.601267 kJ/mol
# GULP energy per Si atom -5570.486709 kJ/mol
# Density = 1.558103 g / cm^3
# Si number density = 15.616570 Si / 1000 Ang^3
#
#
#
# Elastic Constant Matrix: (Units=GPa)
#
#
# Indices 1 2 3 4 5 6 
#
# 1 75.0248 6.9665 0.7603 0.0000 -4.2639 0.0000
# 2 6.9665 54.0201 16.5432 0.0000 -1.6872 0.0000
# 3 0.7603 16.5432 69.2855 0.0000 -0.4859 0.0000
# 4 0.0000 0.0000 0.0000 -10.4290 0.0000 -1.3377
# 5 -4.2639 -1.6872 -0.4859 0.0000 15.3641 0.0000
# 6 0.0000 0.0000 0.0000 -1.3377 0.0000 19.4498
#
#
#
# Elastic Compliance Matrix: (Units=1/GPa)
#
#
# Indices 1 2 3 4 5 6 
#
# 1 0.013693 -0.001742 0.000291 0.000000 0.003618 0.000000
# 2 -0.001742 0.020258 -0.004807 0.000000 0.001589 0.000000
# 3 0.000291 -0.004807 0.015578 0.000000 0.000046 0.000000
# 4 0.000000 0.000000 0.000000 -0.095048 0.000000 -0.006537
# 5 0.003618 0.001589 0.000046 0.000000 0.066267 0.000000
# 6 0.000000 0.000000 0.000000 -0.006537 0.000000 0.050965
#
#
# Mechanical properties :
#
#
# Convention : Reuss Voigt Hill
#
# Bulk Modulus (GPa) = 27.01697 27.43004 27.22350
# Shear Modulus (GPa) = 51.77811 16.48101 34.12956
#
# Velocity S-wave (km/s) = 5.76436 3.25215 4.67997
# Velocity P-wave (km/s) = 7.85121 5.63070 6.83178
#
# Compressibility (1/GPa) = 0.03701377
#
# Stress axis : x y z
#
# Youngs Moduli (GPa) = 73.02804 49.36341 64.19373
#
# Poissons Ratio (x) = 0.08599 -0.01868
# Poissons Ratio (y) = 0.12722 0.30856
# Poissons Ratio (z) = -0.02126 0.23727
#
# Static dielectric constant tensor:
#      x y z
#    x 1.532550 0.000000 0.002310 
#    y 0.000000 1.474560 0.000000 
#    z 0.002310 0.000000 1.589690 
# 
# From -- ./inp_files/371558.got.cif
#   From: 2010.05.17/outbox.cif.g08.bks.cpg/sg12_186_cif.got.tgz:371558.got - 2010.06.03 13:09:07.
