data_PCOD9177241
_publ_section_title
;
Structure prediction by ZEFSAII (Michael W. Deem and Ramdas Pophale) SiO2 
 PCOD9177241
Probable space group: C 2/M
;
_chemical_formula_sum "Si O2"
_cell_formula_units_Z 42
_cell_length_a 26.846961
_cell_length_b 14.120039
_cell_length_c 13.204594
_cell_angle_alpha 90.000000
_cell_angle_beta 21.750521
_cell_angle_gamma 90.000000
_cell_volume 1854.904324
_symmetry_space_group_name_H-M "C 2/M"
_symmetry_group_IT_number 12
_symmetry_cell_setting 'monoclinic'
loop_
_space_group_symop_operation_xyz
x,y,z
-x,y,-z
-x,-y,-z
x,-y,z
1/2+x,1/2+y,z
1/2-x,1/2+y,-z
1/2-x,1/2-y,-z
1/2+x,1/2-y,z
loop_
_atom_site_type_symbol
_atom_site_label
_atom_site_fract_x
_atom_site_fract_y
_atom_site_fract_z
Si Si1 0.142870 0.832665 0.205845
Si Si2 0.530186 0.000000 0.603102
Si Si3 0.745985 0.000000 0.879503
Si Si4 0.350766 0.500000 0.967446
Si Si5 0.708857 0.701249 0.472232
Si Si6 0.621880 0.500000 0.585019
Si Si7 0.500000 0.000000 0.000000
Si Si8 0.018831 0.343798 0.142058
O O1 0.000000 0.787934 0.500000
O O2 0.179101 0.906194 0.225928
O O3 0.250000 0.750000 0.000000
O O4 0.131375 0.903472 0.131466
O O5 0.690628 0.000000 0.293182
O O6 0.490926 0.094508 0.739264
O O7 0.395076 0.000000 0.788819
O O8 0.769883 0.000000 0.712844
O O9 0.469831 0.500000 0.827357
O O10 0.750000 0.750000 0.500000
O O11 0.657885 0.593467 0.580610
O O12 0.589304 0.761412 0.651429
O O13 0.836349 0.698828 0.157488
O O14 0.487214 0.917096 0.111342
#
# Coordination Sequence:
#
# PCOD9177241 Si02
#       8
#     8   4   4   4   8   4   2   8
#     4  11  25  44  75 108 148 192 238 294 356 439
#     4  11  26  43  70 100 141 186 242 294 354 432
#     4  11  22  48  71 100 144 198 235 292 369 420
#     4  11  26  49  69 104 149 190 240 293 366 441
#     4  12  25  44  69 100 131 185 240 298 368 439
#     4  12  25  47  72  97 151 194 235 313 369 426
#     4  10  18  44  68  82 128 174 222 292 358 422
#     4  11  24  42  68  97 132 180 231 301 363 431
#
# _framework density 22.642678
#
# number of rings (size 3 to 8) (size 9 to 14) (size 15 to 20)
#    0.000    0.762    5.714    1.143    5.333    3.810 
#    0.000    1.905    0.000    0.000    0.000    0.000 
#    0.000    0.000    0.000    0.000    0.000    0.000 
#
# Total GULP energy -117080.511574 kJ/mol
# GULP energy per Si atom -5575.262456 kJ/mol
# Density = 2.259114 g / cm^3
# Si number density = 22.642678 Si / 1000 Ang^3
#
#
#
# Elastic Constant Matrix: (Units=GPa)
#
#
# Indices 1 2 3 4 5 6 
#
# 1 43.7366 25.9769 9.1991 0.0000 -13.4691 0.0000
# 2 25.9769 160.1029 54.6296 0.0000 -20.2445 0.0000
# 3 9.1991 54.6296 213.8830 0.0000 -36.4244 0.0000
# 4 0.0000 0.0000 0.0000 9.7794 0.0000 12.3014
# 5 -13.4691 -20.2445 -36.4244 0.0000 23.2694 0.0000
# 6 0.0000 0.0000 0.0000 12.3014 0.0000 -20.5803
#
#
#
# Elastic Compliance Matrix: (Units=1/GPa)
#
#
# Indices 1 2 3 4 5 6 
#
# 1 0.030120 -0.003463 0.002788 0.000000 0.018786 0.000000
# 2 -0.003463 0.007585 -0.001372 0.000000 0.002448 0.000000
# 3 0.002788 -0.001372 0.006787 0.000000 0.011044 0.000000
# 4 0.000000 0.000000 0.000000 0.058370 0.000000 0.034889
# 5 0.018786 0.002448 0.011044 0.000000 0.073266 0.000000
# 6 0.000000 0.000000 0.000000 0.034889 0.000000 -0.027736
#
#
# Mechanical properties :
#
#
# Convention : Reuss Voigt Hill
#
# Bulk Modulus (GPa) = 24.75284 66.37041 45.56162
# Shear Modulus (GPa) = 30.12946 24.35482 27.24214
#
# Velocity S-wave (km/s) = 3.65176 3.28322 3.47238
# Velocity P-wave (km/s) = 5.36061 6.61426 6.02016
#
# Compressibility (1/GPa) = 0.04039940
#
# Stress axis : x y z
#
# Youngs Moduli (GPa) = 33.20069 131.83229 147.34750
#
# Poissons Ratio (x) = 0.45653 -0.41086
# Poissons Ratio (y) = 0.11497 0.20211
# Poissons Ratio (z) = -0.09258 0.18083
#
# Static dielectric constant tensor:
#      x y z
#    x 1.959110 0.000000 -0.103160 
#    y 0.000000 1.822300 0.000000 
#    z -0.103160 0.000000 2.010230 
# 
# From -- ./inp_files/251286.got.cif
#   From: 2010.05.17/outbox.cif.g08.bks.cpg/sg12_126_cif.got.tgz:251286.got - 2010.06.03 13:09:07.
