data_PCOD9177223
_publ_section_title
;
Structure prediction by ZEFSAII (Michael W. Deem and Ramdas Pophale) SiO2 
 PCOD9177223
Probable space group: C 2/M
;
_chemical_formula_sum "Si O2"
_cell_formula_units_Z 48
_cell_length_a 15.379527
_cell_length_b 27.163596
_cell_length_c 5.828492
_cell_angle_alpha 90.000000
_cell_angle_beta 65.771991
_cell_angle_gamma 90.000000
_cell_volume 2220.460257
_symmetry_space_group_name_H-M "C 2/M"
_symmetry_group_IT_number 12
_symmetry_cell_setting 'monoclinic'
loop_
_space_group_symop_operation_xyz
x,y,z
-x,y,-z
-x,-y,-z
x,-y,z
1/2+x,1/2+y,z
1/2-x,1/2+y,-z
1/2-x,1/2-y,-z
1/2+x,1/2-y,z
loop_
_atom_site_type_symbol
_atom_site_label
_atom_site_fract_x
_atom_site_fract_y
_atom_site_fract_z
Si Si1 0.402624 0.141849 0.201576
Si Si2 0.832232 0.555301 0.505131
Si Si3 0.258777 0.695695 0.390688
Si Si4 0.860549 0.056052 0.589713
Si Si5 0.746503 0.374463 0.984198
Si Si6 0.453329 0.644097 0.304223
O O1 0.414394 0.087544 0.297024
O O2 0.346276 0.173743 0.447503
O O3 0.500000 0.162401 0.000000
O O4 0.325873 0.137426 0.084110
O O5 0.859523 0.500000 0.535178
O O6 0.741504 0.553678 0.430762
O O7 0.793782 0.586962 0.757573
O O8 0.250000 0.750000 0.500000
O O9 0.278923 0.677269 0.109394
O O10 0.347454 0.668602 0.418286
O O11 0.934247 0.085214 0.349088
O O12 0.885703 0.000000 0.623246
O O13 0.840891 0.094064 0.818841
O O14 0.500000 0.659940 0.500000
O O15 0.500000 0.654466 0.000000
#
# Coordination Sequence:
#
# PCOD9177223 Si02
#       6
#     8   8   8   8   8   8
#     4  10  22  40  63  93 126 163 221 283 342 411
#     4   9  18  33  60  91 127 172 219 264 332 404
#     4  11  25  46  67  94 128 179 225 286 356 413
#     4  10  20  38  64  97 135 183 226 273 338 415
#     4  10  18  40  66  89 135 171 223 278 346 402
#     4  12  26  46  70 104 146 181 235 292 346 413
#
# _framework density 21.617139000000002
#
# number of rings (size 3 to 8) (size 9 to 14) (size 15 to 20)
#    0.000    1.667    5.000    1.500    0.000    5.667 
#    3.000    0.833    0.000    0.000    0.000    0.000 
#    0.000    0.000    0.000    0.000    0.000    0.000 
#
# Total GULP energy -133686.039613 kJ/mol
# GULP energy per Si atom -5570.251651 kJ/mol
# Density = 2.156794 g / cm^3
# Si number density = 21.617139 Si / 1000 Ang^3
#
#
#
# Elastic Constant Matrix: (Units=GPa)
#
#
# Indices 1 2 3 4 5 6 
#
# 1 36.6146 -7.3299 17.8385 0.0000 -20.5339 0.0000
# 2 -7.3299 120.5709 26.5651 0.0000 -5.4274 0.0000
# 3 17.8385 26.5651 102.8468 0.0000 -14.8045 0.0000
# 4 0.0000 0.0000 0.0000 16.0577 0.0000 1.1543
# 5 -20.5339 -5.4274 -14.8045 0.0000 38.0935 0.0000
# 6 0.0000 0.0000 0.0000 1.1543 0.0000 9.5864
#
#
#
# Elastic Compliance Matrix: (Units=1/GPa)
#
#
# Indices 1 2 3 4 5 6 
#
# 1 0.043258 0.004849 -0.005614 0.000000 0.021827 0.000000
# 2 0.004849 0.009343 -0.002846 0.000000 0.002839 0.000000
# 3 -0.005614 -0.002846 0.011586 0.000000 0.001071 0.000000
# 4 0.000000 0.000000 0.000000 0.062819 0.000000 -0.007564
# 5 0.021827 0.002839 0.001071 0.000000 0.038838 0.000000
# 6 0.000000 0.000000 0.000000 -0.007564 0.000000 0.105225
#
#
# Mechanical properties :
#
#
# Convention : Reuss Voigt Hill
#
# Bulk Modulus (GPa) = 17.55396 37.13108 27.34252
# Shear Modulus (GPa) = 16.81921 27.61143 22.21532
#
# Velocity S-wave (km/s) = 2.79238 3.57780 3.20921
# Velocity P-wave (km/s) = 4.30518 5.85504 5.13887
#
# Compressibility (1/GPa) = 0.05696719
#
# Stress axis : x y z
#
# Youngs Moduli (GPa) = 23.11713 107.02654 86.31003
#
# Poissons Ratio (x) = -0.51899 0.48451
# Poissons Ratio (y) = -0.11210 0.24562
# Poissons Ratio (z) = 0.12977 0.30457
#
# Static dielectric constant tensor:
#      x y z
#    x 1.808630 0.000000 0.031760 
#    y 0.000000 1.805750 0.000000 
#    z 0.031760 0.000000 1.875060 
# 
# From -- ./inp_files/17323.got.cif
#   From: 2010.05.17/outbox.cif.g08.bks.cpg/sg12_9_cif.got.tgz:17323.got - 2010.06.03 13:09:07.
