data_PCOD9177129
_publ_section_title
;
Structure prediction by ZEFSAII (Michael W. Deem and Ramdas Pophale) SiO2 
 PCOD9177129
Probable space group: C 2/M
;
_chemical_formula_sum "Si O2"
_cell_formula_units_Z 50
_cell_length_a 10.197262
_cell_length_b 28.026452
_cell_length_c 11.732108
_cell_angle_alpha 90.000000
_cell_angle_beta 124.571212
_cell_angle_gamma 90.000000
_cell_volume 2760.895660
_symmetry_space_group_name_H-M "C 2/M"
_symmetry_group_IT_number 12
_symmetry_cell_setting 'monoclinic'
loop_
_space_group_symop_operation_xyz
x,y,z
-x,y,-z
-x,-y,-z
x,-y,z
1/2+x,1/2+y,z
1/2-x,1/2+y,-z
1/2-x,1/2-y,-z
1/2+x,1/2-y,z
loop_
_atom_site_type_symbol
_atom_site_label
_atom_site_fract_x
_atom_site_fract_y
_atom_site_fract_z
Si Si1 0.729320 0.852222 0.098138
Si Si2 0.493911 0.093837 0.153537
Si Si3 0.000000 0.500000 0.000000
Si Si4 0.844285 0.248433 0.873100
Si Si5 0.106774 0.630344 0.445368
Si Si6 0.955039 0.158271 0.608838
Si Si7 0.978254 0.266915 0.688629
O O1 0.623104 0.875100 0.146467
O O2 0.680011 0.796989 0.066538
O O3 0.908092 0.854333 0.232282
O O4 0.674771 0.880718 0.959513
O O5 0.547005 0.099377 0.309078
O O6 0.494779 0.042173 0.096766
O O7 0.669710 0.226135 0.789786
O O8 0.892206 0.262585 0.768398
O O9 0.000000 0.222092 0.000000
O O10 0.295490 0.629519 0.558444
O O11 0.000000 0.618050 0.500000
O O12 0.082141 0.686259 0.403331
O O13 0.000000 0.147313 0.500000
O O14 0.943521 0.216155 0.611529
#
# Coordination Sequence:
#
# PCOD9177129 Si02
#       7
#     8   8   2   8   8   8   8
#     4   9  17  33  58  75 102 143 193 241 266 319
#     4  10  18  38  61  86 109 136 189 231 294 339
#     4   8  20  36  70  90 102 136 190 236 286 360
#     4  11  18  31  46  72 103 149 197 243 271 303
#     4  12  22  35  52  82 120 153 181 232 288 331
#     4  11  20  34  52  78 110 159 204 228 260 315
#     4  11  21  31  46  72 110 158 199 227 268 317
#
# _framework density 18.110066
#
# number of rings (size 3 to 8) (size 9 to 14) (size 15 to 20)
#    0.000    1.600    4.800    3.360    0.000    1.280 
#    0.000    1.200    0.000    7.680    0.000    4.480 
#    0.000    0.000    0.000    0.000    0.000    0.000 
#
# Total GULP energy -139236.621982 kJ/mol
# GULP energy per Si atom -5569.464879 kJ/mol
# Density = 1.806885 g / cm^3
# Si number density = 18.110066 Si / 1000 Ang^3
#
#
#
# Elastic Constant Matrix: (Units=GPa)
#
#
# Indices 1 2 3 4 5 6 
#
# 1 90.1945 6.1635 52.1685 0.0000 8.4491 0.0000
# 2 6.1635 52.8068 26.1042 0.0000 11.0948 0.0000
# 3 52.1685 26.1042 113.7647 0.0000 16.8999 0.0000
# 4 0.0000 0.0000 0.0000 5.9512 0.0000 -2.1190
# 5 8.4491 11.0948 16.8999 0.0000 35.8692 0.0000
# 6 0.0000 0.0000 0.0000 -2.1190 0.0000 2.4132
#
#
#
# Elastic Compliance Matrix: (Units=1/GPa)
#
#
# Indices 1 2 3 4 5 6 
#
# 1 0.015274 0.002011 -0.007353 0.000000 -0.000755 0.000000
# 2 0.002011 0.022361 -0.005328 0.000000 -0.004880 0.000000
# 3 -0.007353 -0.005328 0.013852 0.000000 -0.003146 0.000000
# 4 0.000000 0.000000 0.000000 0.244462 0.000000 0.214657
# 5 -0.000755 -0.004880 -0.003146 0.000000 0.031049 0.000000
# 6 0.000000 0.000000 0.000000 0.214657 0.000000 0.602877
#
#
# Mechanical properties :
#
#
# Convention : Reuss Voigt Hill
#
# Bulk Modulus (GPa) = 33.17188 47.29315 40.23251
# Shear Modulus (GPa) = 5.20148 20.33538 12.76843
#
# Velocity S-wave (km/s) = 1.69658 3.35457 2.65815
# Velocity P-wave (km/s) = 4.71110 6.41679 5.62893
#
# Compressibility (1/GPa) = 0.03014602
#
# Stress axis : x y z
#
# Youngs Moduli (GPa) = 65.47273 44.71987 72.19211
#
# Poissons Ratio (x) = -0.08993 0.53084
# Poissons Ratio (y) = -0.13166 0.38465
# Poissons Ratio (z) = 0.48143 0.23828
#
# Static dielectric constant tensor:
#      x y z
#    x 1.653430 0.000000 0.014490 
#    y 0.000000 1.588740 0.000000 
#    z 0.014490 0.000000 1.689020 
# 
# From -- ./inp_files/125375.got.cif
#   From: 2010.05.17/outbox.cif.g08.bks.cpg/sg12_63_cif.got.tgz:125375.got - 2010.06.03 13:09:07.
