data_PCOD9177788
_publ_section_title
;
Structure prediction by ZEFSAII (Michael W. Deem and Ramdas Pophale) SiO2 
 PCOD9177788
Probable space group: C 2/M
;
_chemical_formula_sum "Si O2"
_cell_formula_units_Z 56
_cell_length_a 11.473690
_cell_length_b 27.370074
_cell_length_c 7.300827
_cell_angle_alpha 90.000000
_cell_angle_beta 114.029256
_cell_angle_gamma 90.000000
_cell_volume 2094.028090
_symmetry_space_group_name_H-M "C 2/M"
_symmetry_group_IT_number 12
_symmetry_cell_setting 'monoclinic'
loop_
_space_group_symop_operation_xyz
x,y,z
-x,y,-z
-x,-y,-z
x,-y,z
1/2+x,1/2+y,z
1/2-x,1/2+y,-z
1/2-x,1/2-y,-z
1/2+x,1/2-y,z
loop_
_atom_site_type_symbol
_atom_site_label
_atom_site_fract_x
_atom_site_fract_y
_atom_site_fract_z
Si Si1 0.484574 0.239196 0.780011
Si Si2 0.804297 0.553266 0.058463
Si Si3 0.642047 0.948741 0.500384
Si Si4 0.704405 0.839480 0.908681
Si Si5 0.516939 0.447729 0.790440
Si Si6 0.517835 0.342720 0.792140
Si Si7 0.638728 0.845389 0.481440
O O1 0.614060 0.207507 0.843898
O O2 0.466289 0.291962 0.678323
O O3 0.374343 0.201210 0.654688
O O4 0.500000 0.251469 0.000000
O O5 0.868783 0.500000 0.064075
O O6 0.775747 0.552085 0.260542
O O7 0.861317 0.608250 0.078002
O O8 0.670668 0.553143 0.868538
O O9 0.500000 0.949209 0.500000
O O10 0.656046 0.898370 0.403060
O O11 0.661077 0.000000 0.413911
O O12 0.737204 0.842558 0.712103
O O13 0.827748 0.835578 0.113519
O O14 0.467352 0.500000 0.687023
O O15 0.472983 0.395205 0.687647
O O16 0.500000 0.448633 0.000000
O O17 0.500000 0.347904 0.000000
O O18 0.500000 0.846773 0.500000
#
# Coordination Sequence:
#
# PCOD9177788 Si02
#       7
#     8   8   8   8   8   8   8
#     4  10  19  30  42  61  89 119 146 175 211 250
#     4   8  13  21  37  62  84 103 133 172 211 248
#     4   8  12  19  34  56  78 100 132 175 215 244
#     4   9  16  29  48  64  84 115 146 176 211 252
#     4   8  13  22  37  58  84 107 127 162 214 262
#     4   9  17  28  43  65  89 112 140 175 216 257
#     4   8  15  27  43  61  81 109 145 180 210 247
#
# _framework density 26.742716000000001
#
# number of rings (size 3 to 8) (size 9 to 14) (size 15 to 20)
#    0.000    3.429    0.000    1.286    0.000    0.000 
#    0.000    2.857    0.000    1.714    0.000    0.000 
#    0.000    5.143    0.000   45.429    0.000   94.429 
#
# Total GULP energy -155915.672026 kJ/mol
# GULP energy per Si atom -5568.416858 kJ/mol
# Density = 2.668185 g / cm^3
# Si number density = 26.742716 Si / 1000 Ang^3
#
#
#
# Elastic Constant Matrix: (Units=GPa)
#
#
# Indices 1 2 3 4 5 6 
#
# 1 48.3168 15.2775 10.1188 0.0000 16.3878 0.0000
# 2 15.2775 324.7273 15.0812 0.0000 2.2829 0.0000
# 3 10.1188 15.0812 52.3292 0.0000 -2.7308 0.0000
# 4 0.0000 0.0000 0.0000 26.3407 0.0000 6.0638
# 5 16.3878 2.2829 -2.7308 0.0000 35.3438 0.0000
# 6 0.0000 0.0000 0.0000 6.0638 0.0000 7.4163
#
#
#
# Elastic Compliance Matrix: (Units=1/GPa)
#
#
# Indices 1 2 3 4 5 6 
#
# 1 0.026412 -0.000898 -0.005507 0.000000 -0.012614 0.000000
# 2 -0.000898 0.003154 -0.000727 0.000000 0.000157 0.000000
# 3 -0.005507 -0.000727 0.020603 0.000000 0.004192 0.000000
# 4 0.000000 0.000000 0.000000 0.046767 0.000000 -0.038238
# 5 -0.012614 0.000157 0.004192 0.000000 0.034456 0.000000
# 6 0.000000 0.000000 0.000000 -0.038238 0.000000 0.166103
#
#
# Mechanical properties :
#
#
# Convention : Reuss Voigt Hill
#
# Bulk Modulus (GPa) = 27.85096 56.25871 42.05483
# Shear Modulus (GPa) = 15.44506 39.47989 27.46248
#
# Velocity S-wave (km/s) = 2.40582 3.84641 3.20803
# Velocity P-wave (km/s) = 4.26079 6.38821 5.42971
#
# Compressibility (1/GPa) = 0.03590541
#
# Stress axis : x y z
#
# Youngs Moduli (GPa) = 37.86117 317.01345 48.53676
#
# Poissons Ratio (x) = 0.28474 0.26728
# Poissons Ratio (y) = 0.03401 0.03530
# Poissons Ratio (z) = 0.20849 0.23055
#
# Static dielectric constant tensor:
#      x y z
#    x 2.215320 0.000000 -0.015240 
#    y 0.000000 2.245710 0.000000 
#    z -0.015240 0.000000 2.142540 
# 
# From -- ./inp_files/66573.got.cif
#   From: 2010.05.17/outbox.cif.g08.bks.cpg/sg12_34_cif.got.tgz:66573.got - 2010.06.03 13:09:07.
