data_PCOD9177515
_publ_section_title
;
Structure prediction by ZEFSAII (Michael W. Deem and Ramdas Pophale) SiO2 
 PCOD9177515
Probable space group: C 2/M
;
_chemical_formula_sum "Si O2"
_cell_formula_units_Z 56
_cell_length_a 28.786267
_cell_length_b 8.775745
_cell_length_c 19.034983
_cell_angle_alpha 90.000000
_cell_angle_beta 132.012513
_cell_angle_gamma 90.000000
_cell_volume 3572.809633
_symmetry_space_group_name_H-M "C 2/M"
_symmetry_group_IT_number 12
_symmetry_cell_setting 'monoclinic'
loop_
_space_group_symop_operation_xyz
x,y,z
-x,y,-z
-x,-y,-z
x,-y,z
1/2+x,1/2+y,z
1/2-x,1/2+y,-z
1/2-x,1/2-y,-z
1/2+x,1/2-y,z
loop_
_atom_site_type_symbol
_atom_site_label
_atom_site_fract_x
_atom_site_fract_y
_atom_site_fract_z
Si Si1 0.380188 0.318770 0.280038
Si Si2 0.248715 0.682899 0.076831
Si Si3 0.872754 0.184950 0.971426
Si Si4 0.996158 0.184780 0.821238
Si Si5 0.502885 0.816765 0.331440
Si Si6 0.932312 0.823178 0.892917
Si Si7 0.569104 0.824556 0.534577
O O1 0.387472 0.500000 0.280894
O O2 0.313037 0.274649 0.181276
O O3 0.435995 0.241344 0.292400
O O4 0.388508 0.270466 0.369581
O O5 0.245431 0.500000 0.070043
O O6 0.188906 0.746856 0.057220
O O7 0.250000 0.750000 0.000000
O O8 0.885814 0.240950 0.904745
O O9 0.869079 0.000000 0.966523
O O10 0.934187 0.223380 0.079952
O O11 0.985872 0.252651 0.734377
O O12 0.946840 0.240921 0.830555
O O13 0.993115 0.000000 0.815639
O O14 0.555280 0.768512 0.441812
O O15 0.501974 0.000000 0.330403
O O16 0.914407 0.000000 0.864651
O O17 0.000000 0.823874 0.000000
O O18 0.500000 0.824524 0.500000
O O19 0.590676 0.000000 0.554741
#
# Coordination Sequence:
#
# PCOD9177515 Si02
#       7
#     8   8   8   8   8   8   8
#     4  10  20  32  45  62  85 115 151 184 213 251
#     4  11  23  34  44  63  90 119 151 183 213 249
#     4   9  17  30  47  65  87 118 152 181 212 253
#     4   9  16  27  45  68  91 115 145 179 214 255
#     4  10  19  29  43  66  93 116 140 175 220 264
#     4   7  12  25  44  64  86 112 143 179 215 253
#     4   8  16  30  45  62  85 112 141 175 218 265
#
# _framework density 15.673938
#
# number of rings (size 3 to 8) (size 9 to 14) (size 15 to 20)
#    0.000    2.857    0.000    4.714    0.000    9.429 
#    0.000    0.714    0.000    2.571    0.000    1.000 
#    0.000    0.000    0.000    0.000    0.000    0.000 
#
# Total GULP energy -155916.167612 kJ/mol
# GULP energy per Si atom -5568.434558 kJ/mol
# Density = 1.563826 g / cm^3
# Si number density = 15.673938 Si / 1000 Ang^3
#
#
#
# Elastic Constant Matrix: (Units=GPa)
#
#
# Indices 1 2 3 4 5 6 
#
# 1 106.1907 24.6299 68.8838 0.0000 -23.4306 0.0000
# 2 24.6299 23.7434 36.4942 0.0000 -2.9253 0.0000
# 3 68.8838 36.4942 138.3431 0.0000 -24.8765 0.0000
# 4 0.0000 0.0000 0.0000 24.1167 0.0000 -0.8400
# 5 -23.4306 -2.9253 -24.8765 0.0000 27.6876 0.0000
# 6 0.0000 0.0000 0.0000 -0.8400 0.0000 19.6257
#
#
#
# Elastic Compliance Matrix: (Units=1/GPa)
#
#
# Indices 1 2 3 4 5 6 
#
# 1 0.016211 -0.009799 -0.003824 0.000000 0.009247 0.000000
# 2 -0.009799 0.079743 -0.019241 0.000000 -0.017155 0.000000
# 3 -0.003824 -0.019241 0.015816 0.000000 0.008941 0.000000
# 4 0.000000 0.000000 0.000000 0.041527 0.000000 0.001777
# 5 0.009247 -0.017155 0.008941 0.000000 0.050164 0.000000
# 6 0.000000 0.000000 0.000000 0.001777 0.000000 0.051030
#
#
# Mechanical properties :
#
#
# Convention : Reuss Voigt Hill
#
# Bulk Modulus (GPa) = 21.71992 58.69921 40.20957
# Shear Modulus (GPa) = 14.90020 23.50395 19.20207
#
# Velocity S-wave (km/s) = 3.08658 3.87661 3.50393
# Velocity P-wave (km/s) = 5.15656 7.58742 6.48687
#
# Compressibility (1/GPa) = 0.04604068
#
# Stress axis : x y z
#
# Youngs Moduli (GPa) = 61.68760 12.54028 63.22761
#
# Poissons Ratio (x) = 0.12289 0.24177
# Poissons Ratio (y) = 0.60451 1.21658
# Poissons Ratio (z) = 0.23588 0.24129
#
# Static dielectric constant tensor:
#      x y z
#    x 1.517700 0.000000 -0.024800 
#    y 0.000000 1.531350 0.000000 
#    z -0.024800 0.000000 1.535650 
# 
# From -- ./inp_files/244332.got.cif
#   From: 2010.05.17/outbox.cif.g08.bks.cpg/sg12_123_cif.got.tgz:244332.got - 2010.06.03 13:09:07.
