data_PCOD9177023
_publ_section_title
;
Structure prediction by ZEFSAII (Michael W. Deem and Ramdas Pophale) SiO2 
 PCOD9177023
Probable space group: C 2/M
;
_chemical_formula_sum "Si O2"
_cell_formula_units_Z 38
_cell_length_a 11.455437
_cell_length_b 15.279760
_cell_length_c 8.212335
_cell_angle_alpha 90.000000
_cell_angle_beta 93.403150
_cell_angle_gamma 90.000000
_cell_volume 1434.922102
_symmetry_space_group_name_H-M "C 2/M"
_symmetry_group_IT_number 12
_symmetry_cell_setting 'monoclinic'
loop_
_space_group_symop_operation_xyz
x,y,z
-x,y,-z
-x,-y,-z
x,-y,z
1/2+x,1/2+y,z
1/2-x,1/2+y,-z
1/2-x,1/2-y,-z
1/2+x,1/2-y,z
loop_
_atom_site_type_symbol
_atom_site_label
_atom_site_fract_x
_atom_site_fract_y
_atom_site_fract_z
Si Si1 0.855738 0.165871 0.674093
Si Si2 0.000000 0.500000 0.000000
Si Si3 0.779884 0.629923 0.651790
Si Si4 0.363145 0.157294 0.167088
Si Si5 0.914046 0.853372 0.130230
Si Si6 0.500000 0.126935 0.500000
O O1 0.823543 0.269268 0.669141
O O2 0.808448 0.123338 0.505880
O O3 0.772156 0.134094 0.813616
O O4 0.990900 0.151392 0.715493
O O5 0.075351 0.577743 0.914647
O O6 0.705888 0.607251 0.806415
O O7 0.900561 0.585344 0.608081
O O8 0.383115 0.251524 0.085507
O O9 0.418010 0.170025 0.354355
O O10 0.000000 0.891582 0.000000
#
# Coordination Sequence:
#
# PCOD9177023 Si02
#       6
#     8   2   8   8   8   4
#     4   9  18  32  51  80 109 141 183 224 285 331
#     4  12  24  42  48  76 116 158 200 224 270 310
#     4   9  18  29  54  80 117 143 167 232 279 349
#     4  10  22  35  56  77 113 153 184 231 266 334
#     4  11  20  31  51  86 121 145 174 222 292 348
#     4  10  18  37  56  86 112 143 190 224 284 334
#
# _framework density 26.482272999999999
#
# number of rings (size 3 to 8) (size 9 to 14) (size 15 to 20)
#    0.000    2.105    3.158    1.895    0.000    5.474 
#    0.000    0.000    0.000    0.000    0.000   18.421 
#    0.000    0.000    0.000    0.000    0.000    0.000 
#
# Total GULP energy -105831.825120 kJ/mol
# GULP energy per Si atom -5570.096059 kJ/mol
# Density = 2.642200 g / cm^3
# Si number density = 26.482273 Si / 1000 Ang^3
#
#
#
# Elastic Constant Matrix: (Units=GPa)
#
#
# Indices 1 2 3 4 5 6 
#
# 1 206.3220 21.2869 71.9667 0.0000 -55.8625 0.0000
# 2 21.2869 90.9179 29.2253 0.0000 -29.2191 0.0000
# 3 71.9667 29.2253 96.6498 0.0000 -47.1755 0.0000
# 4 0.0000 0.0000 0.0000 -313.0604 0.0000 94.2939
# 5 -55.8625 -29.2191 -47.1755 0.0000 85.6318 0.0000
# 6 0.0000 0.0000 0.0000 94.2939 0.0000 -59.0088
#
#
#
# Elastic Compliance Matrix: (Units=1/GPa)
#
#
# Indices 1 2 3 4 5 6 
#
# 1 0.006873 0.000475 -0.004095 0.000000 0.002390 0.000000
# 2 0.000475 0.012770 -0.002650 0.000000 0.003208 0.000000
# 3 -0.004095 -0.002650 0.017032 0.000000 0.005807 0.000000
# 4 0.000000 0.000000 0.000000 -0.006158 0.000000 -0.009841
# 5 0.002390 0.003208 0.005807 0.000000 0.017531 0.000000
# 6 0.000000 0.000000 0.000000 -0.009841 0.000000 -0.032672
#
#
# Mechanical properties :
#
#
# Convention : Reuss Voigt Hill
#
# Bulk Modulus (GPa) = 41.43153 70.98308 56.20731
# Shear Modulus (GPa) = 139.04191 -39.19342 49.92424
#
# Velocity S-wave (km/s) = 7.25381 -3.85123 4.34659
# Velocity P-wave (km/s) = 9.26477 2.66199 6.81624
#
# Compressibility (1/GPa) = 0.02413621
#
# Stress axis : x y z
#
# Youngs Moduli (GPa) = 145.49197 78.30680 58.71405
#
# Poissons Ratio (x) = -0.03721 0.24044
# Poissons Ratio (y) = -0.06913 0.15557
# Poissons Ratio (z) = 0.59580 0.20748
#
# Static dielectric constant tensor:
#      x y z
#    x 2.058700 0.000000 0.010350 
#    y 0.000000 1.959960 0.000000 
#    z 0.010350 0.000000 2.176480 
# 
# From -- ./inp_files/47088.got.cif
#   From: 2010.05.17/outbox.cif.g08.bks.cpg/sg12_24_cif.got.tgz:47088.got - 2010.06.03 13:09:07.
