data_PCOD9177135
_publ_section_title
;
Structure prediction by ZEFSAII (Michael W. Deem and Ramdas Pophale) SiO2 
 PCOD9177135
Probable space group: C 2/M
;
_chemical_formula_sum "Si O2"
_cell_formula_units_Z 58
_cell_length_a 12.261642
_cell_length_b 16.503722
_cell_length_c 13.883553
_cell_angle_alpha 90.000000
_cell_angle_beta 75.306380
_cell_angle_gamma 90.000000
_cell_volume 2717.631372
_symmetry_space_group_name_H-M "C 2/M"
_symmetry_group_IT_number 12
_symmetry_cell_setting 'monoclinic'
loop_
_space_group_symop_operation_xyz
x,y,z
-x,y,-z
-x,-y,-z
x,-y,z
1/2+x,1/2+y,z
1/2-x,1/2+y,-z
1/2-x,1/2-y,-z
1/2+x,1/2-y,z
loop_
_atom_site_type_symbol
_atom_site_label
_atom_site_fract_x
_atom_site_fract_y
_atom_site_fract_z
Si Si1 0.805907 0.164351 0.016324
Si Si2 0.926465 0.624040 0.863150
Si Si3 0.580152 0.834118 0.353033
Si Si4 0.781509 0.832449 0.690284
Si Si5 0.679554 0.165779 0.523434
Si Si6 0.000000 0.500000 0.000000
Si Si7 0.422723 0.272514 0.179279
Si Si8 0.934731 0.091957 0.806018
O O1 0.698053 0.110022 0.067463
O O2 0.875516 0.184655 0.095665
O O3 0.750000 0.250000 0.000000
O O4 0.879034 0.121332 0.918664
O O5 0.918679 0.618389 0.748635
O O6 0.004415 0.569483 0.912792
O O7 0.971045 0.715501 0.866747
O O8 0.631856 0.743634 0.333454
O O9 0.449572 0.824434 0.411852
O O10 0.657219 0.870749 0.422223
O O11 0.747780 0.873308 0.596543
O O12 0.670319 0.787849 0.756787
O O13 0.836864 0.895334 0.750031
O O14 0.750000 0.250000 0.500000
O O15 0.464367 0.345112 0.237707
O O16 0.972495 0.000000 0.802979
#
# Coordination Sequence:
#
# PCOD9177135 Si02
#       8
#     8   8   8   8   8   2   8   8
#     4  12  22  38  61  87 119 174 220 264 327 401
#     4  12  24  41  61  92 130 167 225 271 335 392
#     4  10  18  38  61  97 127 163 216 277 327 402
#     4  11  19  38  65  94 127 176 217 265 334 408
#     4   9  19  31  65 100 125 156 217 276 329 398
#     4  12  32  40  64  98 124 176 228 296 312 390
#     4  12  21  40  67  86 129 181 216 269 339 400
#     4  12  27  40  61  98 134 171 229 285 333 395
#
# _framework density 21.342113000000001
#
# number of rings (size 3 to 8) (size 9 to 14) (size 15 to 20)
#    0.000    0.828    6.897    1.241    0.966    1.103 
#    0.000    0.000    1.517    0.828    0.000   32.828 
#    0.000    0.000    0.000    0.000    0.000    0.000 
#
# Total GULP energy -161492.774466 kJ/mol
# GULP energy per Si atom -5568.716361 kJ/mol
# Density = 2.129354 g / cm^3
# Si number density = 21.342113 Si / 1000 Ang^3
#
#
#
# Elastic Constant Matrix: (Units=GPa)
#
#
# Indices 1 2 3 4 5 6 
#
# 1 68.5024 9.2404 17.5561 0.0000 27.1091 0.0000
# 2 9.2404 74.8405 12.6385 0.0000 18.0075 0.0000
# 3 17.5561 12.6385 61.2257 0.0000 36.4318 0.0000
# 4 0.0000 0.0000 0.0000 2.7135 0.0000 -0.2503
# 5 27.1091 18.0075 36.4318 0.0000 52.1152 0.0000
# 6 0.0000 0.0000 0.0000 -0.2503 0.0000 3.0751
#
#
#
# Elastic Compliance Matrix: (Units=1/GPa)
#
#
# Indices 1 2 3 4 5 6 
#
# 1 0.018401 0.000033 0.000718 0.000000 -0.010085 0.000000
# 2 0.000033 0.014573 -0.000019 0.000000 -0.005040 0.000000
# 3 0.000718 -0.000019 0.027994 0.000000 -0.019936 0.000000
# 4 0.000000 0.000000 0.000000 0.371322 0.000000 0.030227
# 5 -0.010085 -0.005040 -0.019936 0.000000 0.040112 0.000000
# 6 0.000000 0.000000 0.000000 0.030227 0.000000 0.327656
#
#
# Mechanical properties :
#
#
# Convention : Reuss Voigt Hill
#
# Bulk Modulus (GPa) = 16.01738 31.49318 23.75528
# Shear Modulus (GPa) = 6.10199 22.58965 14.34582
#
# Velocity S-wave (km/s) = 1.69273 3.25692 2.59546
# Velocity P-wave (km/s) = 3.36776 5.37882 4.48740
#
# Compressibility (1/GPa) = 0.06243219
#
# Stress axis : x y z
#
# Youngs Moduli (GPa) = 54.34624 68.61794 35.72176
#
# Poissons Ratio (x) = -0.00230 -0.02564
# Poissons Ratio (y) = -0.00182 0.00068
# Poissons Ratio (z) = -0.03901 0.00131
#
# Static dielectric constant tensor:
#      x y z
#    x 1.872380 0.000000 0.000370 
#    y 0.000000 1.763430 0.000000 
#    z 0.000370 0.000000 1.862700 
# 
# From -- ./inp_files/206153.got.cif
#   From: 2010.05.17/outbox.cif.g08.bks.cpg/sg12_104_cif.got.tgz:206153.got - 2010.06.03 13:09:07.
