data_PCOD9177831
_publ_section_title
;
Structure prediction by ZEFSAII (Michael W. Deem and Ramdas Pophale) SiO2 
 PCOD9177831
Probable space group: C 2/M
;
_chemical_formula_sum "Si O2"
_cell_formula_units_Z 48
_cell_length_a 14.040283
_cell_length_b 9.396459
_cell_length_c 18.574612
_cell_angle_alpha 90.000000
_cell_angle_beta 62.677338
_cell_angle_gamma 90.000000
_cell_volume 2177.137528
_symmetry_space_group_name_H-M "C 2/M"
_symmetry_group_IT_number 12
_symmetry_cell_setting 'monoclinic'
loop_
_space_group_symop_operation_xyz
x,y,z
-x,y,-z
-x,-y,-z
x,-y,z
1/2+x,1/2+y,z
1/2-x,1/2+y,-z
1/2-x,1/2-y,-z
1/2+x,1/2-y,z
loop_
_atom_site_type_symbol
_atom_site_label
_atom_site_fract_x
_atom_site_fract_y
_atom_site_fract_z
Si Si1 0.185140 0.334594 0.250922
Si Si2 0.291491 0.843068 0.420704
Si Si3 0.905364 0.835315 0.269957
Si Si4 0.572783 0.339860 0.408828
Si Si5 0.538027 0.670030 0.096423
Si Si6 0.822376 0.170075 0.074813
O O1 0.152482 0.500000 0.254300
O O2 0.295456 0.336261 0.260464
O O3 0.098949 0.247648 0.327497
O O4 0.226677 0.274934 0.158993
O O5 0.250000 0.750000 0.500000
O O6 0.381493 0.759541 0.346536
O O7 0.189788 0.854915 0.403598
O O8 0.325482 0.000000 0.432045
O O9 0.999807 0.775175 0.186838
O O10 0.926533 0.000000 0.280768
O O11 0.500000 0.278896 0.500000
O O12 0.530654 0.500000 0.408035
O O13 0.555180 0.500000 0.098605
O O14 0.431054 0.684123 0.084662
O O15 0.637982 0.729509 0.016263
O O16 0.803463 0.000000 0.073380
#
# Coordination Sequence:
#
# PCOD9177831 Si02
#       6
#     8   8   8   8   8   8
#     4   8  13  21  35  55  77 101 130 164 197 229
#     4  10  19  30  44  60  80 106 135 168 203 239
#     4   8  13  22  36  54  76 102 132 162 193 231
#     4   9  18  31  44  58  79 108 138 166 199 240
#     4   7   9  14  27  47  71  99 127 154 184 223
#     4   7   9  14  26  47  73  98 125 155 187 223
#
# _framework density 22.047297
#
# number of rings (size 3 to 8) (size 9 to 14) (size 15 to 20)
#    0.000    3.833    0.000    3.500    0.000    1.000 
#    0.000    0.000    0.000    1.000    0.000    7.000 
#    0.000    1.333    0.000    2.667    0.000    6.000 
#
# Total GULP energy -133664.745703 kJ/mol
# GULP energy per Si atom -5569.364404 kJ/mol
# Density = 2.199712 g / cm^3
# Si number density = 22.047297 Si / 1000 Ang^3
#
#
#
# Elastic Constant Matrix: (Units=GPa)
#
#
# Indices 1 2 3 4 5 6 
#
# 1 61.9403 -1.6015 10.3181 0.0000 -20.2486 0.0000
# 2 -1.6015 67.9684 87.9061 0.0000 -6.4181 0.0000
# 3 10.3181 87.9061 298.4957 0.0000 -26.0293 0.0000
# 4 0.0000 0.0000 0.0000 21.9327 0.0000 -7.0455
# 5 -20.2486 -6.4181 -26.0293 0.0000 20.4644 0.0000
# 6 0.0000 0.0000 0.0000 -7.0455 0.0000 -1.2608
#
#
#
# Elastic Compliance Matrix: (Units=1/GPa)
#
#
# Indices 1 2 3 4 5 6 
#
# 1 0.024542 0.001937 0.000846 0.000000 0.025966 0.000000
# 2 0.001937 0.023965 -0.007088 0.000000 0.000416 0.000000
# 3 0.000846 -0.007088 0.005947 0.000000 0.006178 0.000000
# 4 0.000000 0.000000 0.000000 0.016312 0.000000 -0.091156
# 5 0.025966 0.000416 0.006178 0.000000 0.082546 0.000000
# 6 0.000000 0.000000 0.000000 -0.091156 0.000000 -0.283768
#
#
# Mechanical properties :
#
#
# Convention : Reuss Voigt Hill
#
# Bulk Modulus (GPa) = 21.81385 69.07222 45.44303
# Shear Modulus (GPa) = -46.92090 30.34605 -8.28742
#
# Velocity S-wave (km/s) = -4.61824 3.71402 -1.94090
# Velocity P-wave (km/s) = 4.30371 7.05614 3.95393
#
# Compressibility (1/GPa) = 0.04584244
#
# Stress axis : x y z
#
# Youngs Moduli (GPa) = 40.74591 41.72704 168.14850
#
# Poissons Ratio (x) = -0.08081 -0.14220
# Poissons Ratio (y) = -0.07891 1.19189
# Poissons Ratio (z) = -0.03446 0.29578
#
# Static dielectric constant tensor:
#      x y z
#    x 1.941470 0.000000 0.037610 
#    y 0.000000 1.795930 0.000000 
#    z 0.037610 0.000000 1.871000 
# 
# From -- ./inp_files/280059.got.cif
#   From: 2010.05.17/outbox.cif.g08.bks.cpg/sg12_141_cif.got.tgz:280059.got - 2010.06.03 13:09:07.
