data_PCOD9177506
_publ_section_title
;
Structure prediction by ZEFSAII (Michael W. Deem and Ramdas Pophale) SiO2 
 PCOD9177506
Probable space group: C 2/M
;
_chemical_formula_sum "Si O2"
_cell_formula_units_Z 56
_cell_length_a 23.075410
_cell_length_b 8.059628
_cell_length_c 22.007388
_cell_angle_alpha 90.000000
_cell_angle_beta 51.143671
_cell_angle_gamma 90.000000
_cell_volume 3187.242597
_symmetry_space_group_name_H-M "C 2/M"
_symmetry_group_IT_number 12
_symmetry_cell_setting 'monoclinic'
loop_
_space_group_symop_operation_xyz
x,y,z
-x,y,-z
-x,-y,-z
x,-y,z
1/2+x,1/2+y,z
1/2-x,1/2+y,-z
1/2-x,1/2-y,-z
1/2+x,1/2-y,z
loop_
_atom_site_type_symbol
_atom_site_label
_atom_site_fract_x
_atom_site_fract_y
_atom_site_fract_z
Si Si1 0.240311 0.298120 0.097240
Si Si2 0.871273 0.803555 0.936865
Si Si3 0.184983 0.698567 0.463777
Si Si4 0.505362 0.698659 0.229618
Si Si5 0.648861 0.300616 0.620013
Si Si6 0.079939 0.198041 0.424330
Si Si7 0.885192 0.697468 0.735060
O O1 0.239483 0.500000 0.092406
O O2 0.186561 0.224783 0.080519
O O3 0.197791 0.253678 0.187223
O O4 0.324228 0.241376 0.026054
O O5 0.948249 0.733611 0.858909
O O6 0.882469 0.000000 0.938529
O O7 0.186692 0.500000 0.465553
O O8 0.270392 0.761148 0.411023
O O9 0.144154 0.761015 0.551531
O O10 0.142147 0.751239 0.431894
O O11 0.499619 0.500000 0.225418
O O12 0.422894 0.765018 0.296932
O O13 0.555276 0.727702 0.256903
O O14 0.649019 0.500000 0.625983
O O15 0.098315 0.256350 0.344586
O O16 0.000000 0.263583 0.500000
O O17 0.075790 0.000000 0.425684
O O18 0.890898 0.500000 0.737749
#
# Coordination Sequence:
#
# PCOD9177506 Si02
#       7
#     8   8   8   8   8   8   8
#     4   8  14  24  37  57  86 115 142 174 210 248
#     4   8  13  22  38  59  84 115 145 171 205 251
#     4  10  20  33  49  67  87 114 147 181 217 256
#     4   9  16  27  44  66  92 120 147 175 211 256
#     4   9  18  32  48  67  91 116 143 178 217 255
#     4  11  23  36  48  63  86 115 146 181 219 259
#     4  10  19  29  43  65  92 119 147 180 216 255
#
# _framework density 17.570046999999999
#
# number of rings (size 3 to 8) (size 9 to 14) (size 15 to 20)
#    0.000    2.714    0.000    2.143    0.000    6.286 
#    0.000    0.000    0.000    0.000    0.000    1.000 
#    0.000    8.000    0.000    0.000    0.000    0.000 
#
# Total GULP energy -155887.519940 kJ/mol
# GULP energy per Si atom -5567.411426 kJ/mol
# Density = 1.753006 g / cm^3
# Si number density = 17.570047 Si / 1000 Ang^3
#
#
#
# Elastic Constant Matrix: (Units=GPa)
#
#
# Indices 1 2 3 4 5 6 
#
# 1 39.9859 -2.4772 37.2854 -0.0001 -9.9821 -0.0003
# 2 -2.4772 12.1497 5.6938 0.0002 -5.6230 -0.0005
# 3 37.2854 5.6938 170.4793 0.0000 -31.0017 0.0003
# 4 -0.0001 0.0002 0.0000 -4.4657 -0.0002 -8.1976
# 5 -9.9821 -5.6230 -31.0017 -0.0002 26.2653 0.0000
# 6 -0.0003 -0.0005 0.0003 -8.1976 0.0000 13.1942
#
#
#
# Elastic Compliance Matrix: (Units=1/GPa)
#
#
# Indices 1 2 3 4 5 6 
#
# 1 0.033856 0.013725 -0.006352 -0.000001 0.008307 0.000000
# 2 0.013725 0.096977 -0.001931 -0.000001 0.023698 0.000003
# 3 -0.006352 -0.001931 0.008665 0.000000 0.007400 0.000000
# 4 -0.000001 -0.000001 0.000000 -0.104614 -0.000001 -0.064997
# 5 0.008307 0.023698 0.007400 -0.000001 0.055038 0.000000
# 6 0.000000 0.000003 0.000000 -0.064997 0.000000 0.035408
#
#
# Mechanical properties :
#
#
# Convention : Reuss Voigt Hill
#
# Bulk Modulus (GPa) = 6.64978 33.73544 20.19261
# Shear Modulus (GPa) = 30.38114 19.13962 24.76038
#
# Velocity S-wave (km/s) = 4.16281 3.30408 3.75805
# Velocity P-wave (km/s) = 5.18635 5.81362 5.50892
#
# Compressibility (1/GPa) = 0.15038081
#
# Stress axis : x y z
#
# Youngs Moduli (GPa) = 29.53657 10.31172 115.40152
#
# Poissons Ratio (x) = -0.14152 0.73307
# Poissons Ratio (y) = -0.40538 0.22286
# Poissons Ratio (z) = 0.18763 0.01991
#
# Static dielectric constant tensor:
#      x y z
#    x 1.579790 0.000000 -0.044520 
#    y 0.000000 1.629970 0.000000 
#    z -0.044520 0.000000 1.678590 
# 
# From -- ./inp_files/295073.got.cif
#   From: 2010.05.17/outbox.cif.g08.bks.cpg/sg12_148_cif.got.tgz:295073.got - 2010.06.03 13:09:07.
