data_PCOD9177424
_publ_section_title
;
Structure prediction by ZEFSAII (Michael W. Deem and Ramdas Pophale) SiO2 
 PCOD9177424
Probable space group: C 2/M
;
_chemical_formula_sum "Si O2"
_cell_formula_units_Z 48
_cell_length_a 23.324213
_cell_length_b 7.389541
_cell_length_c 29.939803
_cell_angle_alpha 90.000000
_cell_angle_beta 28.660448
_cell_angle_gamma 90.000000
_cell_volume 2474.963301
_symmetry_space_group_name_H-M "C 2/M"
_symmetry_group_IT_number 12
_symmetry_cell_setting 'monoclinic'
loop_
_space_group_symop_operation_xyz
x,y,z
-x,y,-z
-x,-y,-z
x,-y,z
1/2+x,1/2+y,z
1/2-x,1/2+y,-z
1/2-x,1/2-y,-z
1/2+x,1/2-y,z
loop_
_atom_site_type_symbol
_atom_site_label
_atom_site_fract_x
_atom_site_fract_y
_atom_site_fract_z
Si Si1 0.207085 0.715817 0.478615
Si Si2 0.957449 0.713352 0.676009
Si Si3 0.890805 0.216266 0.906827
Si Si4 0.966594 0.220574 0.952112
Si Si5 0.958354 0.219185 0.280598
Si Si6 0.309494 0.720875 0.142902
O O1 0.199906 0.500000 0.476580
O O2 0.250000 0.750000 0.500000
O O3 0.319864 0.782127 0.372816
O O4 0.071589 0.788026 0.570620
O O5 0.952434 0.500000 0.669346
O O6 0.987854 0.729993 0.707942
O O7 0.825091 0.786775 0.758212
O O8 0.940245 0.284695 0.920358
O O9 0.961182 0.284872 0.815301
O O10 0.907799 0.000000 0.895490
O O11 0.750000 0.250000 0.000000
O O12 0.093800 0.275313 0.886010
O O13 0.965749 0.000000 0.952251
O O14 0.864538 0.275304 0.057355
O O15 0.956819 0.000000 0.281075
O O16 0.307079 0.500000 0.144365
#
# Coordination Sequence:
#
# PCOD9177424 Si02
#       6
#     8   8   8   8   8   8
#     4   8  14  24  37  55  79 103 127 157 193 229
#     4   9  15  24  42  63  78  98 133 169 192 219
#     4  10  19  29  42  59  80 106 132 158 191 234
#     4   8  14  24  37  55  78 101 126 158 196 231
#     4   9  17  27  38  56  84 110 126 151 198 243
#     4   8  13  22  38  58  76  95 126 167 197 219
#
# _framework density 19.394226
#
# number of rings (size 3 to 8) (size 9 to 14) (size 15 to 20)
#    0.000    3.333    0.000    2.000    0.000    2.000 
#    0.000    0.000    0.000    2.000    0.000   11.667 
#    0.000    0.000    0.000   26.000    0.000   19.667 
#
# Total GULP energy -133724.002342 kJ/mol
# GULP energy per Si atom -5571.833431 kJ/mol
# Density = 1.935008 g / cm^3
# Si number density = 19.394226 Si / 1000 Ang^3
#
#
#
# Elastic Constant Matrix: (Units=GPa)
#
#
# Indices 1 2 3 4 5 6 
#
# 1 65.8350 -6.5445 61.8687 -0.0077 -9.1434 0.0161
# 2 -6.5445 67.7243 0.1380 -0.0193 -1.7881 0.0049
# 3 61.8687 0.1380 201.9642 -0.0013 -27.2893 0.0000
# 4 -0.0077 -0.0193 -0.0013 4.1833 -0.0006 -1.0516
# 5 -9.1434 -1.7881 -27.2893 -0.0006 32.9998 -0.0046
# 6 0.0161 0.0049 0.0000 -1.0516 -0.0046 6.6377
#
#
#
# Elastic Compliance Matrix: (Units=1/GPa)
#
#
# Indices 1 2 3 4 5 6 
#
# 1 0.021640 0.002123 -0.006535 0.000036 0.000707 -0.000048
# 2 0.002123 0.014997 -0.000531 0.000072 0.000962 -0.000004
# 3 -0.006535 -0.000531 0.007549 -0.000007 0.004403 0.000018
# 4 0.000036 0.000072 -0.000007 0.248964 0.000018 0.039444
# 5 0.000707 0.000962 0.004403 0.000018 0.034192 0.000024
# 6 -0.000048 -0.000004 0.000018 0.039444 0.000024 0.156903
#
#
# Mechanical properties :
#
#
# Convention : Reuss Voigt Hill
#
# Bulk Modulus (GPa) = 29.15369 49.60533 39.37951
# Shear Modulus (GPa) = 9.88994 27.43492 18.66243
#
# Velocity S-wave (km/s) = 2.26064 3.76519 3.10541
# Velocity P-wave (km/s) = 4.67748 6.67346 5.76254
#
# Compressibility (1/GPa) = 0.03430098
#
# Stress axis : x y z
#
# Youngs Moduli (GPa) = 46.21054 66.67810 132.47548
#
# Poissons Ratio (x) = -0.14157 0.86574
# Poissons Ratio (y) = -0.09811 0.07030
# Poissons Ratio (z) = 0.30199 0.03538
#
# Static dielectric constant tensor:
#      x y z
#    x 1.634100 -0.000010 -0.018860 
#    y -0.000010 1.765570 0.000010 
#    z -0.018860 0.000010 1.718710 
# 
# From -- ./inp_files/164086.got.cif
#   From: 2010.05.17/outbox.cif.g08.bks.cpg/sg12_83_cif.got.tgz:164086.got - 2010.06.03 13:09:07.
