data_PCOD9177196
_publ_section_title
;
Structure prediction by ZEFSAII (Michael W. Deem and Ramdas Pophale) SiO2 
 PCOD9177196
Probable space group: C 2/M
;
_chemical_formula_sum "Si O2"
_cell_formula_units_Z 50
_cell_length_a 26.543164
_cell_length_b 17.872191
_cell_length_c 7.603902
_cell_angle_alpha 90.000000
_cell_angle_beta 38.851786
_cell_angle_gamma 90.000000
_cell_volume 2262.808437
_symmetry_space_group_name_H-M "C 2/M"
_symmetry_group_IT_number 12
_symmetry_cell_setting 'monoclinic'
loop_
_space_group_symop_operation_xyz
x,y,z
-x,y,-z
-x,-y,-z
x,-y,z
1/2+x,1/2+y,z
1/2-x,1/2+y,-z
1/2-x,1/2-y,-z
1/2+x,1/2-y,z
loop_
_atom_site_type_symbol
_atom_site_label
_atom_site_fract_x
_atom_site_fract_y
_atom_site_fract_z
Si Si1 0.212266 0.083390 0.486193
Si Si2 0.500000 0.500000 0.500000
Si Si3 0.938889 0.714359 0.867437
Si Si4 0.279974 0.224115 0.106446
Si Si5 0.035871 0.120182 0.098877
Si Si6 0.453220 0.916085 0.316378
Si Si7 0.680396 0.851272 0.532290
O O1 0.234131 0.148846 0.290357
O O2 0.284744 0.087554 0.429946
O O3 0.206563 0.000000 0.425393
O O4 0.130131 0.101954 0.811605
O O5 0.502349 0.564680 0.336973
O O6 0.874275 0.714653 0.885822
O O7 0.885434 0.697410 0.186070
O O8 0.976257 0.795347 0.798308
O O9 0.000658 0.646081 0.698025
O O10 0.251387 0.293781 0.302253
O O11 0.250000 0.250000 0.000000
O O12 0.000000 0.111990 0.000000
O O13 0.363597 0.888232 0.513272
O O14 0.453527 0.000000 0.389202
O O15 0.500000 0.919426 0.000000
#
# Coordination Sequence:
#
# PCOD9177196 Si02
#       7
#     8   2   8   8   8   8   8
#     4  11  22  41  68  93 131 184 234 294 366 427
#     4  12  30  44  64 102 146 176 256 310 356 444
#     4  10  20  40  66  92 134 182 230 279 356 437
#     4  11  23  40  64  99 134 180 239 293 350 434
#     4  12  24  45  66  98 139 192 236 303 369 424
#     4   9  18  33  63 102 127 161 220 282 343 421
#     4  10  18  39  65  96 130 174 227 285 344 437
#
# _framework density 22.096435
#
# number of rings (size 3 to 8) (size 9 to 14) (size 15 to 20)
#    0.000    1.440    4.000    3.120    0.000    5.120 
#    0.000    1.600    0.000    0.960    0.000    0.000 
#    0.000    0.000    0.000    0.000    0.000    0.160 
#
# Total GULP energy -139445.559034 kJ/mol
# GULP energy per Si atom -5577.822361 kJ/mol
# Density = 2.204614 g / cm^3
# Si number density = 22.096435 Si / 1000 Ang^3
#
#
#
# Elastic Constant Matrix: (Units=GPa)
#
#
# Indices 1 2 3 4 5 6 
#
# 1 134.0244 82.4028 31.1447 0.0000 0.1524 0.0000
# 2 82.4028 218.8008 43.1040 0.0000 -2.1649 0.0000
# 3 31.1447 43.1040 41.8638 0.0000 2.0331 0.0000
# 4 0.0000 0.0000 0.0000 1.2873 0.0000 -11.6119
# 5 0.1524 -2.1649 2.0331 0.0000 31.0092 0.0000
# 6 0.0000 0.0000 0.0000 -11.6119 0.0000 14.6416
#
#
#
# Elastic Compliance Matrix: (Units=1/GPa)
#
#
# Indices 1 2 3 4 5 6 
#
# 1 0.010381 -0.002995 -0.004642 0.000000 0.000044 0.000000
# 2 -0.002995 0.006617 -0.004622 0.000000 0.000780 0.000000
# 3 -0.004642 -0.004622 0.032217 0.000000 -0.002412 0.000000
# 4 0.000000 0.000000 0.000000 -0.126234 0.000000 -0.100113
# 5 0.000044 0.000780 -0.002412 0.000000 0.032461 0.000000
# 6 0.000000 0.000000 0.000000 -0.100113 0.000000 -0.011099
#
#
# Mechanical properties :
#
#
# Convention : Reuss Voigt Hill
#
# Bulk Modulus (GPa) = 40.49154 78.66578 59.57866
# Shear Modulus (GPa) = -218.26997 25.25679 -96.50659
#
# Velocity S-wave (km/s) = -9.94963 3.38453 -6.61589
# Velocity P-wave (km/s) = 10.65968 7.13806 5.59808
#
# Compressibility (1/GPa) = 0.02469652
#
# Stress axis : x y z
#
# Youngs Moduli (GPa) = 96.32748 151.13510 31.03972
#
# Poissons Ratio (x) = 0.45262 0.14408
# Poissons Ratio (y) = 0.28848 0.14348
# Poissons Ratio (z) = 0.44713 0.69862
#
# Static dielectric constant tensor:
#      x y z
#    x 1.849060 0.000000 0.014050 
#    y 0.000000 1.800050 0.000000 
#    z 0.014050 0.000000 1.848220 
# 
# From -- ./inp_files/105736.got.cif
#   From: 2010.05.17/outbox.cif.g08.bks.cpg/sg12_53_cif.got.tgz:105736.got - 2010.06.03 13:09:07.
