data_PCOD9177863
_publ_section_title
;
Structure prediction by ZEFSAII (Michael W. Deem and Ramdas Pophale) SiO2 
 PCOD9177863
Probable space group: C 2/M
;
_chemical_formula_sum "Si O2"
_cell_formula_units_Z 64
_cell_length_a 23.083547
_cell_length_b 9.103218
_cell_length_c 23.676865
_cell_angle_alpha 90.000000
_cell_angle_beta 125.387205
_cell_angle_gamma 90.000000
_cell_volume 4056.171355
_symmetry_space_group_name_H-M "C 2/M"
_symmetry_group_IT_number 12
_symmetry_cell_setting 'monoclinic'
loop_
_space_group_symop_operation_xyz
x,y,z
-x,y,-z
-x,-y,-z
x,-y,z
1/2+x,1/2+y,z
1/2-x,1/2+y,-z
1/2-x,1/2-y,-z
1/2+x,1/2-y,z
loop_
_atom_site_type_symbol
_atom_site_label
_atom_site_fract_x
_atom_site_fract_y
_atom_site_fract_z
Si Si1 0.584480 0.670814 0.372388
Si Si2 0.982739 0.324544 0.231127
Si Si3 0.424227 0.676793 0.931360
Si Si4 0.295808 0.668996 0.659443
Si Si5 0.101673 0.326163 0.202954
Si Si6 0.691379 0.823210 0.507827
Si Si7 0.658603 0.674892 0.892814
Si Si8 0.692985 0.324646 0.041671
O O1 0.570386 0.500000 0.376512
O O2 0.518069 0.751648 0.306279
O O3 0.645755 0.674915 0.358214
O O4 0.617774 0.754135 0.445012
O O5 0.978357 0.500000 0.235194
O O6 0.907292 0.255162 0.173316
O O7 0.036769 0.293468 0.209485
O O8 0.425428 0.500000 0.926064
O O9 0.411022 0.747354 0.863315
O O10 0.362235 0.714576 0.940613
O O11 0.500000 0.722505 0.000000
O O12 0.292555 0.500000 0.676873
O O13 0.326960 0.769496 0.726012
O O14 0.221264 0.708567 0.587454
O O15 0.104781 0.500000 0.196930
O O16 0.750000 0.750000 0.500000
O O17 0.691549 0.000000 0.500682
O O18 0.653856 0.500000 0.881985
O O19 0.733553 0.737060 0.913155
O O20 0.659376 0.704291 0.960860
O O21 0.707238 0.500000 0.052394
#
# Coordination Sequence:
#
# PCOD9177863 Si02
#       8
#     8   8   8   8   8   8   8   8
#     4   9  16  25  38  58  84 115 150 186 223 266
#     4  10  19  30  44  64  92 123 153 187 228 272
#     4  10  20  34  51  68  90 121 152 183 222 271
#     4   8  15  26  39  55  80 116 152 183 218 265
#     4  10  20  30  43  65  91 119 152 191 229 265
#     4   9  15  23  36  55  80 113 150 185 222 264
#     4  10  19  32  51  70  89 115 149 189 228 269
#     4   9  19  34  50  69  91 117 149 184 226 273
#
# _framework density 15.778427000000001
#
# number of rings (size 3 to 8) (size 9 to 14) (size 15 to 20)
#    0.000    2.625    0.000    3.375    0.000    7.250 
#    0.000    0.000    0.000    0.000    0.000    0.000 
#    0.000    1.000    0.000   10.500    0.000    7.625 
#
# Total GULP energy -178313.436759 kJ/mol
# GULP energy per Si atom -5572.294899 kJ/mol
# Density = 1.574251 g / cm^3
# Si number density = 15.778427 Si / 1000 Ang^3
#
#
#
# Elastic Constant Matrix: (Units=GPa)
#
#
# Indices 1 2 3 4 5 6 
#
# 1 44.1952 37.0964 50.9355 0.0000 8.6983 0.0000
# 2 37.0964 65.7487 73.1687 0.0000 12.2996 0.0000
# 3 50.9355 73.1687 159.1432 0.0000 23.8734 0.0000
# 4 0.0000 0.0000 0.0000 32.0456 0.0000 1.0166
# 5 8.6983 12.2996 23.8734 0.0000 19.4009 0.0000
# 6 0.0000 0.0000 0.0000 1.0166 0.0000 15.4902
#
#
#
# Elastic Compliance Matrix: (Units=1/GPa)
#
#
# Indices 1 2 3 4 5 6 
#
# 1 0.045350 -0.019261 -0.005447 0.000000 -0.001420 0.000000
# 2 -0.019261 0.039433 -0.011663 0.000000 -0.002011 0.000000
# 3 -0.005447 -0.011663 0.014611 0.000000 -0.008143 0.000000
# 4 0.000000 0.000000 0.000000 0.031271 0.000000 -0.002052
# 5 -0.001420 -0.002011 -0.008143 0.000000 0.063476 0.000000
# 6 0.000000 0.000000 0.000000 -0.002052 0.000000 0.064692
#
#
# Mechanical properties :
#
#
# Convention : Reuss Voigt Hill
#
# Bulk Modulus (GPa) = 37.51968 65.72091 51.62030
# Shear Modulus (GPa) = 14.68613 20.57977 17.63295
#
# Velocity S-wave (km/s) = 3.05417 3.61542 3.34658
# Velocity P-wave (km/s) = 6.02229 7.69228 6.90794
#
# Compressibility (1/GPa) = 0.02665268
#
# Stress axis : x y z
#
# Youngs Moduli (GPa) = 22.05054 25.35975 68.44209
#
# Poissons Ratio (x) = 0.48844 0.37277
# Poissons Ratio (y) = 0.42471 0.79827
# Poissons Ratio (z) = 0.12010 0.29578
#
# Static dielectric constant tensor:
#      x y z
#    x 1.504120 0.000000 0.010550 
#    y 0.000000 1.522800 0.000000 
#    z 0.010550 0.000000 1.537240 
# 
# From -- ./inp_files/323793.got.cif
#   From: 2010.05.17/outbox.cif.g08.bks.cpg/sg12_162_cif.got.tgz:323793.got - 2010.06.03 13:09:07.
