data_PCOD9177340
_publ_section_title
;
Structure prediction by ZEFSAII (Michael W. Deem and Ramdas Pophale) SiO2 
 PCOD9177340
Probable space group: C 2/M
;
_chemical_formula_sum "Si O2"
_cell_formula_units_Z 52
_cell_length_a 8.361302
_cell_length_b 31.591123
_cell_length_c 19.322126
_cell_angle_alpha 90.000000
_cell_angle_beta 141.251079
_cell_angle_gamma 90.000000
_cell_volume 3194.514998
_symmetry_space_group_name_H-M "C 2/M"
_symmetry_group_IT_number 12
_symmetry_cell_setting 'monoclinic'
loop_
_space_group_symop_operation_xyz
x,y,z
-x,y,-z
-x,-y,-z
x,-y,z
1/2+x,1/2+y,z
1/2-x,1/2+y,-z
1/2-x,1/2-y,-z
1/2+x,1/2-y,z
loop_
_atom_site_type_symbol
_atom_site_label
_atom_site_fract_x
_atom_site_fract_y
_atom_site_fract_z
Si Si1 0.922093 0.367388 0.806430
Si Si2 0.697245 0.951881 0.168018
Si Si3 0.782432 0.298204 0.869229
Si Si4 0.750788 0.269205 0.263480
Si Si5 0.611277 0.547920 0.915955
Si Si6 0.246968 0.306592 0.371240
Si Si7 0.000000 0.108754 0.000000
O O1 0.813406 0.414719 0.779596
O O2 0.826272 0.340121 0.839299
O O3 0.825245 0.344183 0.705293
O O4 0.231923 0.366783 0.913900
O O5 0.872634 0.941526 0.160134
O O6 0.756355 0.000000 0.210930
O O7 0.406102 0.952635 0.041024
O O8 0.500590 0.296429 0.806365
O O9 0.798456 0.258583 0.822013
O O10 0.000000 0.294826 0.000000
O O11 0.787897 0.235368 0.337717
O O12 0.003994 0.296334 0.337220
O O13 0.511036 0.500000 0.889598
O O14 0.477731 0.579777 0.923554
O O15 0.500000 0.315143 0.500000
#
# Coordination Sequence:
#
# PCOD9177340 Si02
#       7
#     8   8   8   8   8   8   4
#     4  10  22  30  47  76 101 136 170 203 260 295
#     4   8  15  29  45  65  97 134 170 202 244 300
#     4  10  20  32  51  72 108 133 161 199 247 317
#     4   9  20  36  53  76  93 133 172 204 258 297
#     4   8  14  25  44  65  92 132 167 201 243 293
#     4  10  20  37  55  74 100 128 174 220 251 294
#     4  10  19  28  42  70 110 128 162 204 250 308
#
# _framework density 16.277901
#
# number of rings (size 3 to 8) (size 9 to 14) (size 15 to 20)
#    0.000    2.769    0.000    2.077    6.462    0.615 
#    2.769    0.000    0.000    0.462    0.000    0.000 
#    0.000    3.692    0.000    0.000    0.000    0.000 
#
# Total GULP energy -144886.540458 kJ/mol
# GULP energy per Si atom -5572.559248 kJ/mol
# Density = 1.624085 g / cm^3
# Si number density = 16.277901 Si / 1000 Ang^3
#
#
#
# Elastic Constant Matrix: (Units=GPa)
#
#
# Indices 1 2 3 4 5 6 
#
# 1 99.5190 49.0942 47.9264 0.0000 20.1666 0.0000
# 2 49.0942 81.5853 44.5684 0.0000 10.0248 0.0000
# 3 47.9264 44.5684 93.5464 0.0000 5.9953 0.0000
# 4 0.0000 0.0000 0.0000 6.4097 0.0000 1.8563
# 5 20.1666 10.0248 5.9953 0.0000 15.0676 0.0000
# 6 0.0000 0.0000 0.0000 1.8563 0.0000 17.3275
#
#
#
# Elastic Compliance Matrix: (Units=1/GPa)
#
#
# Indices 1 2 3 4 5 6 
#
# 1 0.020236 -0.006377 -0.006019 0.000000 -0.020447 0.000000
# 2 -0.006377 0.019599 -0.005933 0.000000 -0.002144 0.000000
# 3 -0.006019 -0.005933 0.016245 0.000000 0.005540 0.000000
# 4 0.000000 0.000000 0.000000 0.161008 0.000000 -0.017249
# 5 -0.020447 -0.002144 0.005540 0.000000 0.092956 0.000000
# 6 0.000000 0.000000 0.000000 -0.017249 0.000000 0.059560
#
#
# Mechanical properties :
#
#
# Convention : Reuss Voigt Hill
#
# Bulk Modulus (GPa) = 51.48652 61.98096 56.73374
# Shear Modulus (GPa) = 12.11430 16.63175 14.37303
#
# Velocity S-wave (km/s) = 2.73099 3.19993 2.97472
# Velocity P-wave (km/s) = 6.45312 7.19807 6.83575
#
# Compressibility (1/GPa) = 0.01942256
#
# Stress axis : x y z
#
# Youngs Moduli (GPa) = 49.41702 51.02323 61.55612
#
# Poissons Ratio (x) = 0.32535 0.37051
# Poissons Ratio (y) = 0.31511 0.36522
# Poissons Ratio (z) = 0.29744 0.30273
#
# Static dielectric constant tensor:
#      x y z
#    x 1.576910 0.000000 -0.000800 
#    y 0.000000 1.570840 0.000000 
#    z -0.000800 0.000000 1.496550 
# 
# From -- ./inp_files/124813.got.cif
#   From: 2010.05.17/outbox.cif.g08.bks.cpg/sg12_63_cif.got.tgz:124813.got - 2010.06.03 13:09:07.
