data_PCOD9177110
_publ_section_title
;
Structure prediction by ZEFSAII (Michael W. Deem and Ramdas Pophale) SiO2 
 PCOD9177110
Probable space group: C 2/M
;
_chemical_formula_sum "Si O2"
_cell_formula_units_Z 48
_cell_length_a 14.286231
_cell_length_b 11.097978
_cell_length_c 23.623041
_cell_angle_alpha 90.000000
_cell_angle_beta 141.193693
_cell_angle_gamma 90.000000
_cell_volume 2347.198483
_symmetry_space_group_name_H-M "C 2/M"
_symmetry_group_IT_number 12
_symmetry_cell_setting 'monoclinic'
loop_
_space_group_symop_operation_xyz
x,y,z
-x,y,-z
-x,-y,-z
x,-y,z
1/2+x,1/2+y,z
1/2-x,1/2+y,-z
1/2-x,1/2-y,-z
1/2+x,1/2-y,z
loop_
_atom_site_type_symbol
_atom_site_label
_atom_site_fract_x
_atom_site_fract_y
_atom_site_fract_z
Si Si1 0.079384 0.000000 0.598331
Si Si2 0.924414 0.762442 0.096734
Si Si3 0.391863 0.785330 0.604448
Si Si4 0.415584 0.771879 0.400333
Si Si5 0.085409 0.142719 0.276979
Si Si6 0.581446 0.000000 0.878544
Si Si7 0.556854 0.500000 0.962151
Si Si8 0.878028 0.500000 0.682613
O O1 0.048135 0.865046 0.603945
O O2 0.256058 0.000000 0.673949
O O3 0.000000 0.000000 0.500000
O O4 0.976889 0.622738 0.119195
O O5 0.957732 0.802831 0.176715
O O6 0.750000 0.750000 0.000000
O O7 0.990476 0.873056 0.090356
O O8 0.250000 0.750000 0.500000
O O9 0.513014 0.841102 0.618653
O O10 0.437297 0.678502 0.668488
O O11 0.350393 0.886984 0.630115
O O12 0.500000 0.791179 0.500000
O O13 0.243708 0.802693 0.329843
O O14 0.090897 0.000000 0.273417
O O15 0.762375 0.000000 0.960739
O O16 0.530693 0.000000 0.788895
O O17 0.500000 0.500000 0.000000
#
# Coordination Sequence:
#
# PCOD9177110 Si02
#       8
#     4   8   8   8   8   4   4   4
#     4  10  18  38  59  77 116 163 216 264 306 377
#     4  10  21  43  69  95 128 174 216 272 336 400
#     4  12  25  40  62  93 130 178 225 272 327 395
#     4  11  23  40  60  91 129 176 221 270 327 388
#     4  12  25  43  65  96 134 174 223 276 338 398
#     4  10  20  40  69  90 122 173 218 266 326 392
#     4  10  22  40  68 100 138 167 210 263 333 399
#     4  12  22  40  62  87 123 166 231 264 322 389
#
# _framework density 20.449911
#
# number of rings (size 3 to 8) (size 9 to 14) (size 15 to 20)
#    0.000    1.000    5.833    1.000    3.500    1.667 
#    0.000    0.417    0.000    0.000    0.000    0.000 
#    0.000    0.000    0.000    0.000    0.000    0.000 
#
# Total GULP energy -133720.057858 kJ/mol
# GULP energy per Si atom -5571.669077 kJ/mol
# Density = 2.040337 g / cm^3
# Si number density = 20.449911 Si / 1000 Ang^3
#
#
#
# Elastic Constant Matrix: (Units=GPa)
#
#
# Indices 1 2 3 4 5 6 
#
# 1 86.0097 8.6581 26.0828 0.0000 -18.1406 0.0000
# 2 8.6581 156.7409 32.9604 0.0000 -18.4980 0.0000
# 3 26.0828 32.9604 132.2015 0.0000 -11.2748 0.0000
# 4 0.0000 0.0000 0.0000 23.2352 0.0000 -1.3143
# 5 -18.1406 -18.4980 -11.2748 0.0000 25.5592 0.0000
# 6 0.0000 0.0000 0.0000 -1.3143 0.0000 16.9390
#
#
#
# Elastic Compliance Matrix: (Units=1/GPa)
#
#
# Indices 1 2 3 4 5 6 
#
# 1 0.014265 0.000823 -0.002188 0.000000 0.009755 0.000000
# 2 0.000823 0.007267 -0.001534 0.000000 0.005167 0.000000
# 3 -0.002188 -0.001534 0.008470 0.000000 0.001074 0.000000
# 4 0.000000 0.000000 0.000000 0.043228 0.000000 0.003354
# 5 0.009755 0.005167 0.001074 0.000000 0.050262 0.000000
# 6 0.000000 0.000000 0.000000 0.003354 0.000000 0.059296
#
#
# Mechanical properties :
#
#
# Convention : Reuss Voigt Hill
#
# Bulk Modulus (GPa) = 41.31306 56.70608 49.00957
# Shear Modulus (GPa) = 25.42585 33.63007 29.52796
#
# Velocity S-wave (km/s) = 3.52990 4.05965 3.80401
# Velocity P-wave (km/s) = 6.07121 7.05435 6.58116
#
# Compressibility (1/GPa) = 0.02420542
#
# Stress axis : x y z
#
# Youngs Moduli (GPa) = 70.10357 137.61308 118.06755
#
# Poissons Ratio (x) = -0.11330 0.25829
# Poissons Ratio (y) = -0.05772 0.18106
# Poissons Ratio (z) = 0.15336 0.21103
#
# Static dielectric constant tensor:
#      x y z
#    x 1.720020 0.000000 0.027870 
#    y 0.000000 2.023080 0.000000 
#    z 0.027870 0.000000 1.745460 
# 
# From -- ./inp_files/212719.got.cif
#   From: 2010.05.17/outbox.cif.g08.bks.cpg/sg12_107_cif.got.tgz:212719.got - 2010.06.03 13:09:07.
