data_PCOD9177149
_publ_section_title
;
Structure prediction by ZEFSAII (Michael W. Deem and Ramdas Pophale) SiO2 
 PCOD9177149
Probable space group: C 2/M
;
_chemical_formula_sum "Si O2"
_cell_formula_units_Z 60
_cell_length_a 14.966945
_cell_length_b 20.889143
_cell_length_c 9.262419
_cell_angle_alpha 90.000000
_cell_angle_beta 66.816446
_cell_angle_gamma 90.000000
_cell_volume 2662.018569
_symmetry_space_group_name_H-M "C 2/M"
_symmetry_group_IT_number 12
_symmetry_cell_setting 'monoclinic'
loop_
_space_group_symop_operation_xyz
x,y,z
-x,y,-z
-x,-y,-z
x,-y,z
1/2+x,1/2+y,z
1/2-x,1/2+y,-z
1/2-x,1/2-y,-z
1/2+x,1/2-y,z
loop_
_atom_site_type_symbol
_atom_site_label
_atom_site_fract_x
_atom_site_fract_y
_atom_site_fract_z
Si Si1 0.912347 0.835115 0.452383
Si Si2 0.422579 0.574750 0.169575
Si Si3 0.737519 0.428414 0.386565
Si Si4 0.293455 0.105796 0.677771
Si Si5 0.550886 0.213257 0.710539
Si Si6 0.392225 0.881531 0.083458
Si Si7 0.831673 0.706302 0.875117
Si Si8 0.500000 0.110272 0.500000
O O1 0.935188 0.883990 0.307064
O O2 0.837571 0.872561 0.601278
O O3 0.883264 0.769560 0.393174
O O4 0.000000 0.817667 0.500000
O O5 0.440661 0.500000 0.187965
O O6 0.309298 0.581284 0.192050
O O7 0.500000 0.596074 0.000000
O O8 0.696278 0.500000 0.422544
O O9 0.773895 0.406809 0.521078
O O10 0.822421 0.426380 0.217344
O O11 0.304451 0.177580 0.735633
O O12 0.402854 0.076838 0.623594
O O13 0.592297 0.182459 0.828984
O O14 0.439511 0.237348 0.804830
O O15 0.537968 0.156378 0.603499
O O16 0.500000 0.909100 0.000000
O O17 0.347558 0.857417 0.962641
O O18 0.750000 0.750000 0.000000
#
# Coordination Sequence:
#
# PCOD9177149 Si02
#       8
#     8   8   8   8   8   8   8   4
#     4  11  24  38  66  96 128 165 217 263 322 384
#     4  10  24  44  64  88 128 175 221 268 316 377
#     4  11  25  44  67  92 128 176 228 272 319 378
#     4  10  21  40  66  90 130 164 214 270 319 380
#     4  10  21  38  61  93 131 163 203 257 329 396
#     4  10  23  43  65  92 132 171 209 271 334 386
#     4  10  24  37  62  98 133 165 209 260 328 406
#     4  10  18  38  63  96 125 160 206 262 312 398
#
# _framework density 22.539287000000002
#
# number of rings (size 3 to 8) (size 9 to 14) (size 15 to 20)
#    0.000    1.733    2.000    1.600    7.467    2.400 
#    0.000    4.000    0.000    0.000    0.000    0.000 
#    0.000    0.000    0.000    0.000    0.000    0.000 
#
# Total GULP energy -167350.486291 kJ/mol
# GULP energy per Si atom -5578.349543 kJ/mol
# Density = 2.248799 g / cm^3
# Si number density = 22.539287 Si / 1000 Ang^3
#
#
#
# Elastic Constant Matrix: (Units=GPa)
#
#
# Indices 1 2 3 4 5 6 
#
# 1 47.8653 4.4552 22.7712 0.0000 -21.3062 0.0000
# 2 4.4552 50.8817 13.1049 0.0000 -1.8328 0.0000
# 3 22.7712 13.1049 96.3898 0.0000 -27.7904 0.0000
# 4 0.0000 0.0000 0.0000 27.8211 0.0000 15.5877
# 5 -21.3062 -1.8328 -27.7904 0.0000 44.2590 0.0000
# 6 0.0000 0.0000 0.0000 15.5877 0.0000 19.0651
#
#
#
# Elastic Compliance Matrix: (Units=1/GPa)
#
#
# Indices 1 2 3 4 5 6 
#
# 1 0.027475 -0.001206 -0.003087 0.000000 0.011238 0.000000
# 2 -0.001206 0.020463 -0.002955 0.000000 -0.001589 0.000000
# 3 -0.003087 -0.002955 0.013483 0.000000 0.006858 0.000000
# 4 0.000000 0.000000 0.000000 0.066329 0.000000 -0.054231
# 5 0.011238 -0.001589 0.006858 0.000000 0.032245 0.000000
# 6 0.000000 0.000000 0.000000 -0.054231 0.000000 0.096792
#
#
# Mechanical properties :
#
#
# Convention : Reuss Voigt Hill
#
# Bulk Modulus (GPa) = 21.31055 30.64440 25.97747
# Shear Modulus (GPa) = 17.42628 28.54939 22.98783
#
# Velocity S-wave (km/s) = 2.78358 3.56286 3.19705
# Velocity P-wave (km/s) = 4.45044 5.52728 5.01783
#
# Compressibility (1/GPa) = 0.04692512
#
# Stress axis : x y z
#
# Youngs Moduli (GPa) = 36.39647 48.86882 74.16945
#
# Poissons Ratio (x) = 0.05893 0.22893
# Poissons Ratio (y) = 0.04389 0.21919
# Poissons Ratio (z) = 0.11234 0.14442
#
# Static dielectric constant tensor:
#      x y z
#    x 1.914930 0.000000 -0.054140 
#    y 0.000000 1.837100 0.000000 
#    z -0.054140 0.000000 1.878340 
# 
# From -- ./inp_files/65843.got.cif
#   From: 2010.05.17/outbox.cif.g08.bks.cpg/sg12_33_cif.got.tgz:65843.got - 2010.06.03 13:09:07.
