data_PCOD9177176
_publ_section_title
;
Structure prediction by ZEFSAII (Michael W. Deem and Ramdas Pophale) SiO2 
 PCOD9177176
Probable space group: C 2/M
;
_chemical_formula_sum "Si O2"
_cell_formula_units_Z 44
_cell_length_a 12.382095
_cell_length_b 20.529284
_cell_length_c 13.006314
_cell_angle_alpha 90.000000
_cell_angle_beta 148.033066
_cell_angle_gamma 90.000000
_cell_volume 1750.372646
_symmetry_space_group_name_H-M "C 2/M"
_symmetry_group_IT_number 12
_symmetry_cell_setting 'monoclinic'
loop_
_space_group_symop_operation_xyz
x,y,z
-x,y,-z
-x,-y,-z
x,-y,z
1/2+x,1/2+y,z
1/2-x,1/2+y,-z
1/2-x,1/2-y,-z
1/2+x,1/2-y,z
loop_
_atom_site_type_symbol
_atom_site_label
_atom_site_fract_x
_atom_site_fract_y
_atom_site_fract_z
Si Si1 0.029072 0.000000 0.286096
Si Si2 0.769309 0.500000 0.268290
Si Si3 0.736513 0.500000 0.653323
Si Si4 0.523457 0.639946 0.740747
Si Si5 0.276678 0.368075 0.899122
Si Si6 0.882310 0.363969 0.724214
Si Si7 0.289749 0.264469 0.266295
O O1 0.908116 0.064755 0.216517
O O2 0.115885 0.000000 0.241617
O O3 0.223953 0.000000 0.518268
O O4 0.732021 0.435652 0.169635
O O5 0.000000 0.500000 0.500000
O O6 0.500000 0.500000 0.500000
O O7 0.838841 0.430055 0.754737
O O8 0.302928 0.643887 0.508415
O O9 0.661973 0.690857 0.793614
O O10 0.533669 0.645629 0.871265
O O11 0.256871 0.307146 0.808779
O O12 0.085699 0.368214 0.823040
O O13 0.867624 0.302212 0.787617
O O14 0.500000 0.263027 0.500000
#
# Coordination Sequence:
#
# PCOD9177176 Si02
#       7
#     4   4   4   8   8   8   8
#     4  10  21  39  66  94 129 166 202 262 323 368
#     4  12  25  43  65  96 131 171 218 264 319 382
#     4  10  18  38  69  96 127 166 209 257 314 378
#     4  10  22  42  64  96 130 163 213 267 320 385
#     4  12  25  42  66  95 128 170 221 265 316 389
#     4  10  22  42  67  94 128 170 211 266 330 380
#     4  10  23  42  64  93 129 168 213 266 323 387
#
# _framework density 25.137504
#
# number of rings (size 3 to 8) (size 9 to 14) (size 15 to 20)
#    0.000    1.455    0.000    7.091    0.000    6.545 
#    0.000    5.455    0.000    7.636    0.000    0.000 
#    0.000    0.000    0.000    0.000    0.000    0.000 
#
# Total GULP energy -123231.621511 kJ/mol
# GULP energy per Si atom -5601.437341 kJ/mol
# Density = 2.508029 g / cm^3
# Si number density = 25.137504 Si / 1000 Ang^3
#
#
#
# Elastic Constant Matrix: (Units=GPa)
#
#
# Indices 1 2 3 4 5 6 
#
# 1 142.7962 87.9596 33.1337 0.0016 -10.8555 -0.0055
# 2 87.9596 240.8510 48.0976 0.0028 -28.1803 -0.0102
# 3 33.1337 48.0976 123.0768 -0.0113 -20.4183 0.0412
# 4 0.0016 0.0028 -0.0113 482.0715 -0.0073-1652.2462
# 5 -10.8555 -28.1803 -20.4183 -0.0073 43.1898 0.0268
# 6 -0.0055 -0.0102 0.0412-1652.2462 0.0268 5900.1056
#
#
#
# Elastic Compliance Matrix: (Units=1/GPa)
#
#
# Indices 1 2 3 4 5 6 
#
# 1 0.009218 -0.003146 -0.001311 0.000000 -0.000356 0.000000
# 2 -0.003146 0.005795 -0.001000 0.000000 0.002518 0.000000
# 3 -0.001311 -0.001000 0.009447 0.000000 0.003484 0.000000
# 4 0.000000 0.000000 0.000000 0.051595 0.000000 0.014448
# 5 -0.000356 0.002518 0.003484 0.000000 0.026354 0.000000
# 6 0.000000 0.000000 0.000000 0.014448 0.000000 0.004216
#
#
# Mechanical properties :
#
#
# Convention : Reuss Voigt Hill
#
# Bulk Modulus (GPa) = 73.82632 93.90067 83.86349
# Shear Modulus (GPa) = 40.96531 1307.57558 674.27045
#
# Velocity S-wave (km/s) = 4.04127 22.83196 16.39558
# Velocity P-wave (km/s) = 7.15602 27.06475 19.79532
#
# Compressibility (1/GPa) = 0.01354531
#
# Stress axis : x y z
#
# Youngs Moduli (GPa) = 108.48056 172.55415 105.85618
#
# Poissons Ratio (x) = 0.54291 0.13879
# Poissons Ratio (y) = 0.34132 0.10586
# Poissons Ratio (z) = 0.14223 0.17256
#
# Static dielectric constant tensor:
#      x y z
#    x 1.950170 0.000000 -0.020520 
#    y 0.000000 1.996130 0.000000 
#    z -0.020520 0.000000 2.052900 
# 
# From -- ./inp_files/136133.got.cif
#   From: 2010.05.17/outbox.cif.g08.bks.cpg/sg12_69_cif.got.tgz:136133.got - 2010.06.03 13:09:07.
