data_PCOD9177837
_publ_section_title
;
Structure prediction by ZEFSAII (Michael W. Deem and Ramdas Pophale) SiO2 
 PCOD9177837
Probable space group: C 2/M
;
_chemical_formula_sum "Si O2"
_cell_formula_units_Z 24
_cell_length_a 8.884834
_cell_length_b 27.198766
_cell_length_c 6.310702
_cell_angle_alpha 90.000000
_cell_angle_beta 35.403800
_cell_angle_gamma 90.000000
_cell_volume 883.499143
_symmetry_space_group_name_H-M "C 2/M"
_symmetry_group_IT_number 12
_symmetry_cell_setting 'monoclinic'
loop_
_space_group_symop_operation_xyz
x,y,z
-x,y,-z
-x,-y,-z
x,-y,z
1/2+x,1/2+y,z
1/2-x,1/2+y,-z
1/2-x,1/2-y,-z
1/2+x,1/2-y,z
loop_
_atom_site_type_symbol
_atom_site_label
_atom_site_fract_x
_atom_site_fract_y
_atom_site_fract_z
Si Si1 0.398800 0.153046 0.363429
Si Si2 0.716470 0.554050 0.433070
Si Si3 0.597601 0.301234 0.152187
O O1 0.250382 0.101067 0.543450
O O2 0.180331 0.195597 0.647213
O O3 0.500000 0.157261 0.000000
O O4 0.676736 0.159251 0.158330
O O5 0.500000 0.562635 0.500000
O O6 0.662874 0.500000 0.589918
O O7 0.000000 0.550883 0.000000
O O8 0.500000 0.313217 0.500000
O O9 0.750000 0.250000 0.000000
#
# Coordination Sequence:
#
# PCOD9177837 Si02
#       3
#     8   8   8
#     4   9  16  27  41  59  84 112 138 169 211 251
#     4   9  15  23  37  58  84 112 138 165 205 257
#     4  10  19  30  44  61  84 112 143 176 210 248
#
# _framework density 27.164712999999999
#
# number of rings (size 3 to 8) (size 9 to 14) (size 15 to 20)
#    0.000    2.667    0.000    6.000    0.000    0.000 
#    0.000    0.000    0.000    0.000    0.000    0.000 
#    0.000    8.000    0.000    0.000    0.000    4.000 
#
# Total GULP energy -67061.139493 kJ/mol
# GULP energy per Si atom -5588.428291 kJ/mol
# Density = 2.710289 g / cm^3
# Si number density = 27.164713 Si / 1000 Ang^3
#
#
#
# Elastic Constant Matrix: (Units=GPa)
#
#
# Indices 1 2 3 4 5 6 
#
# 1 128.0290 40.2521 50.6871 0.0000 -80.0083 0.0000
# 2 40.2521 229.1635 74.5930 0.0000 -43.3492 0.0000
# 3 50.6871 74.5930 187.2990 0.0000 -38.2064 0.0000
# 4 0.0000 0.0000 0.0000 29.1984 0.0000 -14.4367
# 5 -80.0083 -43.3492 -38.2064 0.0000 62.4856 0.0000
# 6 0.0000 0.0000 0.0000 -14.4367 0.0000 43.5990
#
#
#
# Elastic Compliance Matrix: (Units=1/GPa)
#
#
# Indices 1 2 3 4 5 6 
#
# 1 0.041287 0.003520 -0.001477 0.000000 0.054404 0.000000
# 2 0.003520 0.005706 -0.001712 0.000000 0.007419 0.000000
# 3 -0.001477 -0.001712 0.006618 0.000000 0.000967 0.000000
# 4 0.000000 0.000000 0.000000 0.040953 0.000000 0.013561
# 5 0.054404 0.007419 0.000967 0.000000 0.091403 0.000000
# 6 0.000000 0.000000 0.000000 0.013561 0.000000 0.027427
#
#
# Mechanical properties :
#
#
# Convention : Reuss Voigt Hill
#
# Bulk Modulus (GPa) = 18.42523 97.28399 57.85461
# Shear Modulus (GPa) = 21.66160 52.32056 36.99108
#
# Velocity S-wave (km/s) = 2.82692 4.39344 3.69417
# Velocity P-wave (km/s) = 4.17766 7.85027 6.28807
#
# Compressibility (1/GPa) = 0.05427340
#
# Stress axis : x y z
#
# Youngs Moduli (GPa) = 24.22042 175.25500 151.10618
#
# Poissons Ratio (x) = -0.61692 0.22325
# Poissons Ratio (y) = -0.08526 0.25864
# Poissons Ratio (z) = 0.03578 0.29997
#
# Static dielectric constant tensor:
#      x y z
#    x 2.505660 0.000000 0.172080 
#    y 0.000000 2.173200 0.000000 
#    z 0.172080 0.000000 2.127490 
# 
# From -- ./inp_files/3010.got.cif
#   From: 2010.05.17/outbox.cif.g08.bks.cpg/sg12_2_cif.got.tgz:3010.got - 2010.06.03 13:09:07.
