data_PCOD9177136
_publ_section_title
;
Structure prediction by ZEFSAII (Michael W. Deem and Ramdas Pophale) SiO2 
 PCOD9177136
Probable space group: C 2/M
;
_chemical_formula_sum "Si O2"
_cell_formula_units_Z 24
_cell_length_a 10.043265
_cell_length_b 15.310580
_cell_length_c 17.641428
_cell_angle_alpha 90.000000
_cell_angle_beta 160.984583
_cell_angle_gamma 90.000000
_cell_volume 883.855877
_symmetry_space_group_name_H-M "C 2/M"
_symmetry_group_IT_number 12
_symmetry_cell_setting 'monoclinic'
loop_
_space_group_symop_operation_xyz
x,y,z
-x,y,-z
-x,-y,-z
x,-y,z
1/2+x,1/2+y,z
1/2-x,1/2+y,-z
1/2-x,1/2-y,-z
1/2+x,1/2-y,z
loop_
_atom_site_type_symbol
_atom_site_label
_atom_site_fract_x
_atom_site_fract_y
_atom_site_fract_z
Si Si1 0.520082 0.000000 0.762498
Si Si2 0.147258 0.325652 0.501162
Si Si3 0.662048 0.666420 0.004762
Si Si4 0.288533 0.500000 0.576293
O O1 0.278390 0.000000 0.553305
O O2 0.500986 0.908565 0.798797
O O3 0.000000 0.000000 0.000000
O O4 0.742265 0.374771 0.251623
O O5 0.000000 0.285279 0.500000
O O6 0.250000 0.250000 0.500000
O O7 0.473045 0.402667 0.685501
O O8 0.500000 0.697120 0.000000
O O9 0.750000 0.750000 0.000000
O O10 0.000000 0.500000 0.500000
#
# Coordination Sequence:
#
# PCOD9177136 Si02
#       4
#     4   8   8   4
#     4  10  18  38  62  84 113 161 207 232 285 368
#     4  11  22  37  58  88 119 153 197 243 293 349
#     4  11  21  38  62  88 116 156 200 244 290 349
#     4  10  20  38  62  85 115 162 202 236 290 368
#
# _framework density 27.153749000000001
#
# number of rings (size 3 to 8) (size 9 to 14) (size 15 to 20)
#    0.000    1.333    6.667    2.000    0.000    0.000 
#    0.000    3.333    0.000    0.000    0.000    0.000 
#    0.000    0.000    0.000    0.000    0.000    0.000 
#
# Total GULP energy -66852.239037 kJ/mol
# GULP energy per Si atom -5571.019920 kJ/mol
# Density = 2.709195 g / cm^3
# Si number density = 27.153749 Si / 1000 Ang^3
#
#
#
# Elastic Constant Matrix: (Units=GPa)
#
#
# Indices 1 2 3 4 5 6 
#
# 1 177.5146 118.4386 37.5795 0.0731 -52.0295 0.0301
# 2 118.4386 263.5014 1.1951 0.1005 -26.9633 0.0429
# 3 37.5795 1.1951 88.7515 0.3993 -23.4290 0.1268
# 4 0.0731 0.1005 0.3993 32.0336 0.1139 -22.3354
# 5 -52.0295 -26.9633 -23.4290 0.1139 44.9511 0.0395
# 6 0.0301 0.0429 0.1268 -22.3354 0.0395 67.4643
#
#
#
# Elastic Compliance Matrix: (Units=1/GPa)
#
#
# Indices 1 2 3 4 5 6 
#
# 1 0.011967 -0.004344 -0.002365 -0.000029 0.010013 -0.000014
# 2 -0.004344 0.005655 0.001544 -0.000035 -0.000830 -0.000016
# 3 -0.002365 0.001544 0.013650 -0.000271 0.005304 -0.000118
# 4 -0.000029 -0.000035 -0.000271 0.040593 -0.000311 0.013440
# 5 0.010013 -0.000830 0.005304 -0.000311 0.036104 -0.000138
# 6 -0.000014 -0.000016 -0.000118 0.013440 -0.000138 0.019272
#
#
# Mechanical properties :
#
#
# Convention : Reuss Voigt Hill
#
# Bulk Modulus (GPa) = 47.74938 93.79931 70.77435
# Shear Modulus (GPa) = 34.58983 53.72674 44.15828
#
# Velocity S-wave (km/s) = 3.57298 4.45299 4.03703
# Velocity P-wave (km/s) = 5.88596 7.81393 6.91744
#
# Compressibility (1/GPa) = 0.02094268
#
# Stress axis : x y z
#
# Youngs Moduli (GPa) = 83.56306 176.82120 73.26252
#
# Poissons Ratio (x) = 0.76803 0.17327
# Poissons Ratio (y) = 0.36296 -0.11312
# Poissons Ratio (z) = 0.19763 -0.27301
#
# Static dielectric constant tensor:
#      x y z
#    x 2.180050 -0.000080 0.107480 
#    y -0.000080 2.226010 -0.000270 
#    z 0.107480 -0.000270 2.518330 
# 
# From -- ./inp_files/36363.got.cif
#   From: 2010.05.17/outbox.cif.g08.bks.cpg/sg12_19_cif.got.tgz:36363.got - 2010.06.03 13:09:07.
