data_PCOD9177036
_publ_section_title
;
Structure prediction by ZEFSAII (Michael W. Deem and Ramdas Pophale) SiO2 
 PCOD9177036
Probable space group: C 2/M
;
_chemical_formula_sum "Si O2"
_cell_formula_units_Z 60
_cell_length_a 24.495086
_cell_length_b 17.649131
_cell_length_c 14.950145
_cell_angle_alpha 90.000000
_cell_angle_beta 32.321666
_cell_angle_gamma 90.000000
_cell_volume 3455.692525
_symmetry_space_group_name_H-M "C 2/M"
_symmetry_group_IT_number 12
_symmetry_cell_setting 'monoclinic'
loop_
_space_group_symop_operation_xyz
x,y,z
-x,y,-z
-x,-y,-z
x,-y,z
1/2+x,1/2+y,z
1/2-x,1/2+y,-z
1/2-x,1/2-y,-z
1/2+x,1/2-y,z
loop_
_atom_site_type_symbol
_atom_site_label
_atom_site_fract_x
_atom_site_fract_y
_atom_site_fract_z
Si Si1 0.261804 0.289346 0.388951
Si Si2 0.427591 0.582533 0.186681
Si Si3 0.873567 0.409242 0.954744
Si Si4 0.047462 0.314591 0.618211
Si Si5 0.314249 0.677887 0.872447
Si Si6 0.901277 0.292891 0.070447
Si Si7 0.000000 0.751186 0.500000
Si Si8 0.551834 0.672448 0.148563
O O1 0.250000 0.250000 0.500000
O O2 0.348721 0.351420 0.278256
O O3 0.159876 0.330038 0.497456
O O4 0.301321 0.225313 0.266223
O O5 0.379676 0.500000 0.263465
O O6 0.491782 0.604908 0.185269
O O7 0.500000 0.580924 0.000000
O O8 0.875022 0.500000 0.955945
O O9 0.963608 0.374398 0.767790
O O10 0.766826 0.376727 0.063283
O O11 0.892815 0.369225 0.024277
O O12 0.044098 0.300937 0.517661
O O13 0.018907 0.233007 0.701550
O O14 0.405677 0.702855 0.677510
O O15 0.367042 0.646416 0.889685
O O16 0.250000 0.750000 0.000000
O O17 0.907107 0.224413 0.990052
O O18 0.000000 0.292298 0.000000
#
# Coordination Sequence:
#
# PCOD9177036 Si02
#       8
#     8   8   8   8   8   8   4   8
#     4  12  20  34  61  87 115 156 204 242 295 366
#     4  11  22  37  56  86 120 147 189 253 307 349
#     4  11  24  42  59  88 129 161 200 256 309 361
#     4  10  21  34  62  87 118 157 200 248 293 361
#     4  11  20  38  67  91 117 159 210 252 301 359
#     4  11  19  36  63  87 112 159 207 246 294 366
#     4  10  20  36  64  98 112 148 214 258 286 356
#     4  10  18  37  59  88 109 153 203 243 289 360
#
# _framework density 17.362656000000001
#
# number of rings (size 3 to 8) (size 9 to 14) (size 15 to 20)
#    0.000    1.200    8.000    1.600    0.000    1.333 
#    0.000    1.333    0.000    0.000    0.000    0.000 
#    0.000    0.000    0.000    0.000    0.000    0.000 
#
# Total GULP energy -167262.938458 kJ/mol
# GULP energy per Si atom -5575.431282 kJ/mol
# Density = 1.732314 g / cm^3
# Si number density = 17.362656 Si / 1000 Ang^3
#
#
#
# Elastic Constant Matrix: (Units=GPa)
#
#
# Indices 1 2 3 4 5 6 
#
# 1 139.2305 39.4336 53.7809 0.0000 -1.2184 0.0000
# 2 39.4336 98.9703 33.7894 0.0000 0.9916 0.0000
# 3 53.7809 33.7894 96.8051 0.0000 -0.2587 0.0000
# 4 0.0000 0.0000 0.0000 8.6091 0.0000 3.0539
# 5 -1.2184 0.9916 -0.2587 0.0000 36.6523 0.0000
# 6 0.0000 0.0000 0.0000 3.0539 0.0000 9.5949
#
#
#
# Elastic Compliance Matrix: (Units=1/GPa)
#
#
# Indices 1 2 3 4 5 6 
#
# 1 0.009578 -0.002274 -0.004526 0.000000 0.000348 0.000000
# 2 -0.002274 0.012015 -0.002931 0.000000 -0.000421 0.000000
# 3 -0.004526 -0.002931 0.013868 0.000000 0.000027 0.000000
# 4 0.000000 0.000000 0.000000 0.130939 0.000000 -0.041676
# 5 0.000348 -0.000421 0.000027 0.000000 0.027307 0.000000
# 6 0.000000 0.000000 0.000000 -0.041676 0.000000 0.117487
#
#
# Mechanical properties :
#
#
# Convention : Reuss Voigt Hill
#
# Bulk Modulus (GPa) = 62.51223 65.44598 63.97910
# Shear Modulus (GPa) = 14.88138 24.83807 19.85973
#
# Velocity S-wave (km/s) = 2.93079 3.78636 3.38571
# Velocity P-wave (km/s) = 6.89454 7.54259 7.22584
#
# Compressibility (1/GPa) = 0.01599687
#
# Stress axis : x y z
#
# Youngs Moduli (GPa) = 104.40677 83.22725 72.10871
#
# Poissons Ratio (x) = 0.18929 0.32639
# Poissons Ratio (y) = 0.23746 0.21138
# Poissons Ratio (z) = 0.47258 0.24398
#
# Static dielectric constant tensor:
#      x y z
#    x 1.629720 0.000000 -0.005660 
#    y 0.000000 1.563190 0.000000 
#    z -0.005660 0.000000 1.616220 
# 
# From -- ./inp_files/241287.got.cif
#   From: 2010.05.17/outbox.cif.g08.bks.cpg/sg12_121_cif.got.tgz:241287.got - 2010.06.03 13:09:07.
