data_PCOD9177307
_publ_section_title
;
Structure prediction by ZEFSAII (Michael W. Deem and Ramdas Pophale) SiO2 
 PCOD9177307
Probable space group: C 2/M
;
_chemical_formula_sum "Si O2"
_cell_formula_units_Z 64
_cell_length_a 32.534338
_cell_length_b 9.130198
_cell_length_c 16.464046
_cell_angle_alpha 90.000000
_cell_angle_beta 69.476515
_cell_angle_gamma 90.000000
_cell_volume 4580.150710
_symmetry_space_group_name_H-M "C 2/M"
_symmetry_group_IT_number 12
_symmetry_cell_setting 'monoclinic'
loop_
_space_group_symop_operation_xyz
x,y,z
-x,y,-z
-x,-y,-z
x,-y,z
1/2+x,1/2+y,z
1/2-x,1/2+y,-z
1/2-x,1/2-y,-z
1/2+x,1/2-y,z
loop_
_atom_site_type_symbol
_atom_site_label
_atom_site_fract_x
_atom_site_fract_y
_atom_site_fract_z
Si Si1 0.237974 0.175371 0.817828
Si Si2 0.232450 0.174733 0.632934
Si Si3 0.680108 0.825612 0.528722
Si Si4 0.496090 0.831321 0.404334
Si Si5 0.906265 0.825688 0.479888
Si Si6 0.792848 0.674756 0.009315
Si Si7 0.164425 0.674479 0.183758
Si Si8 0.085919 0.173914 0.332413
O O1 0.230400 0.212089 0.729192
O O2 0.205573 0.257382 0.902269
O O3 0.288426 0.211004 0.807725
O O4 0.233356 0.000000 0.831638
O O5 0.281156 0.203919 0.563707
O O6 0.198679 0.262437 0.600268
O O7 0.224795 0.000000 0.629282
O O8 0.635799 0.747212 0.532059
O O9 0.673861 0.000000 0.537496
O O10 0.500000 0.830637 0.500000
O O11 0.451386 0.745473 0.416696
O O12 0.539934 0.751848 0.343480
O O13 0.494019 0.000000 0.379229
O O14 0.904652 0.798311 0.578365
O O15 0.906634 0.000000 0.467298
O O16 0.786840 0.500000 0.017402
O O17 0.750000 0.750000 0.000000
O O18 0.830358 0.703632 0.916362
O O19 0.157786 0.500000 0.199582
O O20 0.125500 0.761653 0.252538
O O21 0.081914 0.000000 0.324596
#
# Coordination Sequence:
#
# PCOD9177307 Si02
#       8
#     8   8   8   8   8   8   8   8
#     4   9  17  29  44  60  81 111 143 174 211 251
#     4   9  18  31  44  60  84 111 140 177 215 247
#     4  10  19  30  44  61  82 110 144 177 209 247
#     4   9  17  29  44  60  80 108 139 170 205 246
#     4  10  19  30  43  60  84 111 140 174 210 246
#     4   9  17  28  41  58  81 108 139 174 209 246
#     4   9  17  28  41  59  84 112 140 171 207 247
#     4  10  19  28  41  62  85 110 140 173 207 245
#
# _framework density 13.973338999999999
#
# number of rings (size 3 to 8) (size 9 to 14) (size 15 to 20)
#    0.000    2.625    0.000    3.375    0.000    7.500 
#    0.000    0.000    0.000    0.000    0.000    0.000 
#    0.000    1.000    0.000   10.500    0.000    5.750 
#
# Total GULP energy -178314.583689 kJ/mol
# GULP energy per Si atom -5572.330740 kJ/mol
# Density = 1.394154 g / cm^3
# Si number density = 13.973339 Si / 1000 Ang^3
#
#
#
# Elastic Constant Matrix: (Units=GPa)
#
#
# Indices 1 2 3 4 5 6 
#
# 1 104.9620 64.3591 48.4858 0.0000 -4.9802 0.0000
# 2 64.3591 72.8620 58.0309 0.0000 -6.1432 0.0000
# 3 48.4858 58.0309 99.8075 0.0000 -3.8542 0.0000
# 4 0.0000 0.0000 0.0000 24.3572 0.0000 -2.5159
# 5 -4.9802 -6.1432 -3.8542 0.0000 19.3025 0.0000
# 6 0.0000 0.0000 0.0000 -2.5159 0.0000 25.0831
#
#
#
# Elastic Compliance Matrix: (Units=1/GPa)
#
#
# Indices 1 2 3 4 5 6 
#
# 1 0.020852 -0.019334 0.001090 0.000000 -0.000555 0.000000
# 2 -0.019334 0.044017 -0.015976 0.000000 0.005831 0.000000
# 3 0.001090 -0.015976 0.018738 0.000000 -0.001062 0.000000
# 4 0.000000 0.000000 0.000000 0.041485 0.000000 0.004161
# 5 -0.000555 0.005831 -0.001062 0.000000 0.053307 0.000000
# 6 0.000000 0.000000 0.000000 0.004161 0.000000 0.040285
#
#
# Mechanical properties :
#
#
# Convention : Reuss Voigt Hill
#
# Bulk Modulus (GPa) = 65.92725 68.82035 67.37380
# Shear Modulus (GPa) = 17.11277 20.86561 18.98919
#
# Velocity S-wave (km/s) = 3.50333 3.86844 3.69041
# Velocity P-wave (km/s) = 7.97794 8.32534 8.15349
#
# Compressibility (1/GPa) = 0.01516823
#
# Stress axis : x y z
#
# Youngs Moduli (GPa) = 47.95665 22.71830 53.36864
#
# Poissons Ratio (x) = 0.43923 -0.05816
# Poissons Ratio (y) = 0.92717 0.85260
# Poissons Ratio (z) = -0.05226 0.36294
#
# Static dielectric constant tensor:
#      x y z
#    x 1.433250 0.000000 -0.001200 
#    y 0.000000 1.464150 0.000000 
#    z -0.001200 0.000000 1.462900 
# 
# From -- ./inp_files/248239.got.cif
#   From: 2010.05.17/outbox.cif.g08.bks.cpg/sg12_125_cif.got.tgz:248239.got - 2010.06.03 13:09:07.
