data_PCOD9177652
_publ_section_title
;
Structure prediction by ZEFSAII (Michael W. Deem and Ramdas Pophale) SiO2 
 PCOD9177652
Probable space group: C 2/M
;
_chemical_formula_sum "Si O2"
_cell_formula_units_Z 64
_cell_length_a 31.021231
_cell_length_b 8.078536
_cell_length_c 15.571187
_cell_angle_alpha 90.000000
_cell_angle_beta 100.534478
_cell_angle_gamma 90.000000
_cell_volume 3836.463033
_symmetry_space_group_name_H-M "C 2/M"
_symmetry_group_IT_number 12
_symmetry_cell_setting 'monoclinic'
loop_
_space_group_symop_operation_xyz
x,y,z
-x,y,-z
-x,-y,-z
x,-y,z
1/2+x,1/2+y,z
1/2-x,1/2+y,-z
1/2-x,1/2-y,-z
1/2+x,1/2-y,z
loop_
_atom_site_type_symbol
_atom_site_label
_atom_site_fract_x
_atom_site_fract_y
_atom_site_fract_z
Si Si1 0.125589 0.800834 0.746566
Si Si2 0.056446 0.298332 0.438540
Si Si3 0.313730 0.300655 0.082406
Si Si4 0.292103 0.694238 0.702632
Si Si5 0.039200 0.699047 0.628490
Si Si6 0.282060 0.299391 0.889631
Si Si7 0.194908 0.194740 0.627985
Si Si8 0.846929 0.694853 0.562424
O O1 0.146732 0.740051 0.843408
O O2 0.075985 0.752392 0.708576
O O3 0.157492 0.744013 0.680444
O O4 0.127423 0.000000 0.747350
O O5 0.055834 0.500000 0.436710
O O6 0.053869 0.247638 0.537809
O O7 0.102708 0.244570 0.416711
O O8 0.010986 0.242837 0.378230
O O9 0.316231 0.500000 0.080123
O O10 0.267941 0.255194 0.111628
O O11 0.309615 0.241341 0.982618
O O12 0.302644 0.500000 0.705018
O O13 0.297586 0.758369 0.802000
O O14 0.241016 0.716977 0.660273
O O15 0.321732 0.779338 0.641887
O O16 0.038499 0.500000 0.627252
O O17 0.282360 0.500000 0.888679
O O18 0.178176 0.218823 0.525200
O O19 0.201994 0.000000 0.646961
O O20 0.847574 0.500000 0.541875
#
# Coordination Sequence:
#
# PCOD9177652 Si02
#       8
#     8   8   8   8   8   8   8   8
#     4  10  19  29  45  71  99 123 148 183 232 276
#     4   8  16  30  48  68  88 117 154 191 227 270
#     4   9  17  31  48  67  93 121 150 188 232 276
#     4  11  22  34  47  67  93 124 162 197 229 267
#     4   9  16  30  50  68  90 118 152 188 226 276
#     4   9  18  31  48  67  89 120 156 192 229 270
#     4  11  21  33  46  66  96 129 160 190 223 266
#     4  11  21  34  50  67  90 125 162 194 229 269
#
# _framework density 16.682032
#
# number of rings (size 3 to 8) (size 9 to 14) (size 15 to 20)
#    0.000    2.250    2.500    2.250    0.000    1.500 
#    0.000    2.500    0.000    0.000    0.000    0.875 
#    0.000    7.000    0.000    0.000    0.000    0.000 
#
# Total GULP energy -178448.727606 kJ/mol
# GULP energy per Si atom -5576.522738 kJ/mol
# Density = 1.664406 g / cm^3
# Si number density = 16.682032 Si / 1000 Ang^3
#
#
#
# Elastic Constant Matrix: (Units=GPa)
#
#
# Indices 1 2 3 4 5 6 
#
# 1 79.4525 -1.3615 55.8712 0.0000 15.9533 0.0000
# 2 -1.3615 10.2302 -2.3782 0.0000 0.9552 0.0000
# 3 55.8712 -2.3782 116.9735 0.0000 19.3965 0.0000
# 4 0.0000 0.0000 0.0000 10.0176 0.0000 1.4225
# 5 15.9533 0.9552 19.3965 0.0000 27.0183 0.0000
# 6 0.0000 0.0000 0.0000 1.4225 0.0000 16.1233
#
#
#
# Elastic Compliance Matrix: (Units=1/GPa)
#
#
# Indices 1 2 3 4 5 6 
#
# 1 0.019666 0.001177 -0.008442 0.000000 -0.005593 0.000000
# 2 0.001177 0.099028 0.002437 0.000000 -0.005946 0.000000
# 3 -0.008442 0.002437 0.013415 0.000000 -0.004733 0.000000
# 4 0.000000 0.000000 0.000000 0.101091 0.000000 -0.008919
# 5 -0.005593 -0.005946 -0.004733 0.000000 0.043922 0.000000
# 6 0.000000 0.000000 0.000000 -0.008919 0.000000 0.062809
#
#
# Mechanical properties :
#
#
# Convention : Reuss Voigt Hill
#
# Bulk Modulus (GPa) = 8.16637 34.54660 21.35649
# Shear Modulus (GPa) = 12.80726 20.93349 16.87038
#
# Velocity S-wave (km/s) = 2.77380 3.54623 3.18353
# Velocity P-wave (km/s) = 3.89417 6.12548 5.13255
#
# Compressibility (1/GPa) = 0.12245341
#
# Stress axis : x y z
#
# Youngs Moduli (GPa) = 50.85035 10.09817 74.54169
#
# Poissons Ratio (x) = -0.01189 0.62926
# Poissons Ratio (y) = -0.05985 -0.18166
# Poissons Ratio (z) = 0.42926 -0.02461
#
# Static dielectric constant tensor:
#      x y z
#    x 1.552560 0.000000 0.013710 
#    y 0.000000 1.586470 0.000000 
#    z 0.013710 0.000000 1.575380 
# 
# From -- ./inp_files/248531.got.cif
#   From: 2010.05.17/outbox.cif.g08.bks.cpg/sg12_125_cif.got.tgz:248531.got - 2010.06.03 13:09:07.
