data_PCOD9177096
_publ_section_title
;
Structure prediction by ZEFSAII (Michael W. Deem and Ramdas Pophale) SiO2 
 PCOD9177096
Probable space group: C 2/M
;
_chemical_formula_sum "Si O2"
_cell_formula_units_Z 48
_cell_length_a 15.276747
_cell_length_b 25.880103
_cell_length_c 9.519380
_cell_angle_alpha 90.000000
_cell_angle_beta 38.197436
_cell_angle_gamma 90.000000
_cell_volume 2327.320681
_symmetry_space_group_name_H-M "C 2/M"
_symmetry_group_IT_number 12
_symmetry_cell_setting 'monoclinic'
loop_
_space_group_symop_operation_xyz
x,y,z
-x,y,-z
-x,-y,-z
x,-y,z
1/2+x,1/2+y,z
1/2-x,1/2+y,-z
1/2-x,1/2-y,-z
1/2+x,1/2-y,z
loop_
_atom_site_type_symbol
_atom_site_label
_atom_site_fract_x
_atom_site_fract_y
_atom_site_fract_z
Si Si1 0.424379 0.118285 0.816813
Si Si2 0.428159 0.628950 0.242511
Si Si3 0.669932 0.558928 0.062671
Si Si4 0.297704 0.279137 0.578589
Si Si5 0.000000 0.704482 0.500000
Si Si6 0.500000 0.172178 0.000000
Si Si7 0.689980 0.057367 0.420534
O O1 0.425721 0.165920 0.705433
O O2 0.499579 0.137889 0.862069
O O3 0.527941 0.073726 0.630543
O O4 0.269162 0.094469 0.035019
O O5 0.528184 0.588251 0.196361
O O6 0.392812 0.674400 0.396135
O O7 0.285364 0.599561 0.378471
O O8 0.500000 0.644678 0.000000
O O9 0.648733 0.500000 0.138509
O O10 0.755936 0.556925 0.807278
O O11 0.250000 0.250000 0.500000
O O12 0.386669 0.241093 0.565595
O O13 0.147278 0.297007 0.831147
O O14 0.712105 0.000000 0.451581
#
# Coordination Sequence:
#
# PCOD9177096 Si02
#       7
#     8   8   8   8   4   4   8
#     4  12  23  43  65 100 137 172 224 277 336 408
#     4  10  22  40  67  98 140 173 220 280 333 396
#     4  10  21  37  68 104 131 170 224 281 337 393
#     4  12  27  46  68  99 135 181 229 282 339 399
#     4  12  26  44  71  98 129 188 234 272 340 400
#     4  12  28  46  67  92 138 174 221 282 342 400
#     4  10  18  37  68  98 133 174 219 276 336 397
#
# _framework density 20.624575
#
# number of rings (size 3 to 8) (size 9 to 14) (size 15 to 20)
#    0.000    1.000    5.000    1.000    5.833    4.000 
#    0.000    1.667    0.000    1.000    0.000    0.000 
#    0.000    0.000    0.000    0.000    0.000    0.000 
#
# Total GULP energy -134030.550477 kJ/mol
# GULP energy per Si atom -5584.606270 kJ/mol
# Density = 2.057763 g / cm^3
# Si number density = 20.624575 Si / 1000 Ang^3
#
#
#
# Elastic Constant Matrix: (Units=GPa)
#
#
# Indices 1 2 3 4 5 6 
#
# 1 98.1928 31.1790 12.5336 0.0000 -10.9798 0.0000
# 2 31.1790 102.4966 32.2063 0.0000 1.5683 0.0000
# 3 12.5336 32.2063 57.6904 0.0000 -14.5586 0.0000
# 4 0.0000 0.0000 0.0000 19.4324 0.0000 -1.9482
# 5 -10.9798 1.5683 -14.5586 0.0000 29.2281 0.0000
# 6 0.0000 0.0000 0.0000 -1.9482 0.0000 31.4238
#
#
#
# Elastic Compliance Matrix: (Units=1/GPa)
#
#
# Indices 1 2 3 4 5 6 
#
# 1 0.011910 -0.004000 0.000948 0.000000 0.005161 0.000000
# 2 -0.004000 0.013714 -0.008409 0.000000 -0.006427 0.000000
# 3 0.000948 -0.008409 0.025193 0.000000 0.013356 0.000000
# 4 0.000000 0.000000 0.000000 0.051782 0.000000 0.003210
# 5 0.005161 -0.006427 0.013356 0.000000 0.043150 0.000000
# 6 0.000000 0.000000 0.000000 0.003210 0.000000 0.032022
#
#
# Mechanical properties :
#
#
# Convention : Reuss Voigt Hill
#
# Bulk Modulus (GPa) = 35.84861 45.57973 40.71417
# Shear Modulus (GPa) = 23.81063 28.18092 25.99578
#
# Velocity S-wave (km/s) = 3.40145 3.70046 3.55410
# Velocity P-wave (km/s) = 5.73112 6.35654 6.05191
#
# Compressibility (1/GPa) = 0.02789508
#
# Stress axis : x y z
#
# Youngs Moduli (GPa) = 83.96162 72.92024 39.69419
#
# Poissons Ratio (x) = 0.29167 -0.03762
# Poissons Ratio (y) = 0.33583 0.33377
# Poissons Ratio (z) = -0.07957 0.61316
#
# Static dielectric constant tensor:
#      x y z
#    x 1.723180 0.000000 -0.047220 
#    y 0.000000 1.816610 0.000000 
#    z -0.047220 0.000000 2.658900 
# 
# From -- ./inp_files/67366.got.cif
#   From: 2010.05.17/outbox.cif.g08.bks.cpg/sg12_34_cif.got.tgz:67366.got - 2010.06.03 13:09:07.
