data_PCOD9177686
_publ_section_title
;
Structure prediction by ZEFSAII (Michael W. Deem and Ramdas Pophale) SiO2 
 PCOD9177686
Probable space group: C 2/M
;
_chemical_formula_sum "Si O2"
_cell_formula_units_Z 56
_cell_length_a 22.354266
_cell_length_b 22.186433
_cell_length_c 9.212403
_cell_angle_alpha 90.000000
_cell_angle_beta 45.204727
_cell_angle_gamma 90.000000
_cell_volume 3242.291826
_symmetry_space_group_name_H-M "C 2/M"
_symmetry_group_IT_number 12
_symmetry_cell_setting 'monoclinic'
loop_
_space_group_symop_operation_xyz
x,y,z
-x,y,-z
-x,-y,-z
x,-y,z
1/2+x,1/2+y,z
1/2-x,1/2+y,-z
1/2-x,1/2-y,-z
1/2+x,1/2-y,z
loop_
_atom_site_type_symbol
_atom_site_label
_atom_site_fract_x
_atom_site_fract_y
_atom_site_fract_z
Si Si1 0.581444 0.068761 0.965246
Si Si2 0.989404 0.659533 0.685830
Si Si3 0.864759 0.282341 0.403028
Si Si4 0.376970 0.728561 0.892107
Si Si5 0.747005 0.126034 0.576845
Si Si6 0.788757 0.802520 0.770816
Si Si7 0.094347 0.834779 0.852370
O O1 0.669158 0.080411 0.729160
O O2 0.580151 0.000000 0.020530
O O3 0.500000 0.076703 0.000000
O O4 0.570022 0.116067 0.116741
O O5 0.957093 0.728674 0.736119
O O6 0.000000 0.639703 0.500000
O O7 0.073823 0.666993 0.637090
O O8 0.798678 0.314201 0.409556
O O9 0.823133 0.251720 0.613025
O O10 0.905666 0.227000 0.244419
O O11 0.351134 0.689242 0.798053
O O12 0.302358 0.778369 0.026906
O O13 0.385079 0.688560 0.021410
O O14 0.779630 0.140803 0.682053
O O15 0.830822 0.121980 0.334588
O O16 0.000000 0.860392 0.000000
#
# Coordination Sequence:
#
# PCOD9177686 Si02
#       7
#     8   8   8   8   8   8   8
#     4  11  24  41  60  77  98 140 197 241 274 314
#     4  12  22  33  52  76 114 148 175 219 271 319
#     4  11  18  30  47  75 107 150 173 205 256 324
#     4  11  19  29  44  77 111 144 174 209 250 331
#     4  11  20  36  52  75 106 144 186 223 269 316
#     4  10  19  29  46  72 108 146 178 202 260 324
#     4  11  20  30  51  76 114 145 178 210 256 328
#
# _framework density 17.271733999999999
#
# number of rings (size 3 to 8) (size 9 to 14) (size 15 to 20)
#    0.000    1.000    8.571    0.857    0.000    0.286 
#    0.000    0.000    0.000    0.429    0.000    0.000 
#    0.000    1.143    0.000    0.000    0.000    0.000 
#
# Total GULP energy -155991.349710 kJ/mol
# GULP energy per Si atom -5571.119632 kJ/mol
# Density = 1.723242 g / cm^3
# Si number density = 17.271734 Si / 1000 Ang^3
#
#
#
# Elastic Constant Matrix: (Units=GPa)
#
#
# Indices 1 2 3 4 5 6 
#
# 1 105.0616 20.9474 37.6788 0.0000 11.3144 0.0000
# 2 20.9474 31.0299 17.4511 0.0000 -1.0297 0.0000
# 3 37.6788 17.4511 72.3462 0.0000 -3.0179 0.0000
# 4 0.0000 0.0000 0.0000 14.5275 0.0000 -1.3417
# 5 11.3144 -1.0297 -3.0179 0.0000 34.3547 0.0000
# 6 0.0000 0.0000 0.0000 -1.3417 0.0000 9.4689
#
#
#
# Elastic Compliance Matrix: (Units=1/GPa)
#
#
# Indices 1 2 3 4 5 6 
#
# 1 0.013290 -0.005933 -0.005702 0.000000 -0.005056 0.000000
# 2 -0.005933 0.039938 -0.006436 0.000000 0.002586 0.000000
# 3 -0.005702 -0.006436 0.018482 0.000000 0.003308 0.000000
# 4 0.000000 0.000000 0.000000 0.069748 0.000000 0.009883
# 5 -0.005056 0.002586 0.003308 0.000000 0.031141 0.000000
# 6 0.000000 0.000000 0.000000 0.009883 0.000000 0.107010
#
#
# Mechanical properties :
#
#
# Convention : Reuss Voigt Hill
#
# Bulk Modulus (GPa) = 28.11403 40.06582 34.08992
# Shear Modulus (GPa) = 15.26222 20.49425 17.87824
#
# Velocity S-wave (km/s) = 2.97586 3.44841 3.22081
# Velocity P-wave (km/s) = 5.30287 6.25324 5.79756
#
# Compressibility (1/GPa) = 0.03556943
#
# Stress axis : x y z
#
# Youngs Moduli (GPa) = 75.24197 25.03905 54.10594
#
# Poissons Ratio (x) = 0.14856 0.30849
# Poissons Ratio (y) = 0.44643 0.34821
# Poissons Ratio (z) = 0.42899 0.16114
#
# Static dielectric constant tensor:
#      x y z
#    x 1.626250 0.000000 -0.031170 
#    y 0.000000 1.539410 0.000000 
#    z -0.031170 0.000000 1.659350 
# 
# From -- ./inp_files/78430.got.cif
#   From: 2010.05.17/outbox.cif.g08.bks.cpg/sg12_40_cif.got.tgz:78430.got - 2010.06.03 13:09:07.
