data_PCOD9177585
_publ_section_title
;
Structure prediction by ZEFSAII (Michael W. Deem and Ramdas Pophale) SiO2 
 PCOD9177585
Probable space group: C 2/M
;
_chemical_formula_sum "Si O2"
_cell_formula_units_Z 52
_cell_length_a 21.190262
_cell_length_b 19.741654
_cell_length_c 5.549323
_cell_angle_alpha 90.000000
_cell_angle_beta 100.147591
_cell_angle_gamma 90.000000
_cell_volume 2285.138769
_symmetry_space_group_name_H-M "C 2/M"
_symmetry_group_IT_number 12
_symmetry_cell_setting 'monoclinic'
loop_
_space_group_symop_operation_xyz
x,y,z
-x,y,-z
-x,-y,-z
x,-y,z
1/2+x,1/2+y,z
1/2-x,1/2+y,-z
1/2-x,1/2-y,-z
1/2+x,1/2-y,z
loop_
_atom_site_type_symbol
_atom_site_label
_atom_site_fract_x
_atom_site_fract_y
_atom_site_fract_z
Si Si1 0.093327 0.699671 0.928150
Si Si2 0.922036 0.922482 0.462365
Si Si3 0.422171 0.353338 0.966323
Si Si4 0.959996 0.500000 0.719913
Si Si5 0.910698 0.645863 0.583786
Si Si6 0.241420 0.330950 0.515190
Si Si7 0.240402 0.668976 0.015092
O O1 0.064190 0.670845 0.659943
O O2 0.163264 0.663417 0.979038
O O3 0.101367 0.780312 0.950159
O O4 0.062042 0.684202 0.165202
O O5 0.902917 0.875099 0.679625
O O6 0.000000 0.919670 0.500000
O O7 0.903426 0.000000 0.503418
O O8 0.903668 0.902308 0.175988
O O9 0.500000 0.349517 0.000000
O O10 0.920051 0.568175 0.661469
O O11 0.000000 0.500000 0.500000
O O12 0.000000 0.500000 0.000000
O O13 0.835001 0.660604 0.522363
O O14 0.250000 0.250000 0.500000
O O15 0.266703 0.359199 0.783350
O O16 0.266989 0.359289 0.281879
O O17 0.250000 0.750000 0.000000
#
# Coordination Sequence:
#
# PCOD9177585 Si02
#       7
#     8   8   8   4   8   8   8
#     4  10  19  32  51  75 105 127 172 228 289 321
#     4   9  17  30  46  64  92 128 167 203 240 301
#     4  10  19  29  44  69  98 127 164 210 262 309
#     4  12  26  42  56  74 108 166 222 242 276 338
#     4  10  21  36  53  74 105 141 190 239 281 335
#     4   8  14  27  49  75 100 121 154 218 291 338
#     4   8  14  25  43  69 101 119 151 193 261 325
#
# _framework density 22.75573
#
# number of rings (size 3 to 8) (size 9 to 14) (size 15 to 20)
#    0.000    2.615    0.000    2.308    0.000    3.692 
#    0.000    0.000    0.000    0.000    0.000    0.000 
#  221.538    0.000    0.000    0.000    0.000    0.000 
#
# Total GULP energy -144858.983926 kJ/mol
# GULP energy per Si atom -5571.499382 kJ/mol
# Density = 2.270394 g / cm^3
# Si number density = 22.755730 Si / 1000 Ang^3
#
#
#
# Elastic Constant Matrix: (Units=GPa)
#
#
# Indices 1 2 3 4 5 6 
#
# 1 75.6455 3.7411 22.1598 0.0000 -8.4681 0.0000
# 2 3.7411 94.5055 38.9073 0.0000 1.5753 0.0000
# 3 22.1598 38.9073 271.2505 0.0000 -29.2941 0.0000
# 4 0.0000 0.0000 0.0000 36.0622 0.0000 -2.9140
# 5 -8.4681 1.5753 -29.2941 0.0000 27.2509 0.0000
# 6 0.0000 0.0000 0.0000 -2.9140 0.0000 21.9213
#
#
#
# Elastic Compliance Matrix: (Units=1/GPa)
#
#
# Indices 1 2 3 4 5 6 
#
# 1 0.013840 -0.000319 -0.000700 0.000000 0.003567 0.000000
# 2 -0.000319 0.011431 -0.001918 0.000000 -0.002822 0.000000
# 3 -0.000700 -0.001918 0.004534 0.000000 0.004767 0.000000
# 4 0.000000 0.000000 0.000000 0.028031 0.000000 0.003726
# 5 0.003567 -0.002822 0.004767 0.000000 0.043092 0.000000
# 6 0.000000 0.000000 0.000000 0.003726 0.000000 0.046113
#
#
# Mechanical properties :
#
#
# Convention : Reuss Voigt Hill
#
# Bulk Modulus (GPa) = 41.78889 63.44645 52.61767
# Shear Modulus (GPa) = 31.07687 42.15311 36.61499
#
# Velocity S-wave (km/s) = 3.69951 4.30864 4.01564
# Velocity P-wave (km/s) = 6.05413 7.25910 6.68383
#
# Compressibility (1/GPa) = 0.02392981
#
# Stress axis : x y z
#
# Youngs Moduli (GPa) = 72.25648 87.48276 220.56656
#
# Poissons Ratio (x) = 0.02793 0.15431
# Poissons Ratio (y) = 0.02307 0.42311
# Poissons Ratio (z) = 0.05055 0.16782
#
# Static dielectric constant tensor:
#      x y z
#    x 1.966310 0.000000 0.022270 
#    y 0.000000 1.842530 0.000000 
#    z 0.022270 0.000000 1.923780 
# 
# From -- ./inp_files/28569.got.cif
#   From: 2010.05.17/outbox.cif.g08.bks.cpg/sg12_15_cif.got.tgz:28569.got - 2010.06.03 13:09:07.
