data_PCOD9177984
_publ_section_title
;
Structure prediction by ZEFSAII (Michael W. Deem and Ramdas Pophale) SiO2 
 PCOD9177984
Probable space group: C 2/M
;
_chemical_formula_sum "Si O2"
_cell_formula_units_Z 48
_cell_length_a 16.025974
_cell_length_b 24.964757
_cell_length_c 7.466871
_cell_angle_alpha 90.000000
_cell_angle_beta 38.046281
_cell_angle_gamma 90.000000
_cell_volume 1841.115520
_symmetry_space_group_name_H-M "C 2/M"
_symmetry_group_IT_number 12
_symmetry_cell_setting 'monoclinic'
loop_
_space_group_symop_operation_xyz
x,y,z
-x,y,-z
-x,-y,-z
x,-y,z
1/2+x,1/2+y,z
1/2-x,1/2+y,-z
1/2-x,1/2-y,-z
1/2+x,1/2-y,z
loop_
_atom_site_type_symbol
_atom_site_label
_atom_site_fract_x
_atom_site_fract_y
_atom_site_fract_z
Si Si1 0.810239 0.938996 0.635826
Si Si2 0.498957 0.939673 0.286205
Si Si3 0.410142 0.231828 0.855318
Si Si4 0.184741 0.844813 0.111018
Si Si5 0.281765 0.609720 0.329121
Si Si6 0.635124 0.799893 0.695835
O O1 0.841872 0.930816 0.371865
O O2 0.849069 0.000000 0.625407
O O3 0.647835 0.934522 0.950384
O O4 0.860268 0.887238 0.662233
O O5 0.500000 0.935038 0.500000
O O6 0.375913 0.904102 0.431011
O O7 0.454367 0.000000 0.317656
O O8 0.336691 0.178764 0.900341
O O9 0.568970 0.222232 0.626019
O O10 0.384475 0.287256 0.800212
O O11 0.349549 0.238782 0.159662
O O12 0.168372 0.878041 0.953587
O O13 0.267734 0.665455 0.457057
O O14 0.500000 0.830389 0.000000
#
# Coordination Sequence:
#
# PCOD9177984 Si02
#       6
#     8   8   8   8   8   8
#     4  11  22  35  48  71 105 137 173 211 247 297
#     4  10  19  30  45  67  97 137 175 202 234 291
#     4   8  19  36  50  71 106 133 169 211 252 305
#     4  11  20  34  52  76 101 137 171 212 254 300
#     4  12  20  29  53  71 102 135 172 202 252 294
#     4   8  17  34  50  69  98 133 162 206 249 302
#
# _framework density 26.071151
#
# number of rings (size 3 to 8) (size 9 to 14) (size 15 to 20)
#    1.000    0.833    3.333    3.000    0.000    2.667 
#    0.000    0.000    0.000    0.000    0.000    2.333 
#    0.000    5.333    0.000    0.000    0.000    0.000 
#
# Total GULP energy -133852.475143 kJ/mol
# GULP energy per Si atom -5577.186464 kJ/mol
# Density = 2.601181 g / cm^3
# Si number density = 26.071151 Si / 1000 Ang^3
#
#
#
# Elastic Constant Matrix: (Units=GPa)
#
#
# Indices 1 2 3 4 5 6 
#
# 1 80.3276 42.5922 57.4013 0.0000 25.2806 0.0000
# 2 42.5922 147.0860 24.5525 0.0000 20.0227 0.0000
# 3 57.4013 24.5525 55.7185 0.0000 22.1655 0.0000
# 4 0.0000 0.0000 0.0000 34.2320 0.0000 38.5409
# 5 25.2806 20.0227 22.1655 0.0000 39.5873 0.0000
# 6 0.0000 0.0000 0.0000 38.5409 0.0000 84.5349
#
#
#
# Elastic Compliance Matrix: (Units=1/GPa)
#
#
# Indices 1 2 3 4 5 6 
#
# 1 0.052761 -0.006546 -0.050670 0.000000 -0.002012 0.000000
# 2 -0.006546 0.008340 0.003968 0.000000 -0.002259 0.000000
# 3 -0.050670 0.003968 0.072466 0.000000 -0.010224 0.000000
# 4 0.000000 0.000000 0.000000 0.060022 0.000000 -0.027365
# 5 -0.002012 -0.002259 -0.010224 0.000000 0.033413 0.000000
# 6 0.000000 0.000000 0.000000 -0.027365 0.000000 0.024306
#
#
# Mechanical properties :
#
#
# Convention : Reuss Voigt Hill
#
# Bulk Modulus (GPa) = 36.94042 59.13601 48.03821
# Shear Modulus (GPa) = 13.63038 42.24325 27.93681
#
# Velocity S-wave (km/s) = 2.28899 4.02967 3.27702
# Velocity P-wave (km/s) = 4.60281 6.66204 5.72576
#
# Compressibility (1/GPa) = 0.02707062
#
# Stress axis : x y z
#
# Youngs Moduli (GPa) = 18.95324 119.91003 13.79954
#
# Poissons Ratio (x) = 0.78497 0.69922
# Poissons Ratio (y) = 0.12407 -0.05476
# Poissons Ratio (z) = 0.96036 -0.47579
#
# Static dielectric constant tensor:
#      x y z
#    x 2.178940 0.000000 -0.015570 
#    y 0.000000 2.085890 0.000000 
#    z -0.015570 0.000000 2.077060 
# 
# From -- ./inp_files/78637.got.cif
#   From: 2010.05.17/outbox.cif.g08.bks.cpg/sg12_40_cif.got.tgz:78637.got - 2010.06.03 13:09:07.
