data_PCOD9177918
_publ_section_title
;
Structure prediction by ZEFSAII (Michael W. Deem and Ramdas Pophale) SiO2 
 PCOD9177918
Probable space group: C 2/M
;
_chemical_formula_sum "Si O2"
_cell_formula_units_Z 64
_cell_length_a 13.457031
_cell_length_b 8.291410
_cell_length_c 23.082045
_cell_angle_alpha 90.000000
_cell_angle_beta 76.298205
_cell_angle_gamma 90.000000
_cell_volume 2502.150182
_symmetry_space_group_name_H-M "C 2/M"
_symmetry_group_IT_number 12
_symmetry_cell_setting 'monoclinic'
loop_
_space_group_symop_operation_xyz
x,y,z
-x,y,-z
-x,-y,-z
x,-y,z
1/2+x,1/2+y,z
1/2-x,1/2+y,-z
1/2-x,1/2-y,-z
1/2+x,1/2-y,z
loop_
_atom_site_type_symbol
_atom_site_label
_atom_site_fract_x
_atom_site_fract_y
_atom_site_fract_z
Si Si1 0.941911 0.191061 0.387691
Si Si2 0.873682 0.317388 0.104025
Si Si3 0.870268 0.180120 0.857745
Si Si4 0.855641 0.804574 0.516316
Si Si5 0.056662 0.681161 0.270175
Si Si6 0.265108 0.307724 0.643481
Si Si7 0.341213 0.812411 0.232814
Si Si8 0.631959 0.692314 0.018479
O O1 0.940447 0.237759 0.455967
O O2 0.037933 0.219719 0.331753
O O3 0.844855 0.281601 0.373148
O O4 0.921384 0.000000 0.388869
O O5 0.914621 0.500000 0.100380
O O6 0.750475 0.330233 0.114744
O O7 0.876188 0.236191 0.167198
O O8 0.908845 0.235611 0.039815
O O9 0.879685 0.263870 0.794450
O O10 0.913027 0.000000 0.844637
O O11 0.911140 0.254852 0.912969
O O12 0.750000 0.750000 0.500000
O O13 0.842471 0.741945 0.583914
O O14 0.859092 0.000000 0.521097
O O15 0.081681 0.500000 0.283437
O O16 0.944168 0.682229 0.255703
O O17 0.280672 0.500000 0.647857
O O18 0.244434 0.242023 0.711644
O O19 0.311386 0.000000 0.223926
O O20 0.628790 0.500000 0.024237
O O21 0.750000 0.750000 0.000000
#
# Coordination Sequence:
#
# PCOD9177918 Si02
#       8
#     8   8   8   8   8   8   8   8
#     4   9  15  23  36  56  84 114 143 177 218 258
#     4   9  17  31  50  69  89 114 145 179 215 256
#     4   9  18  31  47  66  87 111 140 177 218 256
#     4   8  13  20  33  54  79 109 142 177 214 251
#     4  10  19  30  45  64  88 118 148 178 215 260
#     4   8  13  23  38  57  83 113 146 179 212 254
#     4   8  15  28  45  65  89 117 146 177 215 256
#     4   9  17  30  48  69  90 113 143 179 218 255
#
# _framework density 25.578002000000001
#
# number of rings (size 3 to 8) (size 9 to 14) (size 15 to 20)
#    0.000    3.250    0.000    2.625    0.000    3.000 
#    0.000    3.750    0.000    3.750    0.000    0.875 
#    0.000    7.000    0.000    0.000    0.000    0.000 
#
# Total GULP energy -178430.307373 kJ/mol
# GULP energy per Si atom -5575.947105 kJ/mol
# Density = 2.551978 g / cm^3
# Si number density = 25.578002 Si / 1000 Ang^3
#
#
#
# Elastic Constant Matrix: (Units=GPa)
#
#
# Indices 1 2 3 4 5 6 
#
# 1 47.4646 7.0046 45.5407 0.0000 -1.7902 0.0000
# 2 7.0046 41.1453 32.0561 0.0000 0.4007 0.0000
# 3 45.5407 32.0561 305.7481 0.0000 5.2795 0.0000
# 4 0.0000 0.0000 0.0000 26.5639 0.0000 1.4955
# 5 -1.7902 0.4007 5.2795 0.0000 67.6231 0.0000
# 6 0.0000 0.0000 0.0000 1.4955 0.0000 13.5440
#
#
#
# Elastic Compliance Matrix: (Units=1/GPa)
#
#
# Indices 1 2 3 4 5 6 
#
# 1 0.024721 -0.001455 -0.003546 0.000000 0.000940 0.000000
# 2 -0.001455 0.026552 -0.002567 0.000000 0.000005 0.000000
# 3 -0.003546 -0.002567 0.004075 0.000000 -0.000397 0.000000
# 4 0.000000 0.000000 0.000000 0.037881 0.000000 -0.004183
# 5 0.000940 0.000005 -0.000397 0.000000 0.014844 0.000000
# 6 0.000000 0.000000 0.000000 -0.004183 0.000000 0.074295
#
#
# Mechanical properties :
#
#
# Convention : Reuss Voigt Hill
#
# Bulk Modulus (GPa) = 24.86877 62.61788 43.74333
# Shear Modulus (GPa) = 23.70720 42.19665 32.95192
#
# Velocity S-wave (km/s) = 3.04774 4.06609 3.59317
# Velocity P-wave (km/s) = 4.70412 6.82483 5.86119
#
# Compressibility (1/GPa) = 0.04021107
#
# Stress axis : x y z
#
# Youngs Moduli (GPa) = 40.45221 37.66219 245.41054
#
# Poissons Ratio (x) = 0.05480 0.87016
# Poissons Ratio (y) = 0.05886 0.63001
# Poissons Ratio (z) = 0.14343 0.09668
#
# Static dielectric constant tensor:
#      x y z
#    x 2.268410 0.000000 0.002990 
#    y 0.000000 1.906670 0.000000 
#    z 0.002990 0.000000 2.131780 
# 
# From -- ./inp_files/345550.got.cif
#   From: 2010.05.17/outbox.cif.g08.bks.cpg/sg12_173_cif.got.tgz:345550.got - 2010.06.03 13:09:07.
