data_PCOD9177601
_publ_section_title
;
Structure prediction by ZEFSAII (Michael W. Deem and Ramdas Pophale) SiO2 
 PCOD9177601
Probable space group: C 2/M
;
_chemical_formula_sum "Si O2"
_cell_formula_units_Z 32
_cell_length_a 11.626545
_cell_length_b 13.453934
_cell_length_c 18.559756
_cell_angle_alpha 90.000000
_cell_angle_beta 30.696264
_cell_angle_gamma 90.000000
_cell_volume 1482.029304
_symmetry_space_group_name_H-M "C 2/M"
_symmetry_group_IT_number 12
_symmetry_cell_setting 'monoclinic'
loop_
_space_group_symop_operation_xyz
x,y,z
-x,y,-z
-x,-y,-z
x,-y,z
1/2+x,1/2+y,z
1/2-x,1/2+y,-z
1/2-x,1/2-y,-z
1/2+x,1/2-y,z
loop_
_atom_site_type_symbol
_atom_site_label
_atom_site_fract_x
_atom_site_fract_y
_atom_site_fract_z
Si Si1 0.669873 0.880131 0.310239
Si Si2 0.805566 0.119884 0.401225
Si Si3 0.346672 0.612982 0.992662
Si Si4 0.244527 0.812684 0.113873
O O1 0.412233 0.848717 0.434575
O O2 0.735953 0.851519 0.356522
O O3 0.665220 0.000000 0.312624
O O4 0.888155 0.856284 0.144833
O O5 0.057265 0.160558 0.274010
O O6 0.819177 0.000000 0.397430
O O7 0.312979 0.500000 0.036323
O O8 0.208692 0.700174 0.104512
O O9 0.294176 0.618963 0.935907
O O10 0.500000 0.827987 0.000000
#
# Coordination Sequence:
#
# PCOD9177601 Si02
#       4
#     8   8   8   8
#     4   7  11  23  43  63  82 110 149 186 215 246
#     4   8  13  23  42  66  88 111 144 185 221 254
#     4   9  18  32  48  66  90 119 150 184 220 261
#     4  10  19  29  44  71  95 116 146 180 226 270
#
# _framework density 21.592016000000001
#
# number of rings (size 3 to 8) (size 9 to 14) (size 15 to 20)
#    0.000    3.500    0.000    3.750    0.000    2.500 
#    0.000    1.250    0.000    0.000    0.000   33.250 
#    0.000    0.000    0.000    0.000    0.000    0.000 
#
# Total GULP energy -89148.723736 kJ/mol
# GULP energy per Si atom -5571.795233 kJ/mol
# Density = 2.154287 g / cm^3
# Si number density = 21.592016 Si / 1000 Ang^3
#
#
#
# Elastic Constant Matrix: (Units=GPa)
#
#
# Indices 1 2 3 4 5 6 
#
# 1 49.3998 6.0005 7.6162 -0.0003 -17.9382 0.0001
# 2 6.0005 84.4292 45.8556 -0.0017 -8.5572 0.0005
# 3 7.6162 45.8556 102.8448 -0.0038 -45.0487 0.0009
# 4 -0.0003 -0.0017 -0.0038 35.7789 0.0010 -1.2719
# 5 -17.9382 -8.5572 -45.0487 0.0010 40.8918 -0.0002
# 6 0.0001 0.0005 0.0009 -1.2719 -0.0002 12.7619
#
#
#
# Elastic Compliance Matrix: (Units=1/GPa)
#
#
# Indices 1 2 3 4 5 6 
#
# 1 0.027155 -0.004970 0.009600 0.000000 0.021447 0.000000
# 2 -0.004970 0.018240 -0.013620 0.000000 -0.013368 0.000000
# 3 0.009600 -0.013620 0.030305 0.000002 0.034747 -0.000001
# 4 0.000000 0.000000 0.000002 0.028049 0.000001 0.002795
# 5 0.021447 -0.013368 0.034747 0.000001 0.069345 -0.000001
# 6 0.000000 0.000000 -0.000001 0.002795 -0.000001 0.078637
#
#
# Mechanical properties :
#
#
# Convention : Reuss Voigt Hill
#
# Bulk Modulus (GPa) = 17.32527 39.51316 28.41921
# Shear Modulus (GPa) = 17.30392 29.69997 23.50195
#
# Velocity S-wave (km/s) = 2.83398 3.71281 3.30275
# Velocity P-wave (km/s) = 4.33012 6.05966 5.26638
#
# Compressibility (1/GPa) = 0.05771915
#
# Stress axis : x y z
#
# Youngs Moduli (GPa) = 36.82597 54.82449 32.99738
#
# Poissons Ratio (x) = 0.27247 -0.31676
# Poissons Ratio (y) = 0.18302 0.44943
# Poissons Ratio (z) = -0.35351 0.74672
#
# Static dielectric constant tensor:
#      x y z
#    x 1.838300 0.000000 0.005360 
#    y 0.000000 1.774380 0.000000 
#    z 0.005360 0.000000 1.879490 
# 
# From -- ./inp_files/58007.got.cif
#   From: 2010.05.17/outbox.cif.g08.bks.cpg/sg12_30_cif.got.tgz:58007.got - 2010.06.03 13:09:07.
