data_PCOD9177005
_publ_section_title
;
Structure prediction by ZEFSAII (Michael W. Deem and Ramdas Pophale) SiO2 
 PCOD9177005
Probable space group: C 2/M
;
_chemical_formula_sum "Si O2"
_cell_formula_units_Z 56
_cell_length_a 9.305319
_cell_length_b 22.197415
_cell_length_c 14.591719
_cell_angle_alpha 90.000000
_cell_angle_beta 75.408295
_cell_angle_gamma 90.000000
_cell_volume 2916.764428
_symmetry_space_group_name_H-M "C 2/M"
_symmetry_group_IT_number 12
_symmetry_cell_setting 'monoclinic'
loop_
_space_group_symop_operation_xyz
x,y,z
-x,y,-z
-x,-y,-z
x,-y,z
1/2+x,1/2+y,z
1/2-x,1/2+y,-z
1/2-x,1/2-y,-z
1/2+x,1/2-y,z
loop_
_atom_site_type_symbol
_atom_site_label
_atom_site_fract_x
_atom_site_fract_y
_atom_site_fract_z
Si Si1 0.467494 0.879161 0.405633
Si Si2 0.155555 0.158456 0.867070
Si Si3 0.243919 0.070913 0.700166
Si Si4 0.812414 0.812266 0.946788
Si Si5 0.548313 0.252671 0.632849
Si Si6 0.742891 0.722051 0.233015
Si Si7 0.653007 0.631957 0.522239
O O1 0.500000 0.906836 0.500000
O O2 0.580268 0.912206 0.320417
O O3 0.513026 0.808683 0.400639
O O4 0.289667 0.879269 0.430871
O O5 0.160912 0.103458 0.796846
O O6 0.261384 0.210346 0.808657
O O7 0.989744 0.187500 0.898207
O O8 0.202725 0.143540 0.963756
O O9 0.187271 0.099204 0.613070
O O10 0.223843 0.000000 0.702986
O O11 0.734700 0.819308 0.860356
O O12 0.750000 0.750000 0.000000
O O13 0.412382 0.291583 0.693663
O O14 0.638319 0.228127 0.705949
O O15 0.637502 0.297168 0.551873
O O16 0.500000 0.613131 0.500000
#
# Coordination Sequence:
#
# PCOD9177005 Si02
#       7
#     8   8   8   8   8   8   8
#     4  10  21  36  55  81 115 157 201 243 296 351
#     4  10  18  37  53  81 115 146 194 236 278 344
#     4  11  23  41  62  81 112 161 209 247 281 338
#     4   9  19  31  55  83 117 148 178 228 290 355
#     4  12  19  32  55  86 122 153 188 235 303 365
#     4  11  18  30  53  83 119 150 178 228 289 355
#     4  11  22  36  55  85 118 153 195 253 305 346
#
# _framework density 19.199355000000001
#
# number of rings (size 3 to 8) (size 9 to 14) (size 15 to 20)
#    0.000    1.429    4.286    2.571    0.000    2.857 
#    0.000    1.429    0.000    0.000    0.000    2.000 
#    0.000    0.000    0.000    0.000    0.000    0.000 
#
# Total GULP energy -155997.083522 kJ/mol
# GULP energy per Si atom -5571.324411 kJ/mol
# Density = 1.915566 g / cm^3
# Si number density = 19.199355 Si / 1000 Ang^3
#
#
#
# Elastic Constant Matrix: (Units=GPa)
#
#
# Indices 1 2 3 4 5 6 
#
# 1 79.5928 14.5865 45.8601 0.0000 -11.4383 0.0000
# 2 14.5865 75.9804 17.9085 0.0000 -8.5091 0.0000
# 3 45.8601 17.9085 84.2747 0.0000 0.1200 0.0000
# 4 0.0000 0.0000 0.0000 8.4496 0.0000 0.3563
# 5 -11.4383 -8.5091 0.1200 0.0000 35.2386 0.0000
# 6 0.0000 0.0000 0.0000 0.3563 0.0000 12.2658
#
#
#
# Elastic Compliance Matrix: (Units=1/GPa)
#
#
# Indices 1 2 3 4 5 6 
#
# 1 0.019677 -0.000577 -0.010594 0.000000 0.006284 0.000000
# 2 -0.000577 0.014281 -0.002725 0.000000 0.003270 0.000000
# 3 -0.010594 -0.002725 0.018216 0.000000 -0.004159 0.000000
# 4 0.000000 0.000000 0.000000 0.118494 0.000000 -0.003442
# 5 0.006284 0.003270 -0.004159 0.000000 0.031222 0.000000
# 6 0.000000 0.000000 0.000000 -0.003442 0.000000 0.081628
#
#
# Mechanical properties :
#
#
# Convention : Reuss Voigt Hill
#
# Bulk Modulus (GPa) = 41.01549 44.06201 42.53875
# Shear Modulus (GPa) = 15.65260 21.95699 18.80480
#
# Velocity S-wave (km/s) = 2.85839 3.38543 3.13301
# Velocity P-wave (km/s) = 5.68359 6.18717 5.94072
#
# Compressibility (1/GPa) = 0.02438104
#
# Stress axis : x y z
#
# Youngs Moduli (GPa) = 50.82138 70.02480 54.89680
#
# Poissons Ratio (x) = 0.04039 0.58157
# Poissons Ratio (y) = 0.02931 0.14962
# Poissons Ratio (z) = 0.53840 0.19085
#
# Static dielectric constant tensor:
#      x y z
#    x 1.753390 0.000000 0.012780 
#    y 0.000000 1.641020 0.000000 
#    z 0.012780 0.000000 1.763250 
# 
# From -- ./inp_files/198396.got.cif
#   From: 2010.05.17/outbox.cif.g08.bks.cpg/sg12_100_cif.got.tgz:198396.got - 2010.06.03 13:09:07.
