data_PCOD9177654
_publ_section_title
;
Structure prediction by ZEFSAII (Michael W. Deem and Ramdas Pophale) SiO2 
 PCOD9177654
Probable space group: C 2/M
;
_chemical_formula_sum "Si O2"
_cell_formula_units_Z 58
_cell_length_a 27.749022
_cell_length_b 8.995542
_cell_length_c 9.534012
_cell_angle_alpha 90.000000
_cell_angle_beta 82.803702
_cell_angle_gamma 90.000000
_cell_volume 2361.109563
_symmetry_space_group_name_H-M "C 2/M"
_symmetry_group_IT_number 12
_symmetry_cell_setting 'monoclinic'
loop_
_space_group_symop_operation_xyz
x,y,z
-x,y,-z
-x,-y,-z
x,-y,z
1/2+x,1/2+y,z
1/2-x,1/2+y,-z
1/2-x,1/2-y,-z
1/2+x,1/2-y,z
loop_
_atom_site_type_symbol
_atom_site_label
_atom_site_fract_x
_atom_site_fract_y
_atom_site_fract_z
Si Si1 0.621100 0.669844 0.881594
Si Si2 0.949227 0.339098 0.267172
Si Si3 0.893506 0.333622 0.670062
Si Si4 0.329234 0.324722 0.483009
Si Si5 0.000000 0.500000 0.500000
Si Si6 0.251985 0.680466 0.293067
Si Si7 0.307918 0.166996 0.938658
Si Si8 0.960115 0.167643 0.845749
O O1 0.635082 0.500000 0.857813
O O2 0.594993 0.730335 0.751594
O O3 0.664341 0.749899 0.948175
O O4 0.577203 0.676481 0.012608
O O5 0.932687 0.500000 0.218058
O O6 0.971581 0.371639 0.412261
O O7 0.995767 0.280641 0.165436
O O8 0.917112 0.500000 0.655695
O O9 0.869883 0.283053 0.533390
O O10 0.849733 0.341204 0.799604
O O11 0.929666 0.213096 0.719290
O O12 0.341192 0.500000 0.493565
O O13 0.305333 0.296912 0.339310
O O14 0.283615 0.282604 0.601165
O O15 0.242354 0.500000 0.312548
O O16 0.237745 0.720847 0.138906
O O17 0.296839 0.000000 0.989513
O O18 0.979208 0.000000 0.830058
#
# Coordination Sequence:
#
# PCOD9177654 Si02
#       8
#     8   8   8   8   2   8   8   8
#     4  10  19  29  45  72  98 118 146 186 231 276
#     4  10  20  36  52  65  89 116 150 183 226 266
#     4   9  16  25  36  55  84 117 152 185 218 263
#     4   9  14  20  31  47  72 111 156 194 217 246
#     4   8  24  40  52  68  84 112 162 190 216 272
#     4   8  14  22  31  45  71 112 159 190 214 253
#     4   8  14  24  36  54  82 116 152 185 217 260
#     4  10  19  30  47  73  98 118 146 186 231 276
#
# _framework density 24.564723999999998
#
# number of rings (size 3 to 8) (size 9 to 14) (size 15 to 20)
#    0.414    2.483    0.000    3.310    0.000    7.172 
#    0.000    1.379    0.000    0.000    0.000    0.000 
#    0.000    0.000    0.000    1.241    3.586    0.966 
#
# Total GULP energy -161795.232817 kJ/mol
# GULP energy per Si atom -5579.145959 kJ/mol
# Density = 2.450881 g / cm^3
# Si number density = 24.564724 Si / 1000 Ang^3
#
#
#
# Elastic Constant Matrix: (Units=GPa)
#
#
# Indices 1 2 3 4 5 6 
#
# 1 85.9728 17.1575 39.4301 0.0000 36.0067 0.0000
# 2 17.1575 83.9490 54.7886 0.0000 35.4339 0.0000
# 3 39.4301 54.7886 185.9446 0.0000 43.8027 0.0000
# 4 0.0000 0.0000 0.0000 35.3366 0.0000 15.4631
# 5 36.0067 35.4339 43.8027 0.0000 54.2734 0.0000
# 6 0.0000 0.0000 0.0000 15.4631 0.0000 30.5290
#
#
#
# Elastic Compliance Matrix: (Units=1/GPa)
#
#
# Indices 1 2 3 4 5 6 
#
# 1 0.016614 0.002408 -0.001563 0.000000 -0.011333 0.000000
# 2 0.002408 0.018124 -0.003318 0.000000 -0.010752 0.000000
# 3 -0.001563 -0.003318 0.007325 0.000000 -0.002709 0.000000
# 4 0.000000 0.000000 0.000000 0.036358 0.000000 -0.018415
# 5 -0.011333 -0.010752 -0.002709 0.000000 0.035150 0.000000
# 6 0.000000 0.000000 0.000000 -0.018415 0.000000 0.042083
#
#
# Mechanical properties :
#
#
# Convention : Reuss Voigt Hill
#
# Bulk Modulus (GPa) = 26.94142 64.29099 45.61621
# Shear Modulus (GPa) = 28.90639 40.32717 34.61678
#
# Velocity S-wave (km/s) = 3.43409 4.05615 3.75801
# Velocity P-wave (km/s) = 5.16869 6.94013 6.11885
#
# Compressibility (1/GPa) = 0.03711756
#
# Stress axis : x y z
#
# Youngs Moduli (GPa) = 60.18901 55.17652 136.51707
#
# Poissons Ratio (x) = -0.13286 0.21336
# Poissons Ratio (y) = -0.14493 0.45294
# Poissons Ratio (z) = 0.09407 0.18307
#
# Static dielectric constant tensor:
#      x y z
#    x 5.015070 0.000000 0.099700 
#    y 0.000000 1.847680 0.000000 
#    z 0.099700 0.000000 2.017000 
# 
# From -- ./inp_files/186761.got.cif
#   From: 2010.05.17/outbox.cif.g08.bks.cpg/sg12_94_cif.got.tgz:186761.got - 2010.06.03 13:09:07.
