data_PCOD9177371
_publ_section_title
;
Structure prediction by ZEFSAII (Michael W. Deem and Ramdas Pophale) SiO2 
 PCOD9177371
Probable space group: C 2/M
;
_chemical_formula_sum "Si O2"
_cell_formula_units_Z 48
_cell_length_a 19.038603
_cell_length_b 15.469209
_cell_length_c 17.815394
_cell_angle_alpha 90.000000
_cell_angle_beta 31.859885
_cell_angle_gamma 90.000000
_cell_volume 2769.517076
_symmetry_space_group_name_H-M "C 2/M"
_symmetry_group_IT_number 12
_symmetry_cell_setting 'monoclinic'
loop_
_space_group_symop_operation_xyz
x,y,z
-x,y,-z
-x,-y,-z
x,-y,z
1/2+x,1/2+y,z
1/2-x,1/2+y,-z
1/2-x,1/2-y,-z
1/2+x,1/2-y,z
loop_
_atom_site_type_symbol
_atom_site_label
_atom_site_fract_x
_atom_site_fract_y
_atom_site_fract_z
Si Si1 0.043016 0.596943 0.337777
Si Si2 0.089931 0.897295 0.345461
Si Si3 0.167664 0.754502 0.690604
Si Si4 0.869244 0.599011 0.169176
Si Si5 0.542812 0.730163 0.649273
Si Si6 0.278760 0.096921 0.683102
O O1 0.055138 0.500000 0.294694
O O2 0.163749 0.612482 0.286049
O O3 0.025749 0.676172 0.297602
O O4 0.909438 0.597026 0.510530
O O5 0.240458 0.880185 0.235011
O O6 0.000000 0.875091 0.500000
O O7 0.041641 0.840626 0.319333
O O8 0.074441 0.000000 0.344891
O O9 0.122396 0.666642 0.771107
O O10 0.313459 0.736076 0.522537
O O11 0.074233 0.785586 0.707665
O O12 0.185111 0.828722 0.736932
O O13 0.851056 0.500000 0.212747
O O14 0.000000 0.602962 0.000000
O O15 0.221922 0.000000 0.731293
#
# Coordination Sequence:
#
# PCOD9177371 Si02
#       6
#     8   8   8   8   8   8
#     4   8  14  24  39  62  91 126 160 193 243 297
#     4  10  19  33  54  77 102 137 178 219 261 307
#     4  10  19  30  46  75 107 134 165 209 266 309
#     4  10  21  37  56  76 102 140 182 219 257 310
#     4  10  19  28  47  77 107 132 161 215 267 308
#     4   8  14  25  42  62  89 124 161 198 237 293
#
# _framework density 17.331541999999999
#
# number of rings (size 3 to 8) (size 9 to 14) (size 15 to 20)
#    0.000    2.667    1.667    2.000    2.333    1.333 
#    0.000    4.167    0.000    0.500    0.000    0.000 
#    0.000    0.000    0.000    0.000    0.000    0.000 
#
# Total GULP energy -133750.509216 kJ/mol
# GULP energy per Si atom -5572.937884 kJ/mol
# Density = 1.729209 g / cm^3
# Si number density = 17.331542 Si / 1000 Ang^3
#
#
#
# Elastic Constant Matrix: (Units=GPa)
#
#
# Indices 1 2 3 4 5 6 
#
# 1 87.3381 54.7162 28.7143 0.0000 -7.1964 0.0001
# 2 54.7162 83.5342 22.2967 0.0000 2.5892 0.0000
# 3 28.7143 22.2967 27.4019 0.0000 -10.2413 0.0000
# 4 0.0000 0.0000 0.0000 7.9198 0.0000 -3.1330
# 5 -7.1964 2.5892 -10.2413 0.0000 12.9400 0.0000
# 6 0.0001 0.0000 0.0000 -3.1330 0.0000 8.0232
#
#
#
# Elastic Compliance Matrix: (Units=1/GPa)
#
#
# Indices 1 2 3 4 5 6 
#
# 1 0.023912 -0.012397 -0.012884 0.000000 0.005582 0.000000
# 2 -0.012397 0.025548 -0.017445 0.000000 -0.025813 0.000000
# 3 -0.012884 -0.017445 0.089202 0.000000 0.066924 0.000000
# 4 0.000000 0.000000 0.000000 0.149333 0.000000 0.058312
# 5 0.005582 -0.025813 0.066924 0.000000 0.138516 0.000001
# 6 0.000000 0.000000 0.000000 0.058312 0.000001 0.147408
#
#
# Mechanical properties :
#
#
# Convention : Reuss Voigt Hill
#
# Bulk Modulus (GPa) = 18.79320 45.52539 32.15929
# Shear Modulus (GPa) = 7.38436 11.94641 9.66538
#
# Velocity S-wave (km/s) = 2.06637 2.62828 2.36408
# Velocity P-wave (km/s) = 4.06941 5.96111 5.10367
#
# Compressibility (1/GPa) = 0.05321074
#
# Stress axis : x y z
#
# Youngs Moduli (GPa) = 41.82005 39.14241 11.21052
#
# Poissons Ratio (x) = 0.48524 0.14443
# Poissons Ratio (y) = 0.51844 0.19557
# Poissons Ratio (z) = 0.53880 0.68284
#
# Static dielectric constant tensor:
#      x y z
#    x 1.577130 0.000000 -0.011660 
#    y 0.000000 1.607450 0.000000 
#    z -0.011660 0.000000 1.576190 
# 
# From -- ./inp_files/283974.got.cif
#   From: 2010.05.17/outbox.cif.g08.bks.cpg/sg12_142_cif.got.tgz:283974.got - 2010.06.03 13:09:07.
