data_PCOD9177053
_publ_section_title
;
Structure prediction by ZEFSAII (Michael W. Deem and Ramdas Pophale) SiO2 
 PCOD9177053
Probable space group: C 2/M
;
_chemical_formula_sum "Si O2"
_cell_formula_units_Z 48
_cell_length_a 18.017266
_cell_length_b 14.956257
_cell_length_c 17.138018
_cell_angle_alpha 90.000000
_cell_angle_beta 31.994230
_cell_angle_gamma 90.000000
_cell_volume 2446.876850
_symmetry_space_group_name_H-M "C 2/M"
_symmetry_group_IT_number 12
_symmetry_cell_setting 'monoclinic'
loop_
_space_group_symop_operation_xyz
x,y,z
-x,y,-z
-x,-y,-z
x,-y,z
1/2+x,1/2+y,z
1/2-x,1/2+y,-z
1/2-x,1/2-y,-z
1/2+x,1/2-y,z
loop_
_atom_site_type_symbol
_atom_site_label
_atom_site_fract_x
_atom_site_fract_y
_atom_site_fract_z
Si Si1 0.607256 0.103578 0.054573
Si Si2 0.038177 0.601764 0.299203
Si Si3 0.274147 0.330796 0.417292
Si Si4 0.321812 0.279858 0.779854
Si Si5 0.087397 0.900740 0.563046
Si Si6 0.330108 0.186126 0.247114
O O1 0.553900 0.107903 0.191310
O O2 0.478995 0.138078 0.116444
O O3 0.643999 0.000000 0.004596
O O4 0.734851 0.171060 0.925628
O O5 0.069022 0.500000 0.295299
O O6 0.142488 0.676073 0.240071
O O7 0.877022 0.625635 0.463627
O O8 0.250000 0.250000 0.500000
O O9 0.373952 0.393695 0.379573
O O10 0.337226 0.281377 0.286104
O O11 0.471121 0.329046 0.644547
O O12 0.236676 0.297938 0.777140
O O13 0.225189 0.876496 0.390729
O O14 0.038559 0.000000 0.587827
#
# Coordination Sequence:
#
# PCOD9177053 Si02
#       6
#     8   8   8   8   8   8
#     4  11  23  40  63  90 122 165 203 239 299 370
#     4  11  22  41  65  87 118 162 209 250 297 354
#     4  10  18  37  61  85 113 155 203 244 291 351
#     4  12  24  38  58  93 127 154 196 253 303 354
#     4  11  21  36  61  88 118 157 200 247 296 353
#     4  11  22  38  61  85 127 161 194 242 307 359
#
# _framework density 19.616844
#
# number of rings (size 3 to 8) (size 9 to 14) (size 15 to 20)
#    0.000    1.000    6.667    3.000    0.000    4.000 
#    0.000    2.500    0.000    3.000    0.000    0.000 
#    0.000    0.000    0.000    0.000    0.000    0.000 
#
# Total GULP energy -134039.592916 kJ/mol
# GULP energy per Si atom -5584.983038 kJ/mol
# Density = 1.957219 g / cm^3
# Si number density = 19.616844 Si / 1000 Ang^3
#
#
#
# Elastic Constant Matrix: (Units=GPa)
#
#
# Indices 1 2 3 4 5 6 
#
# 1 38.9120 6.7540 -11.2048 0.0002 -2.1285 0.0000
# 2 6.7540 132.7561 16.7625 -0.0002 -6.7480 0.0001
# 3 -11.2048 16.7625 34.7430 -0.0009 -9.4394 0.0003
# 4 0.0002 -0.0002 -0.0009 20.8250 0.0001 -9.0167
# 5 -2.1285 -6.7480 -9.4394 0.0001 24.1313 0.0000
# 6 0.0000 0.0001 0.0003 -9.0167 0.0000 2.8064
#
#
#
# Elastic Compliance Matrix: (Units=1/GPa)
#
#
# Indices 1 2 3 4 5 6 
#
# 1 0.030330 -0.002835 0.013048 0.000000 0.006986 0.000000
# 2 -0.002835 0.008301 -0.004875 0.000000 0.000164 0.000000
# 3 0.013048 -0.004875 0.039481 0.000000 0.015232 -0.000003
# 4 0.000000 0.000000 0.000000 -0.122780 0.000001 -0.394481
# 5 0.006986 0.000164 0.015232 0.000001 0.048060 0.000001
# 6 0.000000 0.000000 -0.000003 -0.394481 0.000001 -0.911097
#
#
# Mechanical properties :
#
#
# Convention : Reuss Voigt Hill
#
# Bulk Modulus (GPa) = 11.26282 25.67050 18.46666
# Shear Modulus (GPa) = -5.62566 22.49250 8.43342
#
# Velocity S-wave (km/s) = -1.69529 3.38981 2.07567
# Velocity P-wave (km/s) = 1.38632 5.33249 3.89598
#
# Compressibility (1/GPa) = 0.08878768
#
# Stress axis : x y z
#
# Youngs Moduli (GPa) = 32.97013 120.47158 25.32867
#
# Poissons Ratio (x) = 0.34159 -0.33049
# Poissons Ratio (y) = 0.09348 0.12347
# Poissons Ratio (z) = -0.43019 0.58726
#
# Static dielectric constant tensor:
#      x y z
#    x 1.700840 0.000000 0.015480 
#    y 0.000000 1.729990 0.000000 
#    z 0.015480 0.000000 1.704050 
# 
# From -- ./inp_files/111470.got.cif
#   From: 2010.05.17/outbox.cif.g08.bks.cpg/sg12_56_cif.got.tgz:111470.got - 2010.06.03 13:09:07.
