data_PCOD9177743
_publ_section_title
;
Structure prediction by ZEFSAII (Michael W. Deem and Ramdas Pophale) SiO2 
 PCOD9177743
Probable space group: C 2/M
;
_chemical_formula_sum "Si O2"
_cell_formula_units_Z 48
_cell_length_a 28.758433
_cell_length_b 8.722295
_cell_length_c 20.330027
_cell_angle_alpha 90.000000
_cell_angle_beta 145.997401
_cell_angle_gamma 90.000000
_cell_volume 2851.837669
_symmetry_space_group_name_H-M "C 2/M"
_symmetry_group_IT_number 12
_symmetry_cell_setting 'monoclinic'
loop_
_space_group_symop_operation_xyz
x,y,z
-x,y,-z
-x,-y,-z
x,-y,z
1/2+x,1/2+y,z
1/2-x,1/2+y,-z
1/2-x,1/2-y,-z
1/2+x,1/2-y,z
loop_
_atom_site_type_symbol
_atom_site_label
_atom_site_fract_x
_atom_site_fract_y
_atom_site_fract_z
Si Si1 0.060536 0.823106 0.135036
Si Si2 0.842549 0.184809 0.100569
Si Si3 0.802009 0.317657 0.787615
Si Si4 0.944221 0.316316 0.341629
Si Si5 0.613530 0.315335 0.587624
Si Si6 0.406421 0.314753 0.030774
O O1 0.142393 0.734416 0.208970
O O2 0.999976 0.762861 0.121334
O O3 0.082331 0.000000 0.173660
O O4 0.000000 0.820690 0.000000
O O5 0.899711 0.253982 0.224677
O O6 0.877594 0.227273 0.069700
O O7 0.841179 0.000000 0.103837
O O8 0.750000 0.250000 0.000000
O O9 0.806553 0.500000 0.798987
O O10 0.705402 0.273688 0.670675
O O11 0.843473 0.246625 0.901690
O O12 0.940879 0.500000 0.340739
O O13 0.898929 0.246364 0.352836
O O14 0.039094 0.258476 0.458625
O O15 0.604791 0.500000 0.577451
O O16 0.406816 0.500000 0.026053
#
# Coordination Sequence:
#
# PCOD9177743 Si02
#       6
#     8   8   8   8   8   8
#     4   8  15  29  47  68  96 129 163 198 241 290
#     4  11  22  36  53  74 102 133 166 202 243 293
#     4  10  19  29  48  77 102 126 160 203 247 288
#     4  11  22  35  52  75 100 129 167 205 246 292
#     4  10  20  35  53  73 100 132 165 203 247 292
#     4   9  19  33  49  70  99 135 166 196 240 293
#
# _framework density 16.831253
#
# number of rings (size 3 to 8) (size 9 to 14) (size 15 to 20)
#    0.000    2.167    0.000    6.000    0.000    9.667 
#    0.000    0.000    0.000    1.000    0.000    0.000 
#    0.000    0.000    0.000    0.000    0.000    0.000 
#
# Total GULP energy -133888.744866 kJ/mol
# GULP energy per Si atom -5578.697703 kJ/mol
# Density = 1.679294 g / cm^3
# Si number density = 16.831253 Si / 1000 Ang^3
#
#
#
# Elastic Constant Matrix: (Units=GPa)
#
#
# Indices 1 2 3 4 5 6 
#
# 1 138.6313 40.3955 86.2019 0.0000 21.7356 0.0000
# 2 40.3955 53.5483 35.6230 0.0000 7.9540 0.0000
# 3 86.2019 35.6230 106.1758 0.0000 20.2216 0.0000
# 4 0.0000 0.0000 0.0000 26.0303 0.0000 4.0527
# 5 21.7356 7.9540 20.2216 0.0000 31.6175 0.0000
# 6 0.0000 0.0000 0.0000 4.0527 0.0000 24.2323
#
#
#
# Elastic Compliance Matrix: (Units=1/GPa)
#
#
# Indices 1 2 3 4 5 6 
#
# 1 0.015484 -0.004193 -0.010634 0.000000 -0.002789 0.000000
# 2 -0.004193 0.025204 -0.005003 0.000000 -0.000258 0.000000
# 3 -0.010634 -0.005003 0.020608 0.000000 -0.004612 0.000000
# 4 0.000000 0.000000 0.000000 0.039444 0.000000 -0.006597
# 5 -0.002789 -0.000258 -0.004612 0.000000 0.036560 0.000000
# 6 0.000000 0.000000 0.000000 -0.006597 0.000000 0.042371
#
#
# Mechanical properties :
#
#
# Convention : Reuss Voigt Hill
#
# Bulk Modulus (GPa) = 46.21414 69.19959 57.70686
# Shear Modulus (GPa) = 22.07084 25.45168 23.76126
#
# Velocity S-wave (km/s) = 3.62512 3.89288 3.76138
# Velocity P-wave (km/s) = 6.71110 7.83639 7.29548
#
# Compressibility (1/GPa) = 0.02163840
#
# Stress axis : x y z
#
# Youngs Moduli (GPa) = 64.58095 39.67574 48.52384
#
# Poissons Ratio (x) = 0.16635 0.51598
# Poissons Ratio (y) = 0.27077 0.24277
# Poissons Ratio (z) = 0.68673 0.19850
#
# Static dielectric constant tensor:
#      x y z
#    x 1.581610 0.000000 0.024900 
#    y 0.000000 1.567880 0.000000 
#    z 0.024900 0.000000 1.547270 
# 
# From -- ./inp_files/327307.got.cif
#   From: 2010.05.17/outbox.cif.g08.bks.cpg/sg12_164_cif.got.tgz:327307.got - 2010.06.03 13:09:07.
