data_PCOD9177855
_publ_section_title
;
Structure prediction by ZEFSAII (Michael W. Deem and Ramdas Pophale) SiO2 
 PCOD9177855
Probable space group: C 2/M
;
_chemical_formula_sum "Si O2"
_cell_formula_units_Z 56
_cell_length_a 9.991575
_cell_length_b 25.817511
_cell_length_c 15.172231
_cell_angle_alpha 90.000000
_cell_angle_beta 118.682303
_cell_angle_gamma 90.000000
_cell_volume 3433.548221
_symmetry_space_group_name_H-M "C 2/M"
_symmetry_group_IT_number 12
_symmetry_cell_setting 'monoclinic'
loop_
_space_group_symop_operation_xyz
x,y,z
-x,y,-z
-x,-y,-z
x,-y,z
1/2+x,1/2+y,z
1/2-x,1/2+y,-z
1/2-x,1/2-y,-z
1/2+x,1/2-y,z
loop_
_atom_site_type_symbol
_atom_site_label
_atom_site_fract_x
_atom_site_fract_y
_atom_site_fract_z
Si Si1 0.827778 0.678267 0.452979
Si Si2 0.838711 0.288269 0.805258
Si Si3 0.400359 0.058965 0.878266
Si Si4 0.381191 0.138443 0.135336
Si Si5 0.808820 0.141179 0.102991
Si Si6 0.662311 0.664841 0.223298
Si Si7 0.169956 0.802979 0.576082
O O1 0.720159 0.657310 0.341730
O O2 0.826575 0.740694 0.437368
O O3 0.774615 0.670915 0.535827
O O4 0.000000 0.659599 0.500000
O O5 0.767858 0.308939 0.873710
O O6 0.841569 0.226539 0.798570
O O7 0.729440 0.310209 0.693209
O O8 0.005864 0.312360 0.841540
O O9 0.504629 0.089792 0.841270
O O10 0.254180 0.093287 0.858428
O O11 0.366692 0.000000 0.842731
O O12 0.500000 0.058336 0.000000
O O13 0.285337 0.141234 0.194493
O O14 0.262668 0.137243 0.016736
O O15 0.990564 0.144634 0.158030
O O16 0.000000 0.820074 0.500000
#
# Coordination Sequence:
#
# PCOD9177855 Si02
#       7
#     8   8   8   8   8   8   8
#     4   9  17  28  41  58  85 121 155 189 227 258
#     4  10  19  30  44  63  94 134 163 183 215 264
#     4   8  16  34  54  66  83 115 152 193 238 275
#     4  10  20  31  45  67  94 125 159 185 216 275
#     4  10  20  31  45  68  94 122 157 190 219 265
#     4  11  20  29  43  67 100 128 152 188 224 261
#     4   9  16  27  42  59  81 116 162 199 222 248
#
# _framework density 16.309659
#
# number of rings (size 3 to 8) (size 9 to 14) (size 15 to 20)
#    0.000    2.429    0.000    4.286    0.000    8.000 
#    0.000    0.714    0.000    3.429    0.000    0.000 
#    0.000   72.000    0.000    0.000    0.000    0.000 
#
# Total GULP energy -156054.938653 kJ/mol
# GULP energy per Si atom -5573.390666 kJ/mol
# Density = 1.627254 g / cm^3
# Si number density = 16.309659 Si / 1000 Ang^3
#
#
#
# Elastic Constant Matrix: (Units=GPa)
#
#
# Indices 1 2 3 4 5 6 
#
# 1 93.3603 21.0035 11.8218 0.0000 8.2695 0.0000
# 2 21.0035 66.7040 8.0167 0.0000 0.8579 0.0000
# 3 11.8218 8.0167 54.0463 0.0000 6.4010 0.0000
# 4 0.0000 0.0000 0.0000 -0.0046 0.0000 -2.8061
# 5 8.2695 0.8579 6.4010 0.0000 26.8623 0.0000
# 6 0.0000 0.0000 0.0000 -2.8061 0.0000 2.1028
#
#
#
# Elastic Compliance Matrix: (Units=1/GPa)
#
#
# Indices 1 2 3 4 5 6 
#
# 1 0.012005 -0.003532 -0.001726 0.000000 -0.003172 0.000000
# 2 -0.003532 0.016303 -0.001763 0.000000 0.000987 0.000000
# 3 -0.001726 -0.001763 0.019626 0.000000 -0.004089 0.000000
# 4 0.000000 0.000000 0.000000 -0.266734 0.000000 -0.355938
# 5 -0.003172 0.000987 -0.004089 0.000000 0.039146 0.000000
# 6 0.000000 0.000000 0.000000 -0.355938 0.000000 0.000579
#
#
# Mechanical properties :
#
#
# Convention : Reuss Voigt Hill
#
# Bulk Modulus (GPa) = 29.50513 32.86607 31.18560
# Shear Modulus (GPa) = -32.52339 17.34335 -7.59002
#
# Velocity S-wave (km/s) = -4.47040 3.26449 -2.15958
# Velocity P-wave (km/s) = 2.91824 5.86551 3.59778
#
# Compressibility (1/GPa) = 0.03389241
#
# Stress axis : x y z
#
# Youngs Moduli (GPa) = 83.29643 61.33898 50.95287
#
# Poissons Ratio (x) = 0.21664 0.08797
# Poissons Ratio (y) = 0.29420 0.08980
# Poissons Ratio (z) = 0.14381 0.10811
#
# Static dielectric constant tensor:
#      x y z
#    x 1.519000 0.000000 0.008390 
#    y 0.000000 1.538970 0.000000 
#    z 0.008390 0.000000 1.543830 
# 
# From -- ./inp_files/198503.got.cif
#   From: 2010.05.17/outbox.cif.g08.bks.cpg/sg12_100_cif.got.tgz:198503.got - 2010.06.03 13:09:07.
