data_PCOD9177073
_publ_section_title
;
Structure prediction by ZEFSAII (Michael W. Deem and Ramdas Pophale) SiO2 
 PCOD9177073
Probable space group: C 2/M
;
_chemical_formula_sum "Si O2"
_cell_formula_units_Z 64
_cell_length_a 18.465698
_cell_length_b 31.996587
_cell_length_c 9.384740
_cell_angle_alpha 90.000000
_cell_angle_beta 143.831777
_cell_angle_gamma 90.000000
_cell_volume 3272.351498
_symmetry_space_group_name_H-M "C 2/M"
_symmetry_group_IT_number 12
_symmetry_cell_setting 'monoclinic'
loop_
_space_group_symop_operation_xyz
x,y,z
-x,y,-z
-x,-y,-z
x,-y,z
1/2+x,1/2+y,z
1/2-x,1/2+y,-z
1/2-x,1/2-y,-z
1/2+x,1/2-y,z
loop_
_atom_site_type_symbol
_atom_site_label
_atom_site_fract_x
_atom_site_fract_y
_atom_site_fract_z
Si Si1 0.867068 0.906656 0.867088
Si Si2 0.290548 0.235588 0.910251
Si Si3 0.252120 0.450741 0.420674
Si Si4 0.013568 0.089875 0.353720
Si Si5 0.899293 0.382995 0.951349
Si Si6 0.497713 0.172264 0.667964
Si Si7 0.282868 0.313213 0.701282
Si Si8 0.655167 0.327893 0.518450
O O1 0.774532 0.930123 0.613028
O O2 0.827458 0.858877 0.818253
O O3 0.000000 0.908342 0.000000
O O4 0.895631 0.922492 0.071438
O O5 0.323084 0.274797 0.862863
O O6 0.177181 0.209785 0.661664
O O7 0.250000 0.250000 0.000000
O O8 0.405978 0.205450 0.116282
O O9 0.240835 0.500000 0.415127
O O10 0.373549 0.437753 0.524586
O O11 0.139814 0.429238 0.158460
O O12 0.046859 0.138896 0.373290
O O13 0.000000 0.085257 0.500000
O O14 0.775241 0.357029 0.729391
O O15 0.954705 0.372094 0.193115
O O16 0.000000 0.367375 0.000000
O O17 0.500000 0.172983 0.500000
O O18 0.364252 0.183793 0.516371
O O19 0.334857 0.309473 0.624081
#
# Coordination Sequence:
#
# PCOD9177073 Si02
#       8
#     8   8   8   8   8   8   8   8
#     4  10  20  39  61  91 118 159 209 251 313 370
#     4  11  25  38  56  87 123 161 207 258 306 360
#     4  10  21  39  63  94 129 155 202 258 306 384
#     4  10  22  38  63  91 125 164 206 252 317 371
#     4  10  18  37  64  87 117 158 205 248 306 371
#     4  11  23  40  61  86 123 166 206 255 311 366
#     4  12  21  41  61  84 121 158 210 261 304 369
#     4  10  21  40  58  87 117 160 210 257 302 365
#
# _framework density 19.557801000000001
#
# number of rings (size 3 to 8) (size 9 to 14) (size 15 to 20)
#    0.000    1.500    6.250    0.375    1.750    4.750 
#    2.250    0.000    0.000    0.375    0.000    0.000 
#    0.000    0.000    0.000    0.000    0.000    0.000 
#
# Total GULP energy -178551.565315 kJ/mol
# GULP energy per Si atom -5579.736416 kJ/mol
# Density = 1.951329 g / cm^3
# Si number density = 19.557801 Si / 1000 Ang^3
#
#
#
# Elastic Constant Matrix: (Units=GPa)
#
#
# Indices 1 2 3 4 5 6 
#
# 1 39.4139 5.6142 31.5600 0.0000 -16.8271 0.0000
# 2 5.6142 106.8259 45.6761 0.0000 -15.9518 0.0000
# 3 31.5600 45.6761 101.0388 0.0000 -23.3669 0.0000
# 4 0.0000 0.0000 0.0000 10.1911 0.0000 3.1400
# 5 -16.8271 -15.9518 -23.3669 0.0000 28.5937 0.0000
# 6 0.0000 0.0000 0.0000 3.1400 0.0000 6.0889
#
#
#
# Elastic Compliance Matrix: (Units=1/GPa)
#
#
# Indices 1 2 3 4 5 6 
#
# 1 0.041236 0.005277 -0.011064 0.000000 0.018170 0.000000
# 2 0.005277 0.012450 -0.006106 0.000000 0.005061 0.000000
# 3 -0.011064 -0.006106 0.017040 0.000000 0.004008 0.000000
# 4 0.000000 0.000000 0.000000 0.116661 0.000000 -0.060161
# 5 0.018170 0.005061 0.004008 0.000000 0.051764 0.000000
# 6 0.000000 0.000000 0.000000 -0.060161 0.000000 0.195258
#
#
# Mechanical properties :
#
#
# Convention : Reuss Voigt Hill
#
# Bulk Modulus (GPa) = 21.30355 45.88659 33.59507
# Shear Modulus (GPa) = 10.55202 19.93664 15.24433
#
# Velocity S-wave (km/s) = 2.32530 3.19622 2.79489
# Velocity P-wave (km/s) = 4.25742 6.09377 5.25641
#
# Compressibility (1/GPa) = 0.04694054
#
# Stress axis : x y z
#
# Youngs Moduli (GPa) = 24.25036 80.31965 58.68454
#
# Poissons Ratio (x) = -0.42382 0.64928
# Poissons Ratio (y) = -0.12796 0.35833
# Poissons Ratio (z) = 0.26830 0.49044
#
# Static dielectric constant tensor:
#      x y z
#    x 1.678900 0.000000 0.000270 
#    y 0.000000 1.703350 0.000000 
#    z 0.000270 0.000000 1.775990 
# 
# From -- ./inp_files/80747.got.cif
#   From: 2010.05.17/outbox.cif.g08.bks.cpg/sg12_41_cif.got.tgz:80747.got - 2010.06.03 13:09:07.
