data_PCOD9177539
_publ_section_title
;
Structure prediction by ZEFSAII (Michael W. Deem and Ramdas Pophale) SiO2 
 PCOD9177539
Probable space group: C 2/M
;
_chemical_formula_sum "Si O2"
_cell_formula_units_Z 64
_cell_length_a 22.593208
_cell_length_b 12.101707
_cell_length_c 10.696108
_cell_angle_alpha 90.000000
_cell_angle_beta 100.920662
_cell_angle_gamma 90.000000
_cell_volume 2871.529968
_symmetry_space_group_name_H-M "C 2/M"
_symmetry_group_IT_number 12
_symmetry_cell_setting 'monoclinic'
loop_
_space_group_symop_operation_xyz
x,y,z
-x,y,-z
-x,-y,-z
x,-y,z
1/2+x,1/2+y,z
1/2-x,1/2+y,-z
1/2-x,1/2-y,-z
1/2+x,1/2-y,z
loop_
_atom_site_type_symbol
_atom_site_label
_atom_site_fract_x
_atom_site_fract_y
_atom_site_fract_z
Si Si1 0.618212 0.131287 0.470065
Si Si2 0.681143 0.842377 0.862162
Si Si3 0.949209 0.632712 0.302944
Si Si4 0.242763 0.379948 0.627653
Si Si5 0.741879 0.616640 0.862990
Si Si6 0.515255 0.627076 0.792523
Si Si7 0.161758 0.278873 0.255495
Si Si8 0.901683 0.120528 0.933154
O O1 0.571086 0.154155 0.561105
O O2 0.684441 0.172899 0.539206
O O3 0.611552 0.170906 0.325536
O O4 0.622178 0.000000 0.469823
O O5 0.612154 0.871412 0.805573
O O6 0.720312 0.886146 0.761616
O O7 0.693390 0.711798 0.859123
O O8 0.712998 0.881679 0.000786
O O9 0.972949 0.500000 0.307026
O O10 0.979603 0.752004 0.274726
O O11 0.251593 0.500000 0.575674
O O12 0.305307 0.318641 0.657641
O O13 0.710839 0.500000 0.840501
O O14 0.784944 0.638286 0.761321
O O15 0.520029 0.500000 0.735397
O O16 0.452851 0.623787 0.845665
O O17 0.565889 0.630159 0.921477
O O18 0.139064 0.223828 0.118626
O O19 0.870930 0.000000 0.913580
#
# Coordination Sequence:
#
# PCOD9177539 Si02
#       8
#     8   8   8   8   8   8   8   8
#     4   9  19  34  49  70 105 143 176 216 264 309
#     4   9  18  30  46  69  98 134 170 210 263 320
#     4  10  19  35  57  77 102 139 182 224 266 314
#     4   9  17  30  48  68  96 134 172 210 254 307
#     4  10  19  29  43  69 104 134 167 216 265 313
#     4   9  19  38  60  82 108 138 172 216 274 330
#     4  11  19  30  50  75 100 135 180 217 257 309
#     4   9  19  36  57  80 108 137 168 214 273 333
#
# _framework density 22.287770999999999
#
# number of rings (size 3 to 8) (size 9 to 14) (size 15 to 20)
#    0.000    2.500    0.000    4.500    0.000    0.500 
#    0.000    8.125    0.000    3.750    0.000    0.000 
#    0.000    0.000    0.000    0.000    0.000    0.000 
#
# Total GULP energy -178201.563306 kJ/mol
# GULP energy per Si atom -5568.798853 kJ/mol
# Density = 2.223704 g / cm^3
# Si number density = 22.287771 Si / 1000 Ang^3
#
#
#
# Elastic Constant Matrix: (Units=GPa)
#
#
# Indices 1 2 3 4 5 6 
#
# 1 35.5427 10.0437 -6.2094 0.0000 0.4404 0.0000
# 2 10.0437 131.6844 5.7502 0.0000 -14.9946 0.0000
# 3 -6.2094 5.7502 44.6216 0.0000 -11.9225 0.0000
# 4 0.0000 0.0000 0.0000 20.9018 0.0000 -20.6119
# 5 0.4404 -14.9946 -11.9225 0.0000 21.8245 0.0000
# 6 0.0000 0.0000 0.0000 -20.6119 0.0000 50.5426
#
#
#
# Elastic Compliance Matrix: (Units=1/GPa)
#
#
# Indices 1 2 3 4 5 6 
#
# 1 0.029603 -0.002433 0.004481 0.000000 0.000179 0.000000
# 2 -0.002433 0.008449 0.000160 0.000000 0.005942 0.000000
# 3 0.004481 0.000160 0.026953 0.000000 0.014744 0.000000
# 4 0.000000 0.000000 0.000000 0.080026 0.000000 0.032636
# 5 0.000179 0.005942 0.014744 0.000000 0.057953 0.000000
# 6 0.000000 0.000000 0.000000 0.032636 0.000000 0.033094
#
#
# Mechanical properties :
#
#
# Convention : Reuss Voigt Hill
#
# Bulk Modulus (GPa) = 14.40487 25.66862 20.03674
# Shear Modulus (GPa) = 19.62299 32.13806 25.88052
#
# Velocity S-wave (km/s) = 2.97044 3.80143 3.41133
# Velocity P-wave (km/s) = 4.27104 5.55066 4.95235
#
# Compressibility (1/GPa) = 0.06942098
#
# Stress axis : x y z
#
# Youngs Moduli (GPa) = 33.77996 118.35651 37.10168
#
# Poissons Ratio (x) = 0.28798 -0.16625
# Poissons Ratio (y) = 0.08219 -0.00594
# Poissons Ratio (z) = -0.15136 -0.01895
#
# Static dielectric constant tensor:
#      x y z
#    x 1.827880 0.000000 0.008090 
#    y 0.000000 1.911400 0.000000 
#    z 0.008090 0.000000 1.847170 
# 
# From -- ./inp_files/182120.got.cif
#   From: 2010.05.17/outbox.cif.g08.bks.cpg/sg12_92_cif.got.tgz:182120.got - 2010.06.03 13:09:07.
