data_PCOD9177468
_publ_section_title
;
Structure prediction by ZEFSAII (Michael W. Deem and Ramdas Pophale) SiO2 
 PCOD9177468
Probable space group: C 2/M
;
_chemical_formula_sum "Si O2"
_cell_formula_units_Z 48
_cell_length_a 27.703953
_cell_length_b 8.782251
_cell_length_c 11.744376
_cell_angle_alpha 90.000000
_cell_angle_beta 89.911655
_cell_angle_gamma 90.000000
_cell_volume 2857.439327
_symmetry_space_group_name_H-M "C 2/M"
_symmetry_group_IT_number 12
_symmetry_cell_setting 'monoclinic'
loop_
_space_group_symop_operation_xyz
x,y,z
-x,y,-z
-x,-y,-z
x,-y,z
1/2+x,1/2+y,z
1/2-x,1/2+y,-z
1/2-x,1/2-y,-z
1/2+x,1/2-y,z
loop_
_atom_site_type_symbol
_atom_site_label
_atom_site_fract_x
_atom_site_fract_y
_atom_site_fract_z
Si Si1 0.630143 0.671980 0.816985
Si Si2 0.200602 0.827627 0.030898
Si Si3 0.055959 0.815964 0.003091
Si Si4 0.305166 0.816381 0.624050
Si Si5 0.797911 0.681559 0.358514
Si Si6 0.375293 0.178932 0.810930
O O1 0.618409 0.500000 0.777461
O O2 0.657386 0.761986 0.717752
O O3 0.669691 0.660760 0.916465
O O4 0.584466 0.736999 0.888602
O O5 0.171333 0.716267 0.112525
O O6 0.205429 0.000000 0.077800
O O7 0.250000 0.750000 0.000000
O O8 0.082088 0.759209 0.118329
O O9 0.059941 0.000000 0.002418
O O10 0.000000 0.772818 0.000000
O O11 0.254722 0.750211 0.673243
O O12 0.306458 0.775198 0.490724
O O13 0.354338 0.768322 0.688733
O O14 0.302321 0.000000 0.633626
O O15 0.794466 0.500000 0.350437
O O16 0.385796 0.000000 0.805789
#
# Coordination Sequence:
#
# PCOD9177468 Si02
#       6
#     8   8   8   8   8   8
#     4   9  18  31  46  66  93 122 151 189 237 282
#     4  10  19  29  42  64  95 126 155 190 233 280
#     4   9  19  36  55  73  94 120 152 196 248 293
#     4   9  19  33  46  66  99 133 161 193 231 268
#     4  10  19  30  47  70  96 129 166 196 224 269
#     4  10  19  31  48  69  94 123 156 194 236 284
#
# _framework density 16.798255999999999
#
# number of rings (size 3 to 8) (size 9 to 14) (size 15 to 20)
#    0.000    2.500    0.000    3.500    0.000    9.667 
#    0.000    0.000    0.000    1.000    0.000    7.000 
#    0.000    0.000    0.000    0.000    0.000    0.000 
#
# Total GULP energy -133609.609271 kJ/mol
# GULP energy per Si atom -5567.067053 kJ/mol
# Density = 1.676002 g / cm^3
# Si number density = 16.798256 Si / 1000 Ang^3
#
#
#
# Elastic Constant Matrix: (Units=GPa)
#
#
# Indices 1 2 3 4 5 6 
#
# 1 126.0742 19.0085 46.6720 0.0000 -0.6957 0.0000
# 2 19.0085 14.9401 15.5921 0.0000 -3.0342 0.0000
# 3 46.6720 15.5921 74.0140 0.0000 1.7541 0.0000
# 4 0.0000 0.0000 0.0000 23.1073 0.0000 -0.5495
# 5 -0.6957 -3.0342 1.7541 0.0000 23.7480 0.0000
# 6 0.0000 0.0000 0.0000 -0.5495 0.0000 19.0173
#
#
#
# Elastic Compliance Matrix: (Units=1/GPa)
#
#
# Indices 1 2 3 4 5 6 
#
# 1 0.011188 -0.008934 -0.005162 0.000000 -0.000432 0.000000
# 2 -0.008934 0.096687 -0.015048 0.000000 0.013203 0.000000
# 3 -0.005162 -0.015048 0.020020 0.000000 -0.003553 0.000000
# 4 0.000000 0.000000 0.000000 0.043306 0.000000 0.001251
# 5 -0.000432 0.013203 -0.003553 0.000000 0.044046 0.000000
# 6 0.000000 0.000000 0.000000 0.001251 0.000000 0.052620
#
#
# Mechanical properties :
#
#
# Convention : Reuss Voigt Hill
#
# Bulk Modulus (GPa) = 14.36644 41.95262 28.15953
# Shear Modulus (GPa) = 14.31199 22.09156 18.20178
#
# Velocity S-wave (km/s) = 2.92206 3.63038 3.29531
# Velocity P-wave (km/s) = 4.46716 6.52698 5.59272
#
# Compressibility (1/GPa) = 0.06960665
#
# Stress axis : x y z
#
# Youngs Moduli (GPa) = 89.38503 10.34263 49.94905
#
# Poissons Ratio (x) = 0.09240 0.25785
# Poissons Ratio (y) = 0.79860 0.75161
# Poissons Ratio (z) = 0.46143 0.15563
#
# Static dielectric constant tensor:
#      x y z
#    x 1.534310 0.000000 0.026520 
#    y 0.000000 1.586080 0.000000 
#    z 0.026520 0.000000 1.596960 
# 
# From -- ./inp_files/179261.got.cif
#   From: 2010.05.17/outbox.cif.g08.bks.cpg/sg12_90_cif.got.tgz:179261.got - 2010.06.03 13:09:07.
