data_PCOD9177365
_publ_section_title
;
Structure prediction by ZEFSAII (Michael W. Deem and Ramdas Pophale) SiO2 
 PCOD9177365
Probable space group: C 2/M
;
_chemical_formula_sum "Si O2"
_cell_formula_units_Z 56
_cell_length_a 20.176568
_cell_length_b 7.646039
_cell_length_c 28.976403
_cell_angle_alpha 90.000000
_cell_angle_beta 141.044651
_cell_angle_gamma 90.000000
_cell_volume 2810.488410
_symmetry_space_group_name_H-M "C 2/M"
_symmetry_group_IT_number 12
_symmetry_cell_setting 'monoclinic'
loop_
_space_group_symop_operation_xyz
x,y,z
-x,y,-z
-x,-y,-z
x,-y,z
1/2+x,1/2+y,z
1/2-x,1/2+y,-z
1/2-x,1/2-y,-z
1/2+x,1/2-y,z
loop_
_atom_site_type_symbol
_atom_site_label
_atom_site_fract_x
_atom_site_fract_y
_atom_site_fract_z
Si Si1 0.136845 0.209511 0.705301
Si Si2 0.900175 0.211122 0.047820
Si Si3 0.870061 0.789164 0.817081
Si Si4 0.181558 0.291956 0.893781
Si Si5 0.164646 0.209571 0.306655
Si Si6 0.517551 0.297255 0.728118
Si Si7 0.897824 0.210655 0.417514
O O1 0.260454 0.242069 0.781772
O O2 0.061871 0.281137 0.704787
O O3 0.110941 0.277252 0.639947
O O4 0.124289 0.000000 0.697289
O O5 0.871923 0.257529 0.085431
O O6 0.018783 0.272479 0.102002
O O7 0.899165 0.000000 0.044303
O O8 0.802006 0.273364 0.963889
O O9 0.861556 0.724648 0.759274
O O10 0.874102 0.000000 0.817964
O O11 0.182523 0.500000 0.886314
O O12 0.111981 0.208390 0.816338
O O13 0.287053 0.245952 0.381638
O O14 0.083911 0.280832 0.300935
O O15 0.149811 0.000000 0.296791
O O16 0.491744 0.500000 0.704345
O O17 0.000000 0.275776 0.500000
O O18 0.904912 0.000000 0.419114
#
# Coordination Sequence:
#
# PCOD9177365 Si02
#       7
#     8   8   8   8   8   8   8
#     4   9  19  33  51  72  96 130 165 196 241 297
#     4   9  17  31  47  68  98 131 166 205 251 292
#     4   9  16  30  50  69  93 126 164 205 243 282
#     4  10  19  28  46  73  98 127 166 210 248 287
#     4   9  17  30  51  73  93 126 165 197 233 285
#     4  10  19  34  50  68 100 134 163 200 246 294
#     4   9  18  34  54  76 101 125 154 198 245 287
#
# _framework density 19.925362
#
# number of rings (size 3 to 8) (size 9 to 14) (size 15 to 20)
#    0.000    2.714    1.429    0.429    0.000    2.571 
#    0.000    1.429    0.000    4.286    0.000    0.000 
#    0.000    0.000    0.000    0.000    0.000    0.000 
#
# Total GULP energy -156124.451057 kJ/mol
# GULP energy per Si atom -5575.873252 kJ/mol
# Density = 1.988001 g / cm^3
# Si number density = 19.925362 Si / 1000 Ang^3
#
#
#
# Elastic Constant Matrix: (Units=GPa)
#
#
# Indices 1 2 3 4 5 6 
#
# 1 139.1970 2.9385 55.9358 0.0000 25.2801 0.0000
# 2 2.9385 34.4987 0.6854 0.0000 1.3927 -0.0003
# 3 55.9358 0.6854 97.7065 0.0000 27.9070 0.0002
# 4 0.0000 0.0000 0.0000 16.1923 0.0000 4.9004
# 5 25.2801 1.3927 27.9070 0.0000 21.8363 0.0000
# 6 0.0000 -0.0003 0.0002 4.9004 0.0000 12.3041
#
#
#
# Elastic Compliance Matrix: (Units=1/GPa)
#
#
# Indices 1 2 3 4 5 6 
#
# 1 0.009916 -0.000503 -0.003785 0.000000 -0.006610 0.000000
# 2 -0.000503 0.029103 0.000705 0.000000 -0.002175 0.000001
# 3 -0.003785 0.000705 0.017572 0.000000 -0.018120 0.000000
# 4 0.000000 0.000000 0.000000 0.070222 0.000000 -0.027967
# 5 -0.006610 -0.002175 -0.018120 0.000000 0.076745 0.000000
# 6 0.000000 0.000001 0.000000 -0.027967 0.000000 0.092413
#
#
# Mechanical properties :
#
#
# Convention : Reuss Voigt Hill
#
# Bulk Modulus (GPa) = 20.23239 43.39130 31.81185
# Shear Modulus (GPa) = 15.64394 24.18936 19.91665
#
# Velocity S-wave (km/s) = 2.80505 3.48803 3.16502
# Velocity P-wave (km/s) = 4.54612 6.16814 5.41817
#
# Compressibility (1/GPa) = 0.04942569
#
# Stress axis : x y z
#
# Youngs Moduli (GPa) = 100.84324 34.36044 56.90748
#
# Poissons Ratio (x) = 0.01727 0.21542
# Poissons Ratio (y) = 0.05068 -0.04011
# Poissons Ratio (z) = 0.38173 -0.02422
#
# Static dielectric constant tensor:
#      x y z
#    x 1.713130 0.000000 0.015910 
#    y 0.000000 1.809660 0.000000 
#    z 0.015910 0.000000 1.701170 
# 
# From -- ./inp_files/280416.got.cif
#   From: 2010.05.17/outbox.cif.g08.bks.cpg/sg12_141_cif.got.tgz:280416.got - 2010.06.03 13:09:07.
