data_PCOD9177644
_publ_section_title
;
Structure prediction by ZEFSAII (Michael W. Deem and Ramdas Pophale) SiO2 
 PCOD9177644
Probable space group: C 2/M
;
_chemical_formula_sum "Si O2"
_cell_formula_units_Z 48
_cell_length_a 28.238095
_cell_length_b 8.741581
_cell_length_c 24.693444
_cell_angle_alpha 90.000000
_cell_angle_beta 29.745929
_cell_angle_gamma 90.000000
_cell_volume 3024.295733
_symmetry_space_group_name_H-M "C 2/M"
_symmetry_group_IT_number 12
_symmetry_cell_setting 'monoclinic'
loop_
_space_group_symop_operation_xyz
x,y,z
-x,y,-z
-x,-y,-z
x,-y,z
1/2+x,1/2+y,z
1/2-x,1/2+y,-z
1/2-x,1/2-y,-z
1/2+x,1/2-y,z
loop_
_atom_site_type_symbol
_atom_site_label
_atom_site_fract_x
_atom_site_fract_y
_atom_site_fract_z
Si Si1 0.886450 0.315089 0.051730
Si Si2 0.608541 0.814299 0.831270
Si Si3 0.102072 0.817004 0.624657
Si Si4 0.397514 0.182892 0.831862
Si Si5 0.793561 0.684973 0.375162
Si Si6 0.703974 0.682909 0.964066
O O1 0.880669 0.500000 0.054536
O O2 0.862062 0.266259 0.137404
O O3 0.822420 0.243739 0.068686
O O4 0.997725 0.271984 0.932233
O O5 0.673414 0.763102 0.716954
O O6 0.610384 0.000000 0.830017
O O7 0.137773 0.753533 0.647062
O O8 0.185654 0.774022 0.499276
O O9 0.998959 0.749626 0.714130
O O10 0.096752 0.000000 0.632355
O O11 0.310507 0.225410 0.878210
O O12 0.403014 0.000000 0.829301
O O13 0.367699 0.246478 0.920345
O O14 0.801266 0.500000 0.369878
O O15 0.695942 0.500000 0.973789
#
# Coordination Sequence:
#
# PCOD9177644 Si02
#       6
#     8   8   8   8   8   8
#     4   9  16  28  48  70  92 120 151 182 221 270
#     4   8  15  28  46  68  92 121 154 181 214 269
#     4  10  19  29  45  70  95 120 154 192 226 265
#     4  10  20  33  48  65  90 123 152 183 227 275
#     4   9  17  30  47  67  95 127 154 184 225 270
#     4  10  20  32  47  69  93 116 148 188 229 274
#
# _framework density 15.871464
#
# number of rings (size 3 to 8) (size 9 to 14) (size 15 to 20)
#    0.000    2.667    0.000    3.500    0.000    4.000 
#    0.000    2.500    0.000    1.000    0.000    7.000 
#    0.000    0.000    0.000    0.000    0.000    0.000 
#
# Total GULP energy -133800.939811 kJ/mol
# GULP energy per Si atom -5575.039159 kJ/mol
# Density = 1.583534 g / cm^3
# Si number density = 15.871464 Si / 1000 Ang^3
#
#
#
# Elastic Constant Matrix: (Units=GPa)
#
#
# Indices 1 2 3 4 5 6 
#
# 1 116.3091 27.3425 75.1828 0.0004 15.9978 -0.0006
# 2 27.3425 22.5377 28.7536 0.0013 -0.2923 -0.0002
# 3 75.1828 28.7536 118.0026 -0.0006 12.1873 0.0014
# 4 0.0004 0.0013 -0.0006 21.0474 -0.0001 -2.6975
# 5 15.9978 -0.2923 12.1873 -0.0001 24.4515 0.0001
# 6 -0.0006 -0.0002 0.0014 -2.6975 0.0001 27.0301
#
#
#
# Elastic Compliance Matrix: (Units=1/GPa)
#
#
# Indices 1 2 3 4 5 6 
#
# 1 0.017062 -0.011525 -0.007270 0.000000 -0.007678 0.000001
# 2 -0.011525 0.074130 -0.012220 -0.000005 0.014517 0.000000
# 3 -0.007270 -0.012220 0.016455 0.000001 -0.003591 -0.000001
# 4 0.000000 -0.000005 0.000001 0.048127 -0.000001 0.004803
# 5 -0.007678 0.014517 -0.003591 -0.000001 0.047884 0.000000
# 6 0.000001 0.000000 -0.000001 0.004803 0.000000 0.037475
#
#
# Mechanical properties :
#
#
# Convention : Reuss Voigt Hill
#
# Bulk Modulus (GPa) = 21.92096 57.71193 39.81644
# Shear Modulus (GPa) = 15.70513 22.87716 19.29115
#
# Velocity S-wave (km/s) = 3.14908 3.80070 3.49013
# Velocity P-wave (km/s) = 5.20229 7.46334 6.43293
#
# Compressibility (1/GPa) = 0.04561844
#
# Stress axis : x y z
#
# Youngs Moduli (GPa) = 58.60899 13.48985 60.77319
#
# Poissons Ratio (x) = 0.15546 0.44180
# Poissons Ratio (y) = 0.67544 0.74264
# Poissons Ratio (z) = 0.42607 0.16484
#
# Static dielectric constant tensor:
#      x y z
#    x 1.514290 0.000000 0.004830 
#    y 0.000000 1.534900 0.000000 
#    z 0.004830 0.000000 1.531850 
# 
# From -- ./inp_files/179730.got.cif
#   From: 2010.05.17/outbox.cif.g08.bks.cpg/sg12_90_cif.got.tgz:179730.got - 2010.06.03 13:09:07.
