data_PCOD9177849
_publ_section_title
;
Structure prediction by ZEFSAII (Michael W. Deem and Ramdas Pophale) SiO2 
 PCOD9177849
Probable space group: C 2/M
;
_chemical_formula_sum "Si O2"
_cell_formula_units_Z 40
_cell_length_a 28.157890
_cell_length_b 7.378616
_cell_length_c 11.925208
_cell_angle_alpha 90.000000
_cell_angle_beta 126.650546
_cell_angle_gamma 90.000000
_cell_volume 1987.801418
_symmetry_space_group_name_H-M "C 2/M"
_symmetry_group_IT_number 12
_symmetry_cell_setting 'monoclinic'
loop_
_space_group_symop_operation_xyz
x,y,z
-x,y,-z
-x,-y,-z
x,-y,z
1/2+x,1/2+y,z
1/2-x,1/2+y,-z
1/2-x,1/2-y,-z
1/2+x,1/2-y,z
loop_
_atom_site_type_symbol
_atom_site_label
_atom_site_fract_x
_atom_site_fract_y
_atom_site_fract_z
Si Si1 0.054126 0.778710 0.426937
Si Si2 0.225243 0.779897 0.295480
Si Si3 0.345401 0.288662 0.590788
Si Si4 0.194970 0.216411 0.004067
Si Si5 0.921867 0.779112 0.286174
O O1 0.096602 0.712838 0.387868
O O2 0.078657 0.724199 0.583926
O O3 0.985448 0.724538 0.325639
O O4 0.055240 0.000000 0.427249
O O5 0.290695 0.724185 0.426906
O O6 0.179810 0.714483 0.327678
O O7 0.208722 0.715980 0.148378
O O8 0.224978 0.000000 0.296472
O O9 0.357642 0.500000 0.629191
O O10 0.188159 0.000000 0.004677
O O11 0.250000 0.250000 0.000000
O O12 0.134690 0.285326 0.862521
O O13 0.921012 0.000000 0.284987
#
# Coordination Sequence:
#
# PCOD9177849 Si02
#       5
#     8   8   8   8   8
#     4   8  13  23  41  62  81 105 141 177 205 241
#     4   9  18  29  41  63  91 112 137 176 213 246
#     4   9  16  28  46  64  83 112 146 174 205 249
#     4  10  19  30  44  63  88 114 139 172 214 253
#     4   8  14  24  39  61  85 107 136 175 211 242
#
# _framework density 20.122736
#
# number of rings (size 3 to 8) (size 9 to 14) (size 15 to 20)
#    0.000    3.200    0.000    2.400    0.000    2.400 
#    0.000    1.000    0.000    7.200    0.000    5.600 
#    0.000    8.000    0.000    0.000    0.000    0.000 
#
# Total GULP energy -111572.838253 kJ/mol
# GULP energy per Si atom -5578.641913 kJ/mol
# Density = 2.007694 g / cm^3
# Si number density = 20.122736 Si / 1000 Ang^3
#
#
#
# Elastic Constant Matrix: (Units=GPa)
#
#
# Indices 1 2 3 4 5 6 
#
# 1 176.0845 -5.7551 82.6021 0.0000 -1.4572 0.0000
# 2 -5.7551 69.2633 -8.6819 0.0000 -2.8804 0.0000
# 3 82.6021 -8.6819 143.3279 0.0000 -7.4216 0.0000
# 4 0.0000 0.0000 0.0000 8.0048 0.0000 4.4275
# 5 -1.4572 -2.8804 -7.4216 0.0000 17.2564 0.0000
# 6 0.0000 0.0000 0.0000 4.4275 0.0000 7.0324
#
#
#
# Elastic Compliance Matrix: (Units=1/GPa)
#
#
# Indices 1 2 3 4 5 6 
#
# 1 0.007812 0.000022 -0.004568 0.000000 -0.001301 0.000000
# 2 0.000022 0.014689 0.001027 0.000000 0.002895 0.000000
# 3 -0.004568 0.001027 0.009881 0.000000 0.004035 0.000000
# 4 0.000000 0.000000 0.000000 0.191671 0.000000 -0.120674
# 5 -0.001301 0.002895 0.004035 0.000000 0.060058 0.000000
# 6 0.000000 0.000000 0.000000 -0.120674 0.000000 0.218174
#
#
# Mechanical properties :
#
#
# Convention : Reuss Voigt Hill
#
# Bulk Modulus (GPa) = 39.45800 58.33398 48.89599
# Shear Modulus (GPa) = 9.65678 27.82608 18.74143
#
# Velocity S-wave (km/s) = 2.19302 3.72266 3.05512
# Velocity P-wave (km/s) = 5.10526 6.89417 6.06603
#
# Compressibility (1/GPa) = 0.02534340
#
# Stress axis : x y z
#
# Youngs Moduli (GPa) = 128.00765 68.07986 101.20545
#
# Poissons Ratio (x) = -0.00152 0.46233
# Poissons Ratio (y) = -0.00286 -0.10391
# Poissons Ratio (z) = 0.58477 -0.06990
#
# Static dielectric constant tensor:
#      x y z
#    x 1.704410 0.000000 -0.008740 
#    y 0.000000 1.823440 0.000000 
#    z -0.008740 0.000000 1.673370 
# 
# From -- ./inp_files/83478.got.cif
#   From: 2010.05.17/outbox.cif.g08.bks.cpg/sg12_42_cif.got.tgz:83478.got - 2010.06.03 13:09:07.
