data_PCOD9177913
_publ_section_title
;
Structure prediction by ZEFSAII (Michael W. Deem and Ramdas Pophale) SiO2 
 PCOD9177913
Probable space group: C 2/M
;
_chemical_formula_sum "Si O2"
_cell_formula_units_Z 64
_cell_length_a 24.900485
_cell_length_b 7.581561
_cell_length_c 26.634169
_cell_angle_alpha 90.000000
_cell_angle_beta 136.423149
_cell_angle_gamma 90.000000
_cell_volume 3466.018044
_symmetry_space_group_name_H-M "C 2/M"
_symmetry_group_IT_number 12
_symmetry_cell_setting 'monoclinic'
loop_
_space_group_symop_operation_xyz
x,y,z
-x,y,-z
-x,-y,-z
x,-y,z
1/2+x,1/2+y,z
1/2-x,1/2+y,-z
1/2-x,1/2-y,-z
1/2+x,1/2-y,z
loop_
_atom_site_type_symbol
_atom_site_label
_atom_site_fract_x
_atom_site_fract_y
_atom_site_fract_z
Si Si1 0.957609 0.717182 0.205711
Si Si2 0.821051 0.792566 0.267621
Si Si3 0.039890 0.714121 0.577853
Si Si4 0.868096 0.790445 0.964391
Si Si5 0.647116 0.794588 0.156483
Si Si6 0.974561 0.701783 0.324742
Si Si7 0.988633 0.712576 0.865603
Si Si8 0.279714 0.211317 0.076144
O O1 0.957590 0.500000 0.206567
O O2 0.992069 0.779198 0.282319
O O3 0.000774 0.773740 0.184331
O O4 0.867662 0.776134 0.141534
O O5 0.870251 0.767832 0.352470
O O6 0.734443 0.718623 0.212480
O O7 0.879735 0.704951 0.267220
O O8 0.818065 0.000000 0.253499
O O9 0.037201 0.500000 0.576340
O O10 0.001259 0.777856 0.604519
O O11 0.000000 0.776427 0.500000
O O12 0.887282 0.715212 0.922833
O O13 0.785173 0.720893 0.928843
O O14 0.862212 0.000000 0.954280
O O15 0.934295 0.753964 0.050104
O O16 0.586453 0.718188 0.155247
O O17 0.657829 0.000000 0.177125
O O18 0.001370 0.500000 0.342224
O O19 0.983285 0.500000 0.860565
O O20 0.281961 0.000000 0.083320
O O21 0.250000 0.250000 0.000000
#
# Coordination Sequence:
#
# PCOD9177913 Si02
#       8
#     8   8   8   8   8   8   8   8
#     4   9  16  29  47  63  82 113 150 187 225 268
#     4   9  17  29  45  69  95 119 147 180 221 264
#     4   8  15  28  47  72 100 123 143 171 212 268
#     4  11  22  33  47  67  88 114 153 199 243 280
#     4  10  21  34  47  64  88 120 159 195 226 270
#     4   8  15  28  46  67  92 117 143 176 218 268
#     4  10  20  34  49  62  83 120 162 197 231 271
#     4  10  19  30  45  64  84 109 145 185 231 279
#
# _framework density 18.464991999999999
#
# number of rings (size 3 to 8) (size 9 to 14) (size 15 to 20)
#    0.750    1.875    1.250    1.500    0.000    4.750 
#    0.000    1.250    0.000    0.000    0.000    0.875 
#    0.000    0.000    0.000    0.000    0.000    0.000 
#
# Total GULP energy -178182.825463 kJ/mol
# GULP energy per Si atom -5568.213296 kJ/mol
# Density = 1.842296 g / cm^3
# Si number density = 18.464992 Si / 1000 Ang^3
#
#
#
# Elastic Constant Matrix: (Units=GPa)
#
#
# Indices 1 2 3 4 5 6 
#
# 1 110.9427 -1.6267 36.6970 -0.0002 -26.5786 0.0002
# 2 -1.6267 46.4871 -6.0573 -0.0010 2.0109 0.0009
# 3 36.6970 -6.0573 82.6387 -0.0001 -36.3287 0.0000
# 4 -0.0002 -0.0010 -0.0001 36.9671 0.0000 -17.7976
# 5 -26.5786 2.0109 -36.3287 0.0000 26.8513 -0.0001
# 6 0.0002 0.0009 0.0000 -17.7976 -0.0001 22.3540
#
#
#
# Elastic Compliance Matrix: (Units=1/GPa)
#
#
# Indices 1 2 3 4 5 6 
#
# 1 0.011818 -0.000112 -0.000271 0.000000 0.011340 0.000000
# 2 -0.000112 0.021738 0.002168 0.000000 0.001195 -0.000001
# 3 -0.000271 0.002168 0.030084 0.000000 0.040271 0.000000
# 4 0.000000 0.000000 0.000000 0.043865 0.000000 0.034924
# 5 0.011340 0.001195 0.040271 0.000000 0.102863 0.000001
# 6 0.000000 -0.000001 0.000000 0.034924 0.000001 0.072541
#
#
# Mechanical properties :
#
#
# Convention : Reuss Voigt Hill
#
# Bulk Modulus (GPa) = 14.87869 33.12161 24.00015
# Shear Modulus (GPa) = 16.57037 31.30484 23.93760
#
# Velocity S-wave (km/s) = 2.99890 4.12194 3.60443
# Velocity P-wave (km/s) = 4.47957 6.37419 5.50894
#
# Compressibility (1/GPa) = 0.06721022
#
# Stress axis : x y z
#
# Youngs Moduli (GPa) = 84.61364 46.00179 33.24026
#
# Poissons Ratio (x) = 0.00517 0.00902
# Poissons Ratio (y) = 0.00950 -0.07208
# Poissons Ratio (z) = 0.02296 -0.09975
#
# Static dielectric constant tensor:
#      x y z
#    x 1.664560 0.000000 -0.020970 
#    y 0.000000 1.694430 0.000000 
#    z -0.020970 0.000000 1.645050 
# 
# From -- ./inp_files/367054.got.cif
#   From: 2010.05.17/outbox.cif.g08.bks.cpg/sg12_184_cif.got.tgz:367054.got - 2010.06.03 13:09:07.
