data_PCOD9177925
_publ_section_title
;
Structure prediction by ZEFSAII (Michael W. Deem and Ramdas Pophale) SiO2 
 PCOD9177925
Probable space group: C 2/M
;
_chemical_formula_sum "Si O2"
_cell_formula_units_Z 64
_cell_length_a 23.987279
_cell_length_b 7.465364
_cell_length_c 14.636653
_cell_angle_alpha 90.000000
_cell_angle_beta 107.567811
_cell_angle_gamma 90.000000
_cell_volume 2498.796307
_symmetry_space_group_name_H-M "C 2/M"
_symmetry_group_IT_number 12
_symmetry_cell_setting 'monoclinic'
loop_
_space_group_symop_operation_xyz
x,y,z
-x,y,-z
-x,-y,-z
x,-y,z
1/2+x,1/2+y,z
1/2-x,1/2+y,-z
1/2-x,1/2-y,-z
1/2+x,1/2-y,z
loop_
_atom_site_type_symbol
_atom_site_label
_atom_site_fract_x
_atom_site_fract_y
_atom_site_fract_z
Si Si1 0.184719 0.703129 0.739455
Si Si2 0.434010 0.286947 0.811570
Si Si3 0.439978 0.220334 0.323181
Si Si4 0.317111 0.803936 0.043352
Si Si5 0.688466 0.298628 0.220810
Si Si6 0.313164 0.214575 0.572185
Si Si7 0.935399 0.703539 0.598273
Si Si8 0.439611 0.784068 0.110768
O O1 0.190541 0.500000 0.703487
O O2 0.123535 0.778664 0.671887
O O3 0.174969 0.687805 0.843278
O O4 0.248527 0.790603 0.763914
O O5 0.426582 0.500000 0.795795
O O6 0.375245 0.219542 0.832731
O O7 0.436618 0.202366 0.710959
O O8 0.495563 0.258309 0.892056
O O9 0.501413 0.281729 0.395925
O O10 0.442613 0.276875 0.218306
O O11 0.439649 0.000000 0.324740
O O12 0.377709 0.711500 0.041939
O O13 0.318181 0.000000 0.001147
O O14 0.250000 0.750000 0.000000
O O15 0.692307 0.500000 0.181630
O O16 0.685581 0.304788 0.328776
O O17 0.250000 0.250000 0.500000
O O18 0.370957 0.278245 0.546351
O O19 0.319411 0.000000 0.586538
O O20 0.935814 0.500000 0.562966
O O21 0.434985 0.000000 0.108433
#
# Coordination Sequence:
#
# PCOD9177925 Si02
#       8
#     8   8   8   8   8   8   8   8
#     4   8  14  26  45  66  88 114 141 173 216 261
#     4   9  15  22  37  62  86 106 135 176 214 247
#     4   7  10  20  40  62  79 100 136 176 208 243
#     4   9  17  29  46  67  89 115 146 181 220 259
#     4   9  17  29  45  66  90 114 142 176 214 258
#     4  10  19  30  45  65  89 116 145 178 216 257
#     4   8  14  25  41  60  82 108 139 175 213 252
#     4   8  14  25  40  58  82 111 142 175 212 253
#
# _framework density 25.612331999999999
#
# number of rings (size 3 to 8) (size 9 to 14) (size 15 to 20)
#    0.000    3.500    0.000    3.000    0.000    1.500 
#    0.000    0.625    0.000    4.500    0.000   10.500 
#    0.000    0.000    0.000    0.000    0.000    0.000 
#
# Total GULP energy -178176.010705 kJ/mol
# GULP energy per Si atom -5568.000335 kJ/mol
# Density = 2.555404 g / cm^3
# Si number density = 25.612332 Si / 1000 Ang^3
#
#
#
# Elastic Constant Matrix: (Units=GPa)
#
#
# Indices 1 2 3 4 5 6 
#
# 1 248.7421 7.8048 74.0176 0.0000 103.3777 0.0000
# 2 7.8048 89.1191 1.1792 0.0000 10.9197 0.0000
# 3 74.0176 1.1792 84.8302 0.0000 26.1629 0.0000
# 4 0.0000 0.0000 0.0000 4.9535 0.0000 10.1531
# 5 103.3777 10.9197 26.1629 0.0000 78.6671 0.0000
# 6 0.0000 0.0000 0.0000 10.1531 0.0000 6.8940
#
#
#
# Elastic Compliance Matrix: (Units=1/GPa)
#
#
# Indices 1 2 3 4 5 6 
#
# 1 0.010877 0.000655 -0.005642 0.000000 -0.012508 0.000000
# 2 0.000655 0.011465 0.000028 0.000000 -0.002461 0.000000
# 3 -0.005642 0.000028 0.016074 0.000000 0.002064 0.000000
# 4 0.000000 0.000000 0.000000 -0.100005 0.000000 0.147282
# 5 -0.012508 -0.002461 0.002064 0.000000 0.028804 0.000000
# 6 0.000000 0.000000 0.000000 0.147282 0.000000 -0.071856
#
#
# Mechanical properties :
#
#
# Convention : Reuss Voigt Hill
#
# Bulk Modulus (GPa) = 35.09011 65.41052 50.25031
# Shear Modulus (GPa) = -58.66881 40.74891 -8.95995
#
# Velocity S-wave (km/s) = -4.79126 3.99305 -1.87240
# Velocity P-wave (km/s) = 4.10829 6.84495 3.87139
#
# Compressibility (1/GPa) = 0.02849806
#
# Stress axis : x y z
#
# Youngs Moduli (GPa) = 91.93817 87.22355 62.21236
#
# Poissons Ratio (x) = -0.05710 0.35100
# Poissons Ratio (y) = -0.06019 -0.00177
# Poissons Ratio (z) = 0.51871 -0.00248
#
# Static dielectric constant tensor:
#      x y z
#    x 2.139710 0.000000 0.064910 
#    y 0.000000 2.026640 0.000000 
#    z 0.064910 0.000000 2.061940 
# 
# From -- ./inp_files/323725.got.cif
#   From: 2010.05.17/outbox.cif.g08.bks.cpg/sg12_162_cif.got.tgz:323725.got - 2010.06.03 13:09:07.
