data_PCOD9177877
_publ_section_title
;
Structure prediction by ZEFSAII (Michael W. Deem and Ramdas Pophale) SiO2 
 PCOD9177877
Probable space group: C 2/M
;
_chemical_formula_sum "Si O2"
_cell_formula_units_Z 40
_cell_length_a 9.844749
_cell_length_b 15.222174
_cell_length_c 9.643870
_cell_angle_alpha 90.000000
_cell_angle_beta 94.967732
_cell_angle_gamma 90.000000
_cell_volume 1439.786949
_symmetry_space_group_name_H-M "C 2/M"
_symmetry_group_IT_number 12
_symmetry_cell_setting 'monoclinic'
loop_
_space_group_symop_operation_xyz
x,y,z
-x,y,-z
-x,-y,-z
x,-y,z
1/2+x,1/2+y,z
1/2-x,1/2+y,-z
1/2-x,1/2-y,-z
1/2+x,1/2-y,z
loop_
_atom_site_type_symbol
_atom_site_label
_atom_site_fract_x
_atom_site_fract_y
_atom_site_fract_z
Si Si1 0.230648 0.599748 0.006106
Si Si2 0.425190 0.343079 0.811710
Si Si3 0.372208 0.653333 0.385508
Si Si4 0.820291 0.364577 0.403494
Si Si5 0.472071 0.138760 0.784970
O O1 0.268042 0.500000 0.978288
O O2 0.361316 0.653684 0.960948
O O3 0.101477 0.629904 0.900629
O O4 0.159885 0.601514 0.150218
O O5 0.566965 0.377588 0.757331
O O6 0.304427 0.386824 0.710806
O O7 0.434869 0.241149 0.771542
O O8 0.500000 0.639187 0.500000
O O9 0.240063 0.614239 0.450921
O O10 0.341660 0.758409 0.389236
O O11 0.960622 0.397795 0.349557
#
# Coordination Sequence:
#
# PCOD9177877 Si02
#       5
#     8   8   8   8   8
#     4  10  19  30  44  65  93 118 147 186 224 259
#     4   9  16  26  43  65  88 116 151 183 215 260
#     4   8  13  23  39  62  92 114 138 180 225 257
#     4   8  14  23  39  64  90 112 140 182 223 257
#     4   9  16  27  43  63  85 115 150 183 215 256
#
# _framework density 27.781890000000001
#
# number of rings (size 3 to 8) (size 9 to 14) (size 15 to 20)
#    0.000    3.200    0.000    1.800    0.000    0.000 
#    0.000    0.000    0.000   16.200    0.000   57.400 
#    0.000  690.400    0.000    0.000    0.000    0.000 
#
# Total GULP energy -111623.365395 kJ/mol
# GULP energy per Si atom -5581.168270 kJ/mol
# Density = 2.771866 g / cm^3
# Si number density = 27.781890 Si / 1000 Ang^3
#
#
#
# Elastic Constant Matrix: (Units=GPa)
#
#
# Indices 1 2 3 4 5 6 
#
# 1 185.6480 17.3241 89.6502 0.0000 -95.0186 0.0000
# 2 17.3241 69.4974 4.0525 0.0000 -18.2664 0.0000
# 3 89.6502 4.0525 285.9722 0.0000 -89.7035 0.0000
# 4 0.0000 0.0000 0.0000 -15.8968 0.0000 23.3867
# 5 -95.0186 -18.2664 -89.7035 0.0000 77.8912 0.0000
# 6 0.0000 0.0000 0.0000 23.3867 0.0000 78.9865
#
#
#
# Elastic Compliance Matrix: (Units=1/GPa)
#
#
# Indices 1 2 3 4 5 6 
#
# 1 0.014955 0.001598 0.001768 0.000000 0.020654 0.000000
# 2 0.001598 0.015885 0.001650 0.000000 0.007574 0.000000
# 3 0.001768 0.001650 0.005819 0.000000 0.009245 0.000000
# 4 0.000000 0.000000 0.000000 -0.043819 0.000000 0.012974
# 5 0.020654 0.007574 0.009245 0.000000 0.050457 0.000000
# 6 0.000000 0.000000 0.000000 0.012974 0.000000 0.008819
#
#
# Mechanical properties :
#
#
# Convention : Reuss Voigt Hill
#
# Bulk Modulus (GPa) = 21.41776 84.79680 53.10728
# Shear Modulus (GPa) = 86.73069 56.86890 71.79979
#
# Velocity S-wave (km/s) = 5.59341 4.52926 5.08922
# Velocity P-wave (km/s) = 7.03142 7.61189 7.32741
#
# Compressibility (1/GPa) = 0.04669022
#
# Stress axis : x y z
#
# Youngs Moduli (GPa) = 66.86810 62.95086 171.84136
#
# Poissons Ratio (x) = -0.10057 -0.30378
# Poissons Ratio (y) = -0.10683 -0.28354
# Poissons Ratio (z) = -0.11821 -0.10387
#
# Static dielectric constant tensor:
#      x y z
#    x 2.128060 0.000000 0.054800 
#    y 0.000000 2.243170 0.000000 
#    z 0.054800 0.000000 2.526190 
# 
# From -- ./inp_files/130500.got.cif
#   From: 2010.05.17/outbox.cif.g08.bks.cpg/sg12_66_cif.got.tgz:130500.got - 2010.06.03 13:09:07.
