data_PCOD9177429
_publ_section_title
;
Structure prediction by ZEFSAII (Michael W. Deem and Ramdas Pophale) SiO2 
 PCOD9177429
Probable space group: C 2/M
;
_chemical_formula_sum "Si O2"
_cell_formula_units_Z 48
_cell_length_a 11.912647
_cell_length_b 15.112011
_cell_length_c 9.852835
_cell_angle_alpha 90.000000
_cell_angle_beta 104.422955
_cell_angle_gamma 90.000000
_cell_volume 1717.844887
_symmetry_space_group_name_H-M "C 2/M"
_symmetry_group_IT_number 12
_symmetry_cell_setting 'monoclinic'
loop_
_space_group_symop_operation_xyz
x,y,z
-x,y,-z
-x,-y,-z
x,-y,z
1/2+x,1/2+y,z
1/2-x,1/2+y,-z
1/2-x,1/2-y,-z
1/2+x,1/2-y,z
loop_
_atom_site_type_symbol
_atom_site_label
_atom_site_fract_x
_atom_site_fract_y
_atom_site_fract_z
Si Si1 0.090141 0.340577 0.140247
Si Si2 0.258207 0.142910 0.478366
Si Si3 0.427501 0.158381 0.312048
Si Si4 0.930301 0.867767 0.815508
Si Si5 0.250081 0.399439 0.975457
Si Si6 0.590525 0.369518 0.643657
O O1 0.065348 0.236721 0.152532
O O2 0.044842 0.373888 0.272968
O O3 0.214677 0.349842 0.104269
O O4 0.000000 0.375855 0.000000
O O5 0.250000 0.250000 0.500000
O O6 0.375720 0.118386 0.434905
O O7 0.163261 0.120310 0.333979
O O8 0.211618 0.107250 0.608027
O O9 0.331772 0.143410 0.165509
O O10 0.427202 0.263136 0.345928
O O11 0.873848 0.901419 0.937083
O O12 0.046280 0.902149 0.776086
O O13 0.214954 0.500000 0.988939
O O14 0.500000 0.397431 0.500000
#
# Coordination Sequence:
#
# PCOD9177429 Si02
#       6
#     8   8   8   8   8   8
#     4   9  17  28  43  64  85 109 144 180 212 245
#     4   8  13  23  41  66  89 107 131 171 217 252
#     4   8  15  25  39  61  85 108 138 171 210 252
#     4   9  16  27  43  64  87 111 144 179 210 249
#     4  10  19  29  42  60  86 117 144 174 213 255
#     4   8  13  23  42  64  86 107 134 178 216 247
#
# _framework density 27.941984999999999
#
# number of rings (size 3 to 8) (size 9 to 14) (size 15 to 20)
#    0.000    3.333    0.000    0.500    0.000    3.000 
#    0.000    0.000    0.000   13.500    0.000   22.167 
#    0.000    0.000    0.000    0.000    0.000    0.000 
#
# Total GULP energy -133967.611411 kJ/mol
# GULP energy per Si atom -5581.983809 kJ/mol
# Density = 2.787839 g / cm^3
# Si number density = 27.941985 Si / 1000 Ang^3
#
#
#
# Elastic Constant Matrix: (Units=GPa)
#
#
# Indices 1 2 3 4 5 6 
#
# 1 214.4585 8.6440 100.2750 0.0000 -94.4182 0.0000
# 2 8.6440 79.9167 18.2691 0.0000 -20.7322 0.0000
# 3 100.2750 18.2691 306.4746 0.0000 -86.9274 0.0000
# 4 0.0000 0.0000 0.0000 61.6523 0.0000 -185.1622
# 5 -94.4182 -20.7322 -86.9274 0.0000 89.3181 0.0000
# 6 0.0000 0.0000 0.0000 -185.1622 0.0000 266.6693
#
#
#
# Elastic Compliance Matrix: (Units=1/GPa)
#
#
# Indices 1 2 3 4 5 6 
#
# 1 0.008928 0.001569 -0.000324 0.000000 0.009486 0.000000
# 2 0.001569 0.013594 0.000058 0.000000 0.004870 0.000000
# 3 -0.000324 0.000058 0.004520 0.000000 0.004070 0.000000
# 4 0.000000 0.000000 0.000000 -0.014944 0.000000 -0.010377
# 5 0.009486 0.004870 0.004070 0.000000 0.026316 0.000000
# 6 0.000000 0.000000 0.000000 -0.010377 0.000000 -0.003455
#
#
# Mechanical properties :
#
#
# Convention : Reuss Voigt Hill
#
# Bulk Modulus (GPa) = 33.72985 95.02510 64.37747
# Shear Modulus (GPa) = 118.38973 115.10539 116.74756
#
# Velocity S-wave (km/s) = 6.51627 6.42525 6.47092
# Velocity P-wave (km/s) = 8.28935 9.44071 8.88370
#
# Compressibility (1/GPa) = 0.02964733
#
# Stress axis : x y z
#
# Youngs Moduli (GPa) = 112.01180 73.56407 221.24878
#
# Poissons Ratio (x) = -0.11545 0.07165
# Poissons Ratio (y) = -0.17579 -0.01275
# Poissons Ratio (z) = 0.03628 -0.00424
#
# Static dielectric constant tensor:
#      x y z
#    x 2.455480 0.000000 -0.003890 
#    y 0.000000 2.032590 0.000000 
#    z -0.003890 0.000000 2.127070 
# 
# From -- ./inp_files/142821.got.cif
#   From: 2010.05.17/outbox.cif.g08.bks.cpg/sg12_72_cif.got.tgz:142821.got - 2010.06.03 13:09:07.
