data_PCOD9177656
_publ_section_title
;
Structure prediction by ZEFSAII (Michael W. Deem and Ramdas Pophale) SiO2 
 PCOD9177656
Probable space group: C 2/M
;
_chemical_formula_sum "Si O2"
_cell_formula_units_Z 56
_cell_length_a 22.201640
_cell_length_b 7.598983
_cell_length_c 17.181284
_cell_angle_alpha 90.000000
_cell_angle_beta 117.633608
_cell_angle_gamma 90.000000
_cell_volume 2568.008006
_symmetry_space_group_name_H-M "C 2/M"
_symmetry_group_IT_number 12
_symmetry_cell_setting 'monoclinic'
loop_
_space_group_symop_operation_xyz
x,y,z
-x,y,-z
-x,-y,-z
x,-y,z
1/2+x,1/2+y,z
1/2-x,1/2+y,-z
1/2-x,1/2-y,-z
1/2+x,1/2-y,z
loop_
_atom_site_type_symbol
_atom_site_label
_atom_site_fract_x
_atom_site_fract_y
_atom_site_fract_z
Si Si1 0.163530 0.709611 0.112080
Si Si2 0.289085 0.714449 0.283116
Si Si3 0.469817 0.199982 0.894741
Si Si4 0.107696 0.803274 0.911213
Si Si5 0.541145 0.715132 0.446147
Si Si6 0.302169 0.711089 0.462076
Si Si7 0.919657 0.784635 0.272019
O O1 0.160795 0.500000 0.121909
O O2 0.235173 0.775113 0.186430
O O3 0.103742 0.780454 0.132599
O O4 0.145645 0.734386 0.010673
O O5 0.287409 0.500000 0.281041
O O6 0.273914 0.772904 0.361473
O O7 0.365005 0.763636 0.304591
O O8 0.527118 0.301719 0.882396
O O9 0.465340 0.000000 0.860731
O O10 0.500000 0.186479 0.000000
O O11 0.108802 0.716471 0.827328
O O12 0.134281 0.000000 0.918089
O O13 0.500000 0.767761 0.500000
O O14 0.542519 0.500000 0.449032
O O15 0.619327 0.774738 0.484812
O O16 0.494007 0.769704 0.345056
O O17 0.306926 0.500000 0.461062
O O18 0.250000 0.750000 0.500000
O O19 0.921246 0.000000 0.267599
#
# Coordination Sequence:
#
# PCOD9177656 Si02
#       7
#     8   8   8   8   8   8   8
#     4   9  18  32  50  69  95 134 173 205 242 298
#     4   9  17  32  52  73  98 134 174 208 248 303
#     4   8  15  29  46  63  88 126 169 205 238 291
#     4  10  19  29  45  73 103 128 161 210 259 296
#     4   9  15  29  54  79 100 131 176 217 252 299
#     4  10  20  34  56  84 110 135 169 217 267 313
#     4   9  17  29  48  76 103 127 168 218 253 294
#
# _framework density 21.806785999999999
#
# number of rings (size 3 to 8) (size 9 to 14) (size 15 to 20)
#    0.000    2.857    1.429    1.286    0.000    4.286 
#    0.000    0.714    0.000    3.857    0.000    0.000 
#    0.000    0.000    0.000    0.000    0.000    0.000 
#
# Total GULP energy -156002.727032 kJ/mol
# GULP energy per Si atom -5571.525965 kJ/mol
# Density = 2.175715 g / cm^3
# Si number density = 21.806786 Si / 1000 Ang^3
#
#
#
# Elastic Constant Matrix: (Units=GPa)
#
#
# Indices 1 2 3 4 5 6 
#
# 1 107.9113 -1.4510 74.2449 0.0000 0.6125 0.0000
# 2 -1.4510 41.9833 3.5839 0.0000 2.7617 0.0000
# 3 74.2449 3.5839 148.6638 0.0000 5.6973 0.0000
# 4 0.0000 0.0000 0.0000 8.3403 0.0000 -3.9401
# 5 0.6125 2.7617 5.6973 0.0000 41.1529 0.0000
# 6 0.0000 0.0000 0.0000 -3.9401 0.0000 10.6442
#
#
#
# Elastic Compliance Matrix: (Units=1/GPa)
#
#
# Indices 1 2 3 4 5 6 
#
# 1 0.014188 0.001053 -0.007138 0.000000 0.000706 0.000000
# 2 0.001053 0.024043 -0.001049 0.000000 -0.001484 0.000000
# 3 -0.007138 -0.001049 0.010365 0.000000 -0.001258 0.000000
# 4 0.000000 0.000000 0.000000 0.145311 0.000000 0.053788
# 5 0.000706 -0.001484 -0.001258 0.000000 0.024563 0.000000
# 6 0.000000 0.000000 0.000000 0.053788 0.000000 0.113858
#
#
# Mechanical properties :
#
#
# Convention : Reuss Voigt Hill
#
# Bulk Modulus (GPa) = 29.13047 50.14600 39.63824
# Shear Modulus (GPa) = 13.96502 26.83953 20.40227
#
# Velocity S-wave (km/s) = 2.53335 3.51206 3.06206
# Velocity P-wave (km/s) = 4.68451 6.28424 5.54239
#
# Compressibility (1/GPa) = 0.03432832
#
# Stress axis : x y z
#
# Youngs Moduli (GPa) = 70.48058 41.59295 96.47786
#
# Poissons Ratio (x) = -0.04381 0.68869
# Poissons Ratio (y) = -0.07424 0.10118
# Poissons Ratio (z) = 0.50311 0.04362
#
# Static dielectric constant tensor:
#      x y z
#    x 1.816210 0.000000 0.010470 
#    y 0.000000 1.839030 0.000000 
#    z 0.010470 0.000000 1.801860 
# 
# From -- ./inp_files/281737.got.cif
#   From: 2010.05.17/outbox.cif.g08.bks.cpg/sg12_141_cif.got.tgz:281737.got - 2010.06.03 13:09:07.
