data_PCOD9177355
_publ_section_title
;
Structure prediction by ZEFSAII (Michael W. Deem and Ramdas Pophale) SiO2 
 PCOD9177355
Probable space group: C 2/M
;
_chemical_formula_sum "Si O2"
_cell_formula_units_Z 64
_cell_length_a 21.094722
_cell_length_b 7.536180
_cell_length_c 17.998368
_cell_angle_alpha 90.000000
_cell_angle_beta 121.850054
_cell_angle_gamma 90.000000
_cell_volume 2430.450737
_symmetry_space_group_name_H-M "C 2/M"
_symmetry_group_IT_number 12
_symmetry_cell_setting 'monoclinic'
loop_
_space_group_symop_operation_xyz
x,y,z
-x,y,-z
-x,-y,-z
x,-y,z
1/2+x,1/2+y,z
1/2-x,1/2+y,-z
1/2-x,1/2-y,-z
1/2+x,1/2-y,z
loop_
_atom_site_type_symbol
_atom_site_label
_atom_site_fract_x
_atom_site_fract_y
_atom_site_fract_z
Si Si1 0.197307 0.715614 0.383267
Si Si2 0.329530 0.292450 0.879675
Si Si3 0.521802 0.203004 0.088540
Si Si4 0.661000 0.788767 0.778183
Si Si5 0.838445 0.711063 0.055040
Si Si6 0.463838 0.784093 0.748177
Si Si7 0.486687 0.297715 0.386306
Si Si8 0.646464 0.706818 0.521274
O O1 0.201109 0.500000 0.389771
O O2 0.122598 0.764535 0.294741
O O3 0.275860 0.781280 0.397497
O O4 0.174460 0.781246 0.452219
O O5 0.329568 0.500000 0.861070
O O6 0.389218 0.196177 0.865635
O O7 0.245054 0.221953 0.817537
O O8 0.356399 0.275093 0.982552
O O9 0.497524 0.276952 0.152464
O O10 0.494083 0.000000 0.069929
O O11 0.500000 0.299316 0.000000
O O12 0.637437 0.724014 0.846932
O O13 0.599424 0.761584 0.675199
O O14 0.666779 0.000000 0.789532
O O15 0.850933 0.500000 0.062906
O O16 0.750000 0.750000 0.000000
O O17 0.489334 0.713566 0.685278
O O18 0.470309 0.000000 0.747697
O O19 0.483598 0.500000 0.407932
O O20 0.561495 0.217517 0.473079
O O21 0.640218 0.500000 0.537683
#
# Coordination Sequence:
#
# PCOD9177355 Si02
#       8
#     8   8   8   8   8   8   8   8
#     4   8  13  24  43  62  86 122 157 186 220 274
#     4  10  21  36  52  70  90 119 160 201 239 280
#     4  10  22  37  51  68  93 126 160 198 240 277
#     4   9  19  33  48  67  93 123 152 187 233 282
#     4   9  17  30  48  68  90 116 150 192 235 277
#     4   9  18  32  48  67  93 128 164 192 230 282
#     4  10  19  28  44  72 102 126 151 189 234 278
#     4   8  14  24  38  63  95 121 147 184 229 271
#
# _framework density 26.332564999999999
#
# number of rings (size 3 to 8) (size 9 to 14) (size 15 to 20)
#    0.000    2.875    0.000    1.875    1.750    4.250 
#    0.000    0.000    0.000    0.000    0.000    0.875 
#    0.000    7.000    0.000    0.000    0.000    0.000 
#
# Total GULP energy -178401.367085 kJ/mol
# GULP energy per Si atom -5575.042721 kJ/mol
# Density = 2.627263 g / cm^3
# Si number density = 26.332565 Si / 1000 Ang^3
#
#
#
# Elastic Constant Matrix: (Units=GPa)
#
#
# Indices 1 2 3 4 5 6 
#
# 1 96.9720 0.7180 18.2227 0.0000 26.9679 0.0000
# 2 0.7180 77.3158 1.0770 0.0000 2.8860 0.0000
# 3 18.2227 1.0770 89.9463 0.0000 19.8668 0.0000
# 4 0.0000 0.0000 0.0000 9.4338 0.0000 12.0270
# 5 26.9679 2.8860 19.8668 0.0000 52.3313 0.0000
# 6 0.0000 0.0000 0.0000 12.0270 0.0000 20.4963
#
#
#
# Elastic Compliance Matrix: (Units=1/GPa)
#
#
# Indices 1 2 3 4 5 6 
#
# 1 0.012152 0.000121 -0.001177 0.000000 -0.005822 0.000000
# 2 0.000121 0.012962 -0.000009 0.000000 -0.000774 0.000000
# 3 -0.001177 -0.000009 0.012249 0.000000 -0.004043 0.000000
# 4 0.000000 0.000000 0.000000 0.420775 0.000000 -0.246905
# 5 -0.005822 -0.000774 -0.004043 0.000000 0.023687 0.000000
# 6 0.000000 0.000000 0.000000 -0.246905 0.000000 0.193670
#
#
# Mechanical properties :
#
#
# Convention : Reuss Voigt Hill
#
# Bulk Modulus (GPa) = 28.38314 33.80773 31.09544
# Shear Modulus (GPa) = 7.25301 32.73336 19.99318
#
# Velocity S-wave (km/s) = 1.66144 3.52955 2.75845
# Velocity P-wave (km/s) = 3.80560 5.42927 4.68826
#
# Compressibility (1/GPa) = 0.03523219
#
# Stress axis : x y z
#
# Youngs Moduli (GPa) = 82.29327 77.14948 81.63660
#
# Poissons Ratio (x) = -0.00932 0.09612
# Poissons Ratio (y) = -0.00995 0.00072
# Poissons Ratio (z) = 0.09690 0.00068
#
# Static dielectric constant tensor:
#      x y z
#    x 2.202710 0.000000 0.115040 
#    y 0.000000 1.856340 0.000000 
#    z 0.115040 0.000000 2.225400 
# 
# From -- ./inp_files/348573.got.cif
#   From: 2010.05.17/outbox.cif.g08.bks.cpg/sg12_175_cif.got.tgz:348573.got - 2010.06.03 13:09:07.
