data_PCOD9177740
_publ_section_title
;
Structure prediction by ZEFSAII (Michael W. Deem and Ramdas Pophale) SiO2 
 PCOD9177740
Probable space group: C 2/M
;
_chemical_formula_sum "Si O2"
_cell_formula_units_Z 56
_cell_length_a 20.279833
_cell_length_b 7.643934
_cell_length_c 21.666762
_cell_angle_alpha 90.000000
_cell_angle_beta 124.861057
_cell_angle_gamma 90.000000
_cell_volume 2755.975621
_symmetry_space_group_name_H-M "C 2/M"
_symmetry_group_IT_number 12
_symmetry_cell_setting 'monoclinic'
loop_
_space_group_symop_operation_xyz
x,y,z
-x,y,-z
-x,-y,-z
x,-y,z
1/2+x,1/2+y,z
1/2-x,1/2+y,-z
1/2-x,1/2-y,-z
1/2+x,1/2-y,z
loop_
_atom_site_type_symbol
_atom_site_label
_atom_site_fract_x
_atom_site_fract_y
_atom_site_fract_z
Si Si1 0.591414 0.286701 0.063332
Si Si2 0.364859 0.714150 0.775509
Si Si3 0.339313 0.709770 0.026682
Si Si4 0.686954 0.797309 0.655885
Si Si5 0.044403 0.207103 0.671942
Si Si6 0.926498 0.796915 0.509627
Si Si7 0.469238 0.285597 0.196722
O O1 0.593017 0.500000 0.065827
O O2 0.619647 0.229526 0.145682
O O3 0.500000 0.235865 0.000000
O O4 0.643927 0.225758 0.033573
O O5 0.365265 0.500000 0.774322
O O6 0.276946 0.775648 0.707408
O O7 0.441070 0.767887 0.775227
O O8 0.348835 0.500000 0.029702
O O9 0.405210 0.774319 0.111176
O O10 0.250000 0.750000 0.000000
O O11 0.623783 0.723969 0.672152
O O12 0.647787 0.782405 0.567066
O O13 0.692536 0.000000 0.675056
O O14 0.052040 0.274317 0.745520
O O15 0.967594 0.280530 0.592871
O O16 0.029152 0.000000 0.668612
O O17 0.000000 0.791006 0.500000
O O18 0.906422 0.000000 0.509559
O O19 0.466921 0.500000 0.194917
#
# Coordination Sequence:
#
# PCOD9177740 Si02
#       7
#     8   8   8   8   8   8   8
#     4   9  15  28  49  71  94 125 164 198 229 273
#     4   9  17  29  46  71  99 125 159 199 237 278
#     4  10  20  32  51  75  99 127 159 200 242 281
#     4  10  19  29  48  76 100 122 153 200 246 282
#     4   9  18  32  51  71  94 127 163 197 234 282
#     4   8  15  30  49  68  93 127 162 193 230 282
#     4   9  17  32  50  70  96 128 165 198 232 281
#
# _framework density 20.319483000000002
#
# number of rings (size 3 to 8) (size 9 to 14) (size 15 to 20)
#    0.000    2.857    1.429    1.286    2.000    2.571 
#    0.000    0.714    0.000    3.857    0.000    0.000 
#    0.000    0.000    0.000    0.000    0.000    0.000 
#
# Total GULP energy -156100.275445 kJ/mol
# GULP energy per Si atom -5575.009837 kJ/mol
# Density = 2.027324 g / cm^3
# Si number density = 20.319483 Si / 1000 Ang^3
#
#
#
# Elastic Constant Matrix: (Units=GPa)
#
#
# Indices 1 2 3 4 5 6 
#
# 1 97.0453 -5.5125 41.6132 0.0000 14.8810 0.0000
# 2 -5.5125 30.3291 5.0405 0.0000 -3.2249 0.0000
# 3 41.6132 5.0405 92.6608 0.0000 23.5503 0.0000
# 4 0.0000 0.0000 0.0000 6.0915 0.0000 3.7967
# 5 14.8810 -3.2249 23.5503 0.0000 36.2799 0.0000
# 6 0.0000 0.0000 0.0000 3.7967 0.0000 -0.5978
#
#
#
# Elastic Compliance Matrix: (Units=1/GPa)
#
#
# Indices 1 2 3 4 5 6 
#
# 1 0.013156 0.003195 -0.005728 0.000000 -0.001394 0.000000
# 2 0.003195 0.034807 -0.004529 0.000000 0.004723 0.000000
# 3 -0.005728 -0.004529 0.015707 0.000000 -0.008249 0.000000
# 4 0.000000 0.000000 0.000000 0.033107 0.000000 0.210268
# 5 -0.001394 0.004723 -0.008249 0.000000 0.033910 0.000000
# 6 0.000000 0.000000 0.000000 0.210268 0.000000 -0.337358
#
#
# Mechanical properties :
#
#
# Convention : Reuss Voigt Hill
#
# Bulk Modulus (GPa) = 20.18273 33.59085 26.88679
# Shear Modulus (GPa) = -28.40398 20.28097 -4.06150
#
# Velocity S-wave (km/s) = -3.74286 3.16271 -1.41533
# Velocity P-wave (km/s) = 2.95372 5.46847 3.25421
#
# Compressibility (1/GPa) = 0.04954732
#
# Stress axis : x y z
#
# Youngs Moduli (GPa) = 76.01249 28.72968 63.66509
#
# Poissons Ratio (x) = -0.09179 0.36465
# Poissons Ratio (y) = -0.24284 0.28831
# Poissons Ratio (z) = 0.43537 0.13011
#
# Static dielectric constant tensor:
#      x y z
#    x 1.702870 0.000000 -0.005720 
#    y 0.000000 1.770590 0.000000 
#    z -0.005720 0.000000 1.734570 
# 
# From -- ./inp_files/319665.got.cif
#   From: 2010.05.17/outbox.cif.g08.bks.cpg/sg12_160_cif.got.tgz:319665.got - 2010.06.03 13:09:07.
