data_PCOD9177879
_publ_section_title
;
Structure prediction by ZEFSAII (Michael W. Deem and Ramdas Pophale) SiO2 
 PCOD9177879
Probable space group: C 2/M
;
_chemical_formula_sum "Si O2"
_cell_formula_units_Z 56
_cell_length_a 27.807454
_cell_length_b 9.106987
_cell_length_c 14.714021
_cell_angle_alpha 90.000000
_cell_angle_beta 77.187397
_cell_angle_gamma 90.000000
_cell_volume 3633.429504
_symmetry_space_group_name_H-M "C 2/M"
_symmetry_group_IT_number 12
_symmetry_cell_setting 'monoclinic'
loop_
_space_group_symop_operation_xyz
x,y,z
-x,y,-z
-x,-y,-z
x,-y,z
1/2+x,1/2+y,z
1/2-x,1/2+y,-z
1/2-x,1/2-y,-z
1/2+x,1/2-y,z
loop_
_atom_site_type_symbol
_atom_site_label
_atom_site_fract_x
_atom_site_fract_y
_atom_site_fract_z
Si Si1 0.136618 0.324835 0.561869
Si Si2 0.626989 0.670107 0.278971
Si Si3 0.317028 0.174674 0.900147
Si Si4 0.790170 0.829976 0.599143
Si Si5 0.815951 0.676370 0.275426
Si Si6 0.796769 0.824866 0.096415
Si Si7 0.057250 0.177044 0.466987
O O1 0.133320 0.500000 0.554861
O O2 0.185334 0.269281 0.488152
O O3 0.143532 0.287674 0.665070
O O4 0.090801 0.249573 0.530629
O O5 0.620436 0.500000 0.254316
O O6 0.642501 0.766049 0.186854
O O7 0.672254 0.675194 0.331641
O O8 0.580402 0.718724 0.359319
O O9 0.262172 0.208660 0.883402
O O10 0.320378 0.000000 0.909562
O O11 0.319375 0.253300 0.996493
O O12 0.736834 0.784905 0.657303
O O13 0.787749 0.000000 0.569064
O O14 0.815788 0.500000 0.261062
O O15 0.819111 0.757484 0.178501
O O16 0.802316 0.000000 0.092131
O O17 0.000000 0.214975 0.500000
O O18 0.062632 0.000000 0.471606
#
# Coordination Sequence:
#
# PCOD9177879 Si02
#       7
#     8   8   8   8   8   8   8
#     4  10  20  30  45  69  95 122 155 195 237 279
#     4   9  16  28  48  69  91 121 157 195 231 273
#     4  10  19  30  44  65  93 125 159 196 235 274
#     4   9  17  29  44  62  91 130 163 190 223 269
#     4  10  19  31  44  63  94 130 161 192 231 273
#     4  10  20  30  44  65  91 127 166 199 227 266
#     4   9  19  36  54  71  93 123 157 194 238 285
#
# _framework density 15.412436
#
# number of rings (size 3 to 8) (size 9 to 14) (size 15 to 20)
#    0.000    2.429    1.429    2.571    0.000    5.429 
#    0.000    0.000    0.000    0.000    0.000    1.000 
#    0.000    8.000    0.000    0.000    0.000    0.000 
#
# Total GULP energy -156118.882324 kJ/mol
# GULP energy per Si atom -5575.674369 kJ/mol
# Density = 1.537736 g / cm^3
# Si number density = 15.412436 Si / 1000 Ang^3
#
#
#
# Elastic Constant Matrix: (Units=GPa)
#
#
# Indices 1 2 3 4 5 6 
#
# 1 61.9484 29.3603 55.8593 0.0000 -9.4015 0.0000
# 2 29.3603 45.2859 61.1788 0.0000 2.8691 0.0000
# 3 55.8593 61.1788 138.6094 0.0000 3.9908 0.0000
# 4 0.0000 0.0000 0.0000 30.5686 0.0000 1.4210
# 5 -9.4015 2.8691 3.9908 0.0000 18.5433 0.0000
# 6 0.0000 0.0000 0.0000 1.4210 0.0000 15.5993
#
#
#
# Elastic Compliance Matrix: (Units=1/GPa)
#
#
# Indices 1 2 3 4 5 6 
#
# 1 0.031971 -0.009420 -0.009293 0.000000 0.019667 0.000000
# 2 -0.009420 0.057670 -0.021396 0.000000 -0.009094 0.000000
# 3 -0.009293 -0.021396 0.020571 0.000000 -0.005828 0.000000
# 4 0.000000 0.000000 0.000000 0.032852 0.000000 -0.002993
# 5 0.019667 -0.009094 -0.005828 0.000000 0.066560 0.000000
# 6 0.000000 0.000000 0.000000 -0.002993 0.000000 0.064378
#
#
# Mechanical properties :
#
#
# Convention : Reuss Voigt Hill
#
# Bulk Modulus (GPa) = 33.33903 59.84895 46.59399
# Shear Modulus (GPa) = 13.72797 19.57192 16.64994
#
# Velocity S-wave (km/s) = 2.98771 3.56740 3.29035
# Velocity P-wave (km/s) = 5.79483 7.47558 6.68822
#
# Compressibility (1/GPa) = 0.02999488
#
# Stress axis : x y z
#
# Youngs Moduli (GPa) = 31.27832 17.33989 48.61153
#
# Poissons Ratio (x) = 0.16333 0.45175
# Poissons Ratio (y) = 0.29463 1.04012
# Poissons Ratio (z) = 0.29067 0.37101
#
# Static dielectric constant tensor:
#      x y z
#    x 1.501570 0.000000 0.002810 
#    y 0.000000 1.514930 0.000000 
#    z 0.002810 0.000000 1.508510 
# 
# From -- ./inp_files/247768.got.cif
#   From: 2010.05.17/outbox.cif.g08.bks.cpg/sg12_124_cif.got.tgz:247768.got - 2010.06.03 13:09:07.
