data_PCOD9177360
_publ_section_title
;
Structure prediction by ZEFSAII (Michael W. Deem and Ramdas Pophale) SiO2 
 PCOD9177360
Probable space group: C 2/M
;
_chemical_formula_sum "Si O2"
_cell_formula_units_Z 40
_cell_length_a 9.213683
_cell_length_b 22.889585
_cell_length_c 7.765828
_cell_angle_alpha 90.000000
_cell_angle_beta 77.823963
_cell_angle_gamma 90.000000
_cell_volume 1600.949308
_symmetry_space_group_name_H-M "C 2/M"
_symmetry_group_IT_number 12
_symmetry_cell_setting 'monoclinic'
loop_
_space_group_symop_operation_xyz
x,y,z
-x,y,-z
-x,-y,-z
x,-y,z
1/2+x,1/2+y,z
1/2-x,1/2+y,-z
1/2-x,1/2-y,-z
1/2+x,1/2-y,z
loop_
_atom_site_type_symbol
_atom_site_label
_atom_site_fract_x
_atom_site_fract_y
_atom_site_fract_z
Si Si1 0.893420 0.155079 0.858417
Si Si2 0.571716 0.885051 0.676175
Si Si3 0.815717 0.435323 0.918301
Si Si4 0.099909 0.274612 0.312838
Si Si5 0.682578 0.375653 0.623317
O O1 0.851594 0.219836 0.809332
O O2 0.008876 0.129713 0.690800
O O3 0.754132 0.114800 0.943964
O O4 0.739427 0.186445 0.341011
O O5 0.500000 0.891545 0.500000
O O6 0.488831 0.928999 0.822431
O O7 0.510394 0.821573 0.749082
O O8 0.741576 0.888826 0.578896
O O9 0.779485 0.500000 0.987589
O O10 0.735751 0.422212 0.754023
O O11 0.000000 0.254370 0.500000
O O12 0.500000 0.340745 0.000000
#
# Coordination Sequence:
#
# PCOD9177360 Si02
#       5
#     8   8   8   8   8
#     4  10  19  28  45  71  97 119 148 190 230 268
#     4   7  14  27  43  62  85 116 152 182 216 268
#     4   9  17  28  41  62  94 124 149 186 231 266
#     4   8  16  31  47  64  94 123 148 184 229 274
#     4   8  17  29  45  69  93 119 154 188 222 273
#
# _framework density 24.985177
#
# number of rings (size 3 to 8) (size 9 to 14) (size 15 to 20)
#    0.000    4.400    0.000    0.000    0.000   17.600 
#    0.000    0.000    0.000    0.600    0.000    0.000 
#    0.000   72.000    0.000    0.000    0.000    0.000 
#
# Total GULP energy -111736.912302 kJ/mol
# GULP energy per Si atom -5586.845615 kJ/mol
# Density = 2.492831 g / cm^3
# Si number density = 24.985177 Si / 1000 Ang^3
#
#
#
# Elastic Constant Matrix: (Units=GPa)
#
#
# Indices 1 2 3 4 5 6 
#
# 1 99.3742 8.4941 38.3921 0.0000 -20.2631 0.0000
# 2 8.4941 125.0077 60.3346 0.0000 10.6387 0.0000
# 3 38.3921 60.3346 177.0324 0.0000 -19.2862 0.0000
# 4 0.0000 0.0000 0.0000 23.6154 0.0000 2.0386
# 5 -20.2631 10.6387 -19.2862 0.0000 38.3892 0.0000
# 6 0.0000 0.0000 0.0000 2.0386 0.0000 3.5313
#
#
#
# Elastic Compliance Matrix: (Units=1/GPa)
#
#
# Indices 1 2 3 4 5 6 
#
# 1 0.011929 -0.000376 -0.001863 0.000000 0.005465 0.000000
# 2 -0.000376 0.010398 -0.004018 0.000000 -0.005099 0.000000
# 3 -0.001863 -0.004018 0.007867 0.000000 0.004082 0.000000
# 4 0.000000 0.000000 0.000000 0.044566 0.000000 -0.025727
# 5 0.005465 -0.005099 0.004082 0.000000 0.032397 0.000000
# 6 0.000000 0.000000 0.000000 -0.025727 0.000000 0.298031
#
#
# Mechanical properties :
#
#
# Convention : Reuss Voigt Hill
#
# Bulk Modulus (GPa) = 56.56279 68.42842 62.49561
# Shear Modulus (GPa) = 11.80369 32.72009 22.26189
#
# Velocity S-wave (km/s) = 2.17590 3.62274 2.98821
# Velocity P-wave (km/s) = 5.38520 6.70418 6.08056
#
# Compressibility (1/GPa) = 0.01767947
#
# Stress axis : x y z
#
# Youngs Moduli (GPa) = 83.82665 96.17157 127.11723
#
# Poissons Ratio (x) = 0.03618 0.23688
# Poissons Ratio (y) = 0.03154 0.51071
# Poissons Ratio (z) = 0.15621 0.38638
#
# Static dielectric constant tensor:
#      x y z
#    x 2.130620 0.000000 0.047490 
#    y 0.000000 1.913980 0.000000 
#    z 0.047490 0.000000 1.998220 
# 
# From -- ./inp_files/227072.got.cif
#   From: 2010.05.17/outbox.cif.g08.bks.cpg/sg12_114_cif.got.tgz:227072.got - 2010.06.03 13:09:07.
