data_PCOD9177251
_publ_section_title
;
Structure prediction by ZEFSAII (Michael W. Deem and Ramdas Pophale) SiO2 
 PCOD9177251
Probable space group: C 2/M
;
_chemical_formula_sum "Si O2"
_cell_formula_units_Z 56
_cell_length_a 24.180347
_cell_length_b 20.991783
_cell_length_c 5.486623
_cell_angle_alpha 90.000000
_cell_angle_beta 90.000150
_cell_angle_gamma 90.000000
_cell_volume 2784.947271
_symmetry_space_group_name_H-M "C 2/M"
_symmetry_group_IT_number 12
_symmetry_cell_setting 'monoclinic'
loop_
_space_group_symop_operation_xyz
x,y,z
-x,y,-z
-x,-y,-z
x,-y,z
1/2+x,1/2+y,z
1/2-x,1/2+y,-z
1/2-x,1/2-y,-z
1/2+x,1/2-y,z
loop_
_atom_site_type_symbol
_atom_site_label
_atom_site_fract_x
_atom_site_fract_y
_atom_site_fract_z
Si Si1 0.061101 0.430646 0.750001
Si Si2 0.384668 0.891636 0.749998
Si Si3 0.801705 0.243585 0.250001
Si Si4 0.016294 0.304065 0.250000
Si Si5 0.802033 0.931137 0.750002
Si Si6 0.746238 0.104272 0.250001
Si Si7 0.179374 0.790053 0.249999
O O1 0.033007 0.500000 0.750000
O O2 0.096733 0.424898 0.502932
O O3 0.019391 0.370720 0.750000
O O4 0.096733 0.424898 0.997071
O O5 0.420972 0.827222 0.749999
O O6 0.319101 0.886933 0.749998
O O7 0.775872 0.172883 0.250000
O O8 0.834752 0.246035 0.500515
O O9 0.747922 0.288757 0.250001
O O10 0.834752 0.246035 0.999487
O O11 0.000000 0.270282 0.500000
O O12 0.000000 0.270282 0.000000
O O13 0.766174 0.927919 0.501246
O O14 0.836387 0.864485 0.750003
O O15 0.831399 0.000000 0.750002
O O16 0.766173 0.927920 0.998755
#
# Coordination Sequence:
#
# PCOD9177251 Si02
#       7
#     8   8   8   8   8   8   8
#     4  10  19  28  36  44  55  75 103 128 148 177
#     4  10  19  27  35  46  59  75  95 123 157 185
#     4   8  14  25  39  51  61  77 103 128 148 176
#     4   8  16  27  36  44  54  70  96 126 151 174
#     4  10  19  28  36  49  69  87 102 122 153 193
#     4  10  19  28  37  50  67  84 102 126 159 195
#     4   8  14  25  39  50  61  80 103 125 147 174
#
# _framework density 20.108098999999999
#
# number of rings (size 3 to 8) (size 9 to 14) (size 15 to 20)
#    0.000    2.857    0.000    1.714    0.000    8.571 
#    0.000    0.000    0.000    0.000    0.000    0.000 
#    0.000    0.000    0.000    0.000    0.000    0.000 
#
# Total GULP energy -156136.337468 kJ/mol
# GULP energy per Si atom -5576.297767 kJ/mol
# Density = 2.006233 g / cm^3
# Si number density = 20.108099 Si / 1000 Ang^3
#
#
#
# Elastic Constant Matrix: (Units=GPa)
#
#
# Indices 1 2 3 4 5 6 
#
# 1 32.8325 -5.4513 15.3567 0.0000 0.9383 0.0000
# 2 -5.4513 57.8224 10.1828 0.0000 1.3639 0.0000
# 3 15.3567 10.1828 212.8712 0.0000 14.7645 0.0000
# 4 0.0000 0.0000 0.0000 -9.8695 0.0000 -1.5298
# 5 0.9383 1.3639 14.7645 0.0000 15.3230 0.0000
# 6 0.0000 0.0000 0.0000 -1.5298 0.0000 7.6714
#
#
#
# Elastic Compliance Matrix: (Units=1/GPa)
#
#
# Indices 1 2 3 4 5 6 
#
# 1 0.032199 0.003472 -0.002498 0.000000 0.000126 0.000000
# 2 0.003472 0.017825 -0.001048 0.000000 -0.000789 0.000000
# 3 -0.002498 -0.001048 0.005263 0.000000 -0.004825 0.000000
# 4 0.000000 0.000000 0.000000 -0.098285 0.000000 -0.019599
# 5 0.000126 -0.000789 -0.004825 0.000000 0.069972 0.000000
# 6 0.000000 0.000000 0.000000 -0.019599 0.000000 0.126446
#
#
# Mechanical properties :
#
#
# Convention : Reuss Voigt Hill
#
# Bulk Modulus (GPa) = 18.13595 38.18918 28.16256
# Shear Modulus (GPa) = 29.07874 21.52085 25.29980
#
# Velocity S-wave (km/s) = 3.80692 3.27503 3.55094
# Velocity P-wave (km/s) = 5.32562 5.77358 5.55412
#
# Compressibility (1/GPa) = 0.05513911
#
# Stress axis : x y z
#
# Youngs Moduli (GPa) = 31.05704 56.10113 190.01874
#
# Poissons Ratio (x) = -0.19481 0.47461
# Poissons Ratio (y) = -0.10785 0.19923
# Poissons Ratio (z) = 0.07757 0.05882
#
# Static dielectric constant tensor:
#      x y z
#    x 1.664920 0.000000 0.017910 
#    y 0.000000 1.754800 0.000000 
#    z 0.017910 0.000000 1.870270 
# 
# From -- ./inp_files/29417.got.cif
#   From: 2010.05.17/outbox.cif.g08.bks.cpg/sg12_15_cif.got.tgz:29417.got - 2010.06.03 13:09:07.
