data_PCOD9177402
_publ_section_title
;
Structure prediction by ZEFSAII (Michael W. Deem and Ramdas Pophale) SiO2 
 PCOD9177402
Probable space group: C 2/M
;
_chemical_formula_sum "Si O2"
_cell_formula_units_Z 64
_cell_length_a 34.548599
_cell_length_b 8.754185
_cell_length_c 24.516906
_cell_angle_alpha 90.000000
_cell_angle_beta 29.554059
_cell_angle_gamma 90.000000
_cell_volume 3657.413796
_symmetry_space_group_name_H-M "C 2/M"
_symmetry_group_IT_number 12
_symmetry_cell_setting 'monoclinic'
loop_
_space_group_symop_operation_xyz
x,y,z
-x,y,-z
-x,-y,-z
x,-y,z
1/2+x,1/2+y,z
1/2-x,1/2+y,-z
1/2-x,1/2-y,-z
1/2+x,1/2-y,z
loop_
_atom_site_type_symbol
_atom_site_label
_atom_site_fract_x
_atom_site_fract_y
_atom_site_fract_z
Si Si1 0.879716 0.320695 0.982415
Si Si2 0.999111 0.815970 0.358503
Si Si3 0.379286 0.828227 0.707436
Si Si4 0.229397 0.172622 0.969240
Si Si5 0.260713 0.684862 0.769239
Si Si6 0.989500 0.816466 0.246524
Si Si7 0.684187 0.685436 0.414079
Si Si8 0.693031 0.684427 0.524409
O O1 0.891794 0.500000 0.975489
O O2 0.961237 0.244042 0.865181
O O3 0.828152 0.283052 0.992504
O O4 0.821125 0.263106 0.102220
O O5 0.051155 0.749497 0.343612
O O6 0.019442 0.767629 0.270833
O O7 0.907754 0.774205 0.478305
O O8 0.005858 0.000000 0.351879
O O9 0.308319 0.837656 0.837613
O O10 0.337312 0.740771 0.708923
O O11 0.401547 0.000000 0.663377
O O12 0.196744 0.000000 0.014964
O O13 0.250000 0.250000 0.000000
O O14 0.260683 0.500000 0.771793
O O15 0.269396 0.736537 0.696245
O O16 0.898077 0.771898 0.354828
O O17 0.993201 0.000000 0.241950
O O18 0.686537 0.500000 0.411413
O O19 0.713597 0.735561 0.437443
O O20 0.696472 0.500000 0.521592
O O21 0.750000 0.750000 0.500000
#
# Coordination Sequence:
#
# PCOD9177402 Si02
#       8
#     8   8   8   8   8   8   8   8
#     4  10  19  29  45  69  93 121 160 200 237 279
#     4   9  17  30  48  67  88 122 166 204 239 281
#     4  10  20  30  40  61  94 127 160 202 246 281
#     4  10  19  29  41  58  85 123 164 205 247 284
#     4   9  18  33  50  66  89 127 170 203 231 271
#     4   9  18  32  50  72  99 128 156 191 238 288
#     4   8  16  33  54  72  92 122 160 197 233 279
#     4   9  18  34  57  83 104 122 148 186 236 289
#
# _framework density 17.498705000000001
#
# number of rings (size 3 to 8) (size 9 to 14) (size 15 to 20)
#    0.000    2.750    0.000    3.375    0.000    5.500 
#    0.000    5.625    0.000    0.750    0.000    5.250 
#    0.000    0.000    0.000    0.000    0.000    0.000 
#
# Total GULP energy -178198.047315 kJ/mol
# GULP energy per Si atom -5568.688979 kJ/mol
# Density = 1.745888 g / cm^3
# Si number density = 17.498705 Si / 1000 Ang^3
#
#
#
# Elastic Constant Matrix: (Units=GPa)
#
#
# Indices 1 2 3 4 5 6 
#
# 1 124.0171 18.4080 66.5578 0.0027 11.7896 -0.0018
# 2 18.4080 16.0091 15.9091 0.0132 4.5820 -0.0039
# 3 66.5578 15.9091 92.6583 0.0056 21.1323 -0.0021
# 4 0.0027 0.0132 0.0056 22.2116 0.0014 -4.0890
# 5 11.7896 4.5820 21.1323 0.0014 20.7593 0.0007
# 6 -0.0018 -0.0039 -0.0021 -4.0890 0.0007 22.0479
#
#
#
# Elastic Compliance Matrix: (Units=1/GPa)
#
#
# Indices 1 2 3 4 5 6 
#
# 1 0.013970 -0.007590 -0.009513 0.000005 0.003425 0.000000
# 2 -0.007590 0.079764 -0.006787 -0.000043 -0.006386 0.000005
# 3 -0.009513 -0.006787 0.022423 0.000001 -0.015925 0.000001
# 4 0.000005 -0.000043 0.000001 0.046613 0.000003 0.008645
# 5 0.003425 -0.006386 -0.015925 0.000003 0.063847 -0.000004
# 6 0.000000 0.000005 0.000001 0.008645 -0.000004 0.046959
#
#
# Mechanical properties :
#
#
# Convention : Reuss Voigt Hill
#
# Bulk Modulus (GPa) = 14.62464 48.27050 31.44757
# Shear Modulus (GPa) = 14.52868 21.79104 18.15986
#
# Velocity S-wave (km/s) = 2.88457 3.53270 3.22496
# Velocity P-wave (km/s) = 4.41248 6.65470 5.64602
#
# Compressibility (1/GPa) = 0.06837775
#
# Stress axis : x y z
#
# Youngs Moduli (GPa) = 71.58381 12.53696 44.59785
#
# Poissons Ratio (x) = 0.09516 0.42424
# Poissons Ratio (y) = 0.54333 0.30267
# Poissons Ratio (z) = 0.68095 0.08508
#
# Static dielectric constant tensor:
#      x y z
#    x 1.563360 0.000000 0.024260 
#    y 0.000000 1.604790 0.000000 
#    z 0.024260 0.000000 1.638620 
# 
# From -- ./inp_files/353393.got.cif
#   From: 2010.05.17/outbox.cif.g08.bks.cpg/sg12_177_cif.got.tgz:353393.got - 2010.06.03 13:09:07.
