data_PCOD9177968
_publ_section_title
;
Structure prediction by ZEFSAII (Michael W. Deem and Ramdas Pophale) SiO2 
 PCOD9177968
Probable space group: C 2/M
;
_chemical_formula_sum "Si O2"
_cell_formula_units_Z 48
_cell_length_a 22.710616
_cell_length_b 8.936322
_cell_length_c 11.740745
_cell_angle_alpha 90.000000
_cell_angle_beta 116.640388
_cell_angle_gamma 90.000000
_cell_volume 2129.817452
_symmetry_space_group_name_H-M "C 2/M"
_symmetry_group_IT_number 12
_symmetry_cell_setting 'monoclinic'
loop_
_space_group_symop_operation_xyz
x,y,z
-x,y,-z
-x,-y,-z
x,-y,z
1/2+x,1/2+y,z
1/2-x,1/2+y,-z
1/2-x,1/2-y,-z
1/2+x,1/2-y,z
loop_
_atom_site_type_symbol
_atom_site_label
_atom_site_fract_x
_atom_site_fract_y
_atom_site_fract_z
Si Si1 0.880135 0.673762 0.445925
Si Si2 0.066658 0.175607 0.722787
Si Si3 0.023740 0.330511 0.902069
Si Si4 0.732386 0.673225 0.211842
Si Si5 0.831822 0.669078 0.040806
Si Si6 0.819267 0.820221 0.599983
O O1 0.896407 0.500000 0.474640
O O2 0.928655 0.748340 0.396489
O O3 0.805832 0.682004 0.327683
O O4 0.873170 0.755614 0.560858
O O5 0.017771 0.244984 0.776031
O O6 0.057271 0.000000 0.704876
O O7 0.137885 0.218040 0.840223
O O8 0.996587 0.500000 0.868531
O O9 0.102678 0.343349 0.980621
O O10 0.000000 0.260269 0.000000
O O11 0.718052 0.500000 0.174168
O O12 0.723114 0.767029 0.089722
O O13 0.680973 0.719273 0.266666
O O14 0.819368 0.500000 0.074401
O O15 0.750000 0.750000 0.500000
O O16 0.816767 0.000000 0.588325
#
# Coordination Sequence:
#
# PCOD9177968 Si02
#       6
#     8   8   8   8   8   8
#     4  10  19  31  45  63  90 123 156 186 222 259
#     4  10  19  30  45  67  92 116 149 184 222 267
#     4   8  16  32  49  66  89 114 143 181 222 266
#     4   9  18  30  44  63  90 121 151 187 220 256
#     4   9  18  30  45  66  89 117 150 180 220 269
#     4   9  17  29  44  63  86 117 156 189 221 255
#
# _framework density 22.537140999999998
#
# number of rings (size 3 to 8) (size 9 to 14) (size 15 to 20)
#    1.000    1.833    0.000    3.500    0.000    5.000 
#    0.000    0.000    0.000    0.000    0.000    1.167 
#    0.000    9.333    0.000    0.000    0.000    0.000 
#
# Total GULP energy -133725.340114 kJ/mol
# GULP energy per Si atom -5571.889171 kJ/mol
# Density = 2.248585 g / cm^3
# Si number density = 22.537141 Si / 1000 Ang^3
#
#
#
# Elastic Constant Matrix: (Units=GPa)
#
#
# Indices 1 2 3 4 5 6 
#
# 1 55.3833 16.6825 54.8038 0.0000 -22.6932 0.0000
# 2 16.6825 108.0629 54.1953 0.0000 -23.3870 0.0000
# 3 54.8038 54.1953 121.1516 0.0000 -58.2244 0.0000
# 4 0.0000 0.0000 0.0000 26.4241 0.0000 -11.9146
# 5 -22.6932 -23.3870 -58.2244 0.0000 65.4228 0.0000
# 6 0.0000 0.0000 0.0000 -11.9146 0.0000 6.1987
#
#
#
# Elastic Compliance Matrix: (Units=1/GPa)
#
#
# Indices 1 2 3 4 5 6 
#
# 1 0.033951 0.003285 -0.018528 0.000000 -0.003539 0.000000
# 2 0.003285 0.012275 -0.007550 0.000000 -0.001192 0.000000
# 3 -0.018528 -0.007550 0.027306 0.000000 0.015176 0.000000
# 4 0.000000 0.000000 0.000000 0.283836 0.000000 0.545561
# 5 -0.003539 -0.001192 0.015176 0.000000 0.027138 0.000000
# 6 0.000000 0.000000 0.000000 0.545561 0.000000 1.209945
#
#
# Mechanical properties :
#
#
# Convention : Reuss Voigt Hill
#
# Bulk Modulus (GPa) = 35.78254 59.55122 47.66688
# Shear Modulus (GPa) = 3.03149 30.20354 16.61752
#
# Velocity S-wave (km/s) = 1.16105 3.66480 2.71834
# Velocity P-wave (km/s) = 4.20820 6.66248 5.57215
#
# Compressibility (1/GPa) = 0.02794659
#
# Stress axis : x y z
#
# Youngs Moduli (GPa) = 29.45460 81.46517 36.62188
#
# Poissons Ratio (x) = -0.26761 0.67853
# Poissons Ratio (y) = -0.09676 0.27649
# Poissons Ratio (z) = 0.54573 0.61504
#
# Static dielectric constant tensor:
#      x y z
#    x 1.934340 0.000000 -0.036510 
#    y 0.000000 1.800750 0.000000 
#    z -0.036510 0.000000 1.873510 
# 
# From -- ./inp_files/185509.got.cif
#   From: 2010.05.17/outbox.cif.g08.bks.cpg/sg12_93_cif.got.tgz:185509.got - 2010.06.03 13:09:07.
