data_PCOD9177087
_publ_section_title
;
Structure prediction by ZEFSAII (Michael W. Deem and Ramdas Pophale) SiO2 
 PCOD9177087
Probable space group: C 2/M
;
_chemical_formula_sum "Si O2"
_cell_formula_units_Z 50
_cell_length_a 15.434279
_cell_length_b 15.934443
_cell_length_c 10.326220
_cell_angle_alpha 90.000000
_cell_angle_beta 55.784661
_cell_angle_gamma 90.000000
_cell_volume 2100.068155
_symmetry_space_group_name_H-M "C 2/M"
_symmetry_group_IT_number 12
_symmetry_cell_setting 'monoclinic'
loop_
_space_group_symop_operation_xyz
x,y,z
-x,y,-z
-x,-y,-z
x,-y,z
1/2+x,1/2+y,z
1/2-x,1/2+y,-z
1/2-x,1/2-y,-z
1/2+x,1/2-y,z
loop_
_atom_site_type_symbol
_atom_site_label
_atom_site_fract_x
_atom_site_fract_y
_atom_site_fract_z
Si Si1 0.274155 0.593114 0.555169
Si Si2 0.870767 0.904391 0.917784
Si Si3 0.000000 0.500000 0.500000
Si Si4 0.336614 0.092960 0.072625
Si Si5 0.865964 0.342884 0.566984
Si Si6 0.344713 0.726863 0.152143
Si Si7 0.956751 0.208827 0.334073
O O1 0.310008 0.500000 0.493153
O O2 0.212528 0.590711 0.741750
O O3 0.201462 0.624840 0.500541
O O4 0.373404 0.651728 0.478581
O O5 0.754266 0.905898 0.957673
O O6 0.939813 0.844796 0.768871
O O7 0.909359 0.000000 0.890203
O O8 0.874204 0.857402 0.051324
O O9 0.089346 0.425802 0.404488
O O10 0.377822 0.189604 0.042543
O O11 0.391897 0.000000 0.009579
O O12 0.780712 0.286505 0.716927
O O13 0.958767 0.292449 0.415445
O O14 0.404356 0.727960 0.238630
#
# Coordination Sequence:
#
# PCOD9177087 Si02
#       7
#     8   8   2   8   8   8   8
#     4  10  18  37  66  92 127 165 214 267 326 394
#     4  11  26  41  63 101 135 171 220 271 332 394
#     4  12  28  40  64 100 134 170 216 278 322 374
#     4  10  21  40  64  91 122 171 217 266 323 391
#     4  11  23  41  63  96 129 170 220 269 326 383
#     4  11  22  43  68  91 127 180 216 268 334 397
#     4  11  22  40  66  95 130 165 221 275 332 382
#
# _framework density 23.80875
#
# number of rings (size 3 to 8) (size 9 to 14) (size 15 to 20)
#    0.000    1.280    4.000    2.400    3.360    2.560 
#    0.000    2.400    0.000    0.960    0.000    0.000 
#    0.000    0.000    0.000    0.000    0.000    0.000 
#
# Total GULP energy -139345.225288 kJ/mol
# GULP energy per Si atom -5573.809012 kJ/mol
# Density = 2.375456 g / cm^3
# Si number density = 23.808750 Si / 1000 Ang^3
#
#
#
# Elastic Constant Matrix: (Units=GPa)
#
#
# Indices 1 2 3 4 5 6 
#
# 1 57.8302 30.3960 16.3341 0.0000 10.0438 0.0000
# 2 30.3960 -80.2682 497.9613 0.0000 400.4520 0.0000
# 3 16.3341 497.9613 -725.1229 0.0000 -654.5686 0.0000
# 4 0.0000 0.0000 0.0000 19.9824 0.0000 -0.1399
# 5 10.0438 400.4520 -654.5686 0.0000 -529.2713 0.0000
# 6 0.0000 0.0000 0.0000 -0.1399 0.0000 20.0463
#
#
#
# Elastic Compliance Matrix: (Units=1/GPa)
#
#
# Indices 1 2 3 4 5 6 
#
# 1 0.019456 -0.003309 -0.000796 0.000000 -0.001151 0.000000
# 2 -0.003309 0.005055 -0.000009 0.000000 0.003772 0.000000
# 3 -0.000796 -0.000009 0.011885 0.000000 -0.014720 0.000000
# 4 0.000000 0.000000 0.000000 0.050047 0.000000 0.000349
# 5 -0.001151 0.003772 -0.014720 0.000000 0.019148 0.000000
# 6 0.000000 0.000000 0.000000 0.000349 0.000000 0.049887
#
#
# Mechanical properties :
#
#
# Convention : Reuss Voigt Hill
#
# Bulk Modulus (GPa) = 35.50177 37.98024 36.74101
# Shear Modulus (GPa) = 28.88604 -183.99868 -77.55632
#
# Velocity S-wave (km/s) = 3.48696 -8.80055 -5.71362
# Velocity P-wave (km/s) = 5.58170 9.34235 5.29736
#
# Compressibility (1/GPa) = 0.02816761
#
# Stress axis : x y z
#
# Youngs Moduli (GPa) = 51.39779 197.83612 84.14124
#
# Poissons Ratio (x) = 0.65474 0.06695
# Poissons Ratio (y) = 0.17010 0.00074
# Poissons Ratio (z) = 0.04090 0.00174
#
# Static dielectric constant tensor:
#      x y z
#    x 1.925980 0.000000 -0.017680 
#    y 0.000000 1.939820 0.000000 
#    z -0.017680 0.000000 1.954050 
# 
# From -- ./inp_files/155904.got.cif
#   From: 2010.05.17/outbox.cif.g08.bks.cpg/sg12_78_cif.got.tgz:155904.got - 2010.06.03 13:09:07.
