data_PCOD9177783
_publ_section_title
;
Structure prediction by ZEFSAII (Michael W. Deem and Ramdas Pophale) SiO2 
 PCOD9177783
Probable space group: C 2/M
;
_chemical_formula_sum "Si O2"
_cell_formula_units_Z 52
_cell_length_a 23.367279
_cell_length_b 22.513485
_cell_length_c 5.406095
_cell_angle_alpha 90.000000
_cell_angle_beta 54.537385
_cell_angle_gamma 90.000000
_cell_volume 2316.448058
_symmetry_space_group_name_H-M "C 2/M"
_symmetry_group_IT_number 12
_symmetry_cell_setting 'monoclinic'
loop_
_space_group_symop_operation_xyz
x,y,z
-x,y,-z
-x,-y,-z
x,-y,z
1/2+x,1/2+y,z
1/2-x,1/2+y,-z
1/2-x,1/2-y,-z
1/2+x,1/2-y,z
loop_
_atom_site_type_symbol
_atom_site_label
_atom_site_fract_x
_atom_site_fract_y
_atom_site_fract_z
Si Si1 0.678070 0.084878 0.026645
Si Si2 0.164352 0.101714 0.371616
Si Si3 0.952644 0.000000 0.364318
Si Si4 0.291040 0.661064 0.238689
Si Si5 0.863484 0.399536 0.367718
Si Si6 0.578658 0.774022 0.782640
Si Si7 0.338272 0.771663 0.922905
O O1 0.759804 0.068164 0.810146
O O2 0.634565 0.067860 0.895765
O O3 0.640360 0.065659 0.370083
O O4 0.678222 0.158202 0.039248
O O5 0.099108 0.057106 0.527553
O O6 0.169696 0.144344 0.602472
O O7 0.166927 0.134134 0.099428
O O8 0.000000 0.000000 0.500000
O O9 0.000000 0.000000 0.000000
O O10 0.214966 0.630621 0.448920
O O11 0.276492 0.727917 0.171481
O O12 0.918185 0.345955 0.244001
O O13 0.621091 0.755286 0.430416
O O14 0.500000 0.751322 0.000000
O O15 0.612525 0.760774 0.962153
#
# Coordination Sequence:
#
# PCOD9177783 Si02
#       7
#     8   8   4   8   8   8   8
#     4   8  16  29  49  76  98 121 157 205 256 309
#     4  10  21  37  57  76  94 123 168 222 266 314
#     4  12  26  46  64  76 100 142 187 232 285 328
#     4  10  19  34  55  78  98 123 167 219 271 318
#     4   8  16  27  45  67  91 123 158 203 244 293
#     4  10  19  30  41  62  99 142 172 190 226 294
#     4  10  19  31  50  73 102 136 165 206 261 313
#
# _framework density 22.448163000000001
#
# number of rings (size 3 to 8) (size 9 to 14) (size 15 to 20)
#    0.000    2.462    0.000    2.308    0.000   11.077 
#    0.000    7.692    0.000    0.000    0.000    0.000 
#    0.000    0.000    0.000  336.462    0.000    0.000 
#
# Total GULP energy -144929.766639 kJ/mol
# GULP energy per Si atom -5574.221794 kJ/mol
# Density = 2.239707 g / cm^3
# Si number density = 22.448163 Si / 1000 Ang^3
#
#
#
# Elastic Constant Matrix: (Units=GPa)
#
#
# Indices 1 2 3 4 5 6 
#
# 1 84.6721 10.9126 70.4018 0.0000 36.2975 0.0000
# 2 10.9126 76.7835 19.1843 0.0000 9.7344 0.0000
# 3 70.4018 19.1843 157.0359 0.0000 44.3205 0.0000
# 4 0.0000 0.0000 0.0000 0.9810 0.0000 -14.2009
# 5 36.2975 9.7344 44.3205 0.0000 57.4752 0.0000
# 6 0.0000 0.0000 0.0000 -14.2009 0.0000 -4.7629
#
#
#
# Elastic Compliance Matrix: (Units=1/GPa)
#
#
# Indices 1 2 3 4 5 6 
#
# 1 0.021231 -0.000210 -0.007309 0.000000 -0.007736 0.000000
# 2 -0.000210 0.013511 -0.001212 0.000000 -0.001221 0.000000
# 3 -0.007309 -0.001212 0.010778 0.000000 -0.003490 0.000000
# 4 0.000000 0.000000 0.000000 0.023083 0.000000 -0.068823
# 5 -0.007736 -0.001221 -0.003490 0.000000 0.025182 0.000000
# 6 0.000000 0.000000 0.000000 -0.068823 0.000000 -0.004754
#
#
# Mechanical properties :
#
#
# Convention : Reuss Voigt Hill
#
# Bulk Modulus (GPa) = 35.64104 57.72098 46.68101
# Shear Modulus (GPa) = 43.16092 25.27152 34.21622
#
# Velocity S-wave (km/s) = 4.38961 3.35889 3.90838
# Velocity P-wave (km/s) = 6.45004 6.38840 6.41930
#
# Compressibility (1/GPa) = 0.02805754
#
# Stress axis : x y z
#
# Youngs Moduli (GPa) = 47.10085 74.01338 92.78406
#
# Poissons Ratio (x) = 0.01558 0.67817
# Poissons Ratio (y) = 0.00991 0.11242
# Poissons Ratio (z) = 0.34426 0.08967
#
# Static dielectric constant tensor:
#      x y z
#    x 1.923040 0.000000 0.061000 
#    y 0.000000 0.131910 0.000000 
#    z 0.061000 0.000000 1.861680 
# 
# From -- ./inp_files/26162.got.cif
#   From: 2010.05.17/outbox.cif.g08.bks.cpg/sg12_14_cif.got.tgz:26162.got - 2010.06.03 13:09:07.
