data_PCOD9177926
_publ_section_title
;
Structure prediction by ZEFSAII (Michael W. Deem and Ramdas Pophale) SiO2 
 PCOD9177926
Probable space group: C 2/M
;
_chemical_formula_sum "Si O2"
_cell_formula_units_Z 56
_cell_length_a 17.755789
_cell_length_b 14.466685
_cell_length_c 9.555692
_cell_angle_alpha 90.000000
_cell_angle_beta 78.713689
_cell_angle_gamma 90.000000
_cell_volume 2407.078453
_symmetry_space_group_name_H-M "C 2/M"
_symmetry_group_IT_number 12
_symmetry_cell_setting 'monoclinic'
loop_
_space_group_symop_operation_xyz
x,y,z
-x,y,-z
-x,-y,-z
x,-y,z
1/2+x,1/2+y,z
1/2-x,1/2+y,-z
1/2-x,1/2-y,-z
1/2+x,1/2-y,z
loop_
_atom_site_type_symbol
_atom_site_label
_atom_site_fract_x
_atom_site_fract_y
_atom_site_fract_z
Si Si1 0.727066 0.612177 0.525571
Si Si2 0.234031 0.112128 0.842891
Si Si3 0.655114 0.607269 0.135684
Si Si4 0.107765 0.610827 0.061074
Si Si5 0.179206 0.392504 0.765002
Si Si6 0.586819 0.698627 0.415142
Si Si7 0.567738 0.101551 0.364212
O O1 0.729760 0.500000 0.522717
O O2 0.728345 0.642592 0.686046
O O3 0.794788 0.645357 0.395310
O O4 0.646982 0.643449 0.486999
O O5 0.315172 0.138729 0.882391
O O6 0.230383 0.000000 0.848115
O O7 0.168770 0.144231 0.974596
O O8 0.632214 0.500000 0.139336
O O9 0.739497 0.609449 0.179107
O O10 0.597072 0.661507 0.253967
O O11 0.110119 0.500000 0.038609
O O12 0.045572 0.620961 0.209015
O O13 0.117408 0.647453 0.898986
O O14 0.158004 0.500000 0.746159
O O15 0.500000 0.689042 0.500000
O O16 0.607938 0.806362 0.401615
O O17 0.500000 0.092938 0.500000
O O18 0.607807 0.000000 0.351242
#
# Coordination Sequence:
#
# PCOD9177926 Si02
#       7
#     8   8   8   8   8   8   8
#     4   9  16  27  44  69 100 126 148 175 209 260
#     4   8  14  26  45  68  96 127 149 171 212 266
#     4   8  14  26  43  65  95 124 147 175 215 262
#     4   8  13  25  46  67  87 115 148 182 227 272
#     4   7  11  21  39  63  90 117 143 175 213 254
#     4  10  19  30  45  65  89 120 156 190 226 263
#     4   9  18  32  49  68  87 110 150 201 237 263
#
# _framework density 23.264717999999998
#
# number of rings (size 3 to 8) (size 9 to 14) (size 15 to 20)
#    0.000    3.571    0.000    3.000    0.000    1.143 
#    0.000    7.857    0.000    2.571    0.000    4.000 
#    0.000   17.143    0.000    0.000    0.000    0.000 
#
# Total GULP energy -156043.103168 kJ/mol
# GULP energy per Si atom -5572.967970 kJ/mol
# Density = 2.321177 g / cm^3
# Si number density = 23.264718 Si / 1000 Ang^3
#
#
#
# Elastic Constant Matrix: (Units=GPa)
#
#
# Indices 1 2 3 4 5 6 
#
# 1 43.2549 15.9096 68.1981 0.0000 -11.4786 0.0000
# 2 15.9096 79.7145 38.8444 0.0000 -4.1685 0.0000
# 3 68.1981 38.8444 275.7339 0.0000 -29.9607 0.0000
# 4 0.0000 0.0000 0.0000 -15.4855 0.0000 -6.2377
# 5 -11.4786 -4.1685 -29.9607 0.0000 35.4194 0.0000
# 6 0.0000 0.0000 0.0000 -6.2377 0.0000 9.8695
#
#
#
# Elastic Compliance Matrix: (Units=1/GPa)
#
#
# Indices 1 2 3 4 5 6 
#
# 1 0.039469 -0.003354 -0.008746 0.000000 0.004998 0.000000
# 2 -0.003354 0.013754 -0.001157 0.000000 -0.000447 0.000000
# 3 -0.008746 -0.001157 0.006200 0.000000 0.002274 0.000000
# 4 0.000000 0.000000 0.000000 -0.051473 0.000000 -0.032532
# 5 0.004998 -0.000447 0.002274 0.000000 0.031724 0.000000
# 6 0.000000 0.000000 0.000000 -0.032532 0.000000 0.080762
#
#
# Mechanical properties :
#
#
# Convention : Reuss Voigt Hill
#
# Bulk Modulus (GPa) = 30.38663 71.62309 51.00486
# Shear Modulus (GPa) = 31.66168 24.34409 28.00289
#
# Velocity S-wave (km/s) = 3.69308 3.23831 3.47315
# Velocity P-wave (km/s) = 5.59238 6.69591 6.16887
#
# Compressibility (1/GPa) = 0.03290921
#
# Stress axis : x y z
#
# Youngs Moduli (GPa) = 25.33659 72.70388 161.29101
#
# Poissons Ratio (x) = 0.24384 1.41071
# Poissons Ratio (y) = 0.08498 0.18656
# Poissons Ratio (z) = 0.22160 0.08410
#
# Static dielectric constant tensor:
#      x y z
#    x 1.868780 0.000000 -0.035010 
#    y 0.000000 1.879980 0.000000 
#    z -0.035010 0.000000 1.972390 
# 
# From -- ./inp_files/103990.got.cif
#   From: 2010.05.17/outbox.cif.g08.bks.cpg/sg12_52_cif.got.tgz:103990.got - 2010.06.03 13:09:07.
