data_PCOD9177348
_publ_section_title
;
Structure prediction by ZEFSAII (Michael W. Deem and Ramdas Pophale) SiO2 
 PCOD9177348
Probable space group: C 2/M
;
_chemical_formula_sum "Si O2"
_cell_formula_units_Z 48
_cell_length_a 15.127470
_cell_length_b 7.327475
_cell_length_c 28.996701
_cell_angle_alpha 90.000000
_cell_angle_beta 141.655271
_cell_angle_gamma 90.000000
_cell_volume 1994.045529
_symmetry_space_group_name_H-M "C 2/M"
_symmetry_group_IT_number 12
_symmetry_cell_setting 'monoclinic'
loop_
_space_group_symop_operation_xyz
x,y,z
-x,y,-z
-x,-y,-z
x,-y,z
1/2+x,1/2+y,z
1/2-x,1/2+y,-z
1/2-x,1/2-y,-z
1/2+x,1/2-y,z
loop_
_atom_site_type_symbol
_atom_site_label
_atom_site_fract_x
_atom_site_fract_y
_atom_site_fract_z
Si Si1 0.349316 0.783282 0.420432
Si Si2 0.130874 0.707156 0.822351
Si Si3 0.105047 0.207680 0.139248
Si Si4 0.823062 0.216559 0.981339
Si Si5 0.199176 0.723662 0.702916
Si Si6 0.051634 0.718403 0.331286
O O1 0.500000 0.710840 0.500000
O O2 0.309596 0.713394 0.353177
O O3 0.218719 0.755413 0.402139
O O4 0.366382 0.000000 0.421791
O O5 0.089882 0.500000 0.819006
O O6 0.254078 0.698340 0.833951
O O7 0.213314 0.793161 0.898908
O O8 0.002298 0.791797 0.740705
O O9 0.161860 0.285722 0.210873
O O10 0.056354 0.000000 0.129214
O O11 0.982034 0.288525 0.056371
O O12 0.837126 0.000000 0.974990
O O13 0.750000 0.250000 0.000000
O O14 0.204315 0.500000 0.706035
O O15 0.055708 0.779259 0.672296
O O16 0.034405 0.500000 0.322243
#
# Coordination Sequence:
#
# PCOD9177348 Si02
#       6
#     8   8   8   8   8   8
#     4  10  21  35  52  76 105 133 160 200 254 305
#     4   8  15  29  48  69  92 120 161 206 238 269
#     4   8  14  27  48  68  87 123 168 199 227 276
#     4  10  19  28  43  70  98 124 156 196 237 279
#     4   8  16  32  52  73  99 132 169 204 243 295
#     4   9  18  34  55  75  97 131 170 208 247 290
#
# _framework density 24.071666
#
# number of rings (size 3 to 8) (size 9 to 14) (size 15 to 20)
#    0.000    3.167    0.000    2.500    2.333    3.000 
#    0.000    0.833    0.000    6.000    0.000    0.000 
#    0.000    0.000    0.000    0.000    0.000    0.000 
#
# Total GULP energy -133828.225577 kJ/mol
# GULP energy per Si atom -5576.176066 kJ/mol
# Density = 2.401688 g / cm^3
# Si number density = 24.071666 Si / 1000 Ang^3
#
#
#
# Elastic Constant Matrix: (Units=GPa)
#
#
# Indices 1 2 3 4 5 6 
#
# 1 49.9210 -4.7124 12.2915 0.0002 0.6008 0.0000
# 2 -4.7124 97.4888 5.2012 0.0004 -5.2815 0.0000
# 3 12.2915 5.2012 65.7136 -0.0001 24.6128 0.0000
# 4 0.0002 0.0004 -0.0001 -138.6935 0.0000 -31.9264
# 5 0.6008 -5.2815 24.6128 0.0000 41.3742 0.0000
# 6 0.0000 0.0000 0.0000 -31.9264 0.0000 -0.5796
#
#
#
# Elastic Compliance Matrix: (Units=1/GPa)
#
#
# Indices 1 2 3 4 5 6 
#
# 1 0.021427 0.001478 -0.005248 0.000000 0.003000 0.000000
# 2 0.001478 0.010578 -0.002074 0.000000 0.002562 0.000000
# 3 -0.005248 -0.002074 0.021145 0.000000 -0.012767 0.000000
# 4 0.000000 0.000000 0.000000 0.000617 0.000000 -0.034004
# 5 0.003000 0.002562 -0.012767 0.000000 0.032048 0.000000
# 6 0.000000 0.000000 0.000000 -0.034004 0.000000 0.147717
#
#
# Mechanical properties :
#
#
# Convention : Reuss Voigt Hill
#
# Bulk Modulus (GPa) = 24.11742 26.52044 25.31893
# Shear Modulus (GPa) = 19.30184 -6.22357 6.53914
#
# Velocity S-wave (km/s) = 2.83477 -1.60967 1.64998
# Velocity P-wave (km/s) = 4.55580 2.75436 3.76442
#
# Compressibility (1/GPa) = 0.04146381
#
# Stress axis : x y z
#
# Youngs Moduli (GPa) = 46.66931 94.53140 47.29158
#
# Poissons Ratio (x) = -0.13974 0.24821
# Poissons Ratio (y) = -0.06899 0.09806
# Poissons Ratio (z) = 0.24494 0.19601
#
# Static dielectric constant tensor:
#      x y z
#    x 1.756400 0.000000 -0.262470 
#    y 0.000000 1.924790 0.000000 
#    z -0.262470 0.000000 1.486410 
# 
# From -- ./inp_files/212918.got.cif
#   From: 2010.05.17/outbox.cif.g08.bks.cpg/sg12_107_cif.got.tgz:212918.got - 2010.06.03 13:09:07.
