data_PCOD9177721
_publ_section_title
;
Structure prediction by ZEFSAII (Michael W. Deem and Ramdas Pophale) SiO2 
 PCOD9177721
Probable space group: C 2/M
;
_chemical_formula_sum "Si O2"
_cell_formula_units_Z 56
_cell_length_a 14.108796
_cell_length_b 21.137693
_cell_length_c 8.572338
_cell_angle_alpha 90.000000
_cell_angle_beta 118.626756
_cell_angle_gamma 90.000000
_cell_volume 2243.997072
_symmetry_space_group_name_H-M "C 2/M"
_symmetry_group_IT_number 12
_symmetry_cell_setting 'monoclinic'
loop_
_space_group_symop_operation_xyz
x,y,z
-x,y,-z
-x,-y,-z
x,-y,z
1/2+x,1/2+y,z
1/2-x,1/2+y,-z
1/2-x,1/2-y,-z
1/2+x,1/2-y,z
loop_
_atom_site_type_symbol
_atom_site_label
_atom_site_fract_x
_atom_site_fract_y
_atom_site_fract_z
Si Si1 0.118786 0.429135 0.518540
Si Si2 0.880195 0.072056 0.823896
Si Si3 0.541318 0.842122 0.205604
Si Si4 0.846424 0.186926 0.227944
Si Si5 0.808849 0.670916 0.189886
Si Si6 0.625572 0.566882 0.552915
Si Si7 0.439305 0.291237 0.795610
O O1 0.153452 0.500000 0.523744
O O2 0.191368 0.391600 0.700256
O O3 0.000000 0.429559 0.500000
O O4 0.109256 0.395452 0.345868
O O5 0.872784 0.065264 0.631487
O O6 0.869531 0.151513 0.806777
O O7 0.842446 0.000000 0.854252
O O8 0.000000 0.072979 0.000000
O O9 0.429689 0.832772 0.211257
O O10 0.607198 0.776775 0.286886
O O11 0.500000 0.858939 0.000000
O O12 0.812201 0.257023 0.257403
O O13 0.830648 0.131469 0.339358
O O14 0.970632 0.188523 0.261182
O O15 0.772478 0.170080 0.020248
O O16 0.500000 0.566457 0.500000
O O17 0.673347 0.500000 0.651358
O O18 0.500000 0.269293 0.000000
#
# Coordination Sequence:
#
# PCOD9177721 Si02
#       7
#     8   8   8   8   8   8   8
#     4   9  18  33  54  79  99 126 168 210 256 308
#     4   9  17  29  45  69 101 132 168 207 240 283
#     4   9  18  33  56  77 100 126 167 213 253 300
#     4  10  19  32  52  73 106 137 168 208 252 291
#     4   9  20  34  52  77 103 133 165 205 256 307
#     4  10  19  29  47  75 100 132 174 208 240 285
#     4   9  17  29  49  74 100 133 175 204 243 292
#
# _framework density 24.955469000000001
#
# number of rings (size 3 to 8) (size 9 to 14) (size 15 to 20)
#    0.000    2.714    1.429    0.000    2.000    1.429 
#    0.000    0.000    6.286    3.429    0.000    0.000 
#    0.000    0.000    0.000    0.000    0.000    0.000 
#
# Total GULP energy -156029.316924 kJ/mol
# GULP energy per Si atom -5572.475604 kJ/mol
# Density = 2.489867 g / cm^3
# Si number density = 24.955469 Si / 1000 Ang^3
#
#
#
# Elastic Constant Matrix: (Units=GPa)
#
#
# Indices 1 2 3 4 5 6 
#
# 1 26.1461 11.1403 -13.4556 0.0000 -2.1899 0.0000
# 2 11.1403 271.2773 100.3822 0.0000 3.2606 0.0000
# 3 -13.4556 100.3822 99.8415 0.0000 -9.5130 0.0000
# 4 0.0000 0.0000 0.0000 52.2754 0.0000 2.5732
# 5 -2.1899 3.2606 -9.5130 0.0000 30.3096 0.0000
# 6 0.0000 0.0000 0.0000 2.5732 0.0000 21.7789
#
#
#
# Elastic Compliance Matrix: (Units=1/GPa)
#
#
# Indices 1 2 3 4 5 6 
#
# 1 0.050603 -0.008042 0.015809 0.000000 0.009483 0.000000
# 2 -0.008042 0.007348 -0.008867 0.000000 -0.004154 0.000000
# 3 0.015809 -0.008867 0.021916 0.000000 0.008975 0.000000
# 4 0.000000 0.000000 0.000000 0.019241 0.000000 -0.002273
# 5 0.009483 -0.004154 0.008975 0.000000 0.036942 0.000000
# 6 0.000000 0.000000 0.000000 -0.002273 0.000000 0.046185
#
#
# Mechanical properties :
#
#
# Convention : Reuss Voigt Hill
#
# Bulk Modulus (GPa) = 12.87554 65.93319 39.40436
# Shear Modulus (GPa) = 23.77288 40.81933 32.29611
#
# Velocity S-wave (km/s) = 3.08979 4.04875 3.60133
# Velocity P-wave (km/s) = 4.23080 6.95228 5.75473
#
# Compressibility (1/GPa) = 0.07766666
#
# Stress axis : x y z
#
# Youngs Moduli (GPa) = 19.76173 136.10021 45.62773
#
# Poissons Ratio (x) = 1.09449 -0.72131
# Poissons Ratio (y) = 0.15892 0.40458
# Poissons Ratio (z) = -0.31241 1.20679
#
# Static dielectric constant tensor:
#      x y z
#    x 2.064670 0.000000 -0.041040 
#    y 0.000000 2.112630 0.000000 
#    z -0.041040 0.000000 1.863750 
# 
# From -- ./inp_files/98901.got.cif
#   From: 2010.05.17/outbox.cif.g08.bks.cpg/sg12_50_cif.got.tgz:98901.got - 2010.06.03 13:09:07.
