data_PCOD9177431
_publ_section_title
;
Structure prediction by ZEFSAII (Michael W. Deem and Ramdas Pophale) SiO2 
 PCOD9177431
Probable space group: C 2/M
;
_chemical_formula_sum "Si O2"
_cell_formula_units_Z 36
_cell_length_a 15.264389
_cell_length_b 10.107309
_cell_length_c 8.617540
_cell_angle_alpha 90.000000
_cell_angle_beta 95.317839
_cell_angle_gamma 90.000000
_cell_volume 1323.807968
_symmetry_space_group_name_H-M "C 2/M"
_symmetry_group_IT_number 12
_symmetry_cell_setting 'monoclinic'
loop_
_space_group_symop_operation_xyz
x,y,z
-x,y,-z
-x,-y,-z
x,-y,z
1/2+x,1/2+y,z
1/2-x,1/2+y,-z
1/2-x,1/2-y,-z
1/2+x,1/2-y,z
loop_
_atom_site_type_symbol
_atom_site_label
_atom_site_fract_x
_atom_site_fract_y
_atom_site_fract_z
Si Si1 0.327377 0.500000 0.931418
Si Si2 0.589868 0.782360 0.707203
Si Si3 0.786553 0.000000 0.596950
Si Si4 0.382019 0.214598 0.622514
Si Si5 0.151594 0.282872 0.041541
Si Si6 0.687970 0.500000 0.734039
O O1 0.260990 0.500000 0.774946
O O2 0.385052 0.632552 0.938228
O O3 0.275515 0.500000 0.085320
O O4 0.634603 0.841957 0.556479
O O5 0.486729 0.784392 0.659197
O O6 0.628077 0.632877 0.719532
O O7 0.605131 0.840567 0.881900
O O8 0.843102 0.862744 0.606015
O O9 0.755486 0.000000 0.413413
O O10 0.350191 0.160709 0.784968
O O11 0.250000 0.250000 0.000000
#
# Coordination Sequence:
#
# PCOD9177431 Si02
#       6
#     4   8   4   8   8   4
#     4   8  16  28  39  56  83 112 138 162 194 238
#     4   9  16  26  41  61  84 109 136 166 202 246
#     4   8  13  22  38  60  84 107 129 155 193 245
#     4   9  16  26  41  61  84 109 136 166 202 246
#     4  10  19  29  42  61  86 113 139 168 202 242
#     4   8  13  22  38  60  84 107 129 155 193 245
#
# _framework density 27.194279000000002
#
# number of rings (size 3 to 8) (size 9 to 14) (size 15 to 20)
#    0.000    3.111    0.000    1.333    0.000    3.556 
#    0.000    6.667    0.000    0.000    0.000    3.111 
#    0.000    3.556    0.000    0.000    0.000    0.000 
#
# Total GULP energy -100327.200877 kJ/mol
# GULP energy per Si atom -5573.733382 kJ/mol
# Density = 2.713238 g / cm^3
# Si number density = 27.194279 Si / 1000 Ang^3
#
#
#
# Elastic Constant Matrix: (Units=GPa)
#
#
# Indices 1 2 3 4 5 6 
#
# 1 51.2987 -8.3203 69.2627 0.0000 -12.2662 0.0000
# 2 -8.3203 86.3759 38.0103 0.0000 -6.7281 0.0000
# 3 69.2627 38.0103 431.9386 0.0000 -22.0583 0.0000
# 4 0.0000 0.0000 0.0000 35.5194 0.0000 -11.8298
# 5 -12.2662 -6.7281 -22.0583 0.0000 52.8855 0.0000
# 6 0.0000 0.0000 0.0000 -11.8298 0.0000 6.4199
#
#
#
# Elastic Compliance Matrix: (Units=1/GPa)
#
#
# Indices 1 2 3 4 5 6 
#
# 1 0.027844 0.005132 -0.004652 0.000000 0.005171 0.000000
# 2 0.005132 0.013054 -0.001866 0.000000 0.002073 0.000000
# 3 -0.004652 -0.001866 0.003227 0.000000 0.000029 0.000000
# 4 0.000000 0.000000 0.000000 0.072882 0.000000 0.134300
# 5 0.005171 0.002073 0.000029 0.000000 0.020384 0.000000
# 6 0.000000 0.000000 0.000000 0.134300 0.000000 0.403239
#
#
# Mechanical properties :
#
#
# Convention : Reuss Voigt Hill
#
# Bulk Modulus (GPa) = 24.18201 85.27983 54.73092
# Shear Modulus (GPa) = 8.97364 50.34231 29.65797
#
# Velocity S-wave (km/s) = 1.81851 4.30724 3.30600
# Velocity P-wave (km/s) = 3.64979 7.49426 5.89427
#
# Compressibility (1/GPa) = 0.04135305
#
# Stress axis : x y z
#
# Youngs Moduli (GPa) = 35.91419 76.60350 309.89657
#
# Poissons Ratio (x) = -0.39315 1.44179
# Poissons Ratio (y) = -0.18432 0.57823
# Poissons Ratio (z) = 0.16709 0.14293
#
# Static dielectric constant tensor:
#      x y z
#    x 2.068550 0.000000 -0.017250 
#    y 0.000000 2.251130 0.000000 
#    z -0.017250 0.000000 2.198570 
# 
# From -- ./inp_files/46849.got.cif
#   From: 2010.05.17/outbox.cif.g08.bks.cpg/sg12_24_cif.got.tgz:46849.got - 2010.06.03 13:09:07.
