data_PCOD9177871
_publ_section_title
;
Structure prediction by ZEFSAII (Michael W. Deem and Ramdas Pophale) SiO2 
 PCOD9177871
Probable space group: C 2/M
;
_chemical_formula_sum "Si O2"
_cell_formula_units_Z 56
_cell_length_a 24.284131
_cell_length_b 7.573257
_cell_length_c 15.279274
_cell_angle_alpha 90.000000
_cell_angle_beta 88.622525
_cell_angle_gamma 90.000000
_cell_volume 2809.198704
_symmetry_space_group_name_H-M "C 2/M"
_symmetry_group_IT_number 12
_symmetry_cell_setting 'monoclinic'
loop_
_space_group_symop_operation_xyz
x,y,z
-x,y,-z
-x,-y,-z
x,-y,z
1/2+x,1/2+y,z
1/2-x,1/2+y,-z
1/2-x,1/2-y,-z
1/2+x,1/2-y,z
loop_
_atom_site_type_symbol
_atom_site_label
_atom_site_fract_x
_atom_site_fract_y
_atom_site_fract_z
Si Si1 0.532882 0.296512 0.381757
Si Si2 0.389359 0.214644 0.785449
Si Si3 0.830916 0.797732 0.321092
Si Si4 0.556302 0.715020 0.742740
Si Si5 0.021702 0.709520 0.090617
Si Si6 0.132291 0.705561 0.490898
Si Si7 0.207440 0.284185 0.324349
O O1 0.523245 0.500000 0.403566
O O2 0.573196 0.281005 0.296202
O O3 0.477045 0.220067 0.342226
O O4 0.569450 0.220639 0.458813
O O5 0.420272 0.276605 0.871699
O O6 0.327807 0.265836 0.760205
O O7 0.391751 0.000000 0.783412
O O8 0.881144 0.719700 0.263437
O O9 0.853396 0.798509 0.419483
O O10 0.769901 0.718808 0.321688
O O11 0.824413 0.000000 0.291493
O O12 0.556157 0.500000 0.738348
O O13 0.523102 0.765559 0.830772
O O14 0.029330 0.500000 0.077628
O O15 0.000000 0.784828 0.000000
O O16 0.144185 0.500000 0.504157
O O17 0.172659 0.771519 0.411463
O O18 0.207968 0.500000 0.328502
#
# Coordination Sequence:
#
# PCOD9177871 Si02
#       7
#     8   8   8   8   8   8   8
#     4   9  16  28  44  62  86 116 148 183 222 261
#     4   8  14  27  46  68  90 111 142 182 219 258
#     4  10  19  31  45  62  87 120 154 186 222 260
#     4   9  19  32  46  66  91 118 147 179 220 269
#     4   9  17  30  51  75  94 113 139 175 221 270
#     4  10  19  30  44  65  88 115 155 194 226 255
#     4   8  15  28  46  64  85 116 153 189 219 252
#
# _framework density 19.934511000000001
#
# number of rings (size 3 to 8) (size 9 to 14) (size 15 to 20)
#    0.000    3.000    0.000    2.143    0.000    2.000 
#    0.000    5.714    0.000    0.857    0.000    0.000 
#    0.000    0.000    0.000    0.000    0.000    0.000 
#
# Total GULP energy -156024.914899 kJ/mol
# GULP energy per Si atom -5572.318389 kJ/mol
# Density = 1.988914 g / cm^3
# Si number density = 19.934511 Si / 1000 Ang^3
#
#
#
# Elastic Constant Matrix: (Units=GPa)
#
#
# Indices 1 2 3 4 5 6 
#
# 1 87.2875 -7.7687 53.3270 0.0000 9.4274 0.0000
# 2 -7.7687 46.5824 -6.4885 0.0000 2.0417 0.0000
# 3 53.3270 -6.4885 97.4590 0.0000 26.6512 0.0000
# 4 0.0000 0.0000 0.0000 12.5119 0.0000 1.1361
# 5 9.4274 2.0417 26.6512 0.0000 20.9350 0.0000
# 6 0.0000 0.0000 0.0000 1.1361 0.0000 7.9554
#
#
#
# Elastic Compliance Matrix: (Units=1/GPa)
#
#
# Indices 1 2 3 4 5 6 
#
# 1 0.017860 0.001100 -0.011460 0.000000 0.006440 0.000000
# 2 0.001100 0.022249 0.002467 0.000000 -0.005806 0.000000
# 3 -0.011460 0.002467 0.023548 0.000000 -0.025058 0.000000
# 4 0.000000 0.000000 0.000000 0.080974 0.000000 -0.011564
# 5 0.006440 -0.005806 -0.025058 0.000000 0.077333 0.000000
# 6 0.000000 0.000000 0.000000 -0.011564 0.000000 0.127352
#
#
# Mechanical properties :
#
#
# Convention : Reuss Voigt Hill
#
# Bulk Modulus (GPa) = 20.88966 34.38537 27.63751
# Shear Modulus (GPa) = 13.12130 21.09774 17.10952
#
# Velocity S-wave (km/s) = 2.56836 3.25676 2.93283
# Velocity P-wave (km/s) = 4.39286 5.60612 5.03616
#
# Compressibility (1/GPa) = 0.04787058
#
# Stress axis : x y z
#
# Youngs Moduli (GPa) = 55.98981 44.94603 42.46636
#
# Poissons Ratio (x) = -0.04944 0.48668
# Poissons Ratio (y) = -0.06159 -0.10476
# Poissons Ratio (z) = 0.64167 -0.11088
#
# Static dielectric constant tensor:
#      x y z
#    x 1.754450 0.000000 0.026410 
#    y 0.000000 1.723910 0.000000 
#    z 0.026410 0.000000 1.689130 
# 
# From -- ./inp_files/280326.got.cif
#   From: 2010.05.17/outbox.cif.g08.bks.cpg/sg12_141_cif.got.tgz:280326.got - 2010.06.03 13:09:07.
