data_PCOD9177441
_publ_section_title
;
Structure prediction by ZEFSAII (Michael W. Deem and Ramdas Pophale) SiO2 
 PCOD9177441
Probable space group: C 2/M
;
_chemical_formula_sum "Si O2"
_cell_formula_units_Z 56
_cell_length_a 6.972776
_cell_length_b 18.273620
_cell_length_c 21.586996
_cell_angle_alpha 90.000000
_cell_angle_beta 117.688057
_cell_angle_gamma 90.000000
_cell_volume 2435.602554
_symmetry_space_group_name_H-M "C 2/M"
_symmetry_group_IT_number 12
_symmetry_cell_setting 'monoclinic'
loop_
_space_group_symop_operation_xyz
x,y,z
-x,y,-z
-x,-y,-z
x,-y,z
1/2+x,1/2+y,z
1/2-x,1/2+y,-z
1/2-x,1/2-y,-z
1/2+x,1/2-y,z
loop_
_atom_site_type_symbol
_atom_site_label
_atom_site_fract_x
_atom_site_fract_y
_atom_site_fract_z
Si Si1 0.489712 0.913741 0.365592
Si Si2 0.870816 0.664361 0.800602
Si Si3 0.860050 0.586272 0.061216
Si Si4 0.594378 0.585145 0.665074
Si Si5 0.220779 0.164255 0.226386
Si Si6 0.555919 0.414924 0.908964
Si Si7 0.798763 0.088569 0.515722
O O1 0.701510 0.911174 0.352177
O O2 0.304657 0.866283 0.304661
O O3 0.583888 0.888346 0.446373
O O4 0.428598 0.000000 0.360018
O O5 0.669209 0.625088 0.737925
O O6 0.824064 0.749951 0.786678
O O7 0.953991 0.634610 0.879105
O O8 0.075113 0.647209 0.787167
O O9 0.920975 0.500000 0.067534
O O10 0.650260 0.589722 0.075256
O O11 0.762531 0.609948 0.980260
O O12 0.560856 0.500000 0.673840
O O13 0.387158 0.614017 0.595551
O O14 0.016739 0.126114 0.163371
O O15 0.587247 0.500000 0.899444
O O16 0.000000 0.104186 0.500000
O O17 0.781660 0.000000 0.517419
#
# Coordination Sequence:
#
# PCOD9177441 Si02
#       7
#     8   8   8   8   8   8   8
#     4   8  13  23  41  62  81 104 138 177 210 239
#     4  10  19  29  42  62  88 114 138 166 203 247
#     4   8  14  26  45  66  83 102 136 179 212 237
#     4   8  13  23  41  62  81 104 138 177 210 239
#     4  10  19  29  42  62  88 114 138 166 203 247
#     4   8  14  26  45  66  83 102 136 179 212 237
#     4   7  10  18  35  60  83  99 126 175 220 240
#
# _framework density 22.992258
#
# number of rings (size 3 to 8) (size 9 to 14) (size 15 to 20)
#    0.000    3.571    0.000    3.429    0.000    4.000 
#    0.000    0.714    0.000    3.429    0.000    2.000 
#    0.000    3.429    0.000    0.000    0.000    0.000 
#
# Total GULP energy -156311.696124 kJ/mol
# GULP energy per Si atom -5582.560576 kJ/mol
# Density = 2.293993 g / cm^3
# Si number density = 22.992258 Si / 1000 Ang^3
#
#
#
# Elastic Constant Matrix: (Units=GPa)
#
#
# Indices 1 2 3 4 5 6 
#
# 1 93.7890 6.7346 56.0608 0.0000 17.7434 0.0000
# 2 6.7346 75.0229 130.2335 0.0000 9.6973 0.0000
# 3 56.0608 130.2335 340.1490 0.0000 22.3207 0.0000
# 4 0.0000 0.0000 0.0000 -7.2387 0.0000 15.7310
# 5 17.7434 9.6973 22.3207 0.0000 47.2582 0.0000
# 6 0.0000 0.0000 0.0000 15.7310 0.0000 10.6429
#
#
#
# Elastic Compliance Matrix: (Units=1/GPa)
#
#
# Indices 1 2 3 4 5 6 
#
# 1 0.014049 0.008432 -0.005247 0.000000 -0.004527 0.000000
# 2 0.008432 0.044852 -0.018318 0.000000 -0.003717 0.000000
# 3 -0.005247 -0.018318 0.010776 0.000000 0.000639 0.000000
# 4 0.000000 0.000000 0.000000 -0.032797 0.000000 0.048477
# 5 -0.004527 -0.003717 0.000639 0.000000 0.023321 0.000000
# 6 0.000000 0.000000 0.000000 0.048477 0.000000 0.022307
#
#
# Mechanical properties :
#
#
# Convention : Reuss Voigt Hill
#
# Bulk Modulus (GPa) = 25.37339 99.44654 62.40996
# Shear Modulus (GPa) = 39.71040 31.19459 35.45250
#
# Velocity S-wave (km/s) = 4.16037 3.68740 3.93100
# Velocity P-wave (km/s) = 5.84276 7.84062 6.91423
#
# Compressibility (1/GPa) = 0.03941137
#
# Stress axis : x y z
#
# Youngs Moduli (GPa) = 71.17731 22.29565 92.79669
#
# Poissons Ratio (x) = -0.18800 0.48689
# Poissons Ratio (y) = -0.60017 1.69987
# Poissons Ratio (z) = 0.37346 0.40842
#
# Static dielectric constant tensor:
#      x y z
#    x 1.982430 0.000000 -0.000810 
#    y 0.000000 1.778020 0.000000 
#    z -0.000810 0.000000 1.874430 
# 
# From -- ./inp_files/305838.got.cif
#   From: 2010.05.17/outbox.cif.g08.bks.cpg/sg12_153_cif.got.tgz:305838.got - 2010.06.03 13:09:07.
