data_PCOD9177034
_publ_section_title
;
Structure prediction by ZEFSAII (Michael W. Deem and Ramdas Pophale) SiO2 
 PCOD9177034
Probable space group: C 2/M
;
_chemical_formula_sum "Si O2"
_cell_formula_units_Z 64
_cell_length_a 12.571028
_cell_length_b 14.017977
_cell_length_c 20.629417
_cell_angle_alpha 90.000000
_cell_angle_beta 65.112541
_cell_angle_gamma 90.000000
_cell_volume 3297.733572
_symmetry_space_group_name_H-M "C 2/M"
_symmetry_group_IT_number 12
_symmetry_cell_setting 'monoclinic'
loop_
_space_group_symop_operation_xyz
x,y,z
-x,y,-z
-x,-y,-z
x,-y,z
1/2+x,1/2+y,z
1/2-x,1/2+y,-z
1/2-x,1/2-y,-z
1/2+x,1/2-y,z
loop_
_atom_site_type_symbol
_atom_site_label
_atom_site_fract_x
_atom_site_fract_y
_atom_site_fract_z
Si Si1 0.294982 0.608950 0.931429
Si Si2 0.505938 0.171603 0.201441
Si Si3 0.231013 0.606276 0.680650
Si Si4 0.580381 0.756311 0.318543
Si Si5 0.063767 0.851229 0.846506
Si Si6 0.755315 0.171996 0.089269
Si Si7 0.232053 0.107697 0.682878
Si Si8 0.325065 0.755605 0.416221
O O1 0.249724 0.500000 0.927435
O O2 0.434671 0.605961 0.883503
O O3 0.251344 0.709968 0.909362
O O4 0.274386 0.632838 0.012354
O O5 0.395760 0.109732 0.251895
O O6 0.537086 0.237866 0.255825
O O7 0.458745 0.238587 0.156657
O O8 0.630737 0.132696 0.147277
O O9 0.276904 0.500000 0.667040
O O10 0.324071 0.674787 0.692506
O O11 0.206621 0.648967 0.615725
O O12 0.648005 0.853718 0.316880
O O13 0.464366 0.748650 0.391670
O O14 0.142814 0.863637 0.889391
O O15 0.135819 0.882749 0.764527
O O16 0.204172 0.173414 0.628539
O O17 0.240843 0.000000 0.659637
O O18 0.250000 0.750000 0.500000
#
# Coordination Sequence:
#
# PCOD9177034 Si02
#       8
#     8   8   8   8   8   8   8   8
#     4  10  23  39  58  89 120 159 206 246 297 355
#     4  10  18  37  59  82 118 155 194 238 294 350
#     4  10  21  36  58  88 115 151 198 242 288 349
#     4  10  19  40  59  83 117 154 186 240 292 350
#     4  11  19  38  60  87 119 154 199 249 298 345
#     4  10  21  37  62  84 123 162 196 251 302 349
#     4  11  22  36  61  94 117 150 201 247 292 349
#     4  10  23  43  62  83 121 160 190 238 295 354
#
# _framework density 19.407267999999998
#
# number of rings (size 3 to 8) (size 9 to 14) (size 15 to 20)
#    0.000    1.750    5.000    0.750    0.000    7.000 
#    0.000    5.000    0.000    9.750    0.000    0.000 
#    0.000    0.000    0.000    0.000    0.000    0.000 
#
# Total GULP energy -178412.602133 kJ/mol
# GULP energy per Si atom -5575.393817 kJ/mol
# Density = 1.936310 g / cm^3
# Si number density = 19.407268 Si / 1000 Ang^3
#
#
#
# Elastic Constant Matrix: (Units=GPa)
#
#
# Indices 1 2 3 4 5 6 
#
# 1 66.7510 8.6622 14.6964 0.0000 -6.8577 0.0000
# 2 8.6622 68.0382 11.1433 0.0000 -10.9338 0.0000
# 3 14.6964 11.1433 80.8874 0.0000 -9.2794 0.0000
# 4 0.0000 0.0000 0.0000 5.3492 0.0000 -3.5023
# 5 -6.8577 -10.9338 -9.2794 0.0000 13.6527 0.0000
# 6 0.0000 0.0000 0.0000 -3.5023 0.0000 4.7691
#
#
#
# Elastic Compliance Matrix: (Units=1/GPa)
#
#
# Indices 1 2 3 4 5 6 
#
# 1 0.016172 -0.000731 -0.002140 0.000000 0.006083 0.000000
# 2 -0.000731 0.016954 -0.000745 0.000000 0.012704 0.000000
# 3 -0.002140 -0.000745 0.013733 0.000000 0.007662 0.000000
# 4 0.000000 0.000000 0.000000 0.360071 0.000000 0.264424
# 5 0.006083 0.012704 0.007662 0.000000 0.091684 0.000000
# 6 0.000000 0.000000 0.000000 0.264424 0.000000 0.403866
#
#
# Mechanical properties :
#
#
# Convention : Reuss Voigt Hill
#
# Bulk Modulus (GPa) = 25.23494 31.63116 28.43305
# Shear Modulus (GPa) = 5.41758 16.83252 11.12505
#
# Velocity S-wave (km/s) = 1.67260 2.94824 2.39684
# Velocity P-wave (km/s) = 4.09404 5.28427 4.72677
#
# Compressibility (1/GPa) = 0.03962759
#
# Stress axis : x y z
#
# Youngs Moduli (GPa) = 61.83542 58.98192 72.81544
#
# Poissons Ratio (x) = 0.04311 0.15580
# Poissons Ratio (y) = 0.04519 0.05428
# Poissons Ratio (z) = 0.13231 0.04397
#
# Static dielectric constant tensor:
#      x y z
#    x 1.366720 0.000000 0.106200 
#    y 0.000000 1.719690 0.000000 
#    z 0.106200 0.000000 1.630680 
# 
# From -- ./inp_files/305405.got.cif
#   From: 2010.05.17/outbox.cif.g08.bks.cpg/sg12_153_cif.got.tgz:305405.got - 2010.06.03 13:09:07.
