data_PCOD9177070
_publ_section_title
;
Structure prediction by ZEFSAII (Michael W. Deem and Ramdas Pophale) SiO2 
 PCOD9177070
Probable space group: C 2/M
;
_chemical_formula_sum "Si O2"
_cell_formula_units_Z 56
_cell_length_a 17.571827
_cell_length_b 29.352428
_cell_length_c 9.257893
_cell_angle_alpha 90.000000
_cell_angle_beta 143.215156
_cell_angle_gamma 90.000000
_cell_volume 2859.324416
_symmetry_space_group_name_H-M "C 2/M"
_symmetry_group_IT_number 12
_symmetry_cell_setting 'monoclinic'
loop_
_space_group_symop_operation_xyz
x,y,z
-x,y,-z
-x,-y,-z
x,-y,z
1/2+x,1/2+y,z
1/2-x,1/2+y,-z
1/2-x,1/2-y,-z
1/2+x,1/2-y,z
loop_
_atom_site_type_symbol
_atom_site_label
_atom_site_fract_x
_atom_site_fract_y
_atom_site_fract_z
Si Si1 0.692629 0.151451 0.529651
Si Si2 0.448393 0.000000 0.205446
Si Si3 0.299744 0.822354 0.777479
Si Si4 0.286400 0.000000 0.251053
Si Si5 0.992828 0.844342 0.659044
Si Si6 0.895350 0.917665 0.949343
Si Si7 0.883418 0.778619 0.942376
Si Si8 0.540804 0.901568 0.893357
O O1 0.652255 0.170457 0.312726
O O2 0.810920 0.116874 0.723845
O O3 0.752996 0.195461 0.698789
O O4 0.571528 0.119116 0.378962
O O5 0.418636 0.047820 0.085505
O O6 0.367443 0.000000 0.228464
O O7 0.601610 0.000000 0.459608
O O8 0.150162 0.827799 0.532576
O O9 0.351140 0.774261 0.908333
O O10 0.348618 0.864319 0.946328
O O11 0.197044 0.955987 0.129216
O O12 0.000000 0.853429 0.500000
O O13 0.037795 0.887400 0.824053
O O14 0.075614 0.802614 0.847072
O O15 0.000000 0.937596 0.000000
O O16 0.000000 0.784813 0.000000
O O17 0.500000 0.904625 0.000000
#
# Coordination Sequence:
#
# PCOD9177070 Si02
#       8
#     8   4   8   4   8   8   8   8
#     4  10  18  37  63  97 121 161 217 263 309 369
#     4  11  23  44  61  94 135 165 206 275 324 402
#     4  11  22  37  64  94 128 166 215 267 313 381
#     4  11  25  40  70  93 123 161 220 268 336 380
#     4  11  25  41  61  90 134 169 208 263 325 383
#     4  11  21  44  69  93 121 169 219 269 318 385
#     4  11  21  38  68  92 125 171 217 268 310 373
#     4  10  22  37  64  96 128 169 212 264 324 385
#
# _framework density 19.585045000000001
#
# number of rings (size 3 to 8) (size 9 to 14) (size 15 to 20)
#    0.000    1.286    4.286    3.000    4.000    0.571 
#    0.000    1.071    3.143    0.000    0.000    0.000 
#    0.000    0.000    0.000    0.000    0.000    0.000 
#
# Total GULP energy -156031.012073 kJ/mol
# GULP energy per Si atom -5572.536145 kJ/mol
# Density = 1.954047 g / cm^3
# Si number density = 19.585045 Si / 1000 Ang^3
#
#
#
# Elastic Constant Matrix: (Units=GPa)
#
#
# Indices 1 2 3 4 5 6 
#
# 1 38.0751 38.2553 25.3100 0.0000 -1.5391 0.0000
# 2 38.2553 167.3163 60.0214 0.0000 2.3977 0.0000
# 3 25.3100 60.0214 106.8282 0.0000 0.7685 0.0000
# 4 0.0000 0.0000 0.0000 8.0702 0.0000 -42.3688
# 5 -1.5391 2.3977 0.7685 0.0000 19.4696 0.0000
# 6 0.0000 0.0000 0.0000 -42.3688 0.0000 -123.1143
#
#
#
# Elastic Compliance Matrix: (Units=1/GPa)
#
#
# Indices 1 2 3 4 5 6 
#
# 1 0.036320 -0.006591 -0.004930 0.000000 0.003878 0.000000
# 2 -0.006591 0.008693 -0.003312 0.000000 -0.001461 0.000000
# 3 -0.004930 -0.003312 0.012393 0.000000 -0.000471 0.000000
# 4 0.000000 0.000000 0.000000 0.044148 0.000000 -0.015193
# 5 0.003878 -0.001461 -0.000471 0.000000 0.051867 0.000000
# 6 0.000000 0.000000 0.000000 -0.015193 0.000000 -0.002894
#
#
# Mechanical properties :
#
#
# Convention : Reuss Voigt Hill
#
# Bulk Modulus (GPa) = 36.04890 62.15478 49.10184
# Shear Modulus (GPa) = 26.39364 -6.53939 9.92713
#
# Velocity S-wave (km/s) = 3.67501 -1.82927 2.25383
# Velocity P-wave (km/s) = 6.03770 5.22906 5.64787
#
# Compressibility (1/GPa) = 0.02774010
#
# Stress axis : x y z
#
# Youngs Moduli (GPa) = 27.53292 115.03801 80.69132
#
# Poissons Ratio (x) = 0.75827 0.39777
# Poissons Ratio (y) = 0.18148 0.26724
# Poissons Ratio (z) = 0.13573 0.38099
#
# Static dielectric constant tensor:
#      x y z
#    x 1.754300 0.000000 0.011570 
#    y 0.000000 1.696200 0.000000 
#    z 0.011570 0.000000 1.705400 
# 
# From -- ./inp_files/80512.got.cif
#   From: 2010.05.17/outbox.cif.g08.bks.cpg/sg12_41_cif.got.tgz:80512.got - 2010.06.03 13:09:07.
