data_PCOD9177092
_publ_section_title
;
Structure prediction by ZEFSAII (Michael W. Deem and Ramdas Pophale) SiO2 
 PCOD9177092
Probable space group: C 2/M
;
_chemical_formula_sum "Si O2"
_cell_formula_units_Z 36
_cell_length_a 9.274603
_cell_length_b 15.085717
_cell_length_c 20.633957
_cell_angle_alpha 90.000000
_cell_angle_beta 143.070709
_cell_angle_gamma 90.000000
_cell_volume 1734.581329
_symmetry_space_group_name_H-M "C 2/M"
_symmetry_group_IT_number 12
_symmetry_cell_setting 'monoclinic'
loop_
_space_group_symop_operation_xyz
x,y,z
-x,y,-z
-x,-y,-z
x,-y,z
1/2+x,1/2+y,z
1/2-x,1/2+y,-z
1/2-x,1/2-y,-z
1/2+x,1/2-y,z
loop_
_atom_site_type_symbol
_atom_site_label
_atom_site_fract_x
_atom_site_fract_y
_atom_site_fract_z
Si Si1 0.215272 0.500000 0.377121
Si Si2 0.462665 0.691669 0.604858
Si Si3 0.059528 0.000000 0.675836
Si Si4 0.254558 0.829852 0.054484
Si Si5 0.998570 0.500000 0.076682
Si Si6 0.445231 0.819356 0.706829
O O1 0.500000 0.500000 0.500000
O O2 0.236017 0.500000 0.306598
O O3 0.065341 0.411597 0.337289
O O4 0.250000 0.750000 0.500000
O O5 0.415055 0.590240 0.609473
O O6 0.548933 0.742592 0.699798
O O7 0.666864 0.692974 0.624231
O O8 0.223340 0.000000 0.798439
O O9 0.428242 0.817714 0.178571
O O10 0.357136 0.914945 0.053525
O O11 0.250000 0.750000 0.000000
O O12 0.000000 0.842243 0.000000
O O13 0.000000 0.500000 0.000000
#
# Coordination Sequence:
#
# PCOD9177092 Si02
#       6
#     4   8   4   8   4   8
#     4  10  18  37  67  90 121 170 214 267 336 404
#     4  11  22  40  67  96 130 180 222 275 345 412
#     4  10  22  43  62  95 141 171 224 276 349 418
#     4  12  25  43  69 104 140 183 238 289 349 421
#     4  12  25  46  71  99 140 190 230 299 362 412
#     4  11  22  41  63  95 134 168 223 281 337 412
#
# _framework density 20.754287000000001
#
# number of rings (size 3 to 8) (size 9 to 14) (size 15 to 20)
#    0.000    0.889    4.444    5.667    3.111    0.000 
#    0.000    3.333    0.000    0.000    0.000    0.000 
#    0.000    0.000    0.000    0.000    0.000    0.000 
#
# Total GULP energy -100411.854865 kJ/mol
# GULP energy per Si atom -5578.436381 kJ/mol
# Density = 2.070705 g / cm^3
# Si number density = 20.754287 Si / 1000 Ang^3
#
#
#
# Elastic Constant Matrix: (Units=GPa)
#
#
# Indices 1 2 3 4 5 6 
#
# 1 79.1579 41.6637 33.5164 0.0000 -16.5586 0.0000
# 2 41.6637 188.6682 43.8555 0.0000 -10.3023 0.0000
# 3 33.5164 43.8555 127.2016 0.0001 -10.1270 0.0001
# 4 0.0000 0.0000 0.0001 31.3059 0.0000 -7.0649
# 5 -16.5586 -10.3023 -10.1270 0.0000 39.7534 0.0000
# 6 0.0000 0.0000 0.0001 -7.0649 0.0000 25.3322
#
#
#
# Elastic Compliance Matrix: (Units=1/GPa)
#
#
# Indices 1 2 3 4 5 6 
#
# 1 0.016413 -0.002636 -0.002987 0.000000 0.005393 0.000000
# 2 -0.002636 0.006225 -0.001440 0.000000 0.000149 0.000000
# 3 -0.002987 -0.001440 0.009203 0.000000 0.000727 0.000000
# 4 0.000000 0.000000 0.000000 0.034088 0.000000 0.009507
# 5 0.005393 0.000149 0.000727 0.000000 0.027625 0.000000
# 6 0.000000 0.000000 0.000000 0.009507 0.000000 0.042127
#
#
# Mechanical properties :
#
#
# Convention : Reuss Voigt Hill
#
# Bulk Modulus (GPa) = 56.44514 70.34431 63.39472
# Shear Modulus (GPa) = 32.11079 37.67779 34.89429
#
# Velocity S-wave (km/s) = 3.93770 4.26540 4.10482
# Velocity P-wave (km/s) = 6.92314 7.63057 7.28545
#
# Compressibility (1/GPa) = 0.01771632
#
# Stress axis : x y z
#
# Youngs Moduli (GPa) = 60.92776 160.63757 108.66241
#
# Poissons Ratio (x) = 0.42341 0.32453
# Poissons Ratio (y) = 0.16059 0.15647
# Poissons Ratio (z) = 0.18197 0.23131
#
# Static dielectric constant tensor:
#      x y z
#    x 1.710720 0.000000 0.003380 
#    y 0.000000 1.870960 0.000000 
#    z 0.003380 0.000000 1.820870 
# 
# From -- ./inp_files/300240.got.cif
#   From: 2010.05.17/outbox.cif.g08.bks.cpg/sg12_151_cif.got.tgz:300240.got - 2010.06.03 13:09:07.
