data_PCOD9177617
_publ_section_title
;
Structure prediction by ZEFSAII (Michael W. Deem and Ramdas Pophale) SiO2 
 PCOD9177617
Probable space group: C 2/M
;
_chemical_formula_sum "Si O2"
_cell_formula_units_Z 40
_cell_length_a 13.308331
_cell_length_b 19.323711
_cell_length_c 6.536425
_cell_angle_alpha 90.000000
_cell_angle_beta 91.488403
_cell_angle_gamma 90.000000
_cell_volume 1680.381361
_symmetry_space_group_name_H-M "C 2/M"
_symmetry_group_IT_number 12
_symmetry_cell_setting 'monoclinic'
loop_
_space_group_symop_operation_xyz
x,y,z
-x,y,-z
-x,-y,-z
x,-y,z
1/2+x,1/2+y,z
1/2-x,1/2+y,-z
1/2-x,1/2-y,-z
1/2+x,1/2-y,z
loop_
_atom_site_type_symbol
_atom_site_label
_atom_site_fract_x
_atom_site_fract_y
_atom_site_fract_z
Si Si1 0.032320 0.079849 0.743462
Si Si2 0.189189 0.917808 0.221287
Si Si3 0.895423 0.699485 0.471321
Si Si4 0.590874 0.080179 0.847138
Si Si5 0.215053 0.833281 0.646694
O O1 0.133895 0.123690 0.767385
O O2 0.000000 0.082859 0.500000
O O3 0.926101 0.099032 0.844495
O O4 0.057081 0.000000 0.790896
O O5 0.290093 0.910288 0.088059
O O6 0.209968 0.871014 0.422879
O O7 0.185636 0.000000 0.275659
O O8 0.922260 0.633983 0.335785
O O9 0.825583 0.755198 0.355949
O O10 0.835462 0.675557 0.671211
O O11 0.000000 0.738995 0.500000
O O12 0.583011 0.000000 0.779842
O O13 0.500000 0.091063 0.000000
#
# Coordination Sequence:
#
# PCOD9177617 Si02
#       5
#     8   8   8   8   8
#     4   8  12  20  38  62  85 110 143 183 223 261
#     4   8  13  23  43  68  88 111 148 188 222 258
#     4  10  19  29  45  68  92 118 149 186 228 269
#     4   9  18  32  47  64  90 123 156 187 219 263
#     4   9  16  26  42  63  94 119 141 179 230 270
#
# _framework density 23.804120000000001
#
# number of rings (size 3 to 8) (size 9 to 14) (size 15 to 20)
#    0.000    3.200    0.000    3.600    0.000    1.200 
#    0.000    0.000    0.000   19.200    0.000    0.000 
#    0.000    9.600    0.000    0.000    0.000    0.000 
#
# Total GULP energy -111383.612347 kJ/mol
# GULP energy per Si atom -5569.180617 kJ/mol
# Density = 2.374994 g / cm^3
# Si number density = 23.804120 Si / 1000 Ang^3
#
#
#
# Elastic Constant Matrix: (Units=GPa)
#
#
# Indices 1 2 3 4 5 6 
#
# 1 186.6664 46.7782 39.1622 0.0000 -54.5564 0.0000
# 2 46.7782 70.7425 48.5977 0.0000 -27.1621 0.0000
# 3 39.1622 48.5977 68.8048 0.0000 -46.3667 0.0000
# 4 0.0000 0.0000 0.0000 -1.6289 0.0000 -17.0404
# 5 -54.5564 -27.1621 -46.3667 0.0000 56.7402 0.0000
# 6 0.0000 0.0000 0.0000 -17.0404 0.0000 36.9096
#
#
#
# Elastic Compliance Matrix: (Units=1/GPa)
#
#
# Indices 1 2 3 4 5 6 
#
# 1 0.008689 -0.006244 0.006856 0.000000 0.010968 0.000000
# 2 -0.006244 0.032902 -0.029193 0.000000 -0.014109 0.000000
# 3 0.006856 -0.029193 0.058480 0.000000 0.040405 0.000000
# 4 0.000000 0.000000 0.000000 -0.105306 0.000000 -0.048618
# 5 0.010968 -0.014109 0.040405 0.000000 0.054434 0.000000
# 6 0.000000 0.000000 0.000000 -0.048618 0.000000 0.004647
#
#
# Mechanical properties :
#
#
# Convention : Reuss Voigt Hill
#
# Bulk Modulus (GPa) = 23.30566 66.14332 44.72449
# Shear Modulus (GPa) = 39.90040 31.18254 35.54147
#
# Velocity S-wave (km/s) = 4.09858 3.62327 3.86823
# Velocity P-wave (km/s) = 5.67536 6.73431 6.22738
#
# Compressibility (1/GPa) = 0.04290804
#
# Stress axis : x y z
#
# Youngs Moduli (GPa) = 115.08570 30.39321 17.09997
#
# Poissons Ratio (x) = 0.18978 -0.11724
# Poissons Ratio (y) = 0.71862 0.49920
# Poissons Ratio (z) = -0.78902 0.88727
#
# Static dielectric constant tensor:
#      x y z
#    x 2.088770 0.000000 0.042170 
#    y 0.000000 1.833740 0.000000 
#    z 0.042170 0.000000 2.060760 
# 
# From -- ./inp_files/62177.got.cif
#   From: 2010.05.17/outbox.cif.g08.bks.cpg/sg12_32_cif.got.tgz:62177.got - 2010.06.03 13:09:07.
