data_PCOD9177775
_publ_section_title
;
Structure prediction by ZEFSAII (Michael W. Deem and Ramdas Pophale) SiO2 
 PCOD9177775
Probable space group: C 2/M
;
_chemical_formula_sum "Si O2"
_cell_formula_units_Z 64
_cell_length_a 20.240358
_cell_length_b 22.702891
_cell_length_c 11.250102
_cell_angle_alpha 90.000000
_cell_angle_beta 138.514268
_cell_angle_gamma 90.000000
_cell_volume 3424.507440
_symmetry_space_group_name_H-M "C 2/M"
_symmetry_group_IT_number 12
_symmetry_cell_setting 'monoclinic'
loop_
_space_group_symop_operation_xyz
x,y,z
-x,y,-z
-x,-y,-z
x,-y,z
1/2+x,1/2+y,z
1/2-x,1/2+y,-z
1/2-x,1/2-y,-z
1/2+x,1/2-y,z
loop_
_atom_site_type_symbol
_atom_site_label
_atom_site_fract_x
_atom_site_fract_y
_atom_site_fract_z
Si Si1 0.585780 0.861500 0.535225
Si Si2 0.800462 0.569073 0.510059
Si Si3 0.892998 0.358839 0.837192
Si Si4 0.212191 0.169738 0.050014
Si Si5 0.888058 0.878577 0.872873
Si Si6 0.227584 0.302825 0.121683
Si Si7 0.567066 0.272126 0.477854
Si Si8 0.367012 0.735359 0.685990
O O1 0.500000 0.889374 0.500000
O O2 0.620483 0.901347 0.473728
O O3 0.683019 0.844496 0.743624
O O4 0.545880 0.797813 0.439831
O O5 0.815369 0.500000 0.542478
O O6 0.817497 0.602485 0.657245
O O7 0.693810 0.582561 0.305656
O O8 0.846895 0.340549 0.900628
O O9 0.909264 0.297343 0.788317
O O10 0.000000 0.388384 0.000000
O O11 0.135763 0.129479 0.019690
O O12 0.184166 0.239210 0.023569
O O13 0.231456 0.162469 0.937007
O O14 0.872397 0.813293 0.795655
O O15 0.000000 0.898066 0.000000
O O16 0.321076 0.285117 0.328868
O O17 0.500000 0.293645 0.500000
O O18 0.572631 0.289946 0.346615
O O19 0.250000 0.750000 0.500000
#
# Coordination Sequence:
#
# PCOD9177775 Si02
#       8
#     8   8   8   8   8   8   8   8
#     4   9  18  34  55  78 106 150 189 240 290 333
#     4  11  24  43  61  80 111 151 208 259 287 338
#     4  12  24  36  60  85 115 160 193 238 300 349
#     4   9  19  31  50  84 123 148 181 221 284 355
#     4  11  22  37  61  90 117 154 189 241 293 352
#     4  10  19  32  48  83 123 151 181 227 277 357
#     4  10  19  29  52  80 118 157 183 222 283 350
#     4  12  18  36  56  84 124 154 186 225 289 357
#
# _framework density 18.68882
#
# number of rings (size 3 to 8) (size 9 to 14) (size 15 to 20)
#    0.000    1.500    5.000    1.125    3.500    1.750 
#    0.000    0.000    0.000    0.750    0.000    0.875 
#    0.000    0.000    0.000    0.000    0.000    0.000 
#
# Total GULP energy -178515.342154 kJ/mol
# GULP energy per Si atom -5578.604442 kJ/mol
# Density = 1.864628 g / cm^3
# Si number density = 18.688820 Si / 1000 Ang^3
#
#
#
# Elastic Constant Matrix: (Units=GPa)
#
#
# Indices 1 2 3 4 5 6 
#
# 1 154.0306 13.7913 32.7012 0.0000 -10.5646 0.0000
# 2 13.7913 49.9877 3.8092 0.0000 -8.8377 0.0000
# 3 32.7012 3.8092 37.3291 0.0000 -2.4756 0.0000
# 4 0.0000 0.0000 0.0000 4.4928 0.0000 2.0169
# 5 -10.5646 -8.8377 -2.4756 0.0000 37.5264 0.0000
# 6 0.0000 0.0000 0.0000 2.0169 0.0000 8.7441
#
#
#
# Elastic Compliance Matrix: (Units=1/GPa)
#
#
# Indices 1 2 3 4 5 6 
#
# 1 0.008199 -0.001468 -0.006933 0.000000 0.001505 0.000000
# 2 -0.001468 0.021259 -0.000582 0.000000 0.004555 0.000000
# 3 -0.006933 -0.000582 0.032927 0.000000 0.000083 0.000000
# 4 0.000000 0.000000 0.000000 0.248288 0.000000 -0.057271
# 5 0.001505 0.004555 0.000083 0.000000 0.028150 0.000000
# 6 0.000000 0.000000 0.000000 -0.057271 0.000000 0.127573
#
#
# Mechanical properties :
#
#
# Convention : Reuss Voigt Hill
#
# Bulk Modulus (GPa) = 22.51177 37.99453 30.25315
# Shear Modulus (GPa) = 10.01667 22.88904 16.45285
#
# Velocity S-wave (km/s) = 2.31762 3.50343 2.97030
# Velocity P-wave (km/s) = 4.38560 6.06132 5.29023
#
# Compressibility (1/GPa) = 0.04442120
#
# Stress axis : x y z
#
# Youngs Moduli (GPa) = 121.97072 47.03784 30.37030
#
# Poissons Ratio (x) = 0.06903 0.21055
# Poissons Ratio (y) = 0.17900 0.01767
# Poissons Ratio (z) = 0.84559 0.02736
#
# Static dielectric constant tensor:
#      x y z
#    x 1.713330 0.000000 0.001070 
#    y 0.000000 1.606550 0.000000 
#    z 0.001070 0.000000 1.698350 
# 
# From -- ./inp_files/170179.got.cif
#   From: 2010.05.17/outbox.cif.g08.bks.cpg/sg12_86_cif.got.tgz:170179.got - 2010.06.03 13:09:07.
