data_PCOD9177279
_publ_section_title
;
Structure prediction by ZEFSAII (Michael W. Deem and Ramdas Pophale) SiO2 
 PCOD9177279
Probable space group: C 2/M
;
_chemical_formula_sum "Si O2"
_cell_formula_units_Z 40
_cell_length_a 7.602250
_cell_length_b 29.201006
_cell_length_c 7.498971
_cell_angle_alpha 90.000000
_cell_angle_beta 66.814587
_cell_angle_gamma 90.000000
_cell_volume 1530.271436
_symmetry_space_group_name_H-M "C 2/M"
_symmetry_group_IT_number 12
_symmetry_cell_setting 'monoclinic'
loop_
_space_group_symop_operation_xyz
x,y,z
-x,y,-z
-x,-y,-z
x,-y,z
1/2+x,1/2+y,z
1/2-x,1/2+y,-z
1/2-x,1/2-y,-z
1/2+x,1/2-y,z
loop_
_atom_site_type_symbol
_atom_site_label
_atom_site_fract_x
_atom_site_fract_y
_atom_site_fract_z
Si Si1 0.775615 0.302935 0.448490
Si Si2 0.572954 0.049213 0.240606
Si Si3 0.171909 0.049031 0.221540
Si Si4 0.536537 0.649699 0.229608
Si Si5 0.386738 0.147431 0.848945
O O1 0.750000 0.250000 0.500000
O O2 0.673966 0.331000 0.648222
O O3 0.657484 0.320787 0.324901
O O4 0.990698 0.314251 0.300847
O O5 0.344878 0.049546 0.293921
O O6 0.606235 0.101625 0.275017
O O7 0.619563 0.000000 0.308733
O O8 0.706271 0.048097 0.010333
O O9 0.049635 0.095229 0.270023
O O10 0.067925 0.000000 0.275439
O O11 0.671764 0.655286 0.002750
O O12 0.500000 0.138469 0.000000
#
# Coordination Sequence:
#
# PCOD9177279 Si02
#       5
#     8   8   8   8   8
#     4  10  19  28  39  55  74 101 140 173 195 220
#     4   8  10  16  34  57  76 101 130 145 171 228
#     4   8  11  19  37  58  78 103 127 145 177 235
#     4   9  17  30  42  56  80 107 131 160 194 230
#     4   9  14  26  40  53  76 106 129 159 189 225
#
# _framework density 26.139153
#
# number of rings (size 3 to 8) (size 9 to 14) (size 15 to 20)
#    0.000    3.200    6.000    1.200    0.000    0.800 
#    0.000    3.000    0.000    0.000    0.000    0.000 
#    0.000    0.000    0.000   32.400    0.000  185.000 
#
# Total GULP energy -111558.118297 kJ/mol
# GULP energy per Si atom -5577.905915 kJ/mol
# Density = 2.607966 g / cm^3
# Si number density = 26.139153 Si / 1000 Ang^3
#
#
#
# Elastic Constant Matrix: (Units=GPa)
#
#
# Indices 1 2 3 4 5 6 
#
# 1 110.6256 52.0469 34.7034 0.0000 -47.4497 0.0000
# 2 52.0469 300.4941 93.6972 0.0000 -28.3522 0.0000
# 3 34.7034 93.6972 193.1371 0.0000 -20.7186 0.0000
# 4 0.0000 0.0000 0.0000 51.1399 0.0000 -26.7749
# 5 -47.4497 -28.3522 -20.7186 0.0000 42.9818 0.0000
# 6 0.0000 0.0000 0.0000 -26.7749 0.0000 -4.4673
#
#
#
# Elastic Compliance Matrix: (Units=1/GPa)
#
#
# Indices 1 2 3 4 5 6 
#
# 1 0.017700 -0.001117 -0.000655 0.000000 0.018488 0.000000
# 2 -0.001117 0.004122 -0.001729 0.000000 0.000652 0.000000
# 3 -0.000655 -0.001729 0.006258 0.000000 0.001153 0.000000
# 4 0.000000 0.000000 0.000000 0.004725 0.000000 -0.028323
# 5 0.018488 0.000652 0.001153 0.000000 0.044661 0.000000
# 6 0.000000 0.000000 0.000000 -0.028323 0.000000 -0.054096
#
#
# Mechanical properties :
#
#
# Convention : Reuss Voigt Hill
#
# Bulk Modulus (GPa) = 47.44420 107.23908 77.34164
# Shear Modulus (GPa) = 133.69383 46.18486 89.93935
#
# Velocity S-wave (km/s) = 7.15947 4.20799 5.87219
# Velocity P-wave (km/s) = 9.30237 8.04518 8.69652
#
# Compressibility (1/GPa) = 0.02107739
#
# Stress axis : x y z
#
# Youngs Moduli (GPa) = 56.49615 242.59960 159.79916
#
# Poissons Ratio (x) = 0.27101 0.10471
# Poissons Ratio (y) = 0.06311 0.27630
# Poissons Ratio (z) = 0.03702 0.41946
#
# Static dielectric constant tensor:
#      x y z
#    x 2.330330 0.000000 0.207940 
#    y 0.000000 1.998250 0.000000 
#    z 0.207940 0.000000 2.169230 
# 
# From -- ./inp_files/149039.got.cif
#   From: 2010.05.17/outbox.cif.g08.bks.cpg/sg12_75_cif.got.tgz:149039.got - 2010.06.03 13:09:07.
