data_PCOD9177276
_publ_section_title
;
Structure prediction by ZEFSAII (Michael W. Deem and Ramdas Pophale) SiO2 
 PCOD9177276
Probable space group: C 2/M
;
_chemical_formula_sum "Si O2"
_cell_formula_units_Z 56
_cell_length_a 5.131837
_cell_length_b 25.462743
_cell_length_c 26.432207
_cell_angle_alpha 90.000000
_cell_angle_beta 105.488951
_cell_angle_gamma 90.000000
_cell_volume 3328.474244
_symmetry_space_group_name_H-M "C 2/M"
_symmetry_group_IT_number 12
_symmetry_cell_setting 'monoclinic'
loop_
_space_group_symop_operation_xyz
x,y,z
-x,y,-z
-x,-y,-z
x,-y,z
1/2+x,1/2+y,z
1/2-x,1/2+y,-z
1/2-x,1/2-y,-z
1/2+x,1/2-y,z
loop_
_atom_site_type_symbol
_atom_site_label
_atom_site_fract_x
_atom_site_fract_y
_atom_site_fract_z
Si Si1 0.182842 0.000000 0.428652
Si Si2 0.019252 0.213697 0.055457
Si Si3 0.081926 0.500000 0.356302
Si Si4 0.334904 0.273714 0.558013
Si Si5 0.954832 0.388975 0.354279
Si Si6 0.877972 0.712679 0.282514
Si Si7 0.050539 0.890755 0.424028
Si Si8 0.794220 0.284932 0.165548
O O1 0.905046 0.000000 0.380797
O O2 0.159529 0.055881 0.455371
O O3 0.440635 0.000000 0.405026
O O4 0.229589 0.261914 0.055323
O O5 0.152779 0.185882 0.111043
O O6 0.000000 0.185685 0.000000
O O7 0.986470 0.445072 0.327769
O O8 0.250000 0.250000 0.500000
O O9 0.614536 0.246026 0.585897
O O10 0.352588 0.335261 0.550317
O O11 0.948236 0.337098 0.320549
O O12 0.689201 0.391575 0.375571
O O13 0.226928 0.388242 0.402941
O O14 0.619141 0.745203 0.288609
O O15 0.817463 0.691185 0.222448
O O16 0.588862 0.235693 0.164240
#
# Coordination Sequence:
#
# PCOD9177276 Si02
#       8
#     4   8   4   8   8   8   8   8
#     4   8  16  30  48  68  85 104 134 168 201 232
#     4   8  12  18  29  43  58  83 124 164 193 225
#     4   8  16  30  44  62  85 108 135 170 204 228
#     4  10  21  35  50  67  91 116 136 161 198 240
#     4  10  19  30  46  66  87 110 139 170 199 235
#     4  10  19  28  38  57  86 113 137 163 198 244
#     4  10  19  32  50  68  86 109 137 169 200 232
#     4   8  14  23  32  44  68 100 127 157 196 234
#
# _framework density 16.824525999999999
#
# number of rings (size 3 to 8) (size 9 to 14) (size 15 to 20)
#    0.000    2.857    0.000    1.714    0.000    3.429 
#    0.000    0.000    0.000    3.429    0.000    0.000 
#    0.000    0.000    0.000    0.643    0.000    0.571 
#
# Total GULP energy -155869.420515 kJ/mol
# GULP energy per Si atom -5566.765018 kJ/mol
# Density = 1.678623 g / cm^3
# Si number density = 16.824526 Si / 1000 Ang^3
#
#
#
# Elastic Constant Matrix: (Units=GPa)
#
#
# Indices 1 2 3 4 5 6 
#
# 1 104.0045 7.5184 -0.1313 0.0000 2.3545 0.0000
# 2 7.5184 120.3179 21.7963 0.0000 4.3607 0.0000
# 3 -0.1313 21.7963 47.2668 0.0000 -1.3569 0.0000
# 4 0.0000 0.0000 0.0000 8.6880 0.0000 2.8515
# 5 2.3545 4.3607 -1.3569 0.0000 14.2764 0.0000
# 6 0.0000 0.0000 0.0000 2.8515 0.0000 19.0935
#
#
#
# Elastic Compliance Matrix: (Units=1/GPa)
#
#
# Indices 1 2 3 4 5 6 
#
# 1 0.009690 -0.000603 0.000265 0.000000 -0.001389 0.000000
# 2 -0.000603 0.009252 -0.004358 0.000000 -0.003141 0.000000
# 3 0.000265 -0.004358 0.023268 0.000000 0.003499 0.000000
# 4 0.000000 0.000000 0.000000 0.121033 0.000000 -0.018076
# 5 -0.001389 -0.003141 0.003499 0.000000 0.071566 0.000000
# 6 0.000000 0.000000 0.000000 -0.018076 0.000000 0.055073
#
#
# Mechanical properties :
#
#
# Convention : Reuss Voigt Hill
#
# Bulk Modulus (GPa) = 30.47166 36.66177 33.56672
# Shear Modulus (GPa) = 16.11784 24.57199 20.34491
#
# Velocity S-wave (km/s) = 3.09851 3.82578 3.48119
# Velocity P-wave (km/s) = 5.56343 6.43066 6.01270
#
# Compressibility (1/GPa) = 0.03281738
#
# Stress axis : x y z
#
# Youngs Moduli (GPa) = 103.19545 108.08012 42.97839
#
# Poissons Ratio (x) = 0.06520 -0.01140
# Poissons Ratio (y) = 0.06225 0.18732
# Poissons Ratio (z) = -0.02737 0.47106
#
# Static dielectric constant tensor:
#      x y z
#    x 0.817260 0.000000 0.866780 
#    y 0.000000 1.596150 0.000000 
#    z 0.866780 0.000000 0.629260 
# 
# From -- ./inp_files/371661.got.cif
#   From: 2010.05.17/outbox.cif.g08.bks.cpg/sg12_186_cif.got.tgz:371661.got - 2010.06.03 13:09:07.
