data_PCOD9177090
_publ_section_title
;
Structure prediction by ZEFSAII (Michael W. Deem and Ramdas Pophale) SiO2 
 PCOD9177090
Probable space group: C 2/M
;
_chemical_formula_sum "Si O2"
_cell_formula_units_Z 48
_cell_length_a 26.130167
_cell_length_b 14.750869
_cell_length_c 8.689937
_cell_angle_alpha 90.000000
_cell_angle_beta 42.755853
_cell_angle_gamma 90.000000
_cell_volume 2273.875691
_symmetry_space_group_name_H-M "C 2/M"
_symmetry_group_IT_number 12
_symmetry_cell_setting 'monoclinic'
loop_
_space_group_symop_operation_xyz
x,y,z
-x,y,-z
-x,-y,-z
x,-y,z
1/2+x,1/2+y,z
1/2-x,1/2+y,-z
1/2-x,1/2-y,-z
1/2+x,1/2-y,z
loop_
_atom_site_type_symbol
_atom_site_label
_atom_site_fract_x
_atom_site_fract_y
_atom_site_fract_z
Si Si1 0.030955 0.229840 0.759898
Si Si2 0.725954 0.305266 0.702366
Si Si3 0.409815 0.395970 0.875468
Si Si4 0.795083 0.327320 0.995599
Si Si5 0.640023 0.401214 0.370760
Si Si6 0.124958 0.607593 0.467170
O O1 0.107769 0.174854 0.554044
O O2 0.053016 0.333505 0.677394
O O3 0.972804 0.177558 0.777474
O O4 0.000000 0.220147 0.000000
O O5 0.750000 0.250000 0.500000
O O6 0.685720 0.227171 0.894911
O O7 0.800429 0.352978 0.610020
O O8 0.660543 0.380581 0.853538
O O9 0.436465 0.500000 0.830835
O O10 0.383478 0.385053 0.755713
O O11 0.730082 0.398628 0.175493
O O12 0.750000 0.250000 0.000000
O O13 0.858659 0.368507 0.748016
O O14 0.612171 0.500000 0.478208
O O15 0.118659 0.500000 0.503586
#
# Coordination Sequence:
#
# PCOD9177090 Si02
#       6
#     8   8   8   8   8   8
#     4  12  25  41  58  92 130 169 204 260 322 379
#     4  11  21  39  65  97 131 164 203 264 328 372
#     4  11  23  39  63  93 126 165 211 259 317 383
#     4  10  18  37  66  95 120 162 208 263 309 366
#     4  11  21  39  65  92 123 163 210 257 313 379
#     4  11  22  43  70  90 120 173 223 258 307 382
#
# _framework density 21.109331999999998
#
# number of rings (size 3 to 8) (size 9 to 14) (size 15 to 20)
#    0.000    1.000    6.667    3.000    0.000    3.000 
#    0.000    2.500    0.000    9.000    0.000    0.000 
#    0.000    0.000    0.000    0.000    0.000    0.000 
#
# Total GULP energy -133942.517887 kJ/mol
# GULP energy per Si atom -5580.938245 kJ/mol
# Density = 2.106129 g / cm^3
# Si number density = 21.109332 Si / 1000 Ang^3
#
#
#
# Elastic Constant Matrix: (Units=GPa)
#
#
# Indices 1 2 3 4 5 6 
#
# 1 21.5196 31.9348 5.8359 0.0000 -7.4967 0.0000
# 2 31.9348 166.5337 43.7392 0.0000 3.7135 0.0000
# 3 5.8359 43.7392 94.8735 0.0000 14.1239 0.0000
# 4 0.0000 0.0000 0.0000 23.2164 0.0000 -6.4629
# 5 -7.4967 3.7135 14.1239 0.0000 31.7806 0.0000
# 6 0.0000 0.0000 0.0000 -6.4629 0.0000 21.9564
#
#
#
# Elastic Compliance Matrix: (Units=1/GPa)
#
#
# Indices 1 2 3 4 5 6 
#
# 1 0.075412 -0.014687 -0.000826 0.000000 0.019872 0.000000
# 2 -0.014687 0.009705 -0.003091 0.000000 -0.003225 0.000000
# 3 -0.000826 -0.003091 0.012841 0.000000 -0.005540 0.000000
# 4 0.000000 0.000000 0.000000 0.046917 0.000000 0.013810
# 5 0.019872 -0.003225 -0.005540 0.000000 0.038992 0.000000
# 6 0.000000 0.000000 0.000000 0.013810 0.000000 0.049610
#
#
# Mechanical properties :
#
#
# Convention : Reuss Voigt Hill
#
# Bulk Modulus (GPa) = 16.46099 49.54960 33.00529
# Shear Modulus (GPa) = 17.18601 28.81848 23.00225
#
# Velocity S-wave (km/s) = 2.85641 3.69887 3.30460
# Velocity P-wave (km/s) = 4.32362 6.46266 5.49817
#
# Compressibility (1/GPa) = 0.06074970
#
# Stress axis : x y z
#
# Youngs Moduli (GPa) = 13.26058 103.04075 77.87662
#
# Poissons Ratio (x) = 1.51338 0.06432
# Poissons Ratio (y) = 0.19476 0.24069
# Poissons Ratio (z) = 0.01095 0.31846
#
# Static dielectric constant tensor:
#      x y z
#    x 1.828410 0.000000 -0.027480 
#    y 0.000000 1.814100 0.000000 
#    z -0.027480 0.000000 1.800250 
# 
# From -- ./inp_files/104964.got.cif
#   From: 2010.05.17/outbox.cif.g08.bks.cpg/sg12_53_cif.got.tgz:104964.got - 2010.06.03 13:09:07.
