data_PCOD9177536
_publ_section_title
;
Structure prediction by ZEFSAII (Michael W. Deem and Ramdas Pophale) SiO2 
 PCOD9177536
Probable space group: C 2/M
;
_chemical_formula_sum "Si O2"
_cell_formula_units_Z 64
_cell_length_a 30.891478
_cell_length_b 9.454498
_cell_length_c 15.407592
_cell_angle_alpha 90.000000
_cell_angle_beta 121.227165
_cell_angle_gamma 90.000000
_cell_volume 3848.028351
_symmetry_space_group_name_H-M "C 2/M"
_symmetry_group_IT_number 12
_symmetry_cell_setting 'monoclinic'
loop_
_space_group_symop_operation_xyz
x,y,z
-x,y,-z
-x,-y,-z
x,-y,z
1/2+x,1/2+y,z
1/2-x,1/2+y,-z
1/2-x,1/2-y,-z
1/2+x,1/2-y,z
loop_
_atom_site_type_symbol
_atom_site_label
_atom_site_fract_x
_atom_site_fract_y
_atom_site_fract_z
Si Si1 0.624055 0.665437 0.420649
Si Si2 0.172565 0.166381 0.955861
Si Si3 0.191503 0.834084 0.317713
Si Si4 0.960371 0.331416 0.761381
Si Si5 0.257730 0.665177 0.139373
Si Si6 0.075681 0.331128 0.907781
Si Si7 0.605439 0.166912 0.136992
Si Si8 0.788389 0.168948 0.367674
O O1 0.610676 0.500000 0.413416
O O2 0.662877 0.680450 0.379908
O O3 0.574857 0.754382 0.345033
O O4 0.656534 0.708249 0.538333
O O5 0.200269 0.183843 0.891831
O O6 0.119294 0.245497 0.904793
O O7 0.166935 0.000000 0.967188
O O8 0.210338 0.238157 0.064590
O O9 0.154469 0.759618 0.209750
O O10 0.244638 0.754083 0.371287
O O11 0.197809 0.000000 0.305958
O O12 0.957860 0.500000 0.745944
O O13 0.935743 0.303220 0.830690
O O14 0.018965 0.288967 0.822402
O O15 0.241530 0.500000 0.120985
O O16 0.280098 0.695504 0.257171
O O17 0.081356 0.500000 0.899375
O O18 0.083653 0.306716 0.019083
O O19 0.618826 0.000000 0.156808
O O20 0.782255 0.000000 0.376760
#
# Coordination Sequence:
#
# PCOD9177536 Si02
#       8
#     8   8   8   8   8   8   8   8
#     4   9  19  33  47  66  94 125 156 193 232 268
#     4  10  20  33  50  73  98 121 148 187 235 280
#     4  10  19  29  43  69 101 125 150 188 232 274
#     4   9  18  32  49  68  92 124 160 194 226 265
#     4   9  19  35  52  70  94 123 154 188 227 275
#     4  10  19  31  49  71  94 123 158 191 226 273
#     4   9  17  30  47  67  94 127 159 188 221 268
#     4  10  19  32  50  68  89 123 162 192 224 272
#
# _framework density 16.631893000000002
#
# number of rings (size 3 to 8) (size 9 to 14) (size 15 to 20)
#    0.000    2.500    0.000    2.250    0.000    7.500 
#    0.000    0.000    0.000    4.500    0.000    5.250 
#    0.000    0.000    0.000    0.000    0.000    0.000 
#
# Total GULP energy -178538.976114 kJ/mol
# GULP energy per Si atom -5579.343004 kJ/mol
# Density = 1.659404 g / cm^3
# Si number density = 16.631893 Si / 1000 Ang^3
#
#
#
# Elastic Constant Matrix: (Units=GPa)
#
#
# Indices 1 2 3 4 5 6 
#
# 1 67.0044 42.4373 34.5737 0.0000 25.9210 0.0000
# 2 42.4373 45.4709 42.2117 0.0000 16.1415 0.0000
# 3 34.5737 42.2117 87.5290 0.0000 23.5290 0.0000
# 4 0.0000 0.0000 0.0000 23.0911 0.0000 6.3093
# 5 25.9210 16.1415 23.5290 0.0000 25.7590 0.0000
# 6 0.0000 0.0000 0.0000 6.3093 0.0000 27.9952
#
#
#
# Elastic Compliance Matrix: (Units=1/GPa)
#
#
# Indices 1 2 3 4 5 6 
#
# 1 0.051244 -0.046385 0.010838 0.000000 -0.032399 0.000000
# 2 -0.046385 0.083773 -0.027191 0.000000 0.019018 0.000000
# 3 0.010838 -0.027191 0.024665 0.000000 -0.016396 0.000000
# 4 0.000000 0.000000 0.000000 0.046149 0.000000 -0.010400
# 5 -0.032399 0.019018 -0.016396 0.000000 0.074484 0.000000
# 6 0.000000 0.000000 0.000000 -0.010400 0.000000 0.038064
#
#
# Mechanical properties :
#
#
# Convention : Reuss Voigt Hill
#
# Bulk Modulus (GPa) = 29.23497 48.71662 38.97579
# Shear Modulus (GPa) = 10.98284 20.75450 15.86867
#
# Velocity S-wave (km/s) = 2.57251 3.53636 3.09222
# Velocity P-wave (km/s) = 5.14194 6.78448 6.01950
#
# Compressibility (1/GPa) = 0.03420561
#
# Stress axis : x y z
#
# Youngs Moduli (GPa) = 19.51450 11.93705 40.54405
#
# Poissons Ratio (x) = 0.55370 -0.43940
# Poissons Ratio (y) = 0.90517 1.10242
# Poissons Ratio (z) = -0.21149 0.32458
#
# Static dielectric constant tensor:
#      x y z
#    x 1.548990 0.000000 -0.008710 
#    y 0.000000 1.553850 0.000000 
#    z -0.008710 0.000000 1.557560 
# 
# From -- ./inp_files/249030.got.cif
#   From: 2010.05.17/outbox.cif.g08.bks.cpg/sg12_125_cif.got.tgz:249030.got - 2010.06.03 13:09:07.
