data_PCOD9177291
_publ_section_title
;
Structure prediction by ZEFSAII (Michael W. Deem and Ramdas Pophale) SiO2 
 PCOD9177291
Probable space group: C 2/M
;
_chemical_formula_sum "Si O2"
_cell_formula_units_Z 64
_cell_length_a 27.840389
_cell_length_b 8.973380
_cell_length_c 17.608388
_cell_angle_alpha 90.000000
_cell_angle_beta 79.457772
_cell_angle_gamma 90.000000
_cell_volume 4324.716416
_symmetry_space_group_name_H-M "C 2/M"
_symmetry_group_IT_number 12
_symmetry_cell_setting 'monoclinic'
loop_
_space_group_symop_operation_xyz
x,y,z
-x,y,-z
-x,-y,-z
x,-y,z
1/2+x,1/2+y,z
1/2-x,1/2+y,-z
1/2-x,1/2-y,-z
1/2+x,1/2-y,z
loop_
_atom_site_type_symbol
_atom_site_label
_atom_site_fract_x
_atom_site_fract_y
_atom_site_fract_z
Si Si1 0.175643 0.678040 0.667779
Si Si2 0.810665 0.320549 0.813442
Si Si3 0.862499 0.322519 0.946998
Si Si4 0.792380 0.826908 0.082217
Si Si5 0.210633 0.178924 0.338824
Si Si6 0.378101 0.672764 0.182209
Si Si7 0.802703 0.679182 0.503404
Si Si8 0.443811 0.319666 0.028243
O O1 0.174986 0.500000 0.674450
O O2 0.231521 0.724728 0.673388
O O3 0.136984 0.744367 0.737244
O O4 0.166947 0.715542 0.581599
O O5 0.810184 0.500000 0.801924
O O6 0.852734 0.283400 0.862027
O O7 0.759587 0.280767 0.869597
O O8 0.811438 0.238564 0.733064
O O9 0.867169 0.500000 0.951404
O O10 0.815048 0.271191 0.008896
O O11 0.908499 0.245171 0.973660
O O12 0.387221 0.500000 0.197472
O O13 0.831334 0.819498 0.139605
O O14 0.184105 0.250385 0.419618
O O15 0.208918 0.000000 0.343742
O O16 0.289465 0.500000 0.058313
O O17 0.422252 0.729629 0.116333
O O18 0.799050 0.500000 0.510348
O O19 0.750000 0.750000 0.500000
O O20 0.439599 0.500000 0.027513
O O21 0.500000 0.278540 0.000000
#
# Coordination Sequence:
#
# PCOD9177291 Si02
#       8
#     8   8   8   8   8   8   8   8
#     4   9  17  27  39  59  85 112 144 181 217 252
#     4  10  19  30  42  59  87 120 150 181 215 256
#     4  10  20  30  44  66  87 110 144 184 224 260
#     4   9  17  29  42  58  84 119 152 177 212 255
#     4  10  19  28  40  60  84 117 155 185 218 252
#     4   9  16  26  44  65  82 109 146 180 215 256
#     4   9  17  28  40  56  81 115 152 185 218 254
#     4   9  19  36  52  64  84 114 146 181 224 271
#
# _framework density 14.798657
#
# number of rings (size 3 to 8) (size 9 to 14) (size 15 to 20)
#    0.000    2.625    1.250    3.000    0.000    6.250 
#    0.000    0.000    0.000    0.000    0.000    0.000 
#    0.000    1.000    0.000   11.250    0.000    5.000 
#
# Total GULP energy -178232.163868 kJ/mol
# GULP energy per Si atom -5569.755121 kJ/mol
# Density = 1.476497 g / cm^3
# Si number density = 14.798657 Si / 1000 Ang^3
#
#
#
# Elastic Constant Matrix: (Units=GPa)
#
#
# Indices 1 2 3 4 5 6 
#
# 1 47.2964 21.3715 52.2559 0.0000 -5.6711 0.0000
# 2 21.3715 32.9204 49.6500 0.0000 2.7929 0.0000
# 3 52.2559 49.6500 148.5752 0.0000 3.9706 0.0000
# 4 0.0000 0.0000 0.0000 28.4409 0.0000 1.0664
# 5 -5.6711 2.7929 3.9706 0.0000 16.3197 0.0000
# 6 0.0000 0.0000 0.0000 1.0664 0.0000 13.0093
#
#
#
# Elastic Compliance Matrix: (Units=1/GPa)
#
#
# Indices 1 2 3 4 5 6 
#
# 1 0.040718 -0.011434 -0.011002 0.000000 0.018783 0.000000
# 2 -0.011434 0.064954 -0.017394 0.000000 -0.010857 0.000000
# 3 -0.011002 -0.017394 0.016543 0.000000 -0.004871 0.000000
# 4 0.000000 0.000000 0.000000 0.035269 0.000000 -0.002891
# 5 0.018783 -0.010857 -0.004871 0.000000 0.070846 0.000000
# 6 0.000000 0.000000 0.000000 -0.002891 0.000000 0.077105
#
#
# Mechanical properties :
#
#
# Convention : Reuss Voigt Hill
#
# Bulk Modulus (GPa) = 23.49941 52.81631 38.15786
# Shear Modulus (GPa) = 12.52252 18.58829 15.55540
#
# Velocity S-wave (km/s) = 2.91210 3.54797 3.24564
# Velocity P-wave (km/s) = 5.21737 7.24924 6.31555
#
# Compressibility (1/GPa) = 0.04255427
#
# Stress axis : x y z
#
# Youngs Moduli (GPa) = 24.55929 15.39549 60.44823
#
# Poissons Ratio (x) = 0.17603 0.66505
# Poissons Ratio (y) = 0.28081 1.05146
# Poissons Ratio (z) = 0.27020 0.26779
#
# Static dielectric constant tensor:
#      x y z
#    x 1.471360 0.000000 0.005620 
#    y 0.000000 1.498440 0.000000 
#    z 0.005620 0.000000 1.516710 
# 
# From -- ./inp_files/287498.got.cif
#   From: 2010.05.17/outbox.cif.g08.bks.cpg/sg12_144_cif.got.tgz:287498.got - 2010.06.03 13:09:07.
