data_PCOD9177253
_publ_section_title
;
Structure prediction by ZEFSAII (Michael W. Deem and Ramdas Pophale) SiO2 
 PCOD9177253
Probable space group: C 2/M
;
_chemical_formula_sum "Si O2"
_cell_formula_units_Z 64
_cell_length_a 33.270269
_cell_length_b 14.150040
_cell_length_c 8.014510
_cell_angle_alpha 90.000000
_cell_angle_beta 102.564467
_cell_angle_gamma 90.000000
_cell_volume 3682.678855
_symmetry_space_group_name_H-M "C 2/M"
_symmetry_group_IT_number 12
_symmetry_cell_setting 'monoclinic'
loop_
_space_group_symop_operation_xyz
x,y,z
-x,y,-z
-x,-y,-z
x,-y,z
1/2+x,1/2+y,z
1/2-x,1/2+y,-z
1/2-x,1/2-y,-z
1/2+x,1/2-y,z
loop_
_atom_site_type_symbol
_atom_site_label
_atom_site_fract_x
_atom_site_fract_y
_atom_site_fract_z
Si Si1 0.755643 0.394352 0.224735
Si Si2 0.437416 0.113351 0.863846
Si Si3 0.094796 0.388470 0.670386
Si Si4 0.985421 0.387978 0.254728
Si Si5 0.209621 0.894439 0.822846
Si Si6 0.669795 0.207328 0.875865
Si Si7 0.215851 0.707146 0.274973
Si Si8 0.643107 0.111022 0.366427
O O1 0.756088 0.500000 0.295884
O O2 0.800931 0.361125 0.208854
O O3 0.733871 0.312496 0.312086
O O4 0.730833 0.396183 0.025928
O O5 0.470323 0.152066 0.758545
O O6 0.391043 0.146539 0.797142
O O7 0.434795 0.000000 0.834068
O O8 0.457912 0.124295 0.062272
O O9 0.095232 0.500000 0.716672
O O10 0.046912 0.357257 0.633013
O O11 0.123835 0.330239 0.820486
O O12 0.117712 0.380675 0.514619
O O13 0.992359 0.500000 0.288635
O O14 0.175921 0.812069 0.806204
O O15 0.245407 0.860194 0.729726
O O16 0.195197 0.000000 0.770993
O O17 0.689376 0.206160 0.078110
O O18 0.184899 0.669449 0.386360
O O19 0.652975 0.000000 0.347452
#
# Coordination Sequence:
#
# PCOD9177253 Si02
#       8
#     8   8   8   8   8   8   8   8
#     4   8  14  25  41  60  79  99 128 166 202 232
#     4   8  14  25  40  56  74  99 131 162 190 224
#     4  10  19  27  36  54  81 109 133 160 194 229
#     4   8  14  25  40  56  74  99 131 162 190 224
#     4   8  14  25  41  60  79  99 128 166 202 232
#     4   9  16  26  42  60  76 100 133 165 196 231
#     4   9  16  26  42  60  76 100 133 165 196 231
#     4  10  19  27  36  54  81 109 133 160 194 229
#
# _framework density 17.378653
#
# number of rings (size 3 to 8) (size 9 to 14) (size 15 to 20)
#    0.000    3.250    0.000    3.750    0.000    3.000 
#    0.000    5.000    0.000    2.250    0.000    0.000 
#    0.000    1.000    0.000   11.500    0.000    3.750 
#
# Total GULP energy -178297.374374 kJ/mol
# GULP energy per Si atom -5571.792949 kJ/mol
# Density = 1.733910 g / cm^3
# Si number density = 17.378653 Si / 1000 Ang^3
#
#
#
# Elastic Constant Matrix: (Units=GPa)
#
#
# Indices 1 2 3 4 5 6 
#
# 1 79.8517 26.2396 9.1030 0.0000 -23.9257 0.0000
# 2 26.2396 75.7797 7.7055 0.0000 -13.2130 0.0000
# 3 9.1030 7.7055 45.4271 0.0000 -8.9135 0.0000
# 4 0.0000 0.0000 0.0000 9.0830 0.0000 -1.9678
# 5 -23.9257 -13.2130 -8.9135 0.0000 26.4947 0.0000
# 6 0.0000 0.0000 0.0000 -1.9678 0.0000 16.0807
#
#
#
# Elastic Compliance Matrix: (Units=1/GPa)
#
#
# Indices 1 2 3 4 5 6 
#
# 1 0.018088 -0.003733 -0.000162 0.000000 0.014418 0.000000
# 2 -0.003733 0.015276 -0.001081 0.000000 0.003883 0.000000
# 3 -0.000162 -0.001081 0.023656 0.000000 0.007273 0.000000
# 4 0.000000 0.000000 0.000000 0.113094 0.000000 0.013839
# 5 0.014418 0.003883 0.007273 0.000000 0.055147 0.000000
# 6 0.000000 0.000000 0.000000 0.013839 0.000000 0.063880
#
#
# Mechanical properties :
#
#
# Convention : Reuss Voigt Hill
#
# Bulk Modulus (GPa) = 21.24600 31.90606 26.57603
# Shear Modulus (GPa) = 15.88394 20.86572 18.37483
#
# Velocity S-wave (km/s) = 3.02651 3.46880 3.25518
# Velocity P-wave (km/s) = 4.94620 5.86879 5.42713
#
# Compressibility (1/GPa) = 0.04706769
#
# Stress axis : x y z
#
# Youngs Moduli (GPa) = 55.28383 65.46330 42.27215
#
# Poissons Ratio (x) = 0.24436 0.00687
# Poissons Ratio (y) = 0.20637 0.04570
# Poissons Ratio (z) = 0.00898 0.07077
#
# Static dielectric constant tensor:
#      x y z
#    x 1.604680 0.000000 0.005110 
#    y 0.000000 1.562810 0.000000 
#    z 0.005110 0.000000 1.720340 
# 
# From -- ./inp_files/111218.got.cif
#   From: 2010.05.17/outbox.cif.g08.bks.cpg/sg12_56_cif.got.tgz:111218.got - 2010.06.03 13:09:07.
