data_PCOD9177013
_publ_section_title
;
Structure prediction by ZEFSAII (Michael W. Deem and Ramdas Pophale) SiO2 
 PCOD9177013
Probable space group: C 2/M
;
_chemical_formula_sum "Si O2"
_cell_formula_units_Z 46
_cell_length_a 14.107194
_cell_length_b 12.833377
_cell_length_c 20.911645
_cell_angle_alpha 90.000000
_cell_angle_beta 31.027625
_cell_angle_gamma 90.000000
_cell_volume 1951.449984
_symmetry_space_group_name_H-M "C 2/M"
_symmetry_group_IT_number 12
_symmetry_cell_setting 'monoclinic'
loop_
_space_group_symop_operation_xyz
x,y,z
-x,y,-z
-x,-y,-z
x,-y,z
1/2+x,1/2+y,z
1/2-x,1/2+y,-z
1/2-x,1/2-y,-z
1/2+x,1/2-y,z
loop_
_atom_site_type_symbol
_atom_site_label
_atom_site_fract_x
_atom_site_fract_y
_atom_site_fract_z
Si Si1 0.433860 0.838493 0.327088
Si Si2 0.793205 0.883613 0.048180
Si Si3 0.500000 0.000000 0.000000
Si Si4 0.000000 0.703127 0.500000
Si Si5 0.199108 0.113821 0.588149
Si Si6 0.936945 0.665477 0.947597
Si Si7 0.796772 0.115722 0.669283
O O1 0.638998 0.875787 0.192889
O O2 0.329456 0.878793 0.450068
O O3 0.432917 0.713141 0.332934
O O4 0.309942 0.871633 0.337119
O O5 0.680749 0.861607 0.047460
O O6 0.871920 0.000000 0.002103
O O7 0.930022 0.786338 0.969251
O O8 0.626600 0.091599 0.959650
O O9 0.164201 0.634093 0.431272
O O10 0.067855 0.786001 0.407076
O O11 0.113544 0.000000 0.639988
O O12 0.140494 0.626242 0.812336
O O13 0.879524 0.000000 0.626123
#
# Coordination Sequence:
#
# PCOD9177013 Si02
#       7
#     8   8   2   4   8   8   8
#     4   9  19  34  58  78 106 144 196 228 285 328
#     4  10  19  39  60  87 111 157 200 246 278 365
#     4  12  20  40  54  90 120 158 176 258 288 354
#     4  10  22  32  54  80 114 144 190 218 296 346
#     4  10  19  35  52  80 111 146 180 241 280 344
#     4  10  21  35  60  83 119 152 195 238 310 332
#     4  10  18  37  55  78 106 150 187 235 273 344
#
# _framework density 23.572216000000001
#
# number of rings (size 3 to 8) (size 9 to 14) (size 15 to 20)
#    0.000    2.087    1.739    3.130    0.000    1.391 
#    1.565   10.870    0.000    0.000    0.000    0.000 
#    0.000    0.000    0.000    0.000    0.000    0.000 
#
# Total GULP energy -128285.741465 kJ/mol
# GULP energy per Si atom -5577.640933 kJ/mol
# Density = 2.351856 g / cm^3
# Si number density = 23.572216 Si / 1000 Ang^3
#
#
#
# Elastic Constant Matrix: (Units=GPa)
#
#
# Indices 1 2 3 4 5 6 
#
# 1 40.4214 3.2463 15.8285 -0.0002 17.8280 -0.0005
# 2 3.2463 232.2013 25.4731 -0.0002 6.4089 -0.0006
# 3 15.8285 25.4731 39.7506 -0.0015 9.1729 -0.0001
# 4 -0.0002 -0.0002 -0.0015 47.6478 0.0006 -18.3573
# 5 17.8280 6.4089 9.1729 0.0006 22.0671 0.0000
# 6 -0.0005 -0.0006 -0.0001 -18.3573 0.0000 3.5564
#
#
#
# Elastic Compliance Matrix: (Units=1/GPa)
#
#
# Indices 1 2 3 4 5 6 
#
# 1 0.042014 0.001416 -0.010740 -0.000003 -0.029890 -0.000007
# 2 0.001416 0.004680 -0.003302 0.000000 -0.001130 -0.000001
# 3 -0.010740 -0.003302 0.032437 -0.000001 -0.003848 -0.000004
# 4 -0.000003 0.000000 -0.000001 -0.021228 0.000003 -0.109572
# 5 -0.029890 -0.001130 -0.003848 0.000003 0.071392 0.000011
# 6 -0.000007 -0.000001 -0.000004 -0.109572 0.000011 -0.284402
#
#
# Mechanical properties :
#
#
# Convention : Reuss Voigt Hill
#
# Bulk Modulus (GPa) = 18.55975 44.60767 31.58371
# Shear Modulus (GPa) = -44.68562 32.50930 -6.08816
#
# Velocity S-wave (km/s) = -4.35868 3.71770 -1.60884
# Velocity P-wave (km/s) = 4.17613 6.11501 3.15858
#
# Compressibility (1/GPa) = 0.05388004
#
# Stress axis : x y z
#
# Youngs Moduli (GPa) = 23.80132 213.66314 30.82861
#
# Poissons Ratio (x) = -0.30250 0.33109
# Poissons Ratio (y) = -0.03370 0.10180
# Poissons Ratio (z) = 0.25562 0.70554
#
# Static dielectric constant tensor:
#      x y z
#    x 1.957550 0.000000 0.050680 
#    y 0.000000 1.919370 0.000000 
#    z 0.050680 0.000000 1.984390 
# 
# From -- ./inp_files/343312.got.cif
#   From: 2010.05.17/outbox.cif.g08.bks.cpg/sg12_172_cif.got.tgz:343312.got - 2010.06.03 13:09:07.
