data_PCOD9177851
_publ_section_title
;
Structure prediction by ZEFSAII (Michael W. Deem and Ramdas Pophale) SiO2 
 PCOD9177851
Probable space group: C 2/M
;
_chemical_formula_sum "Si O2"
_cell_formula_units_Z 48
_cell_length_a 5.236218
_cell_length_b 25.732816
_cell_length_c 26.176378
_cell_angle_alpha 90.000000
_cell_angle_beta 120.107053
_cell_angle_gamma 90.000000
_cell_volume 3051.235426
_symmetry_space_group_name_H-M "C 2/M"
_symmetry_group_IT_number 12
_symmetry_cell_setting 'monoclinic'
loop_
_space_group_symop_operation_xyz
x,y,z
-x,y,-z
-x,-y,-z
x,-y,z
1/2+x,1/2+y,z
1/2-x,1/2+y,-z
1/2-x,1/2-y,-z
1/2+x,1/2-y,z
loop_
_atom_site_type_symbol
_atom_site_label
_atom_site_fract_x
_atom_site_fract_y
_atom_site_fract_z
Si Si1 0.839608 0.563385 0.535973
Si Si2 0.722875 0.062001 0.067930
Si Si3 0.711967 0.937152 0.671107
Si Si4 0.130542 0.392857 0.873717
Si Si5 0.349471 0.715758 0.931536
Si Si6 0.101581 0.437021 0.255547
O O1 0.500000 0.579851 0.500000
O O2 0.840998 0.500000 0.537358
O O3 0.000000 0.579102 0.500000
O O4 0.014950 0.581364 0.603790
O O5 0.602937 0.088527 0.107253
O O6 0.053728 0.078808 0.087494
O O7 0.713613 0.000000 0.073831
O O8 0.500000 0.076446 0.000000
O O9 0.583117 0.921639 0.712990
O O10 0.055488 0.924167 0.700765
O O11 0.695031 0.000000 0.668402
O O12 0.197173 0.332260 0.888321
O O13 0.014093 0.409084 0.806582
O O14 0.606291 0.741833 0.923751
O O15 0.500000 0.697364 0.000000
O O16 0.076935 0.500000 0.246127
#
# Coordination Sequence:
#
# PCOD9177851 Si02
#       6
#     8   8   8   8   8   8
#     4   9  15  23  37  56  78 110 155 198 226 248
#     4  11  22  34  49  71  97 122 151 191 235 280
#     4   9  17  28  40  58  87 120 155 193 224 254
#     4  12  22  35  53  71  93 124 159 191 237 291
#     4  10  21  37  55  73  91 113 149 199 249 293
#     4  10  19  30  44  63  90 123 155 185 220 272
#
# _framework density 15.731332999999999
#
# number of rings (size 3 to 8) (size 9 to 14) (size 15 to 20)
#    0.000    1.833    0.000    6.000    0.000    8.000 
#    0.000    0.000    0.000    0.000    0.000    0.000 
#    0.000    0.000    0.000    0.000    0.000   58.333 
#
# Total GULP energy -133974.248576 kJ/mol
# GULP energy per Si atom -5582.260357 kJ/mol
# Density = 1.569553 g / cm^3
# Si number density = 15.731333 Si / 1000 Ang^3
#
#
#
# Elastic Constant Matrix: (Units=GPa)
#
#
# Indices 1 2 3 4 5 6 
#
# 1 47.5516 -4.0577 -16.3503 0.0000 -1.7717 0.0000
# 2 -4.0577 23.9582 16.9325 0.0000 -0.7444 0.0000
# 3 -16.3503 16.9325 62.6114 0.0000 -1.2830 0.0000
# 4 0.0000 0.0000 0.0000 -20.4936 0.0000 15.2683
# 5 -1.7717 -0.7444 -1.2830 0.0000 25.9003 0.0000
# 6 0.0000 0.0000 0.0000 15.2683 0.0000 6.6961
#
#
#
# Elastic Compliance Matrix: (Units=1/GPa)
#
#
# Indices 1 2 3 4 5 6 
#
# 1 0.023199 -0.000397 0.006204 0.000000 0.001883 0.000000
# 2 -0.000397 0.051625 -0.014049 0.000000 0.000761 0.000000
# 3 0.006204 -0.014049 0.021413 0.000000 0.001081 0.000000
# 4 0.000000 0.000000 0.000000 -0.018080 0.000000 0.041227
# 5 0.001883 0.000761 0.001081 0.000000 0.038814 0.000000
# 6 0.000000 0.000000 0.000000 0.041227 0.000000 0.055336
#
#
# Mechanical properties :
#
#
# Convention : Reuss Voigt Hill
#
# Bulk Modulus (GPa) = 12.53869 14.13000 13.33434
# Shear Modulus (GPa) = 23.21517 11.59367 17.40442
#
# Velocity S-wave (km/s) = 3.84569 2.71768 3.32980
# Velocity P-wave (km/s) = 5.26374 4.34158 4.82474
#
# Compressibility (1/GPa) = 0.07975316
#
# Stress axis : x y z
#
# Youngs Moduli (GPa) = 43.10463 19.37040 46.69980
#
# Poissons Ratio (x) = 0.00769 -0.28974
# Poissons Ratio (y) = 0.01712 0.65611
# Poissons Ratio (z) = -0.26743 0.27214
#
# Static dielectric constant tensor:
#      x y z
#    x 1.439550 0.000000 -0.009740 
#    y 0.000000 1.495480 0.000000 
#    z -0.009740 0.000000 1.517000 
# 
# From -- ./inp_files/253370.got.cif
#   From: 2010.05.17/outbox.cif.g08.bks.cpg/sg12_127_cif.got.tgz:253370.got - 2010.06.03 13:09:07.
