data_PCOD9177433
_publ_section_title
;
Structure prediction by ZEFSAII (Michael W. Deem and Ramdas Pophale) SiO2 
 PCOD9177433
Probable space group: C 2/M
;
_chemical_formula_sum "Si O2"
_cell_formula_units_Z 64
_cell_length_a 22.174073
_cell_length_b 9.135481
_cell_length_c 15.855640
_cell_angle_alpha 90.000000
_cell_angle_beta 62.328446
_cell_angle_gamma 90.000000
_cell_volume 2844.527865
_symmetry_space_group_name_H-M "C 2/M"
_symmetry_group_IT_number 12
_symmetry_cell_setting 'monoclinic'
loop_
_space_group_symop_operation_xyz
x,y,z
-x,y,-z
-x,-y,-z
x,-y,z
1/2+x,1/2+y,z
1/2-x,1/2+y,-z
1/2-x,1/2-y,-z
1/2+x,1/2-y,z
loop_
_atom_site_type_symbol
_atom_site_label
_atom_site_fract_x
_atom_site_fract_y
_atom_site_fract_z
Si Si1 0.434993 0.335192 0.104088
Si Si2 0.268855 0.837696 0.293019
Si Si3 0.418094 0.175673 0.683641
Si Si4 0.386656 0.334374 0.536393
Si Si5 0.821996 0.671794 0.434068
Si Si6 0.267899 0.170106 0.838999
Si Si7 0.481077 0.175527 0.814446
Si Si8 0.354382 0.171997 0.016490
O O1 0.406500 0.500000 0.131393
O O2 0.463164 0.268520 0.172245
O O3 0.388826 0.222639 0.081919
O O4 0.500000 0.347656 0.000000
O O5 0.192800 0.841990 0.382073
O O6 0.323525 0.818911 0.331739
O O7 0.265076 0.705747 0.230658
O O8 0.278637 0.000000 0.247330
O O9 0.424046 0.255140 0.590045
O O10 0.345526 0.219083 0.773446
O O11 0.472670 0.206847 0.720964
O O12 0.415905 0.000000 0.671194
O O13 0.411074 0.500000 0.508208
O O14 0.379682 0.245718 0.453710
O O15 0.817947 0.500000 0.458626
O O16 0.750000 0.750000 0.500000
O O17 0.218726 0.251435 0.935598
O O18 0.268956 0.000000 0.858349
O O19 0.492790 0.000000 0.817050
O O20 0.408922 0.209636 0.908308
O O21 0.345310 0.000000 0.018422
#
# Coordination Sequence:
#
# PCOD9177433 Si02
#       8
#     8   8   8   8   8   8   8   8
#     4   9  17  30  48  68  86 104 134 180 227 264
#     4   8  15  26  38  54  78 109 143 176 211 253
#     4   9  18  31  44  60  87 120 150 180 215 257
#     4   9  16  25  38  57  81 110 144 178 213 254
#     4   9  15  23  37  56  78 106 141 178 214 253
#     4  10  19  29  42  61  87 118 149 181 216 254
#     4   9  18  32  48  65  85 113 147 180 219 264
#     4  10  19  31  47  64  85 114 146 181 220 263
#
# _framework density 22.499341000000001
#
# number of rings (size 3 to 8) (size 9 to 14) (size 15 to 20)
#    0.000    2.875    0.000    2.625    0.000    7.000 
#    0.000    0.000    0.000    0.000    0.000    0.000 
#    0.000    1.000    0.000   10.500    0.000    7.500 
#
# Total GULP energy -178567.022451 kJ/mol
# GULP energy per Si atom -5580.219452 kJ/mol
# Density = 2.244813 g / cm^3
# Si number density = 22.499341 Si / 1000 Ang^3
#
#
#
# Elastic Constant Matrix: (Units=GPa)
#
#
# Indices 1 2 3 4 5 6 
#
# 1 54.4303 43.8259 64.1159 0.0000 21.6876 0.0000
# 2 43.8259 75.7532 26.1496 0.0000 18.0792 0.0000
# 3 64.1159 26.1496 47.0634 0.0000 26.8852 0.0000
# 4 0.0000 0.0000 0.0000 19.9275 0.0000 3.5810
# 5 21.6876 18.0792 26.8852 0.0000 62.4941 0.0000
# 6 0.0000 0.0000 0.0000 3.5810 0.0000 12.2536
#
#
#
# Elastic Compliance Matrix: (Units=1/GPa)
#
#
# Indices 1 2 3 4 5 6 
#
# 1 -0.025616 0.003861 0.037537 0.000000 -0.008376 0.000000
# 2 0.003861 0.015808 -0.014141 0.000000 0.000170 0.000000
# 3 0.037537 -0.014141 -0.022445 0.000000 0.000720 0.000000
# 4 0.000000 0.000000 0.000000 0.052963 0.000000 -0.015478
# 5 -0.008376 0.000170 0.000720 0.000000 0.018549 0.000000
# 6 0.000000 0.000000 0.000000 -0.015478 0.000000 0.086132
#
#
# Mechanical properties :
#
#
# Convention : Reuss Voigt Hill
#
# Bulk Modulus (GPa) = 44.91876 49.49217 47.20547
# Shear Modulus (GPa) = 63.86016 21.81208 42.83612
#
# Velocity S-wave (km/s) = 5.33336 3.11698 4.36808
# Velocity P-wave (km/s) = 7.61145 5.91600 6.81664
#
# Compressibility (1/GPa) = 0.02226241
#
# Stress axis : x y z
#
# Youngs Moduli (GPa) = -39.03749 63.26109 -44.55420
#
# Poissons Ratio (x) = -0.24427 1.67245
# Poissons Ratio (y) = 0.15074 -0.63003
# Poissons Ratio (z) = 1.46536 0.89456
#
# Static dielectric constant tensor:
#      x y z
#    x 1.865650 0.000000 -0.028920 
#    y 0.000000 1.793490 0.000000 
#    z -0.028920 0.000000 1.886430 
# 
# From -- ./inp_files/287565.got.cif
#   From: 2010.05.17/outbox.cif.g08.bks.cpg/sg12_144_cif.got.tgz:287565.got - 2010.06.03 13:09:07.
