data_PCOD9177067
_publ_section_title
;
Structure prediction by ZEFSAII (Michael W. Deem and Ramdas Pophale) SiO2 
 PCOD9177067
Probable space group: C 2/M
;
_chemical_formula_sum "Si O2"
_cell_formula_units_Z 64
_cell_length_a 19.595821
_cell_length_b 18.178460
_cell_length_c 25.355847
_cell_angle_alpha 90.000000
_cell_angle_beta 158.999649
_cell_angle_gamma 90.000000
_cell_volume 3236.940883
_symmetry_space_group_name_H-M "C 2/M"
_symmetry_group_IT_number 12
_symmetry_cell_setting 'monoclinic'
loop_
_space_group_symop_operation_xyz
x,y,z
-x,y,-z
-x,-y,-z
x,-y,z
1/2+x,1/2+y,z
1/2-x,1/2+y,-z
1/2-x,1/2-y,-z
1/2+x,1/2-y,z
loop_
_atom_site_type_symbol
_atom_site_label
_atom_site_fract_x
_atom_site_fract_y
_atom_site_fract_z
Si Si1 0.730219 0.916014 0.550627
Si Si2 0.591786 0.844830 0.009532
Si Si3 0.526330 0.084920 0.853899
Si Si4 0.518088 0.216030 0.598415
Si Si5 0.876035 0.269291 0.702130
Si Si6 0.455282 0.372523 0.135274
Si Si7 0.981612 0.816406 0.674014
Si Si8 0.954190 0.819826 0.907283
O O1 0.553173 0.864875 0.436903
O O2 0.885145 0.906251 0.710262
O O3 0.825531 0.879856 0.567730
O O4 0.682391 0.000000 0.509597
O O5 0.817920 0.855350 0.169766
O O6 0.500000 0.862907 0.000000
O O7 0.499875 0.889960 0.895591
O O8 0.568615 0.756974 0.985435
O O9 0.415245 0.145966 0.739931
O O10 0.474821 0.000000 0.808806
O O11 0.749306 0.097022 0.000999
O O12 0.338449 0.246491 0.435082
O O13 0.511207 0.273054 0.641830
O O14 0.735991 0.205513 0.740509
O O15 0.022212 0.215460 0.837974
O O16 0.914617 0.242681 0.669973
O O17 0.493619 0.377446 0.100620
O O18 0.000000 0.845947 0.000000
#
# Coordination Sequence:
#
# PCOD9177067 Si02
#       8
#     8   8   8   8   8   8   8   8
#     4  10  21  37  61  89 120 158 200 246 299 350
#     4  11  20  35  62  93 117 147 194 254 297 348
#     4  12  23  38  60  89 124 158 196 244 300 358
#     4  10  21  38  60  92 120 155 200 249 296 356
#     4  10  20  34  60  87 119 154 203 244 289 344
#     4  10  20  37  62  87 116 156 205 248 284 346
#     4  10  18  37  63  88 118 152 201 250 291 346
#     4  11  21  36  64  92 115 148 204 253 299 345
#
# _framework density 19.771756
#
# number of rings (size 3 to 8) (size 9 to 14) (size 15 to 20)
#    0.000    1.750    6.250    3.000    0.000    2.250 
#    0.000    4.375    0.000    3.375    0.000    0.000 
#    0.000    0.000    0.000    0.000    0.000    0.000 
#
# Total GULP energy -178407.397965 kJ/mol
# GULP energy per Si atom -5575.231186 kJ/mol
# Density = 1.972675 g / cm^3
# Si number density = 19.771756 Si / 1000 Ang^3
#
#
#
# Elastic Constant Matrix: (Units=GPa)
#
#
# Indices 1 2 3 4 5 6 
#
# 1 62.8387 -9.3322 -8.9834 -0.0055 -11.2153 -0.0009
# 2 -9.3322 93.2088 -11.2152 -0.0255 -21.8698 -0.0105
# 3 -8.9834 -11.2152 34.5936 -0.0076 2.3834 0.0003
# 4 -0.0055 -0.0255 -0.0076 13.5018 -0.0118 -2.0521
# 5 -11.2153 -21.8698 2.3834 -0.0118 6.8386 -0.0032
# 6 -0.0009 -0.0105 0.0003 -2.0521 -0.0032 11.9090
#
#
#
# Elastic Compliance Matrix: (Units=1/GPa)
#
#
# Indices 1 2 3 4 5 6 
#
# 1 -0.020951 -0.041872 -0.007605 -0.000256 -0.165618 -0.000127
# 2 -0.041872 -0.039990 -0.010549 -0.000289 -0.192882 -0.000139
# 3 -0.007605 -0.010549 0.027352 -0.000062 -0.055743 -0.000036
# 4 -0.000256 -0.000289 -0.000062 0.076054 -0.001185 0.013105
# 5 -0.165618 -0.192882 -0.055743 -0.001185 -0.722799 -0.000578
# 6 -0.000127 -0.000139 -0.000036 0.013105 -0.000578 0.086228
#
#
# Mechanical properties :
#
#
# Convention : Reuss Voigt Hill
#
# Bulk Modulus (GPa) = -6.50863 14.61993 4.05565
# Shear Modulus (GPa) = -9.51899 21.12802 5.80451
#
# Velocity S-wave (km/s) = -2.19656 3.27248 1.71526
# Velocity P-wave (km/s) = 3.11965 4.65717 2.44510
#
# Compressibility (1/GPa) = -0.15364207
#
# Stress axis : x y z
#
# Youngs Moduli (GPa) = -47.73031 -25.00647 36.55984
#
# Poissons Ratio (x) = -1.04708 0.27805
# Poissons Ratio (y) = -1.99857 0.38569
# Poissons Ratio (z) = -0.36300 -0.26380
#
# Static dielectric constant tensor:
#      x y z
#    x 1.761190 0.000000 -0.048510 
#    y 0.000000 1.669280 -0.000020 
#    z -0.048510 -0.000020 1.745080 
# 
# From -- ./inp_files/366824.got.cif
#   From: 2010.05.17/outbox.cif.g08.bks.cpg/sg12_184_cif.got.tgz:366824.got - 2010.06.03 13:09:07.
