data_PCOD9177133
_publ_section_title
;
Structure prediction by ZEFSAII (Michael W. Deem and Ramdas Pophale) SiO2 
 PCOD9177133
Probable space group: C 2/M
;
_chemical_formula_sum "Si O2"
_cell_formula_units_Z 36
_cell_length_a 11.117143
_cell_length_b 24.814100
_cell_length_c 6.841405
_cell_angle_alpha 90.000000
_cell_angle_beta 115.815251
_cell_angle_gamma 90.000000
_cell_volume 1698.937582
_symmetry_space_group_name_H-M "C 2/M"
_symmetry_group_IT_number 12
_symmetry_cell_setting 'monoclinic'
loop_
_space_group_symop_operation_xyz
x,y,z
-x,y,-z
-x,-y,-z
x,-y,z
1/2+x,1/2+y,z
1/2-x,1/2+y,-z
1/2-x,1/2-y,-z
1/2+x,1/2-y,z
loop_
_atom_site_type_symbol
_atom_site_label
_atom_site_fract_x
_atom_site_fract_y
_atom_site_fract_z
Si Si1 0.373595 0.438405 0.040976
Si Si2 0.139086 0.704652 0.881637
Si Si3 0.732174 0.641088 0.708575
Si Si4 0.343137 0.105001 0.384180
Si Si5 0.000000 0.774359 0.500000
O O1 0.396434 0.500000 0.119706
O O2 0.346720 0.398882 0.201944
O O3 0.500000 0.420508 0.000000
O O4 0.244633 0.434611 0.809403
O O5 0.174839 0.663221 0.733312
O O6 0.014846 0.737377 0.704244
O O7 0.250000 0.750000 0.000000
O O8 0.148216 0.668075 0.081205
O O9 0.787472 0.609961 0.562144
O O10 0.629214 0.687852 0.574976
O O11 0.500000 0.092415 0.500000
#
# Coordination Sequence:
#
# PCOD9177133 Si02
#       5
#     8   8   8   8   4
#     4  10  23  44  69  96 123 157 210 271 326 385
#     4   9  20  37  55  89 123 169 214 255 303 369
#     4  10  22  39  63  91 128 169 209 260 320 376
#     4  11  23  42  60  93 133 169 212 263 311 378
#     4  10  18  38  61  90 121 170 214 260 306 366
#
# _framework density 21.189710999999999
#
# number of rings (size 3 to 8) (size 9 to 14) (size 15 to 20)
#    0.000    2.000    1.111    1.333    0.000    8.444 
#    4.000    6.111    0.000    0.000    0.000    0.000 
#    0.000    0.000    0.000    0.000    0.000    0.000 
#
# Total GULP energy -100535.313271 kJ/mol
# GULP energy per Si atom -5585.295182 kJ/mol
# Density = 2.114148 g / cm^3
# Si number density = 21.189711 Si / 1000 Ang^3
#
#
#
# Elastic Constant Matrix: (Units=GPa)
#
#
# Indices 1 2 3 4 5 6 
#
# 1 92.5482 26.2179 30.6415 0.0000 0.4209 0.0000
# 2 26.2179 68.2701 24.0426 0.0000 -5.0041 0.0000
# 3 30.6415 24.0426 96.3311 0.0000 3.6654 0.0000
# 4 0.0000 0.0000 0.0000 11.1130 0.0000 7.1264
# 5 0.4209 -5.0041 3.6654 0.0000 33.5577 0.0000
# 6 0.0000 0.0000 0.0000 7.1264 0.0000 8.5129
#
#
#
# Elastic Compliance Matrix: (Units=1/GPa)
#
#
# Indices 1 2 3 4 5 6 
#
# 1 0.012948 -0.003900 -0.003130 0.000000 -0.000402 0.000000
# 2 -0.003900 0.017509 -0.003244 0.000000 0.003014 0.000000
# 3 -0.003130 -0.003244 0.012254 0.000000 -0.001783 0.000000
# 4 0.000000 0.000000 0.000000 0.194274 0.000000 -0.162630
# 5 -0.000402 0.003014 -0.001783 0.000000 0.030449 0.000000
# 6 0.000000 0.000000 0.000000 -0.162630 0.000000 0.253610
#
#
# Mechanical properties :
#
#
# Convention : Reuss Voigt Hill
#
# Bulk Modulus (GPa) = 45.11989 46.55036 45.83513
# Shear Modulus (GPa) = 9.10783 22.38655 15.74719
#
# Velocity S-wave (km/s) = 2.07547 3.25388 2.72904
# Velocity P-wave (km/s) = 5.20413 6.01108 5.62210
#
# Compressibility (1/GPa) = 0.02216318
#
# Stress axis : x y z
#
# Youngs Moduli (GPa) = 77.23179 57.11446 81.60600
#
# Poissons Ratio (x) = 0.22273 0.25543
# Poissons Ratio (y) = 0.30118 0.26474
# Poissons Ratio (z) = 0.24174 0.18529
#
# Static dielectric constant tensor:
#      x y z
#    x 1.785150 0.000000 0.013140 
#    y 0.000000 1.753130 0.000000 
#    z 0.013140 0.000000 1.771700 
# 
# From -- ./inp_files/7801.got.cif
#   From: 2010.05.17/outbox.cif.g08.bks.cpg/sg12_4_cif.got.tgz:7801.got - 2010.06.03 13:09:07.
