data_PCOD9177848
_publ_section_title
;
Structure prediction by ZEFSAII (Michael W. Deem and Ramdas Pophale) SiO2 
 PCOD9177848
Probable space group: C 2/M
;
_chemical_formula_sum "Si O2"
_cell_formula_units_Z 64
_cell_length_a 30.712194
_cell_length_b 7.558571
_cell_length_c 14.666031
_cell_angle_alpha 90.000000
_cell_angle_beta 93.417013
_cell_angle_gamma 90.000000
_cell_volume 3398.524075
_symmetry_space_group_name_H-M "C 2/M"
_symmetry_group_IT_number 12
_symmetry_cell_setting 'monoclinic'
loop_
_space_group_symop_operation_xyz
x,y,z
-x,y,-z
-x,-y,-z
x,-y,z
1/2+x,1/2+y,z
1/2-x,1/2+y,-z
1/2-x,1/2-y,-z
1/2+x,1/2-y,z
loop_
_atom_site_type_symbol
_atom_site_label
_atom_site_fract_x
_atom_site_fract_y
_atom_site_fract_z
Si Si1 0.299372 0.291286 0.981040
Si Si2 0.549302 0.293414 0.502268
Si Si3 0.903505 0.796597 0.665414
Si Si4 0.574138 0.786911 0.706412
Si Si5 0.141644 0.216589 0.169154
Si Si6 0.880716 0.288686 0.116734
Si Si7 0.441062 0.205312 0.968165
Si Si8 0.514365 0.784960 0.199195
O O1 0.302643 0.500000 0.975445
O O2 0.316661 0.224578 0.884701
O O3 0.250000 0.250000 0.000000
O O4 0.334529 0.238549 0.062384
O O5 0.500000 0.216885 0.500000
O O6 0.543609 0.500000 0.475881
O O7 0.580393 0.214777 0.427674
O O8 0.570520 0.283911 0.604260
O O9 0.866198 0.722101 0.728062
O O10 0.946723 0.789787 0.734176
O O11 0.890869 0.000000 0.645615
O O12 0.612826 0.727552 0.778799
O O13 0.530302 0.739236 0.756562
O O14 0.575140 0.000000 0.697490
O O15 0.100707 0.285248 0.105171
O O16 0.139366 0.000000 0.169750
O O17 0.887493 0.500000 0.119561
O O18 0.919430 0.215079 0.056303
O O19 0.479058 0.273966 0.905382
O O20 0.451121 0.000000 0.989456
O O21 0.517734 0.000000 0.199082
#
# Coordination Sequence:
#
# PCOD9177848 Si02
#       8
#     8   8   8   8   8   8   8   8
#     4  10  19  32  52  76  97 118 143 175 221 276
#     4  10  19  30  44  63  86 120 164 203 236 264
#     4   9  16  28  44  61  86 119 155 195 230 261
#     4  10  20  30  42  62  90 123 158 195 233 267
#     4   8  15  27  44  66  90 115 145 180 220 267
#     4   9  18  32  46  64  92 123 152 185 224 269
#     4   8  14  25  41  59  84 117 152 186 219 258
#     4   9  16  25  39  61  85 116 156 193 227 261
#
# _framework density 18.831704999999999
#
# number of rings (size 3 to 8) (size 9 to 14) (size 15 to 20)
#    0.000    2.875    1.250    0.375    0.000    2.250 
#    0.000    2.500    0.000    0.000    0.000   10.500 
#    0.000    0.000    0.000    0.000    0.000    0.000 
#
# Total GULP energy -178217.174488 kJ/mol
# GULP energy per Si atom -5569.286703 kJ/mol
# Density = 1.878884 g / cm^3
# Si number density = 18.831705 Si / 1000 Ang^3
#
#
#
# Elastic Constant Matrix: (Units=GPa)
#
#
# Indices 1 2 3 4 5 6 
#
# 1 88.7114 1.2261 55.5239 0.0000 -20.9955 0.0000
# 2 1.2261 45.9678 0.0748 0.0000 -3.7771 0.0000
# 3 55.5239 0.0748 154.6524 0.0000 -26.5052 0.0000
# 4 0.0000 0.0000 0.0000 14.4917 0.0000 5.3691
# 5 -20.9955 -3.7771 -26.5052 0.0000 24.7088 0.0000
# 6 0.0000 0.0000 0.0000 5.3691 0.0000 6.5672
#
#
#
# Elastic Compliance Matrix: (Units=1/GPa)
#
#
# Indices 1 2 3 4 5 6 
#
# 1 0.016071 0.000335 -0.004192 0.000000 0.009211 0.000000
# 2 0.000335 0.022099 0.000609 0.000000 0.004316 0.000000
# 3 -0.004192 0.000609 0.009038 0.000000 0.006226 0.000000
# 4 0.000000 0.000000 0.000000 0.098991 0.000000 -0.080932
# 5 0.009211 0.004316 0.006226 0.000000 0.055637 0.000000
# 6 0.000000 0.000000 0.000000 -0.080932 0.000000 0.218441
#
#
# Mechanical properties :
#
#
# Convention : Reuss Voigt Hill
#
# Bulk Modulus (GPa) = 24.56246 44.77569 34.66907
# Shear Modulus (GPa) = 11.35478 24.65398 18.00438
#
# Velocity S-wave (km/s) = 2.45819 3.62218 3.09539
# Velocity P-wave (km/s) = 4.59656 6.42821 5.58795
#
# Compressibility (1/GPa) = 0.04071254
#
# Stress axis : x y z
#
# Youngs Moduli (GPa) = 62.22269 45.25081 110.64679
#
# Poissons Ratio (x) = -0.01516 0.46378
# Poissons Ratio (y) = -0.02084 -0.06735
# Poissons Ratio (z) = 0.26081 -0.02754
#
# Static dielectric constant tensor:
#      x y z
#    x 1.630150 0.000000 -0.049750 
#    y 0.000000 4.141810 0.000000 
#    z -0.049750 0.000000 1.706410 
# 
# From -- ./inp_files/248449.got.cif
#   From: 2010.05.17/outbox.cif.g08.bks.cpg/sg12_125_cif.got.tgz:248449.got - 2010.06.03 13:09:07.
