data_PCOD9177003
_publ_section_title
;
Structure prediction by ZEFSAII (Michael W. Deem and Ramdas Pophale) SiO2 
 PCOD9177003
Probable space group: C 2/M
;
_chemical_formula_sum "Si O2"
_cell_formula_units_Z 64
_cell_length_a 19.575498
_cell_length_b 20.208689
_cell_length_c 19.036246
_cell_angle_alpha 90.000000
_cell_angle_beta 151.173028
_cell_angle_gamma 90.000000
_cell_volume 3631.022826
_symmetry_space_group_name_H-M "C 2/M"
_symmetry_group_IT_number 12
_symmetry_cell_setting 'monoclinic'
loop_
_space_group_symop_operation_xyz
x,y,z
-x,y,-z
-x,-y,-z
x,-y,z
1/2+x,1/2+y,z
1/2-x,1/2+y,-z
1/2-x,1/2-y,-z
1/2+x,1/2-y,z
loop_
_atom_site_type_symbol
_atom_site_label
_atom_site_fract_x
_atom_site_fract_y
_atom_site_fract_z
Si Si1 0.716335 0.692513 0.912147
Si Si2 0.342454 0.421376 0.033088
Si Si3 0.000392 0.302359 0.919216
Si Si4 0.436163 0.354139 0.867455
Si Si5 0.613602 0.833492 0.542528
Si Si6 0.353163 0.161578 0.653099
Si Si7 0.028259 0.577894 0.701568
Si Si8 0.915414 0.774098 0.601136
O O1 0.677713 0.625215 0.917676
O O2 0.580545 0.712946 0.744729
O O3 0.750000 0.750000 0.000000
O O4 0.850443 0.684568 0.983494
O O5 0.349786 0.500000 0.053500
O O6 0.480023 0.395800 0.115478
O O7 0.196508 0.408300 0.858132
O O8 0.974257 0.223415 0.893325
O O9 0.887876 0.336857 0.766279
O O10 0.000000 0.322856 0.000000
O O11 0.265918 0.357069 0.708379
O O12 0.500000 0.375385 0.000000
O O13 0.500000 0.816292 0.500000
O O14 0.541227 0.889070 0.428847
O O15 0.634149 0.771758 0.508061
O O16 0.446878 0.109192 0.695188
O O17 0.185342 0.162011 0.487444
O O18 0.397301 0.231748 0.656507
O O19 0.008879 0.500000 0.683644
#
# Coordination Sequence:
#
# PCOD9177003 Si02
#       8
#     8   8   8   8   8   8   8   8
#     4  12  20  36  60  85 116 157 196 246 303 346
#     4  11  23  39  59  85 117 157 202 245 295 356
#     4  11  22  35  60  89 117 149 193 243 300 358
#     4  11  23  37  57  86 123 160 192 242 296 354
#     4  11  23  37  56  86 122 155 194 240 295 356
#     4  10  18  37  52  82 114 142 187 243 289 343
#     4  10  22  38  59  80 110 156 199 239 287 350
#     4  10  21  31  57  82 113 151 188 238 293 346
#
# _framework density 17.625888
#
# number of rings (size 3 to 8) (size 9 to 14) (size 15 to 20)
#    0.000    1.250    5.000    1.500    7.000    1.000 
#    0.000    0.000    0.000    1.500    0.000    0.000 
#    0.000    3.000    0.000    0.000    0.000    0.000 
#
# Total GULP energy -178584.897085 kJ/mol
# GULP energy per Si atom -5580.778034 kJ/mol
# Density = 1.758577 g / cm^3
# Si number density = 17.625888 Si / 1000 Ang^3
#
#
#
# Elastic Constant Matrix: (Units=GPa)
#
#
# Indices 1 2 3 4 5 6 
#
# 1 110.2088 18.9054 29.1030 -0.0004 -2.0879 0.0003
# 2 18.9054 30.4549 10.9219 -0.0019 4.1841 -0.0007
# 3 29.1030 10.9219 99.3787 -0.0047 9.2416 -0.0019
# 4 -0.0004 -0.0019 -0.0047 15.2891 -0.0017 2.4888
# 5 -2.0879 4.1841 9.2416 -0.0017 33.7979 -0.0003
# 6 0.0003 -0.0007 -0.0019 2.4888 -0.0003 15.7926
#
#
#
# Elastic Compliance Matrix: (Units=1/GPa)
#
#
# Indices 1 2 3 4 5 6 
#
# 1 0.010874 -0.006073 -0.002719 -0.000001 0.002167 -0.000001
# 2 -0.006073 0.037934 -0.001969 0.000003 -0.004533 0.000001
# 3 -0.002719 -0.001969 0.011357 0.000003 -0.003030 0.000001
# 4 -0.000001 0.000003 0.000003 0.067128 0.000002 -0.010579
# 5 0.002167 -0.004533 -0.003030 0.000002 0.031111 0.000000
# 6 -0.000001 0.000001 0.000001 -0.010579 0.000000 0.064988
#
#
# Mechanical properties :
#
#
# Convention : Reuss Voigt Hill
#
# Bulk Modulus (GPa) = 25.87727 39.76700 32.82213
# Shear Modulus (GPa) = 19.39517 25.05004 22.22261
#
# Velocity S-wave (km/s) = 3.32080 3.77398 3.55462
# Velocity P-wave (km/s) = 5.42373 6.44990 5.95895
#
# Compressibility (1/GPa) = 0.03864396
#
# Stress axis : x y z
#
# Youngs Moduli (GPa) = 91.95846 26.36128 88.05295
#
# Poissons Ratio (x) = 0.16010 0.23938
# Poissons Ratio (y) = 0.55849 0.17337
# Poissons Ratio (z) = 0.25000 0.05190
#
# Static dielectric constant tensor:
#      x y z
#    x 1.603810 0.000000 0.008270 
#    y 0.000000 1.588030 0.000000 
#    z 0.008270 0.000000 1.649080 
# 
# From -- ./inp_files/279115.got.cif
#   From: 2010.05.17/outbox.cif.g08.bks.cpg/sg12_140_cif.got.tgz:279115.got - 2010.06.03 13:09:07.
