data_PCOD9177883
_publ_section_title
;
Structure prediction by ZEFSAII (Michael W. Deem and Ramdas Pophale) SiO2 
 PCOD9177883
Probable space group: C 2/M
;
_chemical_formula_sum "Si O2"
_cell_formula_units_Z 64
_cell_length_a 21.490871
_cell_length_b 25.640325
_cell_length_c 9.762756
_cell_angle_alpha 90.000000
_cell_angle_beta 130.639440
_cell_angle_gamma 90.000000
_cell_volume 4082.165019
_symmetry_space_group_name_H-M "C 2/M"
_symmetry_group_IT_number 12
_symmetry_cell_setting 'monoclinic'
loop_
_space_group_symop_operation_xyz
x,y,z
-x,y,-z
-x,-y,-z
x,-y,z
1/2+x,1/2+y,z
1/2-x,1/2+y,-z
1/2-x,1/2-y,-z
1/2+x,1/2-y,z
loop_
_atom_site_type_symbol
_atom_site_label
_atom_site_fract_x
_atom_site_fract_y
_atom_site_fract_z
Si Si1 0.164781 0.274913 0.172246
Si Si2 0.903761 0.333944 0.177038
Si Si3 0.748729 0.849026 0.511036
Si Si4 0.801995 0.701886 0.283977
Si Si5 0.866877 0.440454 0.741254
Si Si6 0.930098 0.815089 0.807875
Si Si7 0.032487 0.241157 0.408717
Si Si8 0.962638 0.440170 0.166381
O O1 0.218136 0.302475 0.367002
O O2 0.221255 0.237549 0.159491
O O3 0.100207 0.237129 0.154634
O O4 0.126218 0.318005 0.017839
O O5 0.833619 0.324080 0.189785
O O6 0.935141 0.393133 0.223823
O O7 0.976508 0.292671 0.310028
O O8 0.715677 0.837394 0.616487
O O9 0.705528 0.900400 0.391445
O O10 0.847184 0.847136 0.660162
O O11 0.875322 0.739499 0.437616
O O12 0.840587 0.500000 0.680973
O O13 0.944901 0.429976 0.754239
O O14 0.904690 0.437486 0.948308
O O15 0.970082 0.795719 0.724821
O O16 0.000000 0.841322 0.000000
O O17 0.000000 0.214645 0.500000
O O18 0.958329 0.500000 0.212160
#
# Coordination Sequence:
#
# PCOD9177883 Si02
#       8
#     8   8   8   8   8   8   8   8
#     4  11  19  30  50  68  95 135 164 201 237 296
#     4  11  20  29  48  69  99 138 158 199 244 287
#     4  11  19  33  52  68  98 129 165 207 245 291
#     4  10  20  32  41  70 102 130 166 195 236 289
#     4   9  18  32  52  75  97 124 167 211 241 284
#     4  11  20  32  47  71  94 127 166 202 241 292
#     4  10  19  30  44  65  99 131 158 193 233 288
#     4   9  18  31  49  76 101 128 169 206 236 282
#
# _framework density 15.677954
#
# number of rings (size 3 to 8) (size 9 to 14) (size 15 to 20)
#    0.000    1.750    5.000    2.625    0.000    0.000 
#    0.000    0.625    0.000    5.250    0.000    0.000 
#    0.000    0.500    0.000    0.000    0.000    0.000 
#
# Total GULP energy -178426.189153 kJ/mol
# GULP energy per Si atom -5575.818411 kJ/mol
# Density = 1.564227 g / cm^3
# Si number density = 15.677954 Si / 1000 Ang^3
#
#
#
# Elastic Constant Matrix: (Units=GPa)
#
#
# Indices 1 2 3 4 5 6 
#
# 1 80.2366 32.7115 20.9408 0.0000 -5.7097 0.0000
# 2 32.7115 68.4414 16.9219 0.0000 1.4742 0.0000
# 3 20.9408 16.9219 63.1414 0.0000 8.8849 0.0000
# 4 0.0000 0.0000 0.0000 22.4257 0.0000 1.6430
# 5 -5.7097 1.4742 8.8849 0.0000 24.6033 0.0000
# 6 0.0000 0.0000 0.0000 1.6430 0.0000 15.7426
#
#
#
# Elastic Compliance Matrix: (Units=1/GPa)
#
#
# Indices 1 2 3 4 5 6 
#
# 1 0.016987 -0.007118 -0.004573 0.000000 0.006020 0.000000
# 2 -0.007118 0.018639 -0.002365 0.000000 -0.001915 0.000000
# 3 -0.004573 -0.002365 0.019087 0.000000 -0.007813 0.000000
# 4 0.000000 0.000000 0.000000 0.044935 0.000000 -0.004690
# 5 0.006020 -0.001915 -0.007813 0.000000 0.044978 0.000000
# 6 0.000000 0.000000 0.000000 -0.004690 0.000000 0.064011
#
#
# Mechanical properties :
#
#
# Convention : Reuss Voigt Hill
#
# Bulk Modulus (GPa) = 37.59295 39.21865 38.40580
# Shear Modulus (GPa) = 20.35683 21.97066 21.16374
#
# Velocity S-wave (km/s) = 3.60729 3.74755 3.67809
# Velocity P-wave (km/s) = 6.43276 6.61778 6.52592
#
# Compressibility (1/GPa) = 0.02660073
#
# Stress axis : x y z
#
# Youngs Moduli (GPa) = 58.86856 53.65077 52.39049
#
# Poissons Ratio (x) = 0.38188 0.23960
# Poissons Ratio (y) = 0.41902 0.12392
# Poissons Ratio (z) = 0.26922 0.12690
#
# Static dielectric constant tensor:
#      x y z
#    x 1.527000 0.000000 -0.010580 
#    y 0.000000 1.508180 0.000000 
#    z -0.010580 0.000000 1.559680 
# 
# From -- ./inp_files/67016.got.cif
#   From: 2010.05.17/outbox.cif.g08.bks.cpg/sg12_34_cif.got.tgz:67016.got - 2010.06.03 13:09:07.
