data_PCOD9177866
_publ_section_title
;
Structure prediction by ZEFSAII (Michael W. Deem and Ramdas Pophale) SiO2 
 PCOD9177866
Probable space group: C 2/M
;
_chemical_formula_sum "Si O2"
_cell_formula_units_Z 56
_cell_length_a 28.992732
_cell_length_b 8.643769
_cell_length_c 14.418825
_cell_angle_alpha 90.000000
_cell_angle_beta 60.025365
_cell_angle_gamma 90.000000
_cell_volume 3130.139855
_symmetry_space_group_name_H-M "C 2/M"
_symmetry_group_IT_number 12
_symmetry_cell_setting 'monoclinic'
loop_
_space_group_symop_operation_xyz
x,y,z
-x,y,-z
-x,-y,-z
x,-y,z
1/2+x,1/2+y,z
1/2-x,1/2+y,-z
1/2-x,1/2-y,-z
1/2+x,1/2-y,z
loop_
_atom_site_type_symbol
_atom_site_label
_atom_site_fract_x
_atom_site_fract_y
_atom_site_fract_z
Si Si1 0.568234 0.815435 0.739782
Si Si2 0.829032 0.812779 0.868336
Si Si3 0.067352 0.811810 0.340833
Si Si4 0.445094 0.686464 0.439014
Si Si5 0.128211 0.313743 0.863242
Si Si6 0.220140 0.313618 0.893353
Si Si7 0.468021 0.674323 0.934638
O O1 0.582270 0.753203 0.624529
O O2 0.606671 0.759215 0.784864
O O3 0.508735 0.758070 0.825407
O O4 0.568684 0.000000 0.739416
O O5 0.886236 0.758756 0.774209
O O6 0.781627 0.767913 0.844498
O O7 0.830018 0.000000 0.873752
O O8 0.811030 0.746556 0.984868
O O9 0.077613 0.767465 0.437754
O O10 0.007358 0.763879 0.376473
O O11 0.067280 0.000000 0.338865
O O12 0.444048 0.500000 0.435078
O O13 0.126914 0.500000 0.862157
O O14 0.186585 0.262147 0.837449
O O15 0.086167 0.258885 0.983510
O O16 0.219046 0.500000 0.895922
O O17 0.457319 0.500000 0.912143
O O18 0.500000 0.666898 0.000000
#
# Coordination Sequence:
#
# PCOD9177866 Si02
#       7
#     8   8   8   8   8   8   8
#     4  10  19  30  44  64  93 125 153 184 226 275
#     4   9  17  31  50  70  91 118 154 192 232 273
#     4   8  16  31  50  69  90 118 150 191 236 274
#     4   9  17  31  49  69  92 118 153 190 229 276
#     4   9  18  31  44  62  93 127 153 183 226 274
#     4   9  18  31  47  69  94 121 154 188 225 273
#     4   9  17  28  42  62  87 118 155 188 219 261
#
# _framework density 17.890574000000001
#
# number of rings (size 3 to 8) (size 9 to 14) (size 15 to 20)
#    0.000    3.000    0.000    1.714    2.000    2.857 
#    0.000    2.143    0.000    0.857    0.000    0.000 
#    0.000    0.000    0.000    0.000    0.000    0.429 
#
# Total GULP energy -155990.895495 kJ/mol
# GULP energy per Si atom -5571.103411 kJ/mol
# Density = 1.784985 g / cm^3
# Si number density = 17.890574 Si / 1000 Ang^3
#
#
#
# Elastic Constant Matrix: (Units=GPa)
#
#
# Indices 1 2 3 4 5 6 
#
# 1 61.4747 3.5518 4.0187 0.0000 12.5600 0.0000
# 2 3.5518 5.7245 3.3650 0.0000 5.9737 0.0000
# 3 4.0187 3.3650 40.4373 0.0000 4.4605 0.0000
# 4 0.0000 0.0000 0.0000 16.9612 0.0000 1.8308
# 5 12.5600 5.9737 4.4605 0.0000 27.7402 0.0000
# 6 0.0000 0.0000 0.0000 1.8308 0.0000 11.7740
#
#
#
# Elastic Compliance Matrix: (Units=1/GPa)
#
#
# Indices 1 2 3 4 5 6 
#
# 1 0.017997 -0.003044 -0.000722 0.000000 -0.007377 0.000000
# 2 -0.003044 0.233477 -0.013981 0.000000 -0.046652 0.000000
# 3 -0.000722 -0.013981 0.026059 0.000000 -0.000853 0.000000
# 4 0.000000 0.000000 0.000000 0.059965 0.000000 -0.009324
# 5 -0.007377 -0.046652 -0.000853 0.000000 0.049572 0.000000
# 6 0.000000 0.000000 0.000000 -0.009324 0.000000 0.086383
#
#
# Mechanical properties :
#
#
# Convention : Reuss Voigt Hill
#
# Bulk Modulus (GPa) = 4.13153 14.38972 9.26063
# Shear Modulus (GPa) = 8.47996 17.74182 13.11089
#
# Velocity S-wave (km/s) = 2.17949 3.15252 2.71003
# Velocity P-wave (km/s) = 2.94074 4.61647 3.87039
#
# Compressibility (1/GPa) = 0.24204090
#
# Stress axis : x y z
#
# Youngs Moduli (GPa) = 55.56444 4.28307 38.37470
#
# Poissons Ratio (x) = 0.01304 0.02769
# Poissons Ratio (y) = 0.16915 0.53650
# Poissons Ratio (z) = 0.04009 0.05988
#
# Static dielectric constant tensor:
#      x y z
#    x 1.661240 0.000000 0.023660 
#    y 0.000000 1.611960 0.000000 
#    z 0.023660 0.000000 1.597500 
# 
# From -- ./inp_files/244284.got.cif
#   From: 2010.05.17/outbox.cif.g08.bks.cpg/sg12_123_cif.got.tgz:244284.got - 2010.06.03 13:09:07.
