data_PCOD9177810
_publ_section_title
;
Structure prediction by ZEFSAII (Michael W. Deem and Ramdas Pophale) SiO2 
 PCOD9177810
Probable space group: C 2/M
;
_chemical_formula_sum "Si O2"
_cell_formula_units_Z 56
_cell_length_a 30.016428
_cell_length_b 7.353832
_cell_length_c 13.983560
_cell_angle_alpha 90.000000
_cell_angle_beta 123.431295
_cell_angle_gamma 90.000000
_cell_volume 2575.972949
_symmetry_space_group_name_H-M "C 2/M"
_symmetry_group_IT_number 12
_symmetry_cell_setting 'monoclinic'
loop_
_space_group_symop_operation_xyz
x,y,z
-x,y,-z
-x,-y,-z
x,-y,z
1/2+x,1/2+y,z
1/2-x,1/2+y,-z
1/2-x,1/2-y,-z
1/2+x,1/2-y,z
loop_
_atom_site_type_symbol
_atom_site_label
_atom_site_fract_x
_atom_site_fract_y
_atom_site_fract_z
Si Si1 0.192024 0.289922 0.709821
Si Si2 0.092287 0.720950 0.066791
Si Si3 0.627555 0.777558 0.807148
Si Si4 0.697883 0.217535 0.502156
Si Si5 0.805486 0.719155 0.930021
Si Si6 0.473571 0.778650 0.195607
Si Si7 0.087575 0.722274 0.278978
O O1 0.176867 0.500000 0.677633
O O2 0.147221 0.211926 0.727531
O O3 0.201186 0.212053 0.614982
O O4 0.247407 0.285418 0.833400
O O5 0.090847 0.500000 0.065857
O O6 0.150753 0.773802 0.097583
O O7 0.082197 0.780765 0.162349
O O8 0.050343 0.777001 0.935944
O O9 0.569328 0.720705 0.775711
O O10 0.627849 0.000000 0.806887
O O11 0.670339 0.723065 0.939465
O O12 0.750000 0.250000 0.500000
O O13 0.643581 0.284112 0.388489
O O14 0.693748 0.000000 0.501947
O O15 0.803440 0.500000 0.928366
O O16 0.534806 0.721246 0.274209
O O17 0.473011 0.000000 0.195962
O O18 0.088212 0.500000 0.279288
#
# Coordination Sequence:
#
# PCOD9177810 Si02
#       7
#     8   8   8   8   8   8   8
#     4  10  19  30  43  62  91 121 146 178 221 260
#     4   8  13  21  37  62  87 108 135 178 224 257
#     4   8  15  27  42  63  91 117 142 178 222 263
#     4  10  21  34  47  65  89 117 148 182 218 257
#     4   9  16  27  45  67  89 116 149 180 213 258
#     4   8  13  22  38  61  87 112 137 172 221 265
#     4   9  15  24  39  60  86 113 143 178 214 255
#
# _framework density 21.739359
#
# number of rings (size 3 to 8) (size 9 to 14) (size 15 to 20)
#    0.000    3.143    0.000    3.429    0.000    3.429 
#    0.000    0.714    0.000    4.286    0.000    5.000 
#    0.000   17.143    0.000    0.000    0.000    0.000 
#
# Total GULP energy -156279.605611 kJ/mol
# GULP energy per Si atom -5581.414486 kJ/mol
# Density = 2.168988 g / cm^3
# Si number density = 21.739359 Si / 1000 Ang^3
#
#
#
# Elastic Constant Matrix: (Units=GPa)
#
#
# Indices 1 2 3 4 5 6 
#
# 1 220.1947 3.7473 116.3258 0.0000 -8.5602 0.0000
# 2 3.7473 79.6652 4.9152 0.0000 -4.1324 0.0000
# 3 116.3258 4.9152 82.5943 0.0000 -8.4437 0.0000
# 4 0.0000 0.0000 0.0000 1.2774 0.0000 4.7861
# 5 -8.5602 -4.1324 -8.4437 0.0000 38.4974 0.0000
# 6 0.0000 0.0000 0.0000 4.7861 0.0000 2.9688
#
#
#
# Elastic Compliance Matrix: (Units=1/GPa)
#
#
# Indices 1 2 3 4 5 6 
#
# 1 0.017869 0.000645 -0.025360 0.000000 -0.001520 0.000000
# 2 0.000645 0.012678 -0.001544 0.000000 0.001166 0.000000
# 3 -0.025360 -0.001544 0.048409 0.000000 0.004813 0.000000
# 4 0.000000 0.000000 0.000000 -0.155322 0.000000 0.250395
# 5 -0.001520 0.001166 0.004813 0.000000 0.026819 0.000000
# 6 0.000000 0.000000 0.000000 0.250395 0.000000 -0.066831
#
#
# Mechanical properties :
#
#
# Convention : Reuss Voigt Hill
#
# Bulk Modulus (GPa) = 37.82544 70.27010 54.04777
# Shear Modulus (GPa) = -90.82911 25.71313 -32.55799
#
# Velocity S-wave (km/s) = -6.47083 3.44290 -3.87415
# Velocity P-wave (km/s) = 6.19609 6.94254 2.21442
#
# Compressibility (1/GPa) = 0.02643723
#
# Stress axis : x y z
#
# Youngs Moduli (GPa) = 55.96326 78.87734 20.65743
#
# Poissons Ratio (x) = -0.05090 0.52388
# Poissons Ratio (y) = -0.03611 0.03190
# Poissons Ratio (z) = 1.41924 0.12180
#
# Static dielectric constant tensor:
#      x y z
#    x 1.791030 0.000000 -0.015630 
#    y 0.000000 1.875040 0.000000 
#    z -0.015630 0.000000 1.754520 
# 
# From -- ./inp_files/182215.got.cif
#   From: 2010.05.17/outbox.cif.g08.bks.cpg/sg12_92_cif.got.tgz:182215.got - 2010.06.03 13:09:07.
