data_PCOD9177455
_publ_section_title
;
Structure prediction by ZEFSAII (Michael W. Deem and Ramdas Pophale) SiO2 
 PCOD9177455
Probable space group: C 2/M
;
_chemical_formula_sum "Si O2"
_cell_formula_units_Z 56
_cell_length_a 28.793604
_cell_length_b 8.958460
_cell_length_c 14.271959
_cell_angle_alpha 90.000000
_cell_angle_beta 83.125579
_cell_angle_gamma 90.000000
_cell_volume 3654.933690
_symmetry_space_group_name_H-M "C 2/M"
_symmetry_group_IT_number 12
_symmetry_cell_setting 'monoclinic'
loop_
_space_group_symop_operation_xyz
x,y,z
-x,y,-z
-x,-y,-z
x,-y,z
1/2+x,1/2+y,z
1/2-x,1/2+y,-z
1/2-x,1/2-y,-z
1/2+x,1/2-y,z
loop_
_atom_site_type_symbol
_atom_site_label
_atom_site_fract_x
_atom_site_fract_y
_atom_site_fract_z
Si Si1 0.085703 0.679564 0.837160
Si Si2 0.762729 0.178992 0.596684
Si Si3 0.053101 0.827760 0.027674
Si Si4 0.663226 0.819435 0.669778
Si Si5 0.542578 0.819804 0.420697
Si Si6 0.483593 0.179420 0.783972
Si Si7 0.637258 0.320639 0.474925
O O1 0.085869 0.500000 0.845753
O O2 0.129383 0.725223 0.762609
O O3 0.037214 0.721643 0.796100
O O4 0.084036 0.749428 0.940743
O O5 0.750000 0.250000 0.500000
O O6 0.718146 0.218992 0.671506
O O7 0.816836 0.220611 0.598831
O O8 0.762132 0.000000 0.588438
O O9 0.049696 0.748109 0.128591
O O10 0.066022 0.000000 0.035084
O O11 0.000000 0.820200 0.000000
O O12 0.646324 0.745266 0.576750
O O13 0.659460 0.000000 0.660259
O O14 0.500000 0.779514 0.500000
O O15 0.529919 0.775572 0.317606
O O16 0.590278 0.746548 0.444072
O O17 0.547376 0.000000 0.422402
O O18 0.481147 0.000000 0.790418
O O19 0.634223 0.500000 0.481169
#
# Coordination Sequence:
#
# PCOD9177455 Si02
#       7
#     8   8   8   8   8   8   8
#     4   9  16  27  45  66  85 108 140 177 214 250
#     4   8  15  27  42  61  85 113 144 176 212 255
#     4   9  17  28  42  61  86 113 138 168 211 260
#     4   9  16  28  46  65  87 116 147 178 213 254
#     4  10  20  33  47  63  85 116 153 184 209 245
#     4   9  17  29  44  61  83 112 146 179 206 242
#     4  10  19  29  42  63  91 119 146 178 216 256
#
# _framework density 15.321754
#
# number of rings (size 3 to 8) (size 9 to 14) (size 15 to 20)
#    0.000    2.857    0.000    1.714    0.000    6.000 
#    0.000    2.857    0.000    0.000    0.000    1.000 
#    0.000    0.000    0.000    0.000    0.000    0.000 
#
# Total GULP energy -155872.579897 kJ/mol
# GULP energy per Si atom -5566.877853 kJ/mol
# Density = 1.528688 g / cm^3
# Si number density = 15.321754 Si / 1000 Ang^3
#
#
#
# Elastic Constant Matrix: (Units=GPa)
#
#
# Indices 1 2 3 4 5 6 
#
# 1 119.4575 31.9973 72.5002 0.0000 -24.4341 0.0000
# 2 31.9973 17.5807 35.9929 0.0000 -7.1177 0.0000
# 3 72.5002 35.9929 133.2412 0.0000 -23.6758 0.0000
# 4 0.0000 0.0000 0.0000 14.3631 0.0000 -1.5384
# 5 -24.4341 -7.1177 -23.6758 0.0000 26.8113 0.0000
# 6 0.0000 0.0000 0.0000 -1.5384 0.0000 14.3700
#
#
#
# Elastic Compliance Matrix: (Units=1/GPa)
#
#
# Indices 1 2 3 4 5 6 
#
# 1 0.017988 -0.027652 -0.000842 0.000000 0.008309 0.000000
# 2 -0.027652 0.170143 -0.032460 0.000000 -0.008696 0.000000
# 3 -0.000842 -0.032460 0.017868 0.000000 0.006394 0.000000
# 4 0.000000 0.000000 0.000000 0.070431 0.000000 0.007540
# 5 0.008309 -0.008696 0.006394 0.000000 0.048208 0.000000
# 6 0.000000 0.000000 0.000000 0.007540 0.000000 0.070396
#
#
# Mechanical properties :
#
#
# Convention : Reuss Voigt Hill
#
# Bulk Modulus (GPa) = 11.89178 61.25110 36.57144
# Shear Modulus (GPa) = 9.17476 19.76147 14.46812
#
# Velocity S-wave (km/s) = 2.44971 3.59523 3.07626
# Velocity P-wave (km/s) = 3.97236 7.56951 6.04472
#
# Compressibility (1/GPa) = 0.08409168
#
# Stress axis : x y z
#
# Youngs Moduli (GPa) = 55.59158 5.87740 55.96596
#
# Poissons Ratio (x) = 0.16252 0.04711
# Poissons Ratio (y) = 1.53720 1.81668
# Poissons Ratio (z) = 0.04680 0.19078
#
# Static dielectric constant tensor:
#      x y z
#    x 1.522040 0.000000 -0.027380 
#    y 0.000000 1.511090 0.000000 
#    z -0.027380 0.000000 1.492980 
# 
# From -- ./inp_files/247799.got.cif
#   From: 2010.05.17/outbox.cif.g08.bks.cpg/sg12_124_cif.got.tgz:247799.got - 2010.06.03 13:09:07.
