data_PCOD9177066
_publ_section_title
;
Structure prediction by ZEFSAII (Michael W. Deem and Ramdas Pophale) SiO2 
 PCOD9177066
Probable space group: C 2/M
;
_chemical_formula_sum "Si O2"
_cell_formula_units_Z 48
_cell_length_a 17.057498
_cell_length_b 31.940432
_cell_length_c 8.582488
_cell_angle_alpha 90.000000
_cell_angle_beta 33.890912
_cell_angle_gamma 90.000000
_cell_volume 2607.369372
_symmetry_space_group_name_H-M "C 2/M"
_symmetry_group_IT_number 12
_symmetry_cell_setting 'monoclinic'
loop_
_space_group_symop_operation_xyz
x,y,z
-x,y,-z
-x,-y,-z
x,-y,z
1/2+x,1/2+y,z
1/2-x,1/2+y,-z
1/2-x,1/2-y,-z
1/2+x,1/2-y,z
loop_
_atom_site_type_symbol
_atom_site_label
_atom_site_fract_x
_atom_site_fract_y
_atom_site_fract_z
Si Si1 0.387932 0.346525 0.823025
Si Si2 0.928762 0.500000 0.784533
Si Si3 0.126850 0.077146 0.914750
Si Si4 0.575643 0.164327 0.209084
Si Si5 0.554115 0.917428 0.734854
Si Si6 0.880470 0.000000 0.830224
Si Si7 0.905941 0.754544 0.808922
O O1 0.500000 0.354006 0.500000
O O2 0.415627 0.301290 0.859393
O O3 0.387251 0.381465 0.956309
O O4 0.237681 0.345089 0.982718
O O5 0.000000 0.500000 0.500000
O O6 0.980506 0.457883 0.781077
O O7 0.763570 0.500000 0.028958
O O8 0.278719 0.078114 0.576540
O O9 0.118239 0.039499 0.054466
O O10 0.000000 0.073839 0.000000
O O11 0.500000 0.167612 0.500000
O O12 0.502581 0.126032 0.243104
O O13 0.562824 0.210915 0.154750
O O14 0.500000 0.917355 0.000000
O O15 0.000000 0.000000 0.500000
O O16 0.000000 0.756299 0.500000
O O17 0.750000 0.750000 0.000000
#
# Coordination Sequence:
#
# PCOD9177066 Si02
#       7
#     8   4   8   8   8   4   8
#     4  10  20  36  61  90 119 158 203 251 302 354
#     4  12  23  46  70  90 117 150 210 256 288 350
#     4  12  26  43  60  89 131 161 195 248 307 364
#     4  10  18  37  63  86 118 157 209 255 293 351
#     4  12  26  41  63  91 123 164 200 248 305 356
#     4  12  27  44  70  96 117 158 202 247 300 358
#     4   8  16  30  56  88 114 149 200 256 299 340
#
# _framework density 18.409358999999998
#
# number of rings (size 3 to 8) (size 9 to 14) (size 15 to 20)
#    0.000    1.333    3.333    2.500    4.667    0.000 
#    0.000    0.833    0.000    2.000    0.000    0.000 
#    0.000    0.000    0.000    0.000    0.000    0.000 
#
# Total GULP energy -133798.013429 kJ/mol
# GULP energy per Si atom -5574.917226 kJ/mol
# Density = 1.836746 g / cm^3
# Si number density = 18.409359 Si / 1000 Ang^3
#
#
#
# Elastic Constant Matrix: (Units=GPa)
#
#
# Indices 1 2 3 4 5 6 
#
# 1 91.6080 76.9373 63.7688 0.0000 -8.3236 0.0000
# 2 76.9373 210.3594 55.2736 0.0000 6.8178 0.0000
# 3 63.7688 55.2736 184.7669 0.0000 -17.0829 0.0000
# 4 0.0000 0.0000 0.0000 20.0048 0.0000 -12.0883
# 5 -8.3236 6.8178 -17.0829 0.0000 37.1659 0.0000
# 6 0.0000 0.0000 0.0000 -12.0883 0.0000 -34.2370
#
#
#
# Elastic Compliance Matrix: (Units=1/GPa)
#
#
# Indices 1 2 3 4 5 6 
#
# 1 0.019494 -0.006026 -0.004616 0.000000 0.003350 0.000000
# 2 -0.006026 0.007130 -0.000312 0.000000 -0.002801 0.000000
# 3 -0.004616 -0.000312 0.007320 0.000000 0.002388 0.000000
# 4 0.000000 0.000000 0.000000 0.041198 0.000000 -0.014546
# 5 0.003350 -0.002801 0.002388 0.000000 0.029268 0.000000
# 6 0.000000 0.000000 0.000000 -0.014546 0.000000 -0.024072
#
#
# Mechanical properties :
#
#
# Convention : Reuss Voigt Hill
#
# Bulk Modulus (GPa) = 83.08070 97.63263 90.35667
# Shear Modulus (GPa) = 47.05547 23.97037 35.51292
#
# Velocity S-wave (km/s) = 5.06124 3.61234 4.39688
# Velocity P-wave (km/s) = 8.90968 8.39929 8.65825
#
# Compressibility (1/GPa) = 0.01203649
#
# Stress axis : x y z
#
# Youngs Moduli (GPa) = 51.29781 140.24368 136.62097
#
# Poissons Ratio (x) = 0.84504 0.63061
# Poissons Ratio (y) = 0.30910 0.04269
# Poissons Ratio (z) = 0.23678 0.04382
#
# Static dielectric constant tensor:
#      x y z
#    x 1.585590 0.000000 -0.010250 
#    y 0.000000 1.510840 0.000000 
#    z -0.010250 0.000000 1.639450 
# 
# From -- ./inp_files/80672.got.cif
#   From: 2010.05.17/outbox.cif.g08.bks.cpg/sg12_41_cif.got.tgz:80672.got - 2010.06.03 13:09:07.
