data_PCOD9177659
_publ_section_title
;
Structure prediction by ZEFSAII (Michael W. Deem and Ramdas Pophale) SiO2 
 PCOD9177659
Probable space group: C 2/M
;
_chemical_formula_sum "Si O2"
_cell_formula_units_Z 56
_cell_length_a 10.043784
_cell_length_b 25.235091
_cell_length_c 9.450412
_cell_angle_alpha 90.000000
_cell_angle_beta 60.001678
_cell_angle_gamma 90.000000
_cell_volume 2074.392610
_symmetry_space_group_name_H-M "C 2/M"
_symmetry_group_IT_number 12
_symmetry_cell_setting 'monoclinic'
loop_
_space_group_symop_operation_xyz
x,y,z
-x,y,-z
-x,-y,-z
x,-y,z
1/2+x,1/2+y,z
1/2-x,1/2+y,-z
1/2-x,1/2-y,-z
1/2+x,1/2-y,z
loop_
_atom_site_type_symbol
_atom_site_label
_atom_site_fract_x
_atom_site_fract_y
_atom_site_fract_z
Si Si1 0.798126 0.058225 0.378167
Si Si2 0.654885 0.939874 0.739887
Si Si3 0.752231 0.361573 0.804249
Si Si4 0.263952 0.805183 0.067847
Si Si5 0.419735 0.295960 0.332448
Si Si6 0.141644 0.938502 0.095438
Si Si7 0.363243 0.822603 0.321307
O O1 0.786170 0.054992 0.552526
O O2 0.693681 0.101971 0.354711
O O3 0.974890 0.069680 0.250975
O O4 0.754079 0.000000 0.346889
O O5 0.725724 0.928576 0.856823
O O6 0.585859 0.884975 0.713155
O O7 0.580276 0.000000 0.782908
O O8 0.668076 0.313724 0.765773
O O9 0.832552 0.336586 0.897941
O O10 0.658672 0.404320 0.946523
O O11 0.356375 0.807008 0.161262
O O12 0.090012 0.818533 0.213203
O O13 0.250000 0.750000 0.000000
O O14 0.431729 0.232145 0.353992
O O15 0.310276 0.320008 0.514199
O O16 0.153825 0.000000 0.051366
#
# Coordination Sequence:
#
# PCOD9177659 Si02
#       7
#     8   8   8   8   8   8   8
#     4  10  19  30  45  70 107 148 185 222 273 339
#     4  10  20  33  51  76 107 148 191 228 278 339
#     4  12  21  32  51  76 110 146 187 230 278 342
#     4  12  24  38  58  85 115 149 190 236 290 337
#     4  11  24  39  58  84 115 153 194 229 286 346
#     4  10  19  29  45  73 108 147 185 226 278 337
#     4  11  23  40  59  82 119 154 189 237 283 343
#
# _framework density 26.995854000000001
#
# number of rings (size 3 to 8) (size 9 to 14) (size 15 to 20)
#    0.000    1.143    4.286    3.857    0.000    4.000 
#    0.000    0.000    0.000    0.000    0.000    4.000 
#    0.000    4.857    0.000    0.000    0.000    0.000 
#
# Total GULP energy -156092.298331 kJ/mol
# GULP energy per Si atom -5574.724940 kJ/mol
# Density = 2.693441 g / cm^3
# Si number density = 26.995854 Si / 1000 Ang^3
#
#
#
# Elastic Constant Matrix: (Units=GPa)
#
#
# Indices 1 2 3 4 5 6 
#
# 1 54.3828 18.9108 31.1493 0.0000 2.9163 0.0000
# 2 18.9108 205.0823 20.9236 0.0000 -8.3239 0.0000
# 3 31.1493 20.9236 139.0896 0.0000 22.2205 0.0000
# 4 0.0000 0.0000 0.0000 46.5908 0.0000 3.8402
# 5 2.9163 -8.3239 22.2205 0.0000 36.8670 0.0000
# 6 0.0000 0.0000 0.0000 3.8402 0.0000 142.0081
#
#
#
# Elastic Compliance Matrix: (Units=1/GPa)
#
#
# Indices 1 2 3 4 5 6 
#
# 1 0.021571 -0.001472 -0.004740 0.000000 0.000818 0.000000
# 2 -0.001472 0.005155 -0.000720 0.000000 0.001714 0.000000
# 3 -0.004740 -0.000720 0.009213 0.000000 -0.005340 0.000000
# 4 0.000000 0.000000 0.000000 0.021511 0.000000 -0.000582
# 5 0.000818 0.001714 -0.005340 0.000000 0.030665 0.000000
# 6 0.000000 0.000000 0.000000 -0.000582 0.000000 0.007058
#
#
# Mechanical properties :
#
#
# Convention : Reuss Voigt Hill
#
# Bulk Modulus (GPa) = 45.30077 60.05801 52.67939
# Shear Modulus (GPa) = 42.95706 66.93126 54.94416
#
# Velocity S-wave (km/s) = 3.99337 4.98468 4.51630
# Velocity P-wave (km/s) = 6.17088 7.44478 6.83756
#
# Compressibility (1/GPa) = 0.02207468
#
# Stress axis : x y z
#
# Youngs Moduli (GPa) = 46.35784 193.99268 108.54771
#
# Poissons Ratio (x) = 0.28561 0.51453
# Poissons Ratio (y) = 0.06825 0.07811
# Poissons Ratio (z) = 0.21974 0.13959
#
# Static dielectric constant tensor:
#      x y z
#    x 2.320150 0.000000 -0.077310 
#    y 0.000000 2.269690 0.000000 
#    z -0.077310 0.000000 2.059440 
# 
# From -- ./inp_files/66850.got.cif
#   From: 2010.05.17/outbox.cif.g08.bks.cpg/sg12_34_cif.got.tgz:66850.got - 2010.06.03 13:09:07.
