data_PCOD9177647
_publ_section_title
;
Structure prediction by ZEFSAII (Michael W. Deem and Ramdas Pophale) SiO2 
 PCOD9177647
Probable space group: C 2/M
;
_chemical_formula_sum "Si O2"
_cell_formula_units_Z 56
_cell_length_a 20.242381
_cell_length_b 7.757618
_cell_length_c 21.969881
_cell_angle_alpha 90.000000
_cell_angle_beta 124.667513
_cell_angle_gamma 90.000000
_cell_volume 2837.500910
_symmetry_space_group_name_H-M "C 2/M"
_symmetry_group_IT_number 12
_symmetry_cell_setting 'monoclinic'
loop_
_space_group_symop_operation_xyz
x,y,z
-x,y,-z
-x,-y,-z
x,-y,z
1/2+x,1/2+y,z
1/2-x,1/2+y,-z
1/2-x,1/2-y,-z
1/2+x,1/2-y,z
loop_
_atom_site_type_symbol
_atom_site_label
_atom_site_fract_x
_atom_site_fract_y
_atom_site_fract_z
Si Si1 0.227578 0.297314 0.890922
Si Si2 0.714370 0.795246 0.288693
Si Si3 0.487647 0.709298 0.694696
Si Si4 0.348770 0.698985 0.273035
Si Si5 0.036978 0.294611 0.178067
Si Si6 0.873677 0.708905 0.043314
Si Si7 0.308778 0.294811 0.585522
O O1 0.212236 0.500000 0.874531
O O2 0.201172 0.204640 0.815926
O O3 0.173779 0.236247 0.920088
O O4 0.319582 0.270202 0.959036
O O5 0.791086 0.721315 0.293796
O O6 0.627586 0.723532 0.221655
O O7 0.718949 0.774509 0.363555
O O8 0.712654 0.000000 0.274634
O O9 0.490728 0.500000 0.696656
O O10 0.564220 0.775268 0.697463
O O11 0.490733 0.766428 0.766644
O O12 0.400808 0.765160 0.624203
O O13 0.363810 0.500000 0.298489
O O14 0.041850 0.500000 0.170831
O O15 0.965329 0.229565 0.097542
O O16 0.873142 0.500000 0.042130
O O17 0.311602 0.500000 0.592710
O O18 0.250000 0.250000 0.500000
#
# Coordination Sequence:
#
# PCOD9177647 Si02
#       7
#     8   8   8   8   8   8   8
#     4  10  19  29  45  70  98 131 169 212 254 290
#     4   9  19  34  54  77 102 132 163 200 247 297
#     4   9  18  31  51  76 100 128 164 201 241 291
#     4  10  19  33  51  74 103 133 164 201 249 300
#     4   9  16  30  50  72  96 126 169 212 248 290
#     4   9  17  29  45  68  96 128 169 214 254 291
#     4  10  20  36  57  80 103 130 162 199 240 287
#
# _framework density 19.735676000000002
#
# number of rings (size 3 to 8) (size 9 to 14) (size 15 to 20)
#    0.000    2.571    1.429    0.857    0.000    2.286 
#    0.000    1.429    0.000    8.571    0.000    0.000 
#    0.000    0.000    0.000    0.000    0.000    0.000 
#
# Total GULP energy -156133.447153 kJ/mol
# GULP energy per Si atom -5576.194541 kJ/mol
# Density = 1.969076 g / cm^3
# Si number density = 19.735676 Si / 1000 Ang^3
#
#
#
# Elastic Constant Matrix: (Units=GPa)
#
#
# Indices 1 2 3 4 5 6 
#
# 1 151.6163 1.8348 50.7729 0.0000 9.5751 0.0000
# 2 1.8348 29.2519 -10.1016 0.0000 0.0153 0.0000
# 3 50.7729 -10.1016 76.2323 0.0000 24.9032 0.0000
# 4 0.0000 0.0000 0.0000 20.5859 0.0000 -0.5431
# 5 9.5751 0.0153 24.9032 0.0000 23.9702 0.0000
# 6 0.0000 0.0000 0.0000 -0.5431 0.0000 10.8909
#
#
#
# Elastic Compliance Matrix: (Units=1/GPa)
#
#
# Indices 1 2 3 4 5 6 
#
# 1 0.009009 -0.003320 -0.007970 0.000000 0.004684 0.000000
# 2 -0.003320 0.037962 0.010318 0.000000 -0.009418 0.000000
# 3 -0.007970 0.010318 0.028391 0.000000 -0.026319 0.000000
# 4 0.000000 0.000000 0.000000 0.048641 0.000000 0.002426
# 5 0.004684 -0.009418 -0.026319 0.000000 0.067197 0.000000
# 6 0.000000 0.000000 0.000000 0.002426 0.000000 0.091941
#
#
# Mechanical properties :
#
#
# Convention : Reuss Voigt Hill
#
# Bulk Modulus (GPa) = 13.62062 38.01252 25.81657
# Shear Modulus (GPa) = 16.15206 25.39570 20.77388
#
# Velocity S-wave (km/s) = 2.86391 3.59108 3.24791
# Velocity P-wave (km/s) = 4.22522 6.04128 5.21294
#
# Compressibility (1/GPa) = 0.07341809
#
# Stress axis : x y z
#
# Youngs Moduli (GPa) = 110.99946 26.34206 35.22202
#
# Poissons Ratio (x) = 0.08745 0.28073
# Poissons Ratio (y) = 0.36851 -0.36342
# Poissons Ratio (z) = 0.88470 -0.27180
#
# Static dielectric constant tensor:
#      x y z
#    x 1.825540 0.000000 -0.260070 
#    y 0.000000 1.779630 0.000000 
#    z -0.260070 0.000000 2.738490 
# 
# From -- ./inp_files/281627.got.cif
#   From: 2010.05.17/outbox.cif.g08.bks.cpg/sg12_141_cif.got.tgz:281627.got - 2010.06.03 13:09:07.
