data_PCOD9177662
_publ_section_title
;
Structure prediction by ZEFSAII (Michael W. Deem and Ramdas Pophale) SiO2 
 PCOD9177662
Probable space group: C 2/M
;
_chemical_formula_sum "Si O2"
_cell_formula_units_Z 64
_cell_length_a 21.961552
_cell_length_b 20.835889
_cell_length_c 13.344818
_cell_angle_alpha 90.000000
_cell_angle_beta 29.902136
_cell_angle_gamma 90.000000
_cell_volume 3044.180185
_symmetry_space_group_name_H-M "C 2/M"
_symmetry_group_IT_number 12
_symmetry_cell_setting 'monoclinic'
loop_
_space_group_symop_operation_xyz
x,y,z
-x,y,-z
-x,-y,-z
x,-y,z
1/2+x,1/2+y,z
1/2-x,1/2+y,-z
1/2-x,1/2-y,-z
1/2+x,1/2-y,z
loop_
_atom_site_type_symbol
_atom_site_label
_atom_site_fract_x
_atom_site_fract_y
_atom_site_fract_z
Si Si1 0.349489 0.351219 0.486862
Si Si2 0.881802 0.075108 0.230802
Si Si3 0.449313 0.268362 0.857729
Si Si4 0.319037 0.793426 0.721980
Si Si5 0.600461 0.810773 0.778653
Si Si6 0.859259 0.140180 0.688556
Si Si7 0.628277 0.138173 0.146491
Si Si8 0.377347 0.117825 0.459328
O O1 0.367818 0.391968 0.359943
O O2 0.476077 0.313540 0.322372
O O3 0.233902 0.304026 0.634586
O O4 0.319301 0.384393 0.635181
O O5 0.753547 0.082842 0.353125
O O6 0.901814 0.000000 0.219878
O O7 0.000000 0.099551 0.000000
O O8 0.543763 0.252938 0.811819
O O9 0.406490 0.202120 0.868367
O O10 0.326927 0.298904 0.072220
O O11 0.352263 0.718934 0.694475
O O12 0.361456 0.837104 0.754620
O O13 0.366248 0.822278 0.551336
O O14 0.612078 0.859204 0.670085
O O15 0.500000 0.834539 0.000000
O O16 0.000000 0.120968 0.500000
O O17 0.759933 0.118672 0.913287
O O18 0.511948 0.091230 0.296537
#
# Coordination Sequence:
#
# PCOD9177662 Si02
#       8
#     8   8   8   8   8   8   8   8
#     4  11  20  33  53  74 102 140 184 225 273 326
#     4  10  23  42  61  80 101 129 174 235 294 339
#     4  10  19  29  45  75 108 146 185 215 253 309
#     4  11  19  31  49  77 117 154 185 215 251 306
#     4  10  20  31  44  69 109 145 176 216 258 311
#     4  11  20  32  51  80 117 153 185 213 251 312
#     4  10  20  32  49  77 118 154 181 213 251 308
#     4  10  20  34  54  76 102 139 181 221 266 319
#
# _framework density 21.023723
#
# number of rings (size 3 to 8) (size 9 to 14) (size 15 to 20)
#    0.000    1.625    0.000    9.000    0.000    3.500 
#    0.000    0.000    0.000   15.375    0.000    1.750 
#    0.000    0.000    0.000    0.000    0.000    0.000 
#
# Total GULP energy -178487.124380 kJ/mol
# GULP energy per Si atom -5577.722637 kJ/mol
# Density = 2.097587 g / cm^3
# Si number density = 21.023723 Si / 1000 Ang^3
#
#
#
# Elastic Constant Matrix: (Units=GPa)
#
#
# Indices 1 2 3 4 5 6 
#
# 1 78.0644 10.2777 47.8134 -0.0001 -0.1520 0.0001
# 2 10.2777 16.9425 9.8545 0.0000 -2.2520 0.0000
# 3 47.8134 9.8545 169.7470 -0.0001 -11.8636 0.0001
# 4 -0.0001 0.0000 -0.0001 12.2189 0.0001 1.3388
# 5 -0.1520 -2.2520 -11.8636 0.0001 45.1427 -0.0001
# 6 0.0001 0.0000 0.0001 1.3388 -0.0001 8.7167
#
#
#
# Elastic Compliance Matrix: (Units=1/GPa)
#
#
# Indices 1 2 3 4 5 6 
#
# 1 0.016444 -0.007674 -0.004288 0.000000 -0.001454 0.000000
# 2 -0.007674 0.064874 -0.001406 0.000000 0.002841 0.000000
# 3 -0.004288 -0.001406 0.007309 0.000000 0.001836 0.000000
# 4 0.000000 0.000000 0.000000 0.083241 0.000000 -0.012785
# 5 -0.001454 0.002841 0.001836 0.000000 0.022771 0.000000
# 6 0.000000 0.000000 0.000000 -0.012785 0.000000 0.116686
#
#
# Mechanical properties :
#
#
# Convention : Reuss Voigt Hill
#
# Bulk Modulus (GPa) = 16.15766 44.51613 30.33690
# Shear Modulus (GPa) = 13.93953 26.33621 20.13787
#
# Velocity S-wave (km/s) = 2.57775 3.54318 3.09830
# Velocity P-wave (km/s) = 4.06962 6.16109 5.22115
#
# Compressibility (1/GPa) = 0.06189014
#
# Stress axis : x y z
#
# Youngs Moduli (GPa) = 60.81326 15.41448 136.82004
#
# Poissons Ratio (x) = 0.11830 0.58667
# Poissons Ratio (y) = 0.46671 0.19237
# Poissons Ratio (z) = 0.26076 0.02167
#
# Static dielectric constant tensor:
#      x y z
#    x 1.817240 0.000000 -0.021950 
#    y 0.000000 1.746930 0.000000 
#    z -0.021950 0.000000 1.819390 
# 
# From -- ./inp_files/170600.got.cif
#   From: 2010.05.17/outbox.cif.g08.bks.cpg/sg12_86_cif.got.tgz:170600.got - 2010.06.03 13:09:07.
