data_PCOD9177189
_publ_section_title
;
Structure prediction by ZEFSAII (Michael W. Deem and Ramdas Pophale) SiO2 
 PCOD9177189
Probable space group: C 2/M
;
_chemical_formula_sum "Si O2"
_cell_formula_units_Z 48
_cell_length_a 14.752192
_cell_length_b 16.930661
_cell_length_c 18.771545
_cell_angle_alpha 90.000000
_cell_angle_beta 30.242846
_cell_angle_gamma 90.000000
_cell_volume 2361.419917
_symmetry_space_group_name_H-M "C 2/M"
_symmetry_group_IT_number 12
_symmetry_cell_setting 'monoclinic'
loop_
_space_group_symop_operation_xyz
x,y,z
-x,y,-z
-x,-y,-z
x,-y,z
1/2+x,1/2+y,z
1/2-x,1/2+y,-z
1/2-x,1/2-y,-z
1/2+x,1/2-y,z
loop_
_atom_site_type_symbol
_atom_site_label
_atom_site_fract_x
_atom_site_fract_y
_atom_site_fract_z
Si Si1 0.921647 0.707020 0.166505
Si Si2 0.725109 0.738831 0.150276
Si Si3 0.784000 0.088130 0.157574
Si Si4 0.313064 0.407163 0.592570
Si Si5 0.707763 0.146291 0.363830
Si Si6 0.839684 0.165325 0.421043
O O1 0.819875 0.712125 0.159738
O O2 0.857496 0.630926 0.252407
O O3 0.838429 0.779359 0.266408
O O4 0.130608 0.720002 0.008944
O O5 0.698375 0.833955 0.178587
O O6 0.545091 0.688955 0.265141
O O7 0.745508 0.093784 0.268556
O O8 0.731615 0.000000 0.167814
O O9 0.000000 0.097026 0.000000
O O10 0.500000 0.375521 0.500000
O O11 0.308770 0.500000 0.605749
O O12 0.320833 0.385193 0.504888
O O13 0.500000 0.170591 0.500000
O O14 0.748744 0.120236 0.416296
O O15 0.750000 0.250000 0.500000
#
# Coordination Sequence:
#
# PCOD9177189 Si02
#       6
#     8   8   8   8   8   8
#     4  10  18  39  61  92 123 160 208 248 309 379
#     4  10  20  37  65  94 119 163 214 255 306 379
#     4  10  20  38  61  89 126 165 204 255 316 370
#     4  11  23  41  65  94 130 167 207 263 318 367
#     4  11  22  39  63  89 122 167 211 255 309 369
#     4  12  23  38  65  95 123 164 216 261 305 378
#
# _framework density 20.326753
#
# number of rings (size 3 to 8) (size 9 to 14) (size 15 to 20)
#    0.000    1.333    6.667    2.500    0.000    1.667 
#    0.000    5.000    0.000    0.000    0.000    0.000 
#    0.000    0.000    0.000    0.000    0.000    0.000 
#
# Total GULP energy -134021.547451 kJ/mol
# GULP energy per Si atom -5584.231144 kJ/mol
# Density = 2.028049 g / cm^3
# Si number density = 20.326753 Si / 1000 Ang^3
#
#
#
# Elastic Constant Matrix: (Units=GPa)
#
#
# Indices 1 2 3 4 5 6 
#
# 1 80.6870 4.8371 34.9407 0.0032 14.5245 -0.0022
# 2 4.8371 87.3221 33.1808 -0.0202 8.0908 0.0012
# 3 34.9407 33.1808 128.9376 -0.0158 17.2786 -0.0006
# 4 0.0032 -0.0202 -0.0158 21.8371 0.0030 8.0074
# 5 14.5245 8.0908 17.2786 0.0030 21.3127 0.0025
# 6 -0.0022 0.0012 -0.0006 8.0074 0.0025 8.2296
#
#
#
# Elastic Compliance Matrix: (Units=1/GPa)
#
#
# Indices 1 2 3 4 5 6 
#
# 1 0.015232 0.001179 -0.003343 -0.000007 -0.008118 0.000013
# 2 0.001179 0.012898 -0.003225 0.000016 -0.003085 -0.000016
# 3 -0.003343 -0.003225 0.010122 0.000008 -0.004703 -0.000006
# 4 -0.000007 0.000016 0.000008 0.071195 -0.000009 -0.069273
# 5 -0.008118 -0.003085 -0.004703 -0.000009 0.057436 -0.000010
# 6 0.000013 -0.000016 -0.000006 -0.069273 -0.000010 0.188915
#
#
# Mechanical properties :
#
#
# Convention : Reuss Voigt Hill
#
# Bulk Modulus (GPa) = 36.40019 49.20712 42.80365
# Shear Modulus (GPa) = 13.30725 25.20842 19.25783
#
# Velocity S-wave (km/s) = 2.56142 3.52541 3.08135
# Velocity P-wave (km/s) = 5.16665 6.38999 5.81060
#
# Compressibility (1/GPa) = 0.02747238
#
# Stress axis : x y z
#
# Youngs Moduli (GPa) = 65.65170 77.53201 98.79568
#
# Poissons Ratio (x) = -0.09139 0.33029
# Poissons Ratio (y) = -0.07738 0.31863
# Poissons Ratio (z) = 0.21949 0.25005
#
# Static dielectric constant tensor:
#      x y z
#    x 1.794450 0.000000 0.015250 
#    y 0.000000 1.700250 0.000000 
#    z 0.015250 0.000000 1.735200 
# 
# From -- ./inp_files/271585.got.cif
#   From: 2010.05.17/outbox.cif.g08.bks.cpg/sg12_136_cif.got.tgz:271585.got - 2010.06.03 13:09:07.
