data_PCOD9177744
_publ_section_title
;
Structure prediction by ZEFSAII (Michael W. Deem and Ramdas Pophale) SiO2 
 PCOD9177744
Probable space group: C 2/M
;
_chemical_formula_sum "Si O2"
_cell_formula_units_Z 64
_cell_length_a 15.089232
_cell_length_b 14.222312
_cell_length_c 17.229823
_cell_angle_alpha 90.000000
_cell_angle_beta 108.423965
_cell_angle_gamma 90.000000
_cell_volume 3508.061121
_symmetry_space_group_name_H-M "C 2/M"
_symmetry_group_IT_number 12
_symmetry_cell_setting 'monoclinic'
loop_
_space_group_symop_operation_xyz
x,y,z
-x,y,-z
-x,-y,-z
x,-y,z
1/2+x,1/2+y,z
1/2-x,1/2+y,-z
1/2-x,1/2-y,-z
1/2+x,1/2-y,z
loop_
_atom_site_type_symbol
_atom_site_label
_atom_site_fract_x
_atom_site_fract_y
_atom_site_fract_z
Si Si1 0.286556 0.289588 0.773203
Si Si2 0.767246 0.608801 0.993360
Si Si3 0.217918 0.893788 0.699116
Si Si4 0.656250 0.243455 0.870113
Si Si5 0.607210 0.614675 0.514487
Si Si6 0.843128 0.107932 0.640577
Si Si7 0.046766 0.102621 0.773856
Si Si8 0.095160 0.109159 0.067339
O O1 0.291390 0.180126 0.752467
O O2 0.193562 0.300905 0.800312
O O3 0.283797 0.341909 0.690372
O O4 0.367980 0.331626 0.849650
O O5 0.786521 0.500000 0.978219
O O6 0.845729 0.664074 0.064503
O O7 0.677806 0.610162 0.026432
O O8 0.735460 0.678839 0.916323
O O9 0.174321 0.862791 0.604868
O O10 0.129587 0.895228 0.733363
O O11 0.253600 0.000000 0.702739
O O12 0.566283 0.307835 0.832700
O O13 0.500000 0.645706 0.500000
O O14 0.602909 0.500000 0.509061
O O15 0.648099 0.648418 0.443623
O O16 0.948934 0.107726 0.703318
O O17 0.811986 0.000000 0.625910
O O18 0.054605 0.000000 0.816041
O O19 0.083559 0.000000 0.088035
O O20 0.000000 0.140972 0.000000
#
# Coordination Sequence:
#
# PCOD9177744 Si02
#       8
#     8   8   8   8   8   8   8   8
#     4  10  20  31  44  72 106 132 158 199 245 301
#     4   9  17  30  48  67  88 123 165 200 239 292
#     4   9  17  31  50  70  98 136 166 196 238 285
#     4   9  18  30  44  67  97 127 159 197 241 294
#     4   9  15  28  49  75 104 127 158 202 246 291
#     4  10  19  29  48  77 103 126 155 202 254 295
#     4   9  16  27  47  73  95 121 158 198 244 290
#     4   9  18  31  48  73 103 128 153 199 259 302
#
# _framework density 18.243697000000001
#
# number of rings (size 3 to 8) (size 9 to 14) (size 15 to 20)
#    0.000    2.750    1.250    0.750    1.750    1.500 
#    0.000    0.000    0.000    1.125    0.000    0.000 
#    0.000    2.500    0.000    0.000    0.000    0.000 
#
# Total GULP energy -178301.809058 kJ/mol
# GULP energy per Si atom -5571.931533 kJ/mol
# Density = 1.820217 g / cm^3
# Si number density = 18.243697 Si / 1000 Ang^3
#
#
#
# Elastic Constant Matrix: (Units=GPa)
#
#
# Indices 1 2 3 4 5 6 
#
# 1 28.1825 10.2433 20.2604 0.0000 -11.9660 0.0000
# 2 10.2433 70.7325 30.8331 0.0000 1.8809 0.0000
# 3 20.2604 30.8331 86.6414 0.0000 -13.4642 0.0000
# 4 0.0000 0.0000 0.0000 26.9467 0.0000 -1.7745
# 5 -11.9660 1.8809 -13.4642 0.0000 29.0756 0.0000
# 6 0.0000 0.0000 0.0000 -1.7745 0.0000 -3.6457
#
#
#
# Elastic Compliance Matrix: (Units=1/GPa)
#
#
# Indices 1 2 3 4 5 6 
#
# 1 0.049762 -0.004465 -0.007349 0.000000 0.017365 0.000000
# 2 -0.004465 0.017609 -0.006126 0.000000 -0.005813 0.000000
# 3 -0.007349 -0.006126 0.016198 0.000000 0.004872 0.000000
# 4 0.000000 0.000000 0.000000 0.035958 0.000000 -0.017502
# 5 0.017365 -0.005813 0.004872 0.000000 0.044172 0.000000
# 6 0.000000 0.000000 0.000000 -0.017502 0.000000 -0.265774
#
#
# Mechanical properties :
#
#
# Convention : Reuss Voigt Hill
#
# Bulk Modulus (GPa) = 20.96896 34.24778 27.60837
# Shear Modulus (GPa) = -99.40493 18.75662 -40.32416
#
# Velocity S-wave (km/s) = -7.38956 3.20990 -4.70649
# Velocity P-wave (km/s) = 7.82871 5.70536 3.79062
#
# Compressibility (1/GPa) = 0.04768954
#
# Stress axis : x y z
#
# Youngs Moduli (GPa) = 20.09562 56.78814 61.73754
#
# Poissons Ratio (x) = 0.25354 0.45371
# Poissons Ratio (y) = 0.08972 0.37820
# Poissons Ratio (z) = 0.14768 0.34788
#
# Static dielectric constant tensor:
#      x y z
#    x 1.621270 0.000000 -0.028110 
#    y 0.000000 1.659210 0.000000 
#    z -0.028110 0.000000 1.670430 
# 
# From -- ./inp_files/277441.got.cif
#   From: 2010.05.17/outbox.cif.g08.bks.cpg/sg12_139_cif.got.tgz:277441.got - 2010.06.03 13:09:07.
