data_PCOD9177780
_publ_section_title
;
Structure prediction by ZEFSAII (Michael W. Deem and Ramdas Pophale) SiO2 
 PCOD9177780
Probable space group: C 2/M
;
_chemical_formula_sum "Si O2"
_cell_formula_units_Z 40
_cell_length_a 12.472955
_cell_length_b 30.234938
_cell_length_c 6.931917
_cell_angle_alpha 90.000000
_cell_angle_beta 36.420917
_cell_angle_gamma 90.000000
_cell_volume 1552.058632
_symmetry_space_group_name_H-M "C 2/M"
_symmetry_group_IT_number 12
_symmetry_cell_setting 'monoclinic'
loop_
_space_group_symop_operation_xyz
x,y,z
-x,y,-z
-x,-y,-z
x,-y,z
1/2+x,1/2+y,z
1/2-x,1/2+y,-z
1/2-x,1/2-y,-z
1/2+x,1/2-y,z
loop_
_atom_site_type_symbol
_atom_site_label
_atom_site_fract_x
_atom_site_fract_y
_atom_site_fract_z
Si Si1 0.210537 0.367920 0.748443
Si Si2 0.299576 0.101270 0.790463
Si Si3 0.048974 0.049263 0.656653
Si Si4 0.459532 0.717717 0.331823
Si Si5 0.166988 0.308092 0.407266
O O1 0.297545 0.413746 0.549915
O O2 0.323291 0.324289 0.518236
O O3 0.228832 0.374682 0.957841
O O4 0.000000 0.362329 0.000000
O O5 0.500000 0.080788 0.500000
O O6 0.299377 0.139439 0.629955
O O7 0.137261 0.067936 0.987020
O O8 0.000000 0.046675 0.500000
O O9 0.098355 0.000000 0.649669
O O10 0.500000 0.719090 0.500000
O O11 0.399271 0.767427 0.365419
O O12 0.643866 0.708452 0.953696
O O13 0.000000 0.309660 0.500000
#
# Coordination Sequence:
#
# PCOD9177780 Si02
#       5
#     8   8   8   8   8
#     4  11  22  37  55  83 120 150 182 234 287 334
#     4  10  20  36  61  84 110 145 193 236 273 332
#     4   9  18  37  63  86 108 145 193 235 275 336
#     4  11  18  33  55  79 107 150 196 227 266 333
#     4  10  19  29  58  82 105 141 198 231 268 317
#
# _framework density 25.772221999999999
#
# number of rings (size 3 to 8) (size 9 to 14) (size 15 to 20)
#    0.000    1.800    4.000    3.000    2.800    0.800 
#    0.000    2.000    0.000    1.200    0.000    0.000 
#    0.000    0.000    0.000    0.000    0.000    0.000 
#
# Total GULP energy -111882.159476 kJ/mol
# GULP energy per Si atom -5594.107974 kJ/mol
# Density = 2.571356 g / cm^3
# Si number density = 25.772222 Si / 1000 Ang^3
#
#
#
# Elastic Constant Matrix: (Units=GPa)
#
#
# Indices 1 2 3 4 5 6 
#
# 1 85.8568 51.6879 10.4754 0.0000 -10.1432 0.0000
# 2 51.6879 243.1225 100.0457 0.0000 -29.4469 0.0000
# 3 10.4754 100.0457 199.1089 0.0000 -18.3540 0.0000
# 4 0.0000 0.0000 0.0000 35.0782 0.0000 -4.5335
# 5 -10.1432 -29.4469 -18.3540 0.0000 41.1226 0.0000
# 6 0.0000 0.0000 0.0000 -4.5335 0.0000 39.1021
#
#
#
# Elastic Compliance Matrix: (Units=1/GPa)
#
#
# Indices 1 2 3 4 5 6 
#
# 1 0.013581 -0.003105 0.000990 0.000000 0.001568 0.000000
# 2 -0.003105 0.006190 -0.002721 0.000000 0.002452 0.000000
# 3 0.000990 -0.002721 0.006446 0.000000 0.001173 0.000000
# 4 0.000000 0.000000 0.000000 0.028941 0.000000 0.003355
# 5 0.001568 0.002452 0.001173 0.000000 0.026984 0.000000
# 6 0.000000 0.000000 0.000000 0.003355 0.000000 0.025963
#
#
# Mechanical properties :
#
#
# Convention : Reuss Voigt Hill
#
# Bulk Modulus (GPa) = 60.43980 94.72290 77.58135
# Shear Modulus (GPa) = 40.55459 47.45254 44.00357
#
# Velocity S-wave (km/s) = 3.97114 4.29561 4.13656
# Velocity P-wave (km/s) = 6.67301 7.83815 7.27893
#
# Compressibility (1/GPa) = 0.01654539
#
# Stress axis : x y z
#
# Youngs Moduli (GPa) = 73.63257 161.55437 155.14685
#
# Poissons Ratio (x) = 0.50159 -0.15361
# Poissons Ratio (y) = 0.22861 0.42213
# Poissons Ratio (z) = -0.07291 0.43956
#
# Static dielectric constant tensor:
#      x y z
#    x 1.597840 0.000000 0.056700 
#    y 0.000000 1.969250 0.000000 
#    z 0.056700 0.000000 2.037870 
# 
# From -- ./inp_files/41453.got.cif
#   From: 2010.05.17/outbox.cif.g08.bks.cpg/sg12_21_cif.got.tgz:41453.got - 2010.06.03 13:09:07.
