data_PCOD9177351
_publ_section_title
;
Structure prediction by ZEFSAII (Michael W. Deem and Ramdas Pophale) SiO2 
 PCOD9177351
Probable space group: C 2/M
;
_chemical_formula_sum "Si O2"
_cell_formula_units_Z 56
_cell_length_a 29.435967
_cell_length_b 9.134982
_cell_length_c 13.792962
_cell_angle_alpha 90.000000
_cell_angle_beta 78.219543
_cell_angle_gamma 90.000000
_cell_volume 3630.766531
_symmetry_space_group_name_H-M "C 2/M"
_symmetry_group_IT_number 12
_symmetry_cell_setting 'monoclinic'
loop_
_space_group_symop_operation_xyz
x,y,z
-x,y,-z
-x,-y,-z
x,-y,z
1/2+x,1/2+y,z
1/2-x,1/2+y,-z
1/2-x,1/2-y,-z
1/2+x,1/2-y,z
loop_
_atom_site_type_symbol
_atom_site_label
_atom_site_fract_x
_atom_site_fract_y
_atom_site_fract_z
Si Si1 0.390327 0.174077 0.135555
Si Si2 0.605757 0.829884 0.259863
Si Si3 0.304579 0.674104 0.082517
Si Si4 0.950339 0.668710 0.916593
Si Si5 0.966998 0.825603 0.216637
Si Si6 0.021144 0.824068 0.388621
Si Si7 0.302535 0.824723 0.874491
O O1 0.340972 0.248480 0.137180
O O2 0.419621 0.245392 0.209305
O O3 0.385764 0.000000 0.149018
O O4 0.420932 0.201113 0.024889
O O5 0.583083 0.820742 0.162222
O O6 0.571757 0.740497 0.343787
O O7 0.658711 0.780839 0.220697
O O8 0.605316 0.000000 0.289278
O O9 0.312680 0.500000 0.076267
O O10 0.250644 0.700075 0.132729
O O11 0.310497 0.741391 0.972213
O O12 0.967079 0.500000 0.914947
O O13 0.993612 0.772608 0.876335
O O14 0.987570 0.784231 0.313120
O O15 0.961481 0.000000 0.214523
O O16 0.000000 0.774870 0.500000
O O17 0.024391 0.000000 0.388136
O O18 0.308420 0.000000 0.889461
#
# Coordination Sequence:
#
# PCOD9177351 Si02
#       7
#     8   8   8   8   8   8   8
#     4  11  20  31  44  61  92 129 158 186 227 269
#     4   9  16  29  48  68  92 122 156 188 223 271
#     4  10  19  28  44  66  92 126 164 196 222 261
#     4   9  17  29  43  60  88 126 156 180 219 268
#     4  10  20  31  45  66  89 115 153 192 225 273
#     4   9  19  35  51  69  94 119 145 187 240 283
#     4   9  17  31  45  64  94 127 158 192 232 267
#
# _framework density 15.423741
#
# number of rings (size 3 to 8) (size 9 to 14) (size 15 to 20)
#    0.000    2.429    1.429    1.714    0.000    4.857 
#    0.000    0.000    0.000    0.000    0.000    1.000 
#    0.000    0.000    0.000    0.000    0.000    0.000 
#
# Total GULP energy -156114.716649 kJ/mol
# GULP energy per Si atom -5575.525595 kJ/mol
# Density = 1.538864 g / cm^3
# Si number density = 15.423741 Si / 1000 Ang^3
#
#
#
# Elastic Constant Matrix: (Units=GPa)
#
#
# Indices 1 2 3 4 5 6 
#
# 1 123.6668 57.1142 44.8781 0.0000 -13.8522 0.0000
# 2 57.1142 46.1667 31.0053 0.0000 -5.1163 0.0000
# 3 44.8781 31.0053 76.1515 0.0000 -16.1612 0.0000
# 4 0.0000 0.0000 0.0000 17.3891 0.0000 -2.9385
# 5 -13.8522 -5.1163 -16.1612 0.0000 16.0628 0.0000
# 6 0.0000 0.0000 0.0000 -2.9385 0.0000 26.7424
#
#
#
# Elastic Compliance Matrix: (Units=1/GPa)
#
#
# Indices 1 2 3 4 5 6 
#
# 1 0.020262 -0.023886 -0.000155 0.000000 0.009709 0.000000
# 2 -0.023886 0.058123 -0.012754 0.000000 -0.014918 0.000000
# 3 -0.000155 -0.012754 0.022284 0.000000 0.018224 0.000000
# 4 0.000000 0.000000 0.000000 0.058595 0.000000 0.006439
# 5 0.009709 -0.014918 0.018224 0.000000 0.084213 0.000000
# 6 0.000000 0.000000 0.000000 0.006439 0.000000 0.038101
#
#
# Mechanical properties :
#
#
# Convention : Reuss Voigt Hill
#
# Bulk Modulus (GPa) = 36.93063 56.88669 46.90866
# Shear Modulus (GPa) = 13.72893 19.57135 16.65014
#
# Velocity S-wave (km/s) = 2.98672 3.56604 3.28916
# Velocity P-wave (km/s) = 5.99082 7.34290 6.70105
#
# Compressibility (1/GPa) = 0.02707779
#
# Stress axis : x y z
#
# Youngs Moduli (GPa) = 49.35458 17.20477 44.87615
#
# Poissons Ratio (x) = 0.41096 0.00695
# Poissons Ratio (y) = 1.17889 0.57237
# Poissons Ratio (z) = 0.00764 0.21944
#
# Static dielectric constant tensor:
#      x y z
#    x 1.536290 0.000000 -0.002130 
#    y 0.000000 1.515830 0.000000 
#    z -0.002130 0.000000 1.492190 
# 
# From -- ./inp_files/247737.got.cif
#   From: 2010.05.17/outbox.cif.g08.bks.cpg/sg12_124_cif.got.tgz:247737.got - 2010.06.03 13:09:07.
