data_PCOD9177657
_publ_section_title
;
Structure prediction by ZEFSAII (Michael W. Deem and Ramdas Pophale) SiO2 
 PCOD9177657
Probable space group: C 2/M
;
_chemical_formula_sum "Si O2"
_cell_formula_units_Z 56
_cell_length_a 14.142338
_cell_length_b 18.791760
_cell_length_c 12.410837
_cell_angle_alpha 90.000000
_cell_angle_beta 73.771587
_cell_angle_gamma 90.000000
_cell_volume 3166.876935
_symmetry_space_group_name_H-M "C 2/M"
_symmetry_group_IT_number 12
_symmetry_cell_setting 'monoclinic'
loop_
_space_group_symop_operation_xyz
x,y,z
-x,y,-z
-x,-y,-z
x,-y,z
1/2+x,1/2+y,z
1/2-x,1/2+y,-z
1/2-x,1/2-y,-z
1/2+x,1/2-y,z
loop_
_atom_site_type_symbol
_atom_site_label
_atom_site_fract_x
_atom_site_fract_y
_atom_site_fract_z
Si Si1 0.387002 0.578876 0.075098
Si Si2 0.749411 0.920192 0.553083
Si Si3 0.204910 0.728346 0.629045
Si Si4 0.705141 0.709144 0.179039
Si Si5 0.613900 0.627510 0.678259
Si Si6 0.113505 0.235022 0.998111
Si Si7 0.599695 0.420287 0.301187
O O1 0.343628 0.500000 0.065985
O O2 0.384642 0.593500 0.203962
O O3 0.350035 0.653330 0.035866
O O4 0.500000 0.575807 0.000000
O O5 0.682704 0.855548 0.619964
O O6 0.795460 0.900996 0.422369
O O7 0.843274 0.920267 0.603882
O O8 0.707333 0.000000 0.567220
O O9 0.250000 0.750000 0.500000
O O10 0.283119 0.735750 0.701967
O O11 0.122592 0.786790 0.681512
O O12 0.814019 0.715646 0.094236
O O13 0.661461 0.630645 0.204396
O O14 0.633940 0.748735 0.117622
O O15 0.511076 0.607342 0.656292
O O16 0.000000 0.240489 0.000000
O O17 0.596466 0.500000 0.259240
#
# Coordination Sequence:
#
# PCOD9177657 Si02
#       7
#     8   8   8   8   8   8   8
#     4  10  19  29  45  73 104 136 171 211 265 324
#     4   9  18  31  48  74 107 143 180 222 272 327
#     4   9  19  33  50  75 112 142 183 222 266 330
#     4  10  20  34  52  75 106 145 178 224 265 319
#     4  11  18  30  49  74 112 143 175 216 277 332
#     4  10  20  34  52  74 104 143 186 222 266 320
#     4  10  19  30  49  78 108 136 172 220 277 329
#
# _framework density 17.683036000000001
#
# number of rings (size 3 to 8) (size 9 to 14) (size 15 to 20)
#    0.000    2.143    1.429    3.429    0.000    2.857 
#    0.000    0.000    0.000    0.429    0.000    1.000 
#    0.000   12.571    0.000    0.000    0.000    0.000 
#
# Total GULP energy -155872.193243 kJ/mol
# GULP energy per Si atom -5566.864044 kJ/mol
# Density = 1.764279 g / cm^3
# Si number density = 17.683036 Si / 1000 Ang^3
#
#
#
# Elastic Constant Matrix: (Units=GPa)
#
#
# Indices 1 2 3 4 5 6 
#
# 1 45.7891 9.0955 14.8703 0.0000 -0.5739 0.0000
# 2 9.0955 83.3997 4.4185 0.0000 -17.3424 0.0000
# 3 14.8703 4.4185 88.7797 0.0000 14.0910 0.0000
# 4 0.0000 0.0000 0.0000 2.6796 0.0000 5.0533
# 5 -0.5739 -17.3424 14.0910 0.0000 21.3488 0.0000
# 6 0.0000 0.0000 0.0000 5.0533 0.0000 18.1160
#
#
#
# Elastic Compliance Matrix: (Units=1/GPa)
#
#
# Indices 1 2 3 4 5 6 
#
# 1 0.023598 -0.001993 -0.004130 0.000000 0.001742 0.000000
# 2 -0.001993 0.015287 -0.002669 0.000000 0.014126 0.000000
# 3 -0.004130 -0.002669 0.013907 0.000000 -0.011458 0.000000
# 4 0.000000 0.000000 0.000000 0.787403 0.000000 -0.219639
# 5 0.001742 0.014126 -0.011458 0.000000 0.065926 0.000000
# 6 0.000000 0.000000 0.000000 -0.219639 0.000000 0.116466
#
#
# Mechanical properties :
#
#
# Convention : Reuss Voigt Hill
#
# Bulk Modulus (GPa) = 28.40218 30.52634 29.46426
# Shear Modulus (GPa) = 4.75328 21.06783 12.91056
#
# Velocity S-wave (km/s) = 1.64130 3.45543 2.70499
# Velocity P-wave (km/s) = 4.43718 5.76373 5.14340
#
# Compressibility (1/GPa) = 0.03520857
#
# Stress axis : x y z
#
# Youngs Moduli (GPa) = 42.37631 65.41699 71.90585
#
# Poissons Ratio (x) = 0.13035 0.29696
# Poissons Ratio (y) = 0.08444 0.19192
# Poissons Ratio (z) = 0.17501 0.17460
#
# Static dielectric constant tensor:
#      x y z
#    x 1.586420 0.000000 0.034450 
#    y 0.000000 1.671480 0.000000 
#    z 0.034450 0.000000 1.649820 
# 
# From -- ./inp_files/147044.got.cif
#   From: 2010.05.17/outbox.cif.g08.bks.cpg/sg12_74_cif.got.tgz:147044.got - 2010.06.03 13:09:07.
