data_PCOD9177541
_publ_section_title
;
Structure prediction by ZEFSAII (Michael W. Deem and Ramdas Pophale) SiO2 
 PCOD9177541
Probable space group: C 2/M
;
_chemical_formula_sum "Si O2"
_cell_formula_units_Z 44
_cell_length_a 7.658959
_cell_length_b 13.745719
_cell_length_c 18.647099
_cell_angle_alpha 90.000000
_cell_angle_beta 63.544948
_cell_angle_gamma 90.000000
_cell_volume 1757.556787
_symmetry_space_group_name_H-M "C 2/M"
_symmetry_group_IT_number 12
_symmetry_cell_setting 'monoclinic'
loop_
_space_group_symop_operation_xyz
x,y,z
-x,y,-z
-x,-y,-z
x,-y,z
1/2+x,1/2+y,z
1/2-x,1/2+y,-z
1/2-x,1/2-y,-z
1/2+x,1/2-y,z
loop_
_atom_site_type_symbol
_atom_site_label
_atom_site_fract_x
_atom_site_fract_y
_atom_site_fract_z
Si Si1 0.500000 0.335756 0.000000
Si Si2 0.789272 0.353411 0.066933
Si Si3 0.278478 0.381937 0.522213
Si Si4 0.858533 0.118898 0.352573
Si Si5 0.277171 0.885219 0.236510
Si Si6 0.951757 0.618224 0.697322
O O1 0.390099 0.383496 0.952172
O O2 0.672510 0.263425 0.941984
O O3 0.764165 0.377515 0.154040
O O4 0.000000 0.391081 0.000000
O O5 0.500000 0.354711 0.500000
O O6 0.272047 0.500000 0.524656
O O7 0.247221 0.351738 0.445488
O O8 0.119623 0.353335 0.609692
O O9 0.750764 0.149559 0.299920
O O10 0.080497 0.153222 0.309142
O O11 0.861073 0.000000 0.353877
O O12 0.473677 0.848637 0.238759
O O13 0.274491 0.000000 0.253184
O O14 0.938510 0.500000 0.700505
#
# Coordination Sequence:
#
# PCOD9177541 Si02
#       6
#     4   8   8   8   8   8
#     4   8  18  38  58  72  82 112 156 202 232 260
#     4   9  18  35  56  72  90 116 150 194 234 274
#     4   9  13  21  37  52  80 129 172 196 210 245
#     4   9  16  25  36  57  91 131 165 186 215 264
#     4  10  19  29  43  70 104 127 145 181 234 288
#     4   9  16  25  37  57  90 130 163 188 219 263
#
# _framework density 25.034752999999998
#
# number of rings (size 3 to 8) (size 9 to 14) (size 15 to 20)
#    0.545    2.364    1.818    0.545    0.000    4.000 
#    0.000    0.455    0.000    0.000    0.000    0.000 
#    0.000    5.818    0.000    0.000    0.000    0.000 
#
# Total GULP energy -122864.736824 kJ/mol
# GULP energy per Si atom -5584.760765 kJ/mol
# Density = 2.497777 g / cm^3
# Si number density = 25.034753 Si / 1000 Ang^3
#
#
#
# Elastic Constant Matrix: (Units=GPa)
#
#
# Indices 1 2 3 4 5 6 
#
# 1 130.8881 4.2403 56.4051 0.0000 53.9398 0.0000
# 2 4.2403 80.9963 -8.4894 0.0000 2.0936 0.0000
# 3 56.4051 -8.4894 94.6857 0.0000 29.2643 0.0000
# 4 0.0000 0.0000 0.0000 17.1028 0.0000 6.3145
# 5 53.9398 2.0936 29.2643 0.0000 51.6885 0.0000
# 6 0.0000 0.0000 0.0000 6.3145 0.0000 40.4819
#
#
#
# Elastic Compliance Matrix: (Units=1/GPa)
#
#
# Indices 1 2 3 4 5 6 
#
# 1 0.015224 -0.001004 -0.005165 0.000000 -0.012922 0.000000
# 2 -0.001004 0.012611 0.001894 0.000000 -0.000535 0.000000
# 3 -0.005165 0.001894 0.014746 0.000000 -0.003035 0.000000
# 4 0.000000 0.000000 0.000000 0.062043 0.000000 -0.009678
# 5 -0.012922 -0.000535 -0.003035 0.000000 0.034571 0.000000
# 6 0.000000 0.000000 0.000000 -0.009678 0.000000 0.026212
#
#
# Mechanical properties :
#
#
# Convention : Reuss Voigt Hill
#
# Bulk Modulus (GPa) = 29.38517 45.65356 37.51937
# Shear Modulus (GPa) = 26.98311 38.81560 32.89935
#
# Velocity S-wave (km/s) = 3.28659 3.94187 3.62905
# Velocity P-wave (km/s) = 5.11522 6.24447 5.70784
#
# Compressibility (1/GPa) = 0.03403078
#
# Stress axis : x y z
#
# Youngs Moduli (GPa) = 65.68718 79.29447 67.81394
#
# Poissons Ratio (x) = 0.07964 0.35028
# Poissons Ratio (y) = 0.06597 -0.12847
# Poissons Ratio (z) = 0.33929 -0.15022
#
# Static dielectric constant tensor:
#      x y z
#    x 1.988720 0.000000 0.072070 
#    y 0.000000 2.088970 0.000000 
#    z 0.072070 0.000000 1.927030 
# 
# From -- ./inp_files/197722.got.cif
#   From: 2010.05.17/outbox.cif.g08.bks.cpg/sg12_99_cif.got.tgz:197722.got - 2010.06.03 13:09:07.
