data_PCOD9177344
_publ_section_title
;
Structure prediction by ZEFSAII (Michael W. Deem and Ramdas Pophale) SiO2 
 PCOD9177344
Probable space group: C 2/M
;
_chemical_formula_sum "Si O2"
_cell_formula_units_Z 48
_cell_length_a 24.679343
_cell_length_b 7.636575
_cell_length_c 15.813962
_cell_angle_alpha 90.000000
_cell_angle_beta 63.608426
_cell_angle_gamma 90.000000
_cell_volume 2669.764052
_symmetry_space_group_name_H-M "C 2/M"
_symmetry_group_IT_number 12
_symmetry_cell_setting 'monoclinic'
loop_
_space_group_symop_operation_xyz
x,y,z
-x,y,-z
-x,-y,-z
x,-y,z
1/2+x,1/2+y,z
1/2-x,1/2+y,-z
1/2-x,1/2-y,-z
1/2+x,1/2-y,z
loop_
_atom_site_type_symbol
_atom_site_label
_atom_site_fract_x
_atom_site_fract_y
_atom_site_fract_z
Si Si1 0.179336 0.207993 0.532094
Si Si2 0.935526 0.297522 0.069183
Si Si3 0.204602 0.788269 0.148894
Si Si4 0.344746 0.205580 0.269174
Si Si5 0.207261 0.214743 0.333452
Si Si6 0.159654 0.792815 0.002800
O O1 0.250000 0.250000 0.500000
O O2 0.144685 0.278982 0.637821
O O3 0.170055 0.271528 0.442300
O O4 0.171423 0.000000 0.538843
O O5 0.948010 0.500000 0.084445
O O6 0.896804 0.217982 0.173445
O O7 0.891141 0.292829 0.019558
O O8 0.000000 0.216940 0.000000
O O9 0.185796 0.730429 0.255589
O O10 0.274228 0.736220 0.084138
O O11 0.203135 0.000000 0.148330
O O12 0.166238 0.726880 0.094707
O O13 0.277232 0.275073 0.296002
O O14 0.340848 0.000000 0.250760
O O15 0.207765 0.000000 0.335073
O O16 0.147565 0.000000 0.012610
#
# Coordination Sequence:
#
# PCOD9177344 Si02
#       6
#     8   8   8   8   8   8
#     4   9  16  25  39  61  87 115 144 175 215 261
#     4  10  20  34  50  63  83 122 161 187 221 273
#     4   9  16  29  46  63  90 124 149 173 216 275
#     4   9  16  28  43  60  84 114 147 183 221 260
#     4   8  13  24  42  61  84 116 144 170 208 261
#     4  10  19  28  43  68  92 115 146 188 228 258
#
# _framework density 17.979116000000001
#
# number of rings (size 3 to 8) (size 9 to 14) (size 15 to 20)
#    0.000    2.833    1.667    2.000    0.000    1.667 
#    0.000    0.833    0.000    0.000    0.000    1.167 
#    0.000    9.333    0.000    0.000    0.000    0.000 
#
# Total GULP energy -133626.168326 kJ/mol
# GULP energy per Si atom -5567.757014 kJ/mol
# Density = 1.793819 g / cm^3
# Si number density = 17.979116 Si / 1000 Ang^3
#
#
#
# Elastic Constant Matrix: (Units=GPa)
#
#
# Indices 1 2 3 4 5 6 
#
# 1 48.0982 -5.8743 55.2378 0.0000 0.2626 0.0000
# 2 -5.8743 33.8691 -4.9856 0.0000 -5.3581 0.0000
# 3 55.2378 -4.9856 161.9157 0.0000 21.1188 0.0000
# 4 0.0000 0.0000 0.0000 14.1191 0.0000 4.1001
# 5 0.2626 -5.3581 21.1188 0.0000 25.6585 0.0000
# 6 0.0000 0.0000 0.0000 4.1001 0.0000 9.5193
#
#
#
# Elastic Compliance Matrix: (Units=1/GPa)
#
#
# Indices 1 2 3 4 5 6 
#
# 1 0.038180 0.006529 -0.014508 0.000000 0.012914 0.000000
# 2 0.006529 0.031653 -0.002360 0.000000 0.008485 0.000000
# 3 -0.014508 -0.002360 0.012433 0.000000 -0.010577 0.000000
# 4 0.000000 0.000000 0.000000 0.080951 0.000000 -0.034866
# 5 0.012914 0.008485 -0.010577 0.000000 0.049319 0.000000
# 6 0.000000 0.000000 0.000000 -0.034866 0.000000 0.120067
#
#
# Mechanical properties :
#
#
# Convention : Reuss Voigt Hill
#
# Bulk Modulus (GPa) = 16.23697 36.95984 26.59841
# Shear Modulus (GPa) = 13.37583 23.15972 18.26777
#
# Velocity S-wave (km/s) = 2.73053 3.59297 3.19102
# Velocity P-wave (km/s) = 4.35795 6.14933 5.32945
#
# Compressibility (1/GPa) = 0.06158785
#
# Stress axis : x y z
#
# Youngs Moduli (GPa) = 26.19188 31.59265 80.43388
#
# Poissons Ratio (x) = -0.20628 1.16697
# Poissons Ratio (y) = -0.17101 0.18979
# Poissons Ratio (z) = 0.38000 0.07454
#
# Static dielectric constant tensor:
#      x y z
#    x 1.583700 0.000000 0.027480 
#    y 0.000000 1.659150 0.000000 
#    z 0.027480 0.000000 1.684050 
# 
# From -- ./inp_files/229927.got.cif
#   From: 2010.05.17/outbox.cif.g08.bks.cpg/sg12_115_cif.got.tgz:229927.got - 2010.06.03 13:09:07.
