data_PCOD9177949
_publ_section_title
;
Structure prediction by ZEFSAII (Michael W. Deem and Ramdas Pophale) SiO2 
 PCOD9177949
Probable space group: C 2/M
;
_chemical_formula_sum "Si O2"
_cell_formula_units_Z 64
_cell_length_a 29.022479
_cell_length_b 8.451598
_cell_length_c 15.114492
_cell_angle_alpha 90.000000
_cell_angle_beta 91.517867
_cell_angle_gamma 90.000000
_cell_volume 3706.077335
_symmetry_space_group_name_H-M "C 2/M"
_symmetry_group_IT_number 12
_symmetry_cell_setting 'monoclinic'
loop_
_space_group_symop_operation_xyz
x,y,z
-x,y,-z
-x,-y,-z
x,-y,z
1/2+x,1/2+y,z
1/2-x,1/2+y,-z
1/2-x,1/2-y,-z
1/2+x,1/2-y,z
loop_
_atom_site_type_symbol
_atom_site_label
_atom_site_fract_x
_atom_site_fract_y
_atom_site_fract_z
Si Si1 0.305307 0.189259 0.756953
Si Si2 0.918056 0.316572 0.178345
Si Si3 0.651694 0.181519 0.992147
Si Si4 0.893080 0.184338 0.839193
Si Si5 0.237617 0.190609 0.596358
Si Si6 0.991722 0.188730 0.899565
Si Si7 0.770818 0.186054 0.117461
Si Si8 0.166571 0.310130 0.721516
O O1 0.358046 0.238433 0.768137
O O2 0.277250 0.242485 0.668901
O O3 0.277352 0.244665 0.843483
O O4 0.302256 0.000000 0.758270
O O5 0.931330 0.500000 0.187999
O O6 0.882846 0.306213 0.093292
O O7 0.963459 0.221132 0.156730
O O8 0.886710 0.271237 0.261034
O O9 0.702516 0.224164 0.959103
O O10 0.651498 0.000000 0.023944
O O11 0.630968 0.290959 0.066648
O O12 0.944552 0.251985 0.854004
O O13 0.896091 0.000000 0.818122
O O14 0.250000 0.250000 0.500000
O O15 0.189831 0.263248 0.630606
O O16 0.234837 0.000000 0.597788
O O17 0.985299 0.000000 0.908037
O O18 0.000000 0.252142 0.000000
O O19 0.804137 0.213714 0.204215
O O20 0.768535 0.000000 0.096744
O O21 0.171847 0.500000 0.737531
#
# Coordination Sequence:
#
# PCOD9177949 Si02
#       8
#     8   8   8   8   8   8   8   8
#     4   9  20  36  50  69  98 129 160 198 242 292
#     4   9  18  30  47  70  95 129 169 210 252 291
#     4  10  19  30  45  66  92 126 168 210 250 291
#     4  11  22  33  47  67  92 129 171 210 253 294
#     4  10  20  35  57  83 107 133 161 193 241 295
#     4  10  20  33  47  67  95 128 171 220 260 293
#     4   9  17  30  47  66  92 127 166 203 244 291
#     4   9  17  30  48  75 105 130 162 201 243 294
#
# _framework density 17.268933000000001
#
# number of rings (size 3 to 8) (size 9 to 14) (size 15 to 20)
#    0.000    2.375    1.250    3.375    0.000    7.250 
#    0.000    0.000    0.000    0.000    0.000    0.875 
#    0.000    7.000    0.000    0.000    0.000    0.000 
#
# Total GULP energy -178416.867040 kJ/mol
# GULP energy per Si atom -5575.527095 kJ/mol
# Density = 1.722963 g / cm^3
# Si number density = 17.268933 Si / 1000 Ang^3
#
#
#
# Elastic Constant Matrix: (Units=GPa)
#
#
# Indices 1 2 3 4 5 6 
#
# 1 127.4378 12.7191 34.8823 0.0000 -3.3293 0.0000
# 2 12.7191 18.0625 6.0623 0.0000 3.0113 0.0000
# 3 34.8823 6.0623 77.7365 0.0000 -10.9887 0.0000
# 4 0.0000 0.0000 0.0000 21.8412 0.0000 -3.2170
# 5 -3.3293 3.0113 -10.9887 0.0000 19.1108 0.0000
# 6 0.0000 0.0000 0.0000 -3.2170 0.0000 26.2171
#
#
#
# Elastic Compliance Matrix: (Units=1/GPa)
#
#
# Indices 1 2 3 4 5 6 
#
# 1 0.009427 -0.005433 -0.003759 0.000000 0.000337 0.000000
# 2 -0.005433 0.062877 -0.004354 0.000000 -0.013358 0.000000
# 3 -0.003759 -0.004354 0.016212 0.000000 0.009353 0.000000
# 4 0.000000 0.000000 0.000000 0.046628 0.000000 0.005721
# 5 0.000337 -0.013358 0.009353 0.000000 0.059868 0.000000
# 6 0.000000 0.000000 0.000000 0.005721 0.000000 0.038845
#
#
# Mechanical properties :
#
#
# Convention : Reuss Voigt Hill
#
# Bulk Modulus (GPa) = 16.27991 36.72935 26.50463
# Shear Modulus (GPa) = 17.76685 24.73870 21.25277
#
# Velocity S-wave (km/s) = 3.21102 3.78902 3.51193
# Velocity P-wave (km/s) = 4.81615 6.36061 5.64149
#
# Compressibility (1/GPa) = 0.06142540
#
# Stress axis : x y z
#
# Youngs Moduli (GPa) = 106.08016 15.90406 61.68145
#
# Poissons Ratio (x) = 0.08640 0.23184
# Poissons Ratio (y) = 0.57630 0.26856
# Poissons Ratio (z) = 0.39873 0.06925
#
# Static dielectric constant tensor:
#      x y z
#    x 1.622480 0.000000 0.008520 
#    y 0.000000 1.592310 0.000000 
#    z 0.008520 0.000000 1.593780 
# 
# From -- ./inp_files/248407.got.cif
#   From: 2010.05.17/outbox.cif.g08.bks.cpg/sg12_125_cif.got.tgz:248407.got - 2010.06.03 13:09:07.
