data_PCOD9177857
_publ_section_title
;
Structure prediction by ZEFSAII (Michael W. Deem and Ramdas Pophale) SiO2 
 PCOD9177857
Probable space group: C 2/M
;
_chemical_formula_sum "Si O2"
_cell_formula_units_Z 64
_cell_length_a 20.652654
_cell_length_b 7.358970
_cell_length_c 26.058318
_cell_angle_alpha 90.000000
_cell_angle_beta 48.118093
_cell_angle_gamma 90.000000
_cell_volume 2948.608067
_symmetry_space_group_name_H-M "C 2/M"
_symmetry_group_IT_number 12
_symmetry_cell_setting 'monoclinic'
loop_
_space_group_symop_operation_xyz
x,y,z
-x,y,-z
-x,-y,-z
x,-y,z
1/2+x,1/2+y,z
1/2-x,1/2+y,-z
1/2-x,1/2-y,-z
1/2+x,1/2-y,z
loop_
_atom_site_type_symbol
_atom_site_label
_atom_site_fract_x
_atom_site_fract_y
_atom_site_fract_z
Si Si1 0.559163 0.784845 0.632090
Si Si2 0.444008 0.721156 0.108017
Si Si3 0.289726 0.216655 0.922876
Si Si4 0.764292 0.781016 0.399899
Si Si5 0.562134 0.778022 0.515225
Si Si6 0.614619 0.721110 0.974671
Si Si7 0.972461 0.722060 0.782138
Si Si8 0.646522 0.705413 0.748282
O O1 0.660162 0.761396 0.598013
O O2 0.537703 0.717124 0.586171
O O3 0.496388 0.720240 0.711308
O O4 0.546956 0.000000 0.635805
O O5 0.443344 0.500000 0.113251
O O6 0.416198 0.768342 0.065544
O O7 0.375157 0.791134 0.185567
O O8 0.545323 0.780127 0.054932
O O9 0.211493 0.287001 0.929652
O O10 0.382411 0.284867 0.854733
O O11 0.295939 0.000000 0.914045
O O12 0.250000 0.250000 0.000000
O O13 0.664328 0.723617 0.458626
O O14 0.796714 0.711654 0.327187
O O15 0.764081 0.000000 0.398566
O O16 0.500000 0.720939 0.500000
O O17 0.560328 0.000000 0.515130
O O18 0.614689 0.500000 0.977221
O O19 0.976776 0.500000 0.781381
O O20 0.050599 0.797472 0.774651
O O21 0.679959 0.500000 0.738801
#
# Coordination Sequence:
#
# PCOD9177857 Si02
#       8
#     8   8   8   8   8   8   8   8
#     4   9  17  31  50  68  91 127 161 190 230 279
#     4   8  13  23  39  59  82 106 136 174 218 259
#     4  10  19  30  44  64  89 116 148 184 223 265
#     4   9  17  29  47  72  95 117 156 199 231 271
#     4   9  17  30  47  70  99 127 154 190 237 283
#     4   8  14  24  38  57  81 108 137 173 215 260
#     4   9  18  30  43  65  92 117 149 184 221 268
#     4   9  16  27  45  68  88 111 146 187 227 263
#
# _framework density 21.705158000000001
#
# number of rings (size 3 to 8) (size 9 to 14) (size 15 to 20)
#    0.000    3.125    0.000    1.875    0.000    1.500 
#    2.250    0.000    0.000    2.250    0.000    3.500 
#    0.000    0.000    0.000    0.000    0.000    0.000 
#
# Total GULP energy -178190.414250 kJ/mol
# GULP energy per Si atom -5568.450445 kJ/mol
# Density = 2.165576 g / cm^3
# Si number density = 21.705158 Si / 1000 Ang^3
#
#
#
# Elastic Constant Matrix: (Units=GPa)
#
#
# Indices 1 2 3 4 5 6 
#
# 1 80.9645 -5.8107 62.3468 -0.0031 13.3201 -0.0015
# 2 -5.8107 82.8337 -2.0236 -0.0229 0.8793 -0.0279
# 3 62.3468 -2.0236 123.7651 -0.0026 7.8020 -0.0002
# 4 -0.0031 -0.0229 -0.0026 2.4254 -0.0011 -1.3613
# 5 13.3201 0.8793 7.8020 -0.0011 36.8146 -0.0011
# 6 -0.0015 -0.0279 -0.0002 -1.3613 -0.0011 10.0014
#
#
#
# Elastic Compliance Matrix: (Units=1/GPa)
#
#
# Indices 1 2 3 4 5 6 
#
# 1 0.021358 0.001303 -0.010387 0.000031 -0.005557 0.000010
# 2 0.001303 0.012161 -0.000415 0.000146 -0.000674 0.000054
# 3 -0.010387 -0.000415 0.013245 -0.000004 0.000961 -0.000003
# 4 0.000031 0.000146 -0.000004 0.446405 0.000001 0.060760
# 5 -0.005557 -0.000674 0.000961 0.000001 0.028986 0.000001
# 6 0.000010 0.000054 -0.000003 0.060760 0.000001 0.108256
#
#
# Mechanical properties :
#
#
# Convention : Reuss Voigt Hill
#
# Bulk Modulus (GPa) = 36.01611 44.06536 40.04073
# Shear Modulus (GPa) = 7.59112 25.38500 16.48806
#
# Velocity S-wave (km/s) = 1.87216 3.42356 2.75914
# Velocity P-wave (km/s) = 4.61548 5.99780 5.35146
#
# Compressibility (1/GPa) = 0.02776535
#
# Stress axis : x y z
#
# Youngs Moduli (GPa) = 46.82155 82.23083 75.49988
#
# Poissons Ratio (x) = -0.10719 0.78424
# Poissons Ratio (y) = -0.06103 0.03135
# Poissons Ratio (z) = 0.48635 0.03415
#
# Static dielectric constant tensor:
#      x y z
#    x 1.805990 0.000000 0.024180 
#    y 0.000000 1.888920 0.000000 
#    z 0.024180 0.000000 1.861660 
# 
# From -- ./inp_files/365719.got.cif
#   From: 2010.05.17/outbox.cif.g08.bks.cpg/sg12_183_cif.got.tgz:365719.got - 2010.06.03 13:09:07.
