data_PCOD9177847
_publ_section_title
;
Structure prediction by ZEFSAII (Michael W. Deem and Ramdas Pophale) SiO2 
 PCOD9177847
Probable space group: C 2/M
;
_chemical_formula_sum "Si O2"
_cell_formula_units_Z 64
_cell_length_a 30.497592
_cell_length_b 7.515917
_cell_length_c 14.655276
_cell_angle_alpha 90.000000
_cell_angle_beta 94.339299
_cell_angle_gamma 90.000000
_cell_volume 3349.614455
_symmetry_space_group_name_H-M "C 2/M"
_symmetry_group_IT_number 12
_symmetry_cell_setting 'monoclinic'
loop_
_space_group_symop_operation_xyz
x,y,z
-x,y,-z
-x,-y,-z
x,-y,z
1/2+x,1/2+y,z
1/2-x,1/2+y,-z
1/2-x,1/2-y,-z
1/2+x,1/2-y,z
loop_
_atom_site_type_symbol
_atom_site_label
_atom_site_fract_x
_atom_site_fract_y
_atom_site_fract_z
Si Si1 0.455279 0.792660 0.032868
Si Si2 0.372989 0.288836 0.896262
Si Si3 0.691984 0.293726 0.969228
Si Si4 0.842924 0.291946 0.334385
Si Si5 0.108635 0.717649 0.827175
Si Si6 0.697624 0.785751 0.486310
Si Si7 0.760052 0.783724 0.192939
Si Si8 0.173693 0.713473 0.283139
O O1 0.434146 0.721254 0.123592
O O2 0.464424 0.000000 0.053253
O O3 0.500000 0.712299 0.000000
O O4 0.416619 0.782750 0.951280
O O5 0.373280 0.500000 0.911578
O O6 0.367323 0.255570 0.788231
O O7 0.329804 0.212593 0.943183
O O8 0.701453 0.500000 0.986626
O O9 0.649803 0.281834 0.894225
O O10 0.730414 0.220714 0.909188
O O11 0.852610 0.500000 0.350557
O O12 0.881850 0.222121 0.274837
O O13 0.828619 0.214945 0.429639
O O14 0.799694 0.275701 0.264330
O O15 0.109762 0.500000 0.828746
O O16 0.750000 0.750000 0.500000
O O17 0.677692 0.721058 0.387203
O O18 0.693881 0.000000 0.487315
O O19 0.716011 0.718613 0.233893
O O20 0.760127 0.000000 0.191097
O O21 0.177070 0.500000 0.287881
#
# Coordination Sequence:
#
# PCOD9177847 Si02
#       8
#     8   8   8   8   8   8   8   8
#     4   9  17  31  52  74  94 116 140 169 214 275
#     4  10  20  32  45  64  90 118 147 183 221 260
#     4   8  15  27  41  58  83 114 148 181 214 254
#     4   9  16  26  42  63  88 115 147 189 226 255
#     4   8  14  25  42  66  91 113 139 173 215 262
#     4  10  19  30  44  63  86 117 157 196 230 258
#     4   9  16  27  42  59  82 116 153 186 220 257
#     4  10  20  31  42  59  86 120 155 189 224 260
#
# _framework density 19.106676
#
# number of rings (size 3 to 8) (size 9 to 14) (size 15 to 20)
#    0.000    2.875    1.250    0.375    0.000    2.250 
#    0.000    0.000    0.000    0.000    0.000    0.875 
#    0.000    7.000    0.000    0.000    0.000    0.000 
#
# Total GULP energy -178306.922122 kJ/mol
# GULP energy per Si atom -5572.091316 kJ/mol
# Density = 1.906319 g / cm^3
# Si number density = 19.106676 Si / 1000 Ang^3
#
#
#
# Elastic Constant Matrix: (Units=GPa)
#
#
# Indices 1 2 3 4 5 6 
#
# 1 98.4658 4.5686 55.0322 0.0000 -31.5070 0.0000
# 2 4.5686 62.1430 0.1375 0.0000 -6.7579 0.0000
# 3 55.0322 0.1375 161.4010 0.0000 -33.9761 0.0000
# 4 0.0000 0.0000 0.0000 -122.7732 0.0000 -14.9903
# 5 -31.5070 -6.7579 -33.9761 0.0000 26.8595 0.0000
# 6 0.0000 0.0000 0.0000 -14.9903 0.0000 5.1587
#
#
#
# Elastic Compliance Matrix: (Units=1/GPa)
#
#
# Indices 1 2 3 4 5 6 
#
# 1 0.016814 0.000641 -0.002109 0.000000 0.017216 0.000000
# 2 0.000641 0.016734 0.001106 0.000000 0.006362 0.000000
# 3 -0.002109 0.001106 0.008793 0.000000 0.008927 0.000000
# 4 0.000000 0.000000 0.000000 -0.006012 0.000000 -0.017470
# 5 0.017216 0.006362 0.008927 0.000000 0.070318 0.000000
# 6 0.000000 0.000000 0.000000 -0.017470 0.000000 0.143082
#
#
# Mechanical properties :
#
#
# Convention : Reuss Voigt Hill
#
# Bulk Modulus (GPa) = 24.02881 49.05406 36.54144
# Shear Modulus (GPa) = 18.91600 -0.66623 9.12488
#
# Velocity S-wave (km/s) = 3.14987 -0.59114 2.18772
# Velocity P-wave (km/s) = 5.08255 5.02629 5.05450
#
# Compressibility (1/GPa) = 0.04161670
#
# Stress axis : x y z
#
# Youngs Moduli (GPa) = 59.47521 59.75805 113.72359
#
# Poissons Ratio (x) = -0.03829 0.23989
# Poissons Ratio (y) = -0.03811 -0.12582
# Poissons Ratio (z) = 0.12546 -0.06612
#
# Static dielectric constant tensor:
#      x y z
#    x 1.689170 0.000000 -0.049220 
#    y 0.000000 1.699890 0.000000 
#    z -0.049220 0.000000 1.724180 
# 
# From -- ./inp_files/248470.got.cif
#   From: 2010.05.17/outbox.cif.g08.bks.cpg/sg12_125_cif.got.tgz:248470.got - 2010.06.03 13:09:07.
