data_PCOD9177629
_publ_section_title
;
Structure prediction by ZEFSAII (Michael W. Deem and Ramdas Pophale) SiO2 
 PCOD9177629
Probable space group: C 2/M
;
_chemical_formula_sum "Si O2"
_cell_formula_units_Z 64
_cell_length_a 15.522104
_cell_length_b 7.359165
_cell_length_c 26.431296
_cell_angle_alpha 90.000000
_cell_angle_beta 108.924411
_cell_angle_gamma 90.000000
_cell_volume 2856.041505
_symmetry_space_group_name_H-M "C 2/M"
_symmetry_group_IT_number 12
_symmetry_cell_setting 'monoclinic'
loop_
_space_group_symop_operation_xyz
x,y,z
-x,y,-z
-x,-y,-z
x,-y,z
1/2+x,1/2+y,z
1/2-x,1/2+y,-z
1/2-x,1/2-y,-z
1/2+x,1/2-y,z
loop_
_atom_site_type_symbol
_atom_site_label
_atom_site_fract_x
_atom_site_fract_y
_atom_site_fract_z
Si Si1 0.152704 0.783881 0.006213
Si Si2 0.166662 0.214676 0.122230
Si Si3 0.201709 0.220045 0.420648
Si Si4 0.209601 0.282137 0.764227
Si Si5 0.541394 0.713726 0.891065
Si Si6 0.969942 0.785227 0.219872
Si Si7 0.338572 0.722334 0.700636
Si Si8 0.601014 0.787747 0.503739
O O1 0.082270 0.710716 0.950968
O O2 0.132902 0.000000 0.008178
O O3 0.250000 0.750000 0.000000
O O4 0.158382 0.709224 0.064085
O O5 0.238095 0.290218 0.175986
O O6 0.067070 0.227549 0.127485
O O7 0.188256 0.000000 0.120422
O O8 0.173589 0.279611 0.359377
O O9 0.305028 0.285361 0.452913
O O10 0.128611 0.274460 0.449712
O O11 0.204176 0.000000 0.422429
O O12 0.220174 0.500000 0.766868
O O13 0.104526 0.239582 0.751247
O O14 0.257251 0.219442 0.722120
O O15 0.567905 0.500000 0.897004
O O16 0.567254 0.789501 0.840969
O O17 0.067173 0.715026 0.256252
O O18 0.982548 0.000000 0.213389
O O19 0.340074 0.500000 0.700195
O O20 0.500000 0.714851 0.500000
O O21 0.597768 0.000000 0.517361
#
# Coordination Sequence:
#
# PCOD9177629 Si02
#       8
#     8   8   8   8   8   8   8   8
#     4  10  19  29  45  69  94 119 156 203 249 297
#     4   9  16  29  49  70  91 122 165 205 241 296
#     4   9  18  33  53  76 102 136 175 206 239 291
#     4  10  19  33  53  74  98 131 169 208 252 300
#     4   9  16  29  49  69  90 123 165 204 243 295
#     4  10  19  33  52  72  97 130 168 209 252 296
#     4   9  18  34  53  72 100 138 173 203 242 298
#     4   9  18  33  53  78 108 137 164 203 253 294
#
# _framework density 22.408636999999999
#
# number of rings (size 3 to 8) (size 9 to 14) (size 15 to 20)
#    0.000    2.625    1.250    1.125    0.000    2.750 
#    0.000    3.125    0.000    3.000    0.000    0.000 
#    0.000    0.000    0.000    0.000    0.000    0.000 
#
# Total GULP energy -178545.374124 kJ/mol
# GULP energy per Si atom -5579.542941 kJ/mol
# Density = 2.235763 g / cm^3
# Si number density = 22.408637 Si / 1000 Ang^3
#
#
#
# Elastic Constant Matrix: (Units=GPa)
#
#
# Indices 1 2 3 4 5 6 
#
# 1 98.3128 -6.2872 42.2918 0.0000 -26.9092 0.0000
# 2 -6.2872 81.6536 -2.0272 0.0000 2.5240 0.0000
# 3 42.2918 -2.0272 107.1115 0.0000 -31.5643 0.0000
# 4 0.0000 0.0000 0.0000 -8.8022 0.0000 -1.1454
# 5 -26.9092 2.5240 -31.5643 0.0000 21.8021 0.0000
# 6 0.0000 0.0000 0.0000 -1.1454 0.0000 9.2328
#
#
#
# Elastic Compliance Matrix: (Units=1/GPa)
#
#
# Indices 1 2 3 4 5 6 
#
# 1 0.015435 0.000619 -0.000854 0.000000 0.017742 0.000000
# 2 0.000619 0.012322 -0.000360 0.000000 -0.001184 0.000000
# 3 -0.000854 -0.000360 0.016339 0.000000 0.022642 0.000000
# 4 0.000000 0.000000 0.000000 -0.111804 0.000000 -0.013870
# 5 0.017742 -0.001184 0.022642 0.000000 0.100682 0.000000
# 6 0.000000 0.000000 0.000000 -0.013870 0.000000 0.106589
#
#
# Mechanical properties :
#
#
# Convention : Reuss Voigt Hill
#
# Bulk Modulus (GPa) = 23.30735 39.44807 31.37771
# Shear Modulus (GPa) = 32.24644 21.31992 26.78318
#
# Velocity S-wave (km/s) = 3.79755 3.08785 3.46094
# Velocity P-wave (km/s) = 5.44538 5.50956 5.47757
#
# Compressibility (1/GPa) = 0.04290492
#
# Stress axis : x y z
#
# Youngs Moduli (GPa) = 64.78867 81.15457 61.20381
#
# Poissons Ratio (x) = -0.05022 0.05228
# Poissons Ratio (y) = -0.04009 0.02204
# Poissons Ratio (z) = 0.05535 0.02922
#
# Static dielectric constant tensor:
#      x y z
#    x 1.794610 0.000000 -0.001000 
#    y 0.000000 1.884730 0.000000 
#    z -0.001000 0.000000 1.844160 
# 
# From -- ./inp_files/335267.got.cif
#   From: 2010.05.17/outbox.cif.g08.bks.cpg/sg12_168_cif.got.tgz:335267.got - 2010.06.03 13:09:07.
