data_PCOD9177752
_publ_section_title
;
Structure prediction by ZEFSAII (Michael W. Deem and Ramdas Pophale) SiO2 
 PCOD9177752
Probable space group: C 2/M
;
_chemical_formula_sum "Si O2"
_cell_formula_units_Z 58
_cell_length_a 22.526358
_cell_length_b 7.318936
_cell_length_c 25.574331
_cell_angle_alpha 90.000000
_cell_angle_beta 32.273099
_cell_angle_gamma 90.000000
_cell_volume 2251.376980
_symmetry_space_group_name_H-M "C 2/M"
_symmetry_group_IT_number 12
_symmetry_cell_setting 'monoclinic'
loop_
_space_group_symop_operation_xyz
x,y,z
-x,y,-z
-x,-y,-z
x,-y,z
1/2+x,1/2+y,z
1/2-x,1/2+y,-z
1/2-x,1/2-y,-z
1/2+x,1/2-y,z
loop_
_atom_site_type_symbol
_atom_site_label
_atom_site_fract_x
_atom_site_fract_y
_atom_site_fract_z
Si Si1 0.035241 0.285370 0.277888
Si Si2 0.388055 0.279475 0.112496
Si Si3 0.745118 0.282868 0.941759
Si Si4 0.638916 0.206372 0.667150
Si Si5 0.854659 0.206614 0.698382
Si Si6 0.000000 0.500000 0.500000
Si Si7 0.499614 0.278662 0.868806
Si Si8 0.159539 0.222000 0.409885
O O1 0.029788 0.500000 0.268983
O O2 0.144341 0.207397 0.167345
O O3 0.063010 0.272623 0.318012
O O4 0.919171 0.210222 0.341009
O O5 0.384423 0.500000 0.111641
O O6 0.268546 0.212822 0.183522
O O7 0.409521 0.223336 0.156370
O O8 0.500000 0.221176 0.000000
O O9 0.744441 0.500000 0.931135
O O10 0.750000 0.250000 0.000000
O O11 0.620910 0.217460 0.021198
O O12 0.537526 0.207141 0.784664
O O13 0.741886 0.281645 0.624490
O O14 0.674332 0.000000 0.628294
O O15 0.828454 0.289618 0.660224
O O16 0.887401 0.000000 0.663031
O O17 0.950464 0.337512 0.497414
O O18 0.497853 0.500000 0.866991
O O19 0.151392 0.000000 0.417678
#
# Coordination Sequence:
#
# PCOD9177752 Si02
#       8
#     8   8   8   8   8   2   8   8
#     4  10  21  36  57  83 120 175 224 257 315 375
#     4  10  20  34  53  77 116 168 222 271 310 368
#     4  10  19  31  46  73 114 164 221 277 309 352
#     4  10  20  37  60  87 121 161 203 263 313 363
#     4  11  23  38  59  91 130 168 207 269 326 375
#     4  12  26  44  84 110 122 176 194 250 362 402
#     4  10  19  29  49  76 111 157 214 270 312 356
#     4  10  24  45  70 108 138 156 213 269 318 405
#
# _framework density 25.762013
#
# number of rings (size 3 to 8) (size 9 to 14) (size 15 to 20)
#    0.000    1.793    2.759    1.448    2.897    3.586 
#    0.000    1.379    0.000    0.828    0.000    0.000 
#    0.000    0.000    0.000    0.000    0.000    0.000 
#
# Total GULP energy -161676.106628 kJ/mol
# GULP energy per Si atom -5575.038160 kJ/mol
# Density = 2.570338 g / cm^3
# Si number density = 25.762013 Si / 1000 Ang^3
#
#
#
# Elastic Constant Matrix: (Units=GPa)
#
#
# Indices 1 2 3 4 5 6 
#
# 1 232.4912 14.3241 67.7411 -0.0069 -50.9118 0.0020
# 2 14.3241 121.3430 -11.5633 -0.0160 -11.0761 0.0000
# 3 67.7411 -11.5633 61.1783 0.0013 -22.8563 0.0008
# 4 -0.0069 -0.0160 0.0013 5.3219 0.0001 4.6405
# 5 -50.9118 -11.0761 -22.8563 0.0001 54.7258 -0.0013
# 6 0.0020 0.0000 0.0008 4.6405 -0.0013 15.2428
#
#
#
# Elastic Compliance Matrix: (Units=1/GPa)
#
#
# Indices 1 2 3 4 5 6 
#
# 1 0.007130 -0.001163 -0.006782 0.000010 0.003565 -0.000003
# 2 -0.001163 0.008960 0.003856 0.000033 0.002342 -0.000010
# 3 -0.006782 0.003856 0.026682 -0.000005 0.005614 0.000001
# 4 0.000010 0.000033 -0.000005 0.255809 0.000012 -0.077879
# 5 0.003565 0.002342 0.005614 0.000012 0.024408 -0.000002
# 6 -0.000003 -0.000010 0.000001 -0.077879 -0.000002 0.089314
#
#
# Mechanical properties :
#
#
# Convention : Reuss Voigt Hill
#
# Bulk Modulus (GPa) = 28.90771 61.77958 45.34364
# Shear Modulus (GPa) = 11.57375 38.02547 24.79961
#
# Velocity S-wave (km/s) = 2.12187 3.84608 3.10601
# Velocity P-wave (km/s) = 4.15313 6.61484 5.52289
#
# Compressibility (1/GPa) = 0.03459285
#
# Stress axis : x y z
#
# Youngs Moduli (GPa) = 140.25817 111.61251 37.47836
#
# Poissons Ratio (x) = 0.12976 0.25420
# Poissons Ratio (y) = 0.16306 -0.14451
# Poissons Ratio (z) = 0.95129 -0.43035
#
# Static dielectric constant tensor:
#      x y z
#    x 2.053030 0.000010 0.003380 
#    y 0.000010 2.148470 -0.000020 
#    z 0.003380 -0.000020 2.225940 
# 
# From -- ./inp_files/382024.got.cif
#   From: 2010.05.17/outbox.cif.g08.bks.cpg/sg12_192_cif.got.tgz:382024.got - 2010.06.03 13:09:07.
