data_PCOD9177600
_publ_section_title
;
Structure prediction by ZEFSAII (Michael W. Deem and Ramdas Pophale) SiO2 
 PCOD9177600
Probable space group: C 2/M
;
_chemical_formula_sum "Si O2"
_cell_formula_units_Z 58
_cell_length_a 19.249897
_cell_length_b 27.894602
_cell_length_c 7.660563
_cell_angle_alpha 90.000000
_cell_angle_beta 135.067673
_cell_angle_gamma 90.000000
_cell_volume 2905.231279
_symmetry_space_group_name_H-M "C 2/M"
_symmetry_group_IT_number 12
_symmetry_cell_setting 'monoclinic'
loop_
_space_group_symop_operation_xyz
x,y,z
-x,y,-z
-x,-y,-z
x,-y,z
1/2+x,1/2+y,z
1/2-x,1/2+y,-z
1/2-x,1/2-y,-z
1/2+x,1/2-y,z
loop_
_atom_site_type_symbol
_atom_site_label
_atom_site_fract_x
_atom_site_fract_y
_atom_site_fract_z
Si Si1 0.019249 0.079200 0.725860
Si Si2 0.397272 0.262279 0.524531
Si Si3 0.627204 0.735204 0.923217
Si Si4 0.168330 0.139551 0.501626
Si Si5 0.000000 0.000000 0.000000
Si Si6 0.627774 0.154866 0.043070
Si Si7 0.088036 0.349393 0.380830
Si Si8 0.206425 0.134217 0.171380
O O1 0.000000 0.058468 0.500000
O O2 0.931249 0.117590 0.600723
O O3 0.125398 0.105238 0.919752
O O4 0.012543 0.041556 0.869798
O O5 0.356501 0.263005 0.255416
O O6 0.511670 0.276467 0.734959
O O7 0.342358 0.302884 0.533843
O O8 0.396890 0.207774 0.581610
O O9 0.639065 0.787985 0.027190
O O10 0.686009 0.690740 0.105461
O O11 0.264854 0.131867 0.794026
O O12 0.185063 0.121303 0.335707
O O13 0.605932 0.142372 0.206896
O O14 0.524994 0.140491 0.767772
O O15 0.176713 0.373273 0.646297
#
# Coordination Sequence:
#
# PCOD9177600 Si02
#       8
#     8   8   8   8   2   8   8   8
#     4  12  25  43  69  96 121 151 186 237 303 368
#     4  10  19  29  44  71 111 158 207 250 287 329
#     4  10  19  29  44  71 111 158 207 250 287 329
#     4  11  20  34  55  81 114 154 201 244 289 347
#     4  12  26  52  68  98 122 144 178 240 312 388
#     4   9  19  33  49  74 113 164 209 245 283 326
#     4   9  19  33  49  74 113 164 209 245 283 326
#     4  11  20  34  55  81 114 154 201 244 289 347
#
# _framework density 19.963988000000001
#
# number of rings (size 3 to 8) (size 9 to 14) (size 15 to 20)
#    0.000    1.655    2.759    2.690    0.000    6.621 
#    0.000    0.000    0.000    0.000    0.000    1.931 
#    0.000    2.207    0.000    0.000    0.000    0.000 
#
# Total GULP energy -161535.922110 kJ/mol
# GULP energy per Si atom -5570.204211 kJ/mol
# Density = 1.991855 g / cm^3
# Si number density = 19.963988 Si / 1000 Ang^3
#
#
#
# Elastic Constant Matrix: (Units=GPa)
#
#
# Indices 1 2 3 4 5 6 
#
# 1 41.2792 16.0438 41.4255 0.0000 7.3388 0.0000
# 2 16.0438 41.3578 33.0411 0.0000 12.1538 0.0000
# 3 41.4255 33.0411 146.2440 0.0000 30.9863 0.0000
# 4 0.0000 0.0000 0.0000 -17.7547 0.0000 18.3214
# 5 7.3388 12.1538 30.9863 0.0000 37.7625 0.0000
# 6 0.0000 0.0000 0.0000 18.3214 0.0000 -33.6325
#
#
#
# Elastic Compliance Matrix: (Units=1/GPa)
#
#
# Indices 1 2 3 4 5 6 
#
# 1 0.035678 -0.007474 -0.009028 0.000000 0.002880 0.000000
# 2 -0.007474 0.031831 -0.003887 0.000000 -0.005602 0.000000
# 3 -0.009028 -0.003887 0.011665 0.000000 -0.006566 0.000000
# 4 0.000000 0.000000 0.000000 -0.128631 0.000000 -0.070072
# 5 0.002880 -0.005602 -0.006566 0.000000 0.033112 0.000000
# 6 0.000000 0.000000 0.000000 -0.070072 0.000000 -0.067905
#
#
# Mechanical properties :
#
#
# Convention : Reuss Voigt Hill
#
# Bulk Modulus (GPa) = 26.04542 45.54463 35.79503
# Shear Modulus (GPa) = -163.00616 6.49975 -78.25321
#
# Velocity S-wave (km/s) = -9.04585 1.80632 -6.26756
# Velocity P-wave (km/s) = 9.79942 5.21664 5.86580
#
# Compressibility (1/GPa) = 0.03839447
#
# Stress axis : x y z
#
# Youngs Moduli (GPa) = 28.02842 31.41621 85.72970
#
# Poissons Ratio (x) = 0.23482 0.77395
# Poissons Ratio (y) = 0.20950 0.33326
# Poissons Ratio (z) = 0.25303 0.12212
#
# Static dielectric constant tensor:
#      x y z
#    x 1.763030 0.000000 0.033020 
#    y 0.000000 1.642300 0.000000 
#    z 0.033020 0.000000 1.790150 
# 
# From -- ./inp_files/91412.got.cif
#   From: 2010.05.17/outbox.cif.g08.bks.cpg/sg12_46_cif.got.tgz:91412.got - 2010.06.03 13:09:07.
