data_PCOD9177081
_publ_section_title
;
Structure prediction by ZEFSAII (Michael W. Deem and Ramdas Pophale) SiO2 
 PCOD9177081
Probable space group: C 2/M
;
_chemical_formula_sum "Si O2"
_cell_formula_units_Z 64
_cell_length_a 13.537851
_cell_length_b 30.554001
_cell_length_c 11.844476
_cell_angle_alpha 90.000000
_cell_angle_beta 33.329817
_cell_angle_gamma 90.000000
_cell_volume 2691.955869
_symmetry_space_group_name_H-M "C 2/M"
_symmetry_group_IT_number 12
_symmetry_cell_setting 'monoclinic'
loop_
_space_group_symop_operation_xyz
x,y,z
-x,y,-z
-x,-y,-z
x,-y,z
1/2+x,1/2+y,z
1/2-x,1/2+y,-z
1/2-x,1/2-y,-z
1/2+x,1/2-y,z
loop_
_atom_site_type_symbol
_atom_site_label
_atom_site_fract_x
_atom_site_fract_y
_atom_site_fract_z
Si Si1 0.670940 0.355083 0.558073
Si Si2 0.208567 0.952495 0.546620
Si Si3 0.136730 0.047801 0.262545
Si Si4 0.808253 0.806001 0.230138
Si Si5 0.389038 0.130966 0.718953
Si Si6 0.214509 0.792625 0.310954
Si Si7 0.286748 0.546891 0.194121
Si Si8 0.740822 0.138702 0.921546
O O1 0.747353 0.403849 0.466284
O O2 0.728273 0.334217 0.622787
O O3 0.731879 0.323593 0.401444
O O4 0.450466 0.356383 0.764863
O O5 0.264350 0.950121 0.624437
O O6 0.994958 0.954145 0.721306
O O7 0.277009 0.000000 0.437661
O O8 0.254966 0.091292 0.143372
O O9 0.000000 0.051971 0.500000
O O10 0.226288 0.000000 0.186036
O O11 0.676500 0.821275 0.257819
O O12 0.800356 0.754350 0.252133
O O13 0.000000 0.819971 0.000000
O O14 0.500000 0.118719 0.500000
O O15 0.258503 0.088737 0.836357
O O16 0.400579 0.137249 0.841731
O O17 0.286430 0.820367 0.135842
O O18 0.000000 0.785616 0.500000
O O19 0.217524 0.500000 0.215757
O O20 0.500000 0.545015 0.000000
#
# Coordination Sequence:
#
# PCOD9177081 Si02
#       8
#     8   8   8   8   8   8   8   8
#     4  10  18  37  65  89 121 154 197 250 304 367
#     4   9  16  27  51  86 120 150 186 234 285 345
#     4   9  16  28  54  93 126 155 196 245 300 362
#     4  12  23  42  62  88 117 157 207 255 306 367
#     4  12  25  40  59  85 121 165 202 251 309 369
#     4  10  23  41  61  90 118 158 196 254 319 366
#     4  10  19  34  58  87 118 155 201 248 298 355
#     4  10  20  38  59  84 125 159 197 249 309 367
#
# _framework density 23.774536000000001
#
# number of rings (size 3 to 8) (size 9 to 14) (size 15 to 20)
#    0.000    1.750    2.500    4.500    0.000    2.250 
#    4.500    0.000    0.000    0.000    0.000    0.000 
#    0.000    7.000    0.000    0.000    0.000    0.000 
#
# Total GULP energy -178471.077610 kJ/mol
# GULP energy per Si atom -5577.221175 kJ/mol
# Density = 2.372042 g / cm^3
# Si number density = 23.774536 Si / 1000 Ang^3
#
#
#
# Elastic Constant Matrix: (Units=GPa)
#
#
# Indices 1 2 3 4 5 6 
#
# 1 40.5549 12.5575 12.0737 0.0000 15.6769 0.0000
# 2 12.5575 168.6626 21.0522 0.0000 19.4344 0.0000
# 3 12.0737 21.0522 93.8899 0.0000 18.1051 0.0000
# 4 0.0000 0.0000 0.0000 -5.5882 0.0000 -19.1304
# 5 15.6769 19.4344 18.1051 0.0000 24.6922 0.0000
# 6 0.0000 0.0000 0.0000 -19.1304 0.0000 -32.6828
#
#
#
# Elastic Compliance Matrix: (Units=1/GPa)
#
#
# Indices 1 2 3 4 5 6 
#
# 1 0.032683 -0.000036 -0.000232 0.000000 -0.020552 0.000000
# 2 -0.000036 0.006545 -0.000552 0.000000 -0.004723 0.000000
# 3 -0.000232 -0.000552 0.012453 0.000000 -0.008549 0.000000
# 4 0.000000 0.000000 0.000000 0.178270 0.000000 -0.104348
# 5 -0.020552 -0.004723 -0.008549 0.000000 0.063533 0.000000
# 6 0.000000 0.000000 0.000000 -0.104348 0.000000 0.030481
#
#
# Mechanical properties :
#
#
# Convention : Reuss Voigt Hill
#
# Bulk Modulus (GPa) = 19.98384 43.83048 31.90716
# Shear Modulus (GPa) = 14.60770 14.44583 14.52677
#
# Velocity S-wave (km/s) = 2.48145 2.46766 2.47457
# Velocity P-wave (km/s) = 4.07847 5.15704 4.64914
#
# Compressibility (1/GPa) = 0.05004043
#
# Stress axis : x y z
#
# Youngs Moduli (GPa) = 30.59737 152.79150 80.30234
#
# Poissons Ratio (x) = 0.00555 0.01860
# Poissons Ratio (y) = 0.00111 0.04433
# Poissons Ratio (z) = 0.00709 0.08434
#
# Static dielectric constant tensor:
#      x y z
#    x 2.066730 0.000000 -0.135950 
#    y 0.000000 1.878820 0.000000 
#    z -0.135950 0.000000 2.019610 
# 
# From -- ./inp_files/161212.got.cif
#   From: 2010.05.17/outbox.cif.g08.bks.cpg/sg12_81_cif.got.tgz:161212.got - 2010.06.03 13:09:07.
