data_PCOD9177986
_publ_section_title
;
Structure prediction by ZEFSAII (Michael W. Deem and Ramdas Pophale) SiO2 
 PCOD9177986
Probable space group: C 2/M
;
_chemical_formula_sum "Si O2"
_cell_formula_units_Z 56
_cell_length_a 31.530172
_cell_length_b 10.411746
_cell_length_c 29.728796
_cell_angle_alpha 90.000000
_cell_angle_beta 19.736195
_cell_angle_gamma 90.000000
_cell_volume 3295.682354
_symmetry_space_group_name_H-M "C 2/M"
_symmetry_group_IT_number 12
_symmetry_cell_setting 'monoclinic'
loop_
_space_group_symop_operation_xyz
x,y,z
-x,y,-z
-x,-y,-z
x,-y,z
1/2+x,1/2+y,z
1/2-x,1/2+y,-z
1/2-x,1/2-y,-z
1/2+x,1/2-y,z
loop_
_atom_site_type_symbol
_atom_site_label
_atom_site_fract_x
_atom_site_fract_y
_atom_site_fract_z
Si Si1 0.001635 0.844190 0.549600
Si Si2 0.220281 0.154965 0.164130
Si Si3 0.049933 0.224078 0.720152
Si Si4 0.992756 0.346126 0.871826
Si Si5 0.315657 0.860117 0.489028
Si Si6 0.683211 0.356236 0.097135
Si Si7 0.279336 0.652831 0.600861
O O1 0.883492 0.796313 0.697225
O O2 0.000000 0.797300 0.500000
O O3 0.131753 0.817815 0.445656
O O4 0.992059 0.000000 0.557607
O O5 0.182888 0.182979 0.149773
O O6 0.217978 0.000000 0.170265
O O7 0.366143 0.194800 0.024206
O O8 0.991829 0.279432 0.823976
O O9 0.175488 0.150015 0.608888
O O10 0.092653 0.338014 0.644386
O O11 0.954900 0.141117 0.786081
O O12 0.985705 0.500000 0.872818
O O13 0.130212 0.320488 0.755868
O O14 0.324931 0.742379 0.514473
O O15 0.335315 0.000000 0.490260
O O16 0.739427 0.500000 0.038151
O O17 0.750000 0.250000 0.000000
O O18 0.292250 0.500000 0.577490
#
# Coordination Sequence:
#
# PCOD9177986 Si02
#       7
#     8   8   8   8   8   8   8
#     4   9  17  31  51  74  98 126 163 207 257 312
#     4   9  17  29  46  68  97 131 162 200 251 298
#     4  10  19  30  45  67  99 134 172 208 244 287
#     4   9  16  28  45  66  96 130 162 198 248 299
#     4  10  20  31  48  72 100 134 173 212 249 294
#     4  11  21  32  48  70 100 136 172 204 243 294
#     4   9  18  32  50  71  97 129 165 208 257 304
#
# _framework density 16.99193
#
# number of rings (size 3 to 8) (size 9 to 14) (size 15 to 20)
#    0.000    2.429    1.429    1.714    0.000    5.714 
#    0.000    0.714    0.000    4.714    0.000    0.000 
#    0.000    2.571    0.000    0.000    0.000    0.000 
#
# Total GULP energy -155934.762119 kJ/mol
# GULP energy per Si atom -5569.098647 kJ/mol
# Density = 1.695326 g / cm^3
# Si number density = 16.991930 Si / 1000 Ang^3
#
#
#
# Elastic Constant Matrix: (Units=GPa)
#
#
# Indices 1 2 3 4 5 6 
#
# 1 105.4194 27.8902 72.1880 0.0004 1.2715 0.0001
# 2 27.8902 47.7763 20.3765 0.0014 3.0057 0.0001
# 3 72.1880 20.3765 118.4391 0.0004 3.3968 0.0001
# 4 0.0004 0.0014 0.0004 5.1017 -0.0001 2.5263
# 5 1.2715 3.0057 3.3968 -0.0001 21.3690 -0.0002
# 6 0.0001 0.0001 0.0001 2.5263 -0.0002 12.0563
#
#
#
# Elastic Compliance Matrix: (Units=1/GPa)
#
#
# Indices 1 2 3 4 5 6 
#
# 1 0.017893 -0.006329 -0.009857 0.000001 0.001392 0.000000
# 2 -0.006329 0.024969 -0.000350 -0.000007 -0.003080 0.000001
# 3 -0.009857 -0.000350 0.014559 0.000000 -0.001679 0.000000
# 4 0.000001 -0.000007 0.000000 0.218709 0.000002 -0.045829
# 5 0.001392 -0.003080 -0.001679 0.000002 0.047414 0.000001
# 6 0.000000 0.000001 0.000000 -0.045829 0.000001 0.092547
#
#
# Mechanical properties :
#
#
# Convention : Reuss Voigt Hill
#
# Bulk Modulus (GPa) = 41.06867 56.94935 49.00901
# Shear Modulus (GPa) = 10.93424 17.78408 14.35916
#
# Velocity S-wave (km/s) = 2.53947 3.23866 2.91014
# Velocity P-wave (km/s) = 5.72892 6.89735 6.34011
#
# Compressibility (1/GPa) = 0.02434946
#
# Stress axis : x y z
#
# Youngs Moduli (GPa) = 55.88681 40.05042 68.68504
#
# Poissons Ratio (x) = 0.25348 0.67702
# Poissons Ratio (y) = 0.35372 0.02402
# Poissons Ratio (z) = 0.55087 0.01401
#
# Static dielectric constant tensor:
#      x y z
#    x 1.564610 0.000000 -0.034810 
#    y 0.000000 1.589810 0.000000 
#    z -0.034810 0.000000 1.626790 
# 
# From -- ./inp_files/370742.got.cif
#   From: 2010.05.17/outbox.cif.g08.bks.cpg/sg12_186_cif.got.tgz:370742.got - 2010.06.03 13:09:07.
