data_PCOD9177343
_publ_section_title
;
Structure prediction by ZEFSAII (Michael W. Deem and Ramdas Pophale) SiO2 
 PCOD9177343
Probable space group: C 2/M
;
_chemical_formula_sum "Si O2"
_cell_formula_units_Z 52
_cell_length_a 5.174231
_cell_length_b 31.193365
_cell_length_c 16.981351
_cell_angle_alpha 90.000000
_cell_angle_beta 97.176644
_cell_angle_gamma 90.000000
_cell_volume 2719.346147
_symmetry_space_group_name_H-M "C 2/M"
_symmetry_group_IT_number 12
_symmetry_cell_setting 'monoclinic'
loop_
_space_group_symop_operation_xyz
x,y,z
-x,y,-z
-x,-y,-z
x,-y,z
1/2+x,1/2+y,z
1/2-x,1/2+y,-z
1/2-x,1/2-y,-z
1/2+x,1/2-y,z
loop_
_atom_site_type_symbol
_atom_site_label
_atom_site_fract_x
_atom_site_fract_y
_atom_site_fract_z
Si Si1 0.254001 0.546311 0.097563
Si Si2 0.076668 0.636215 0.785688
Si Si3 0.000000 0.720035 0.500000
Si Si4 0.300202 0.046357 0.207699
Si Si5 0.073501 0.280886 0.676106
Si Si6 0.880194 0.865333 0.109810
Si Si7 0.710437 0.269093 0.912389
O O1 0.265449 0.500000 0.055550
O O2 0.501998 0.547004 0.166447
O O3 0.292501 0.592415 0.058274
O O4 0.988532 0.547054 0.137712
O O5 0.129666 0.590326 0.745595
O O6 0.094938 0.678998 0.735566
O O7 0.313778 0.636557 0.858372
O O8 0.796661 0.633379 0.817535
O O9 0.750000 0.750000 0.500000
O O10 0.964329 0.698770 0.413375
O O11 0.346464 0.000000 0.248333
O O12 0.326949 0.250129 0.683768
O O13 0.806051 0.819278 0.074301
O O14 0.449428 0.247613 0.870516
O O15 0.750000 0.250000 0.000000
#
# Coordination Sequence:
#
# PCOD9177343 Si02
#       7
#     8   8   4   8   8   8   8
#     4   8  14  25  41  61  84 108 133 166 211 257
#     4  10  19  28  43  68  91 113 140 176 222 257
#     4   8  16  30  44  56  77 114 153 180 208 248
#     4   8  14  25  39  57  85 114 137 164 205 260
#     4  10  19  30  43  61  87 117 147 180 214 254
#     4  10  19  30  45  66  90 112 140 177 215 258
#     4  10  21  35  48  62  82 116 152 175 201 248
#
# _framework density 19.122246000000001
#
# number of rings (size 3 to 8) (size 9 to 14) (size 15 to 20)
#    0.000    2.769    0.000    1.846    0.000    3.692 
#    0.000    0.000    0.000    0.000    0.000    4.846 
#    0.000    0.000    0.000   35.538    0.000    0.000 
#
# Total GULP energy -144813.102904 kJ/mol
# GULP energy per Si atom -5569.734727 kJ/mol
# Density = 1.907872 g / cm^3
# Si number density = 19.122246 Si / 1000 Ang^3
#
#
#
# Elastic Constant Matrix: (Units=GPa)
#
#
# Indices 1 2 3 4 5 6 
#
# 1 134.3679 15.6748 10.1336 0.0000 -8.7792 0.0000
# 2 15.6748 196.4570 27.0545 0.0000 4.3987 0.0000
# 3 10.1336 27.0545 47.0600 0.0000 1.8009 0.0000
# 4 0.0000 0.0000 0.0000 21.1993 0.0000 5.8933
# 5 -8.7792 4.3987 1.8009 0.0000 12.5425 0.0000
# 6 0.0000 0.0000 0.0000 5.8933 0.0000 24.9314
#
#
#
# Elastic Compliance Matrix: (Units=1/GPa)
#
#
# Indices 1 2 3 4 5 6 
#
# 1 0.008025 -0.000549 -0.001644 0.000000 0.006046 0.000000
# 2 -0.000549 0.005593 -0.003024 0.000000 -0.001912 0.000000
# 3 -0.001644 -0.003024 0.023474 0.000000 -0.003460 0.000000
# 4 0.000000 0.000000 0.000000 0.050489 0.000000 -0.011935
# 5 0.006046 -0.001912 -0.003460 0.000000 0.085128 0.000000
# 6 0.000000 0.000000 0.000000 -0.011935 0.000000 0.042931
#
#
# Mechanical properties :
#
#
# Convention : Reuss Voigt Hill
#
# Bulk Modulus (GPa) = 37.51114 53.73452 45.62283
# Shear Modulus (GPa) = 21.28004 33.40278 27.34141
#
# Velocity S-wave (km/s) = 3.33955 4.18401 3.78540
# Velocity P-wave (km/s) = 5.87615 7.17654 6.55866
#
# Compressibility (1/GPa) = 0.02665874
#
# Stress axis : x y z
#
# Youngs Moduli (GPa) = 124.60556 178.78663 42.59972
#
# Poissons Ratio (x) = 0.09821 0.07002
# Poissons Ratio (y) = 0.06845 0.12882
# Poissons Ratio (z) = 0.20481 0.54066
#
# Static dielectric constant tensor:
#      x y z
#    x 1.669670 0.000000 0.065560 
#    y 0.000000 1.772320 0.000000 
#    z 0.065560 0.000000 1.482590 
# 
# From -- ./inp_files/253804.got.cif
#   From: 2010.05.17/outbox.cif.g08.bks.cpg/sg12_127_cif.got.tgz:253804.got - 2010.06.03 13:09:07.
