data_PCOD9177772
_publ_section_title
;
Structure prediction by ZEFSAII (Michael W. Deem and Ramdas Pophale) SiO2 
 PCOD9177772
Probable space group: C 2/M
;
_chemical_formula_sum "Si O2"
_cell_formula_units_Z 58
_cell_length_a 24.201517
_cell_length_b 9.020233
_cell_length_c 14.102562
_cell_angle_alpha 90.000000
_cell_angle_beta 89.867210
_cell_angle_gamma 90.000000
_cell_volume 3078.627869
_symmetry_space_group_name_H-M "C 2/M"
_symmetry_group_IT_number 12
_symmetry_cell_setting 'monoclinic'
loop_
_space_group_symop_operation_xyz
x,y,z
-x,y,-z
-x,-y,-z
x,-y,z
1/2+x,1/2+y,z
1/2-x,1/2+y,-z
1/2-x,1/2-y,-z
1/2+x,1/2-y,z
loop_
_atom_site_type_symbol
_atom_site_label
_atom_site_fract_x
_atom_site_fract_y
_atom_site_fract_z
Si Si1 0.828014 0.834300 0.535029
Si Si2 0.834241 0.324095 0.333472
Si Si3 0.000000 0.500000 0.500000
Si Si4 0.272325 0.822487 0.714331
Si Si5 0.882521 0.668310 0.810140
Si Si6 0.938499 0.738634 0.610620
Si Si7 0.039076 0.322643 0.717954
Si Si8 0.983696 0.173814 0.891008
O O1 0.827736 0.746001 0.437410
O O2 0.794626 0.748248 0.616284
O O3 0.891419 0.842959 0.570884
O O4 0.805760 0.000000 0.522423
O O5 0.825215 0.500000 0.336387
O O6 0.787680 0.246754 0.269346
O O7 0.896734 0.297431 0.298635
O O8 0.953989 0.626369 0.527904
O O9 0.230154 0.500000 0.293875
O O10 0.319155 0.787288 0.792580
O O11 0.885393 0.500000 0.846793
O O12 0.909875 0.668355 0.704540
O O13 0.920661 0.776741 0.870832
O O14 0.998782 0.777604 0.652737
O O15 0.027628 0.500000 0.692844
O O16 0.020336 0.280343 0.823603
O O17 0.990912 0.000000 0.865465
O O18 0.000000 0.192177 0.000000
#
# Coordination Sequence:
#
# PCOD9177772 Si02
#       8
#     8   8   2   8   8   8   8   8
#     4  11  23  35  50  75 107 143 193 236 273 316
#     4  11  23  36  54  75 104 146 187 229 276 319
#     4  12  16  28  50  72 106 144 174 224 256 326
#     4  10  21  37  56  76 105 143 188 233 271 314
#     4   9  18  35  55  80 105 138 180 216 263 322
#     4  10  19  29  52  74 103 141 181 219 272 312
#     4  10  21  37  54  79 107 142 181 217 270 337
#     4  10  21  36  58  88 115 138 165 213 277 330
#
# _framework density 18.839562000000001
#
# number of rings (size 3 to 8) (size 9 to 14) (size 15 to 20)
#    0.000    1.793    1.379    3.724    3.862    7.724 
#    0.000    2.414    0.000    0.828    0.000    0.000 
#    0.000    0.000    0.000    0.000    0.000    0.000 
#
# Total GULP energy -161468.508509 kJ/mol
# GULP energy per Si atom -5567.879604 kJ/mol
# Density = 1.879668 g / cm^3
# Si number density = 18.839562 Si / 1000 Ang^3
#
#
#
# Elastic Constant Matrix: (Units=GPa)
#
#
# Indices 1 2 3 4 5 6 
#
# 1 149.5644 42.3697 21.3614 0.0000 22.0333 0.0000
# 2 42.3697 67.7302 13.7547 0.0000 11.8693 0.0000
# 3 21.3614 13.7547 34.1471 0.0000 15.9914 0.0000
# 4 0.0000 0.0000 0.0000 19.0741 0.0000 2.6263
# 5 22.0333 11.8693 15.9914 0.0000 18.4323 0.0000
# 6 0.0000 0.0000 0.0000 2.6263 0.0000 28.9265
#
#
#
# Elastic Compliance Matrix: (Units=1/GPa)
#
#
# Indices 1 2 3 4 5 6 
#
# 1 0.009092 -0.004248 -0.000283 0.000000 -0.007887 0.000000
# 2 -0.004248 0.018792 -0.002734 0.000000 -0.004651 0.000000
# 3 -0.000283 -0.002734 0.049824 0.000000 -0.041127 0.000000
# 4 0.000000 0.000000 0.000000 0.053091 0.000000 -0.004820
# 5 -0.007887 -0.004651 -0.041127 0.000000 0.102357 0.000000
# 6 0.000000 0.000000 0.000000 -0.004820 0.000000 0.035008
#
#
# Mechanical properties :
#
#
# Convention : Reuss Voigt Hill
#
# Bulk Modulus (GPa) = 15.82831 45.15703 30.49267
# Shear Modulus (GPa) = 16.46082 24.88363 20.67223
#
# Velocity S-wave (km/s) = 2.95911 3.63825 3.31611
# Velocity P-wave (km/s) = 4.48274 6.45526 5.55722
#
# Compressibility (1/GPa) = 0.06317792
#
# Stress axis : x y z
#
# Youngs Moduli (GPa) = 109.98964 53.21380 20.07085
#
# Poissons Ratio (x) = 0.22605 0.00568
# Poissons Ratio (y) = 0.46722 0.05488
# Poissons Ratio (z) = 0.03110 0.14549
#
# Static dielectric constant tensor:
#      x y z
#    x 1.711410 0.000000 0.036010 
#    y 0.000000 1.593440 0.000000 
#    z 0.036010 0.000000 1.705640 
# 
# From -- ./inp_files/237657.got.cif
#   From: 2010.05.17/outbox.cif.g08.bks.cpg/sg12_119_cif.got.tgz:237657.got - 2010.06.03 13:09:07.
