data_PCOD9177819
_publ_section_title
;
Structure prediction by ZEFSAII (Michael W. Deem and Ramdas Pophale) SiO2 
 PCOD9177819
Probable space group: C 2/M
;
_chemical_formula_sum "Si O2"
_cell_formula_units_Z 56
_cell_length_a 29.770368
_cell_length_b 8.963935
_cell_length_c 13.853508
_cell_angle_alpha 90.000000
_cell_angle_beta 102.541503
_cell_angle_gamma 90.000000
_cell_volume 3608.729359
_symmetry_space_group_name_H-M "C 2/M"
_symmetry_group_IT_number 12
_symmetry_cell_setting 'monoclinic'
loop_
_space_group_symop_operation_xyz
x,y,z
-x,y,-z
-x,-y,-z
x,-y,z
1/2+x,1/2+y,z
1/2-x,1/2+y,-z
1/2-x,1/2-y,-z
1/2+x,1/2-y,z
loop_
_atom_site_type_symbol
_atom_site_label
_atom_site_fract_x
_atom_site_fract_y
_atom_site_fract_z
Si Si1 0.360046 0.679260 0.131882
Si Si2 0.300199 0.674733 0.918683
Si Si3 0.233304 0.819971 0.392643
Si Si4 0.051576 0.679873 0.909837
Si Si5 0.947242 0.320843 0.865418
Si Si6 0.780198 0.821891 0.229200
Si Si7 0.358978 0.326451 0.749747
O O1 0.364737 0.500000 0.130217
O O2 0.409437 0.752366 0.139589
O O3 0.330803 0.717416 0.213385
O O4 0.328194 0.723295 0.025609
O O5 0.286899 0.500000 0.923202
O O6 0.256239 0.772457 0.870142
O O7 0.334091 0.684349 0.842472
O O8 0.250000 0.750000 0.500000
O O9 0.264452 0.760799 0.318780
O O10 0.180526 0.775002 0.342857
O O11 0.234897 0.000000 0.395294
O O12 0.053900 0.500000 0.907817
O O13 0.999112 0.724912 0.861687
O O14 0.060105 0.725677 0.025824
O O15 0.945982 0.500000 0.864078
O O16 0.906665 0.259522 0.780369
O O17 0.777503 0.000000 0.241279
O O18 0.368455 0.500000 0.735382
#
# Coordination Sequence:
#
# PCOD9177819 Si02
#       7
#     8   8   8   8   8   8   8
#     4  10  19  30  43  64  94 128 164 196 228 272
#     4   9  17  29  42  62  94 127 161 196 226 267
#     4  10  21  37  54  73  96 119 151 194 238 286
#     4   9  18  29  42  63  93 128 165 201 231 265
#     4   9  17  29  43  64  93 125 163 200 232 271
#     4  10  20  31  46  68  93 123 158 193 233 281
#     4   9  17  29  47  69  94 122 154 193 233 275
#
# _framework density 15.517927999999999
#
# number of rings (size 3 to 8) (size 9 to 14) (size 15 to 20)
#    0.000    2.571    1.429    3.000    0.000    5.143 
#    0.000    1.429    0.000    0.000    0.000    1.000 
#    0.000    8.000    0.000    0.000    0.000    0.000 
#
# Total GULP energy -156048.588512 kJ/mol
# GULP energy per Si atom -5573.163875 kJ/mol
# Density = 1.548261 g / cm^3
# Si number density = 15.517928 Si / 1000 Ang^3
#
#
#
# Elastic Constant Matrix: (Units=GPa)
#
#
# Indices 1 2 3 4 5 6 
#
# 1 137.6794 45.3671 52.5225 0.0000 13.6370 0.0000
# 2 45.3671 33.0740 27.6469 0.0000 5.8114 0.0000
# 3 52.5225 27.6469 78.3730 0.0000 15.6061 0.0000
# 4 0.0000 0.0000 0.0000 21.1217 0.0000 3.1981
# 5 13.6370 5.8114 15.6061 0.0000 15.4495 0.0000
# 6 0.0000 0.0000 0.0000 3.1981 0.0000 29.0331
#
#
#
# Elastic Compliance Matrix: (Units=1/GPa)
#
#
# Indices 1 2 3 4 5 6 
#
# 1 0.014095 -0.016179 -0.003096 0.000000 -0.003229 0.000000
# 2 -0.016179 0.061464 -0.011366 0.000000 0.002642 0.000000
# 3 -0.003096 -0.011366 0.021841 0.000000 -0.015055 0.000000
# 4 0.000000 0.000000 0.000000 0.048148 0.000000 -0.005304
# 5 -0.003229 0.002642 -0.015055 0.000000 0.081790 0.000000
# 6 0.000000 0.000000 0.000000 -0.005304 0.000000 0.035028
#
#
# Mechanical properties :
#
#
# Convention : Reuss Voigt Hill
#
# Bulk Modulus (GPa) = 27.68568 55.57771 41.63169
# Shear Modulus (GPa) = 14.89479 21.36020 18.12749
#
# Velocity S-wave (km/s) = 3.10150 3.71413 3.42155
# Velocity P-wave (km/s) = 5.54126 7.36790 6.51887
#
# Compressibility (1/GPa) = 0.03611976
#
# Stress axis : x y z
#
# Youngs Moduli (GPa) = 70.94579 16.26960 45.78466
#
# Poissons Ratio (x) = 0.26323 0.14174
# Poissons Ratio (y) = 1.14784 0.52037
# Poissons Ratio (z) = 0.21964 0.18491
#
# Static dielectric constant tensor:
#      x y z
#    x 1.526630 0.000000 0.001630 
#    y 0.000000 1.520150 0.000000 
#    z 0.001630 0.000000 1.502570 
# 
# From -- ./inp_files/247932.got.cif
#   From: 2010.05.17/outbox.cif.g08.bks.cpg/sg12_124_cif.got.tgz:247932.got - 2010.06.03 13:09:07.
