data_PCOD9177726
_publ_section_title
;
Structure prediction by ZEFSAII (Michael W. Deem and Ramdas Pophale) SiO2 
 PCOD9177726
Probable space group: C 2/M
;
_chemical_formula_sum "Si O2"
_cell_formula_units_Z 64
_cell_length_a 21.489280
_cell_length_b 10.631322
_cell_length_c 28.633723
_cell_angle_alpha 90.000000
_cell_angle_beta 150.385550
_cell_angle_gamma 90.000000
_cell_volume 3232.626615
_symmetry_space_group_name_H-M "C 2/M"
_symmetry_group_IT_number 12
_symmetry_cell_setting 'monoclinic'
loop_
_space_group_symop_operation_xyz
x,y,z
-x,y,-z
-x,-y,-z
x,-y,z
1/2+x,1/2+y,z
1/2-x,1/2+y,-z
1/2-x,1/2-y,-z
1/2+x,1/2-y,z
loop_
_atom_site_type_symbol
_atom_site_label
_atom_site_fract_x
_atom_site_fract_y
_atom_site_fract_z
Si Si1 0.101250 0.141003 0.106835
Si Si2 0.405135 0.854629 0.820669
Si Si3 0.257908 0.647813 0.371997
Si Si4 0.998859 0.142512 0.420427
Si Si5 0.521288 0.789790 0.282206
Si Si6 0.847842 0.353694 0.082819
Si Si7 0.111527 0.639511 0.708762
Si Si8 0.336495 0.369502 0.565037
O O1 0.085208 0.254718 0.132112
O O2 0.243609 0.147694 0.180596
O O3 0.086804 0.000000 0.118656
O O4 0.000000 0.151938 0.000000
O O5 0.300807 0.809720 0.715039
O O6 0.535672 0.857190 0.877259
O O7 0.378452 0.000000 0.817695
O O8 0.278054 0.500000 0.381190
O O9 0.396300 0.696019 0.475358
O O10 0.148182 0.660514 0.339526
O O11 0.081790 0.122728 0.428028
O O12 0.907059 0.251056 0.341887
O O13 0.951769 0.000000 0.402529
O O14 0.410044 0.809398 0.172519
O O15 0.476037 0.846324 0.302318
O O16 0.569147 0.653203 0.330194
O O17 0.801932 0.500000 0.057344
O O18 0.750000 0.250000 0.000000
O O19 0.090008 0.500000 0.674871
O O20 0.264441 0.500000 0.524501
O O21 0.250000 0.250000 0.500000
#
# Coordination Sequence:
#
# PCOD9177726 Si02
#       8
#     8   8   8   8   8   8   8   8
#     4  10  23  42  62  82 107 144 193 241 288 340
#     4   9  20  39  61  85 109 145 193 233 276 337
#     4   9  16  32  56  82 115 150 182 219 272 340
#     4   9  18  32  51  80 113 149 184 224 273 326
#     4  10  19  34  54  82 115 152 186 229 279 338
#     4  10  22  37  59  87 117 150 187 234 291 351
#     4  10  21  35  55  83 111 145 189 235 280 332
#     4  10  19  29  47  76 113 154 191 225 266 326
#
# _framework density 19.79814
#
# number of rings (size 3 to 8) (size 9 to 14) (size 15 to 20)
#    0.000    2.375    1.250    1.875    1.750    4.250 
#    0.000    3.125    0.000    3.750    0.000    0.000 
#    0.000    0.000    0.000    0.000    0.000    0.000 
#
# Total GULP energy -178158.351717 kJ/mol
# GULP energy per Si atom -5567.448491 kJ/mol
# Density = 1.975308 g / cm^3
# Si number density = 19.798140 Si / 1000 Ang^3
#
#
#
# Elastic Constant Matrix: (Units=GPa)
#
#
# Indices 1 2 3 4 5 6 
#
# 1 61.8961 34.7188 19.8788 0.0000 -2.9942 0.0000
# 2 34.7188 144.3234 73.9847 0.0001 -10.5472 0.0001
# 3 19.8788 73.9847 139.8630 0.0003 -7.4996 0.0004
# 4 0.0000 0.0001 0.0003 50.9349 0.0001 -11.5686
# 5 -2.9942 -10.5472 -7.4996 0.0001 21.3748 0.0001
# 6 0.0000 0.0001 0.0004 -11.5686 0.0001 25.4626
#
#
#
# Elastic Compliance Matrix: (Units=1/GPa)
#
#
# Indices 1 2 3 4 5 6 
#
# 1 0.018694 -0.004278 -0.000374 0.000000 0.000377 0.000000
# 2 -0.004278 0.010676 -0.004881 0.000000 0.002956 0.000000
# 3 -0.000374 -0.004881 0.009838 0.000000 0.000991 0.000000
# 4 0.000000 0.000000 0.000000 0.021892 0.000000 0.009946
# 5 0.000377 0.002956 0.000991 0.000000 0.048643 0.000000
# 6 0.000000 0.000000 0.000000 0.009946 0.000000 0.043792
#
#
# Mechanical properties :
#
#
# Convention : Reuss Voigt Hill
#
# Bulk Modulus (GPa) = 49.64561 67.02746 58.33653
# Shear Modulus (GPa) = 27.88384 34.05448 30.96916
#
# Velocity S-wave (km/s) = 3.75695 4.15189 3.95935
# Velocity P-wave (km/s) = 6.62947 7.54408 7.10152
#
# Compressibility (1/GPa) = 0.02014277
#
# Stress axis : x y z
#
# Youngs Moduli (GPa) = 53.49323 93.66686 101.64633
#
# Poissons Ratio (x) = 0.40070 0.03800
# Poissons Ratio (y) = 0.22884 0.49613
# Poissons Ratio (z) = 0.02000 0.45718
#
# Static dielectric constant tensor:
#      x y z
#    x 1.712440 0.000000 0.005920 
#    y 0.000000 1.713250 0.000000 
#    z 0.005920 0.000000 1.761120 
# 
# From -- ./inp_files/366074.got.cif
#   From: 2010.05.17/outbox.cif.g08.bks.cpg/sg12_184_cif.got.tgz:366074.got - 2010.06.03 13:09:07.
