data_PCOD9177616
_publ_section_title
;
Structure prediction by ZEFSAII (Michael W. Deem and Ramdas Pophale) SiO2 
 PCOD9177616
Probable space group: C 2/M
;
_chemical_formula_sum "Si O2"
_cell_formula_units_Z 48
_cell_length_a 23.484160
_cell_length_b 7.852142
_cell_length_c 16.502783
_cell_angle_alpha 90.000000
_cell_angle_beta 59.531710
_cell_angle_gamma 90.000000
_cell_volume 2622.903091
_symmetry_space_group_name_H-M "C 2/M"
_symmetry_group_IT_number 12
_symmetry_cell_setting 'monoclinic'
loop_
_space_group_symop_operation_xyz
x,y,z
-x,y,-z
-x,-y,-z
x,-y,z
1/2+x,1/2+y,z
1/2-x,1/2+y,-z
1/2-x,1/2-y,-z
1/2+x,1/2-y,z
loop_
_atom_site_type_symbol
_atom_site_label
_atom_site_fract_x
_atom_site_fract_y
_atom_site_fract_z
Si Si1 0.229962 0.294062 0.319583
Si Si2 0.496724 0.709158 0.908364
Si Si3 0.626887 0.298264 0.723162
Si Si4 0.176693 0.702920 0.521530
Si Si5 0.643657 0.701721 0.052105
Si Si6 0.232462 0.202723 0.134773
O O1 0.231569 0.500000 0.322247
O O2 0.303800 0.230372 0.290367
O O3 0.178953 0.236873 0.426610
O O4 0.214366 0.243138 0.239709
O O5 0.496187 0.500000 0.906888
O O6 0.561500 0.769166 0.813531
O O7 0.428233 0.770177 0.918227
O O8 0.500000 0.758453 0.000000
O O9 0.628133 0.500000 0.737639
O O10 0.628401 0.273308 0.625101
O O11 0.169410 0.500000 0.527355
O O12 0.250000 0.750000 0.500000
O O13 0.635479 0.500000 0.070575
O O14 0.680136 0.770846 0.106117
O O15 0.695739 0.726183 0.941577
O O16 0.236434 0.000000 0.122173
#
# Coordination Sequence:
#
# PCOD9177616 Si02
#       6
#     8   8   8   8   8   8
#     4   9  17  29  46  67  90 117 149 182 220 268
#     4   9  16  28  48  69  89 117 150 180 216 268
#     4   9  17  29  47  70  92 117 149 185 226 267
#     4   9  17  29  45  66  92 120 149 184 226 267
#     4   9  18  32  47  65  91 120 150 183 221 267
#     4  10  19  29  45  68  91 117 150 188 224 258
#
# _framework density 18.300332999999998
#
# number of rings (size 3 to 8) (size 9 to 14) (size 15 to 20)
#    0.000    2.833    0.000    3.000    0.000    6.667 
#    0.000    0.833    0.000    3.000    0.000    7.000 
#    0.000    0.000    0.000    0.000    0.000    0.000 
#
# Total GULP energy -133715.922371 kJ/mol
# GULP energy per Si atom -5571.496765 kJ/mol
# Density = 1.825868 g / cm^3
# Si number density = 18.300333 Si / 1000 Ang^3
#
#
#
# Elastic Constant Matrix: (Units=GPa)
#
#
# Indices 1 2 3 4 5 6 
#
# 1 71.1396 5.9266 54.6392 0.0000 -8.4097 -0.0003
# 2 5.9266 11.7844 -10.0658 0.0000 -4.2963 -0.0005
# 3 54.6392 -10.0658 157.8535 0.0000 -1.9796 -0.0001
# 4 0.0000 0.0000 0.0000 25.2703 0.0000 1.7473
# 5 -8.4097 -4.2963 -1.9796 0.0000 25.0495 0.0000
# 6 -0.0003 -0.0005 -0.0001 1.7473 0.0000 9.2175
#
#
#
# Elastic Compliance Matrix: (Units=1/GPa)
#
#
# Indices 1 2 3 4 5 6 
#
# 1 0.022939 -0.017813 -0.009026 0.000000 0.003933 0.000000
# 2 -0.017813 0.110348 0.013378 0.000000 0.014003 0.000006
# 3 -0.009026 0.013378 0.010313 0.000000 0.000079 0.000001
# 4 0.000000 0.000000 0.000000 0.040098 0.000000 -0.007601
# 5 0.003933 0.014003 0.000079 0.000000 0.043649 0.000001
# 6 0.000000 0.000006 0.000001 -0.007601 0.000001 0.109930
#
#
# Mechanical properties :
#
#
# Convention : Reuss Voigt Hill
#
# Bulk Modulus (GPa) = 8.57060 37.97528 23.27294
# Shear Modulus (GPa) = 12.40409 24.59264 18.49836
#
# Velocity S-wave (km/s) = 2.60630 3.66981 3.18279
# Velocity P-wave (km/s) = 3.70817 6.22518 5.12364
#
# Compressibility (1/GPa) = 0.11667796
#
# Stress axis : x y z
#
# Youngs Moduli (GPa) = 43.59479 9.06220 96.96085
#
# Poissons Ratio (x) = 0.16142 0.87521
# Poissons Ratio (y) = 0.77654 -1.29712
# Poissons Ratio (z) = 0.39351 -0.12123
#
# Static dielectric constant tensor:
#      x y z
#    x 1.626980 0.000000 0.010660 
#    y 0.000000 1.700960 0.000000 
#    z 0.010660 0.000000 1.647090 
# 
# From -- ./inp_files/229918.got.cif
#   From: 2010.05.17/outbox.cif.g08.bks.cpg/sg12_115_cif.got.tgz:229918.got - 2010.06.03 13:09:07.
