data_PCOD9177710
_publ_section_title
;
Structure prediction by ZEFSAII (Michael W. Deem and Ramdas Pophale) SiO2 
 PCOD9177710
Probable space group: C 2/M
;
_chemical_formula_sum "Si O2"
_cell_formula_units_Z 56
_cell_length_a 24.708371
_cell_length_b 21.547936
_cell_length_c 18.060167
_cell_angle_alpha 90.000000
_cell_angle_beta 159.335745
_cell_angle_gamma 90.000000
_cell_volume 3393.222658
_symmetry_space_group_name_H-M "C 2/M"
_symmetry_group_IT_number 12
_symmetry_cell_setting 'monoclinic'
loop_
_space_group_symop_operation_xyz
x,y,z
-x,y,-z
-x,-y,-z
x,-y,z
1/2+x,1/2+y,z
1/2-x,1/2+y,-z
1/2-x,1/2-y,-z
1/2+x,1/2-y,z
loop_
_atom_site_type_symbol
_atom_site_label
_atom_site_fract_x
_atom_site_fract_y
_atom_site_fract_z
Si Si1 0.682089 0.214746 0.741190
Si Si2 0.846613 0.155236 0.497703
Si Si3 0.148994 0.343196 0.999210
Si Si4 0.791736 0.821600 0.034153
Si Si5 0.710228 0.820343 0.472131
Si Si6 0.846185 0.426129 0.850078
Si Si7 0.681124 0.283638 0.238137
O O1 0.500000 0.221987 0.500000
O O2 0.760401 0.282035 0.856266
O O3 0.752623 0.192096 0.754265
O O4 0.724374 0.171779 0.865490
O O5 0.782063 0.140813 0.497054
O O6 0.796653 0.101185 0.378486
O O7 0.763822 0.217792 0.361336
O O8 0.026474 0.168694 0.732599
O O9 0.219535 0.359994 0.009556
O O10 0.154013 0.394036 0.070021
O O11 0.971798 0.326388 0.759697
O O12 0.750000 0.750000 0.000000
O O13 0.750000 0.750000 0.500000
O O14 0.780401 0.827740 0.643239
O O15 0.841723 0.500000 0.850387
O O16 0.000000 0.408720 0.000000
O O17 0.500000 0.273165 0.000000
#
# Coordination Sequence:
#
# PCOD9177710 Si02
#       7
#     8   8   8   8   8   8   8
#     4  11  19  30  48  73 109 142 171 201 253 317
#     4  11  19  34  49  70 106 143 171 218 264 301
#     4  11  20  34  49  70 104 142 172 218 260 304
#     4  10  21  32  47  73 105 143 173 204 257 326
#     4  10  19  29  47  71  98 137 180 209 257 322
#     4  11  23  38  57  79 101 140 191 231 262 301
#     4  11  18  27  47  73 102 133 177 207 250 320
#
# _framework density 16.503485000000001
#
# number of rings (size 3 to 8) (size 9 to 14) (size 15 to 20)
#    0.000    1.286    2.857    9.000    0.000    0.000 
#    0.000    1.429    0.000    0.000    0.000    0.000 
#    0.000   22.857    0.000    0.000    0.000    0.000 
#
# Total GULP energy -156217.054850 kJ/mol
# GULP energy per Si atom -5579.180530 kJ/mol
# Density = 1.646592 g / cm^3
# Si number density = 16.503485 Si / 1000 Ang^3
#
#
#
# Elastic Constant Matrix: (Units=GPa)
#
#
# Indices 1 2 3 4 5 6 
#
# 1 170.7452 25.0298 71.3864 0.0000 -12.6240 0.0000
# 2 25.0298 32.3210 25.4169 0.0000 -7.5552 0.0000
# 3 71.3864 25.4169 172.2952 0.0000 10.5534 0.0000
# 4 0.0000 0.0000 0.0000 14.4643 0.0000 6.3799
# 5 -12.6240 -7.5552 10.5534 0.0000 36.3628 0.0000
# 6 0.0000 0.0000 0.0000 6.3799 0.0000 19.5705
#
#
#
# Elastic Compliance Matrix: (Units=1/GPa)
#
#
# Indices 1 2 3 4 5 6 
#
# 1 0.007743 -0.002998 -0.002945 0.000000 0.002920 0.000000
# 2 -0.002998 0.039261 -0.005076 0.000000 0.008589 0.000000
# 3 -0.002945 -0.005076 0.008043 0.000000 -0.004411 0.000000
# 4 0.000000 0.000000 0.000000 0.080746 0.000000 -0.026323
# 5 0.002920 0.008589 -0.004411 0.000000 0.031579 0.000000
# 6 0.000000 0.000000 0.000000 -0.026323 0.000000 0.059678
#
#
# Mechanical properties :
#
#
# Convention : Reuss Voigt Hill
#
# Bulk Modulus (GPa) = 30.29403 68.78085 49.53744
# Shear Modulus (GPa) = 19.22402 30.98140 25.10271
#
# Velocity S-wave (km/s) = 3.41669 4.33744 3.90430
# Velocity P-wave (km/s) = 5.82761 8.17628 7.09974
#
# Compressibility (1/GPa) = 0.03300980
#
# Stress axis : x y z
#
# Youngs Moduli (GPa) = 129.14472 25.47077 124.33104
#
# Poissons Ratio (x) = 0.07637 0.36613
# Poissons Ratio (y) = 0.38720 0.63106
# Poissons Ratio (z) = 0.38030 0.12928
#
# Static dielectric constant tensor:
#      x y z
#    x 1.641150 0.000000 -0.017420 
#    y 0.000000 1.526580 0.000000 
#    z -0.017420 0.000000 1.559320 
# 
# From -- ./inp_files/99611.got.cif
#   From: 2010.05.17/outbox.cif.g08.bks.cpg/sg12_50_cif.got.tgz:99611.got - 2010.06.03 13:09:07.
