data_PCOD9177246
_publ_section_title
;
Structure prediction by ZEFSAII (Michael W. Deem and Ramdas Pophale) SiO2 
 PCOD9177246
Probable space group: C 2/M
;
_chemical_formula_sum "Si O2"
_cell_formula_units_Z 56
_cell_length_a 27.815966
_cell_length_b 7.630868
_cell_length_c 14.968397
_cell_angle_alpha 90.000000
_cell_angle_beta 100.575130
_cell_angle_gamma 90.000000
_cell_volume 3123.227152
_symmetry_space_group_name_H-M "C 2/M"
_symmetry_group_IT_number 12
_symmetry_cell_setting 'monoclinic'
loop_
_space_group_symop_operation_xyz
x,y,z
-x,y,-z
-x,-y,-z
x,-y,z
1/2+x,1/2+y,z
1/2-x,1/2+y,-z
1/2-x,1/2-y,-z
1/2+x,1/2-y,z
loop_
_atom_site_type_symbol
_atom_site_label
_atom_site_fract_x
_atom_site_fract_y
_atom_site_fract_z
Si Si1 0.949284 0.703353 0.448583
Si Si2 0.630941 0.297517 0.436747
Si Si3 0.686791 0.711646 0.293081
Si Si4 0.124844 0.714289 0.719592
Si Si5 0.322508 0.204047 0.094035
Si Si6 0.285884 0.208339 0.894593
Si Si7 0.792215 0.288260 0.395256
O O1 0.959455 0.500000 0.430456
O O2 0.909367 0.708159 0.514627
O O3 0.922448 0.778034 0.351395
O O4 0.000000 0.783424 0.500000
O O5 0.616131 0.500000 0.425374
O O6 0.643064 0.226439 0.342433
O O7 0.682303 0.286388 0.507975
O O8 0.686943 0.500000 0.298900
O O9 0.687261 0.758395 0.189292
O O10 0.738453 0.774298 0.351608
O O11 0.122681 0.500000 0.721393
O O12 0.137994 0.778598 0.823106
O O13 0.170991 0.757877 0.672548
O O14 0.268852 0.213753 0.121944
O O15 0.335162 0.000000 0.086787
O O16 0.314218 0.277985 0.991952
O O17 0.279447 0.000000 0.903507
O O18 0.791648 0.500000 0.403366
#
# Coordination Sequence:
#
# PCOD9177246 Si02
#       7
#     8   8   8   8   8   8   8
#     4   9  18  33  51  69  88 113 145 180 222 274
#     4  10  20  30  44  66  89 115 147 184 224 264
#     4  10  19  31  43  58  88 127 154 177 219 264
#     4   8  13  25  46  64  83 115 147 175 215 262
#     4   9  16  29  43  59  88 122 151 182 223 262
#     4  10  19  26  40  64  88 118 156 191 214 245
#     4   9  16  28  44  60  85 123 154 177 211 257
#
# _framework density 17.930173
#
# number of rings (size 3 to 8) (size 9 to 14) (size 15 to 20)
#    0.000    2.714    1.429    2.143    0.000    2.571 
#    0.000    0.000    0.000    0.000    0.000    1.000 
#    0.000    8.000    0.000    0.000    0.000    0.000 
#
# Total GULP energy -156012.574487 kJ/mol
# GULP energy per Si atom -5571.877660 kJ/mol
# Density = 1.788936 g / cm^3
# Si number density = 17.930173 Si / 1000 Ang^3
#
#
#
# Elastic Constant Matrix: (Units=GPa)
#
#
# Indices 1 2 3 4 5 6 
#
# 1 57.1138 -1.4126 55.6457 0.0000 21.2919 0.0000
# 2 -1.4126 33.9550 -9.0649 0.0000 2.8786 0.0000
# 3 55.6457 -9.0649 145.4949 0.0000 10.4635 0.0000
# 4 0.0000 0.0000 0.0000 13.0181 0.0000 -2.9286
# 5 21.2919 2.8786 10.4635 0.0000 24.6309 0.0000
# 6 0.0000 0.0000 0.0000 -2.9286 0.0000 7.2595
#
#
#
# Elastic Compliance Matrix: (Units=1/GPa)
#
#
# Indices 1 2 3 4 5 6 
#
# 1 0.042910 0.000655 -0.014129 0.000000 -0.031168 0.000000
# 2 0.000655 0.030435 0.002003 0.000000 -0.004974 0.000000
# 3 -0.014129 0.002003 0.011904 0.000000 0.006923 0.000000
# 4 0.000000 0.000000 0.000000 0.084483 0.000000 0.034081
# 5 -0.031168 -0.004974 0.006923 0.000000 0.065183 0.000000
# 6 0.000000 0.000000 0.000000 0.034081 0.000000 0.151500
#
#
# Mechanical properties :
#
#
# Convention : Reuss Voigt Hill
#
# Bulk Modulus (GPa) = 16.04934 36.32225 26.18579
# Shear Modulus (GPa) = 11.62456 21.74140 16.68298
#
# Velocity S-wave (km/s) = 2.54898 3.48596 3.05362
# Velocity P-wave (km/s) = 4.19923 6.04187 5.20277
#
# Compressibility (1/GPa) = 0.06230785
#
# Stress axis : x y z
#
# Youngs Moduli (GPa) = 23.30446 32.85736 84.00664
#
# Poissons Ratio (x) = -0.02153 1.18694
# Poissons Ratio (y) = -0.01527 -0.16829
# Poissons Ratio (z) = 0.32927 -0.06582
#
# Static dielectric constant tensor:
#      x y z
#    x 1.594940 0.000000 0.013780 
#    y 0.000000 1.425160 0.000000 
#    z 0.013780 0.000000 1.670180 
# 
# From -- ./inp_files/247722.got.cif
#   From: 2010.05.17/outbox.cif.g08.bks.cpg/sg12_124_cif.got.tgz:247722.got - 2010.06.03 13:09:07.
