data_PCOD9177107
_publ_section_title
;
Structure prediction by ZEFSAII (Michael W. Deem and Ramdas Pophale) SiO2 
 PCOD9177107
Probable space group: C 2/M
;
_chemical_formula_sum "Si O2"
_cell_formula_units_Z 58
_cell_length_a 12.356841
_cell_length_b 30.749514
_cell_length_c 18.193291
_cell_angle_alpha 90.000000
_cell_angle_beta 28.325706
_cell_angle_gamma 90.000000
_cell_volume 3280.029976
_symmetry_space_group_name_H-M "C 2/M"
_symmetry_group_IT_number 12
_symmetry_cell_setting 'monoclinic'
loop_
_space_group_symop_operation_xyz
x,y,z
-x,y,-z
-x,-y,-z
x,-y,z
1/2+x,1/2+y,z
1/2-x,1/2+y,-z
1/2-x,1/2-y,-z
1/2+x,1/2-y,z
loop_
_atom_site_type_symbol
_atom_site_label
_atom_site_fract_x
_atom_site_fract_y
_atom_site_fract_z
Si Si1 0.500000 0.500000 0.000000
Si Si2 0.553135 0.340951 0.834027
Si Si3 0.624564 0.352909 0.618238
Si Si4 0.257139 0.548686 0.435087
Si Si5 0.219588 0.937087 0.751939
Si Si6 0.379750 0.698020 0.645948
Si Si7 0.619745 0.789607 0.116880
Si Si8 0.546142 0.789189 0.332974
O O1 0.565559 0.463145 0.899537
O O2 0.579007 0.341350 0.730413
O O3 0.652165 0.387035 0.799349
O O4 0.716128 0.306044 0.775424
O O5 0.293425 0.330247 0.009472
O O6 0.645219 0.405060 0.595345
O O7 0.429199 0.334112 0.683082
O O8 0.855554 0.326224 0.460042
O O9 0.326055 0.500000 0.420876
O O10 0.306103 0.550084 0.318315
O O11 0.985129 0.553424 0.609560
O O12 0.500000 0.681923 0.500000
O O13 0.496038 0.743999 0.599340
O O14 0.115073 0.703173 0.785654
O O15 0.568824 0.780300 0.232776
O O16 0.750000 0.750000 0.000000
#
# Coordination Sequence:
#
# PCOD9177107 Si02
#       8
#     2   8   8   8   8   8   8   8
#     4  12  20  30  52  88 124 162 178 238 324 362
#     4  11  23  38  59  93 123 157 197 253 302 361
#     4  11  23  39  65  88 117 164 204 243 302 357
#     4  10  18  38  57  86 116 160 198 246 293 364
#     4  10  20  32  56  86 127 152 193 239 309 367
#     4  12  25  42  62  85 120 162 210 245 286 367
#     4  12  26  41  58  88 123 163 202 249 303 348
#     4  12  23  39  62  87 124 160 199 249 300 363
#
# _framework density 17.682765
#
# number of rings (size 3 to 8) (size 9 to 14) (size 15 to 20)
#    0.000    0.828    5.517    3.310    1.931    1.655 
#    0.000    0.000    0.000    0.414    1.793    1.931 
#    0.000    0.000    0.000    0.000    0.000    0.000 
#
# Total GULP energy -161651.283057 kJ/mol
# GULP energy per Si atom -5574.182174 kJ/mol
# Density = 1.764252 g / cm^3
# Si number density = 17.682765 Si / 1000 Ang^3
#
#
#
# Elastic Constant Matrix: (Units=GPa)
#
#
# Indices 1 2 3 4 5 6 
#
# 1 100.1419 31.8497 24.2116 0.0000 -4.6836 0.0002
# 2 31.8497 87.4832 -0.3385 0.0002 -4.5740 0.0000
# 3 24.2116 -0.3385 53.8287 0.0008 -4.7565 0.0010
# 4 0.0000 0.0002 0.0008 24.2726 -0.0001 11.0826
# 5 -4.6836 -4.5740 -4.7565 -0.0001 31.1971 -0.0003
# 6 0.0002 0.0000 0.0010 11.0826 -0.0003 18.1510
#
#
#
# Elastic Compliance Matrix: (Units=1/GPa)
#
#
# Indices 1 2 3 4 5 6 
#
# 1 0.012900 -0.004700 -0.005800 0.000000 0.000363 0.000000
# 2 -0.004700 0.013234 0.002338 0.000000 0.001591 0.000000
# 3 -0.005800 0.002338 0.021443 0.000000 0.002741 -0.000001
# 4 0.000000 0.000000 0.000000 0.057124 0.000000 -0.034879
# 5 0.000363 0.001591 0.002741 0.000000 0.032760 0.000001
# 6 0.000000 0.000000 -0.000001 -0.034879 0.000001 0.076389
#
#
# Mechanical properties :
#
#
# Convention : Reuss Voigt Hill
#
# Bulk Modulus (GPa) = 31.99646 39.21102 35.60374
# Shear Modulus (GPa) = 20.78212 27.10621 23.94416
#
# Velocity S-wave (km/s) = 3.43195 3.91950 3.68380
# Velocity P-wave (km/s) = 5.81707 6.53499 6.18646
#
# Compressibility (1/GPa) = 0.03125346
#
# Stress axis : x y z
#
# Youngs Moduli (GPa) = 77.52075 75.56261 46.63524
#
# Poissons Ratio (x) = 0.35513 0.27047
# Poissons Ratio (y) = 0.36433 -0.10902
# Poissons Ratio (z) = 0.44959 -0.17665
#
# Static dielectric constant tensor:
#      x y z
#    x 1.590110 0.000000 -0.007430 
#    y 0.000000 1.668600 0.000010 
#    z -0.007430 0.000010 1.599650 
# 
# From -- ./inp_files/266194.got.cif
#   From: 2010.05.17/outbox.cif.g08.bks.cpg/sg12_134_cif.got.tgz:266194.got - 2010.06.03 13:09:07.
