data_PCOD9177323
_publ_section_title
;
Structure prediction by ZEFSAII (Michael W. Deem and Ramdas Pophale) SiO2 
 PCOD9177323
Probable space group: C 2/M
;
_chemical_formula_sum "Si O2"
_cell_formula_units_Z 40
_cell_length_a 23.758791
_cell_length_b 12.820224
_cell_length_c 6.448154
_cell_angle_alpha 90.000000
_cell_angle_beta 95.531852
_cell_angle_gamma 90.000000
_cell_volume 1954.915609
_symmetry_space_group_name_H-M "C 2/M"
_symmetry_group_IT_number 12
_symmetry_cell_setting 'monoclinic'
loop_
_space_group_symop_operation_xyz
x,y,z
-x,y,-z
-x,-y,-z
x,-y,z
1/2+x,1/2+y,z
1/2-x,1/2+y,-z
1/2-x,1/2-y,-z
1/2+x,1/2-y,z
loop_
_atom_site_type_symbol
_atom_site_label
_atom_site_fract_x
_atom_site_fract_y
_atom_site_fract_z
Si Si1 0.561793 0.804971 0.497440
Si Si2 0.828157 0.679372 0.697646
Si Si3 0.052763 0.882632 0.174022
Si Si4 0.864263 0.223041 0.103482
Si Si5 0.294852 0.383016 0.435135
O O1 0.500000 0.856464 0.500000
O O2 0.613202 0.857559 0.386672
O O3 0.550199 0.700346 0.357840
O O4 0.589536 0.774093 0.726542
O O5 0.772828 0.618109 0.608570
O O6 0.814843 0.796567 0.606799
O O7 0.835731 0.690193 0.946563
O O8 0.055186 0.000000 0.255750
O O9 0.104705 0.854255 0.043388
O O10 0.000000 0.873092 0.000000
O O11 0.820573 0.160772 0.230101
O O12 0.314896 0.500000 0.485857
#
# Coordination Sequence:
#
# PCOD9177323 Si02
#       5
#     8   8   8   8   8
#     4  10  19  32  48  70  99 137 171 200 248 300
#     4   9  21  35  52  78 104 131 172 214 250 302
#     4  10  19  28  41  67 101 133 168 202 236 296
#     4  10  19  32  50  71 102 133 172 204 250 301
#     4  10  20  36  55  75 102 135 170 212 259 302
#
# _framework density 20.461241000000001
#
# number of rings (size 3 to 8) (size 9 to 14) (size 15 to 20)
#    0.000    2.200    2.000    1.200    0.000    9.200 
#    0.000    0.000    0.000    0.600    0.000    1.400 
#    0.000    0.000    0.000    0.000    0.000    0.000 
#
# Total GULP energy -111576.759806 kJ/mol
# GULP energy per Si atom -5578.837990 kJ/mol
# Density = 2.041467 g / cm^3
# Si number density = 20.461241 Si / 1000 Ang^3
#
#
#
# Elastic Constant Matrix: (Units=GPa)
#
#
# Indices 1 2 3 4 5 6 
#
# 1 138.1830 4.9149 21.6160 0.0000 9.2726 0.0000
# 2 4.9149 26.0202 14.0065 0.0000 -0.1986 0.0000
# 3 21.6160 14.0065 99.3051 0.0000 11.7047 0.0000
# 4 0.0000 0.0000 0.0000 -2.0930 0.0000 6.5025
# 5 9.2726 -0.1986 11.7047 0.0000 27.8608 0.0000
# 6 0.0000 0.0000 0.0000 6.5025 0.0000 -0.2541
#
#
#
# Elastic Compliance Matrix: (Units=1/GPa)
#
#
# Indices 1 2 3 4 5 6 
#
# 1 0.007602 -0.000742 -0.001316 0.000000 -0.001982 0.000000
# 2 -0.000742 0.041886 -0.006113 0.000000 0.003114 0.000000
# 3 -0.001316 -0.006113 0.011754 0.000000 -0.004544 0.000000
# 4 0.000000 0.000000 0.000000 0.006087 0.000000 0.155746
# 5 -0.001982 0.003114 -0.004544 0.000000 0.038483 0.000000
# 6 0.000000 0.000000 0.000000 0.155746 0.000000 0.050132
#
#
# Mechanical properties :
#
#
# Convention : Reuss Voigt Hill
#
# Bulk Modulus (GPa) = 22.27241 38.28699 30.27970
# Shear Modulus (GPa) = 26.70150 19.96746 23.33448
#
# Velocity S-wave (km/s) = 3.61637 3.12728 3.38068
# Velocity P-wave (km/s) = 5.32412 5.63847 5.48355
#
# Compressibility (1/GPa) = 0.04489859
#
# Stress axis : x y z
#
# Youngs Moduli (GPa) = 131.54194 23.87406 85.07523
#
# Poissons Ratio (x) = 0.01773 0.11199
# Poissons Ratio (y) = 0.09767 0.52009
# Poissons Ratio (z) = 0.17316 0.14595
#
# Static dielectric constant tensor:
#      x y z
#    x 1.791500 0.000000 0.007780 
#    y 0.000000 1.697740 0.000000 
#    z 0.007780 0.000000 1.704800 
# 
# From -- ./inp_files/24044.got.cif
#   From: 2010.05.17/outbox.cif.g08.bks.cpg/sg12_13_cif.got.tgz:24044.got - 2010.06.03 13:09:07.
