data_PCOD9177019
_publ_section_title
;
Structure prediction by ZEFSAII (Michael W. Deem and Ramdas Pophale) SiO2 
 PCOD9177019
Probable space group: C 2/M
;
_chemical_formula_sum "Si O2"
_cell_formula_units_Z 46
_cell_length_a 13.724583
_cell_length_b 20.210223
_cell_length_c 9.276742
_cell_angle_alpha 90.000000
_cell_angle_beta 61.408996
_cell_angle_gamma 90.000000
_cell_volume 2259.378581
_symmetry_space_group_name_H-M "C 2/M"
_symmetry_group_IT_number 12
_symmetry_cell_setting 'monoclinic'
loop_
_space_group_symop_operation_xyz
x,y,z
-x,y,-z
-x,-y,-z
x,-y,z
1/2+x,1/2+y,z
1/2-x,1/2+y,-z
1/2-x,1/2-y,-z
1/2+x,1/2-y,z
loop_
_atom_site_type_symbol
_atom_site_label
_atom_site_fract_x
_atom_site_fract_y
_atom_site_fract_z
Si Si1 0.996476 0.424648 0.828899
Si Si2 0.155269 0.172408 0.216825
Si Si3 0.000000 0.000000 0.000000
Si Si4 0.572387 0.376478 0.749668
Si Si5 0.253802 0.422104 0.600325
Si Si6 0.500000 0.734098 0.000000
Si Si7 0.147428 0.309718 0.133377
O O1 0.957124 0.500000 0.845022
O O2 0.121446 0.419026 0.683861
O O3 0.917307 0.376999 0.794432
O O4 0.000000 0.410520 0.000000
O O5 0.211507 0.124864 0.292016
O O6 0.151483 0.251590 0.249052
O O7 0.032825 0.144552 0.274555
O O8 0.233757 0.171872 0.018964
O O9 0.960226 0.941696 0.140637
O O10 0.680468 0.392874 0.581509
O O11 0.579771 0.314200 0.852011
O O12 0.283489 0.500000 0.602387
O O13 0.572989 0.776742 0.057804
#
# Coordination Sequence:
#
# PCOD9177019 Si02
#       7
#     8   8   2   8   8   4   8
#     4  10  19  34  59  86 112 152 194 237 285 338
#     4  10  21  32  55  84 118 154 184 231 293 335
#     4  10  20  40  54  72 110 158 190 214 290 338
#     4  10  21  35  54  83 111 153 189 233 283 342
#     4  11  21  35  56  88 124 144 191 247 286 333
#     4   9  18  35  57  76 113 152 204 226 275 346
#     4  10  18  37  56  81 119 152 193 237 271 353
#
# _framework density 20.359579
#
# number of rings (size 3 to 8) (size 9 to 14) (size 15 to 20)
#    0.000    1.913    3.478    0.522    1.217    0.696 
#    0.000    9.565    0.000    0.000    0.000    1.217 
#    0.000    0.000    0.000    0.000    0.000    0.000 
#
# Total GULP energy -128060.993923 kJ/mol
# GULP energy per Si atom -5567.869301 kJ/mol
# Density = 2.031324 g / cm^3
# Si number density = 20.359579 Si / 1000 Ang^3
#
#
#
# Elastic Constant Matrix: (Units=GPa)
#
#
# Indices 1 2 3 4 5 6 
#
# 1 21.9196 19.4009 0.8351 0.0000 -9.0928 0.0000
# 2 19.4009 124.2533 38.6875 0.0000 -12.0668 0.0000
# 3 0.8351 38.6875 92.6481 0.0000 -19.7993 0.0000
# 4 0.0000 0.0000 0.0000 4.4983 0.0000 -9.1368
# 5 -9.0928 -12.0668 -19.7993 0.0000 20.0110 0.0000
# 6 0.0000 0.0000 0.0000 -9.1368 0.0000 34.8602
#
#
#
# Elastic Compliance Matrix: (Units=1/GPa)
#
#
# Indices 1 2 3 4 5 6 
#
# 1 0.070375 -0.011100 0.011926 0.000000 0.037084 0.000000
# 2 -0.011100 0.011081 -0.005297 0.000000 -0.003603 0.000000
# 3 0.011926 -0.005297 0.016959 0.000000 0.019005 0.000000
# 4 0.000000 0.000000 0.000000 0.475376 0.000000 0.124595
# 5 0.037084 -0.003603 0.019005 0.000000 0.083454 0.000000
# 6 0.000000 0.000000 0.000000 0.124595 0.000000 0.061342
#
#
# Mechanical properties :
#
#
# Convention : Reuss Voigt Hill
#
# Bulk Modulus (GPa) = 11.17666 39.62979 25.40322
# Shear Modulus (GPa) = 6.60194 23.86708 15.23451
#
# Velocity S-wave (km/s) = 1.80270 3.42757 2.73842
# Velocity P-wave (km/s) = 3.13600 5.93056 4.74373
#
# Compressibility (1/GPa) = 0.08947220
#
# Stress axis : x y z
#
# Youngs Moduli (GPa) = 14.20963 90.24801 58.96478
#
# Poissons Ratio (x) = 1.00176 -0.70320
# Poissons Ratio (y) = 0.15773 0.31233
# Poissons Ratio (z) = -0.16946 0.47803
#
# Static dielectric constant tensor:
#      x y z
#    x 1.752550 0.000000 0.024110 
#    y 0.000000 1.748380 0.000000 
#    z 0.024110 0.000000 1.737830 
# 
# From -- ./inp_files/146959.got.cif
#   From: 2010.05.17/outbox.cif.g08.bks.cpg/sg12_74_cif.got.tgz:146959.got - 2010.06.03 13:09:07.
