data_PCOD9177297
_publ_section_title
;
Structure prediction by ZEFSAII (Michael W. Deem and Ramdas Pophale) SiO2 
 PCOD9177297
Probable space group: C 2/M
;
_chemical_formula_sum "Si O2"
_cell_formula_units_Z 64
_cell_length_a 27.239744
_cell_length_b 9.218764
_cell_length_c 18.618404
_cell_angle_alpha 90.000000
_cell_angle_beta 69.363396
_cell_angle_gamma 90.000000
_cell_volume 4375.394852
_symmetry_space_group_name_H-M "C 2/M"
_symmetry_group_IT_number 12
_symmetry_cell_setting 'monoclinic'
loop_
_space_group_symop_operation_xyz
x,y,z
-x,y,-z
-x,-y,-z
x,-y,z
1/2+x,1/2+y,z
1/2-x,1/2+y,-z
1/2-x,1/2-y,-z
1/2+x,1/2-y,z
loop_
_atom_site_type_symbol
_atom_site_label
_atom_site_fract_x
_atom_site_fract_y
_atom_site_fract_z
Si Si1 0.168660 0.170725 0.525936
Si Si2 0.251826 0.671311 0.384342
Si Si3 0.555209 0.827319 0.379362
Si Si4 0.327993 0.167263 0.922289
Si Si5 0.254598 0.828380 0.232667
Si Si6 0.136341 0.171126 0.234086
Si Si7 0.208105 0.832563 0.924023
Si Si8 0.934140 0.327508 0.456829
O O1 0.201551 0.255992 0.448334
O O2 0.200641 0.188961 0.583563
O O3 0.110812 0.236610 0.558268
O O4 0.167540 0.000000 0.509297
O O5 0.242636 0.500000 0.378149
O O6 0.262973 0.750124 0.303949
O O7 0.592426 0.738887 0.307759
O O8 0.493451 0.794681 0.401776
O O9 0.568205 0.797946 0.456291
O O10 0.562535 0.000000 0.364276
O O11 0.360664 0.247775 0.843801
O O12 0.267709 0.167307 0.924593
O O13 0.343787 0.000000 0.922917
O O14 0.326530 0.252554 0.998093
O O15 0.193395 0.809578 0.241972
O O16 0.288259 0.754282 0.152193
O O17 0.264971 0.000000 0.231543
O O18 0.128398 0.000000 0.227798
O O19 0.192761 0.000000 0.921823
O O20 0.925501 0.500000 0.451659
#
# Coordination Sequence:
#
# PCOD9177297 Si02
#       8
#     8   8   8   8   8   8   8   8
#     4  10  20  32  46  64  85 110 142 179 217 256
#     4  10  20  32  45  62  85 113 144 177 214 255
#     4   9  18  31  45  63  85 111 144 177 211 255
#     4   9  16  26  40  57  80 112 145 175 208 249
#     4  10  19  29  42  62  87 114 146 180 212 250
#     4  10  19  28  40  61  87 114 144 179 215 250
#     4   9  16  26  40  58  82 112 143 174 210 251
#     4   9  18  32  48  63  83 112 143 176 215 257
#
# _framework density 14.627252
#
# number of rings (size 3 to 8) (size 9 to 14) (size 15 to 20)
#    0.000    2.500    0.000    3.750    0.000    9.000 
#    0.000    1.250    0.000    0.000    0.000    0.000 
#    0.000    1.000    0.000   10.500    0.000    6.250 
#
# Total GULP energy -178444.212199 kJ/mol
# GULP energy per Si atom -5576.381631 kJ/mol
# Density = 1.459396 g / cm^3
# Si number density = 14.627252 Si / 1000 Ang^3
#
#
#
# Elastic Constant Matrix: (Units=GPa)
#
#
# Indices 1 2 3 4 5 6 
#
# 1 38.6293 39.5654 17.7834 0.0000 -5.7911 0.0000
# 2 39.5654 116.5661 78.3998 0.0000 -3.9981 0.0000
# 3 17.7834 78.3998 116.4871 0.0000 -6.6393 0.0000
# 4 0.0000 0.0000 0.0000 30.9905 0.0000 -1.1412
# 5 -5.7911 -3.9981 -6.6393 0.0000 17.4629 0.0000
# 6 0.0000 0.0000 0.0000 -1.1412 0.0000 21.0360
#
#
#
# Elastic Compliance Matrix: (Units=1/GPa)
#
#
# Indices 1 2 3 4 5 6 
#
# 1 0.044395 -0.019298 0.006949 0.000000 0.012946 0.000000
# 2 -0.019298 0.024066 -0.013596 0.000000 -0.006059 0.000000
# 3 0.006949 -0.013596 0.016997 0.000000 0.005654 0.000000
# 4 0.000000 0.000000 0.000000 0.032333 0.000000 0.001754
# 5 0.012946 -0.006059 0.005654 0.000000 0.062320 0.000000
# 6 0.000000 0.000000 0.000000 0.001754 0.000000 0.047633
#
#
# Mechanical properties :
#
#
# Convention : Reuss Voigt Hill
#
# Bulk Modulus (GPa) = 29.79216 60.35331 45.07273
# Shear Modulus (GPa) = 17.19258 22.96013 20.07636
#
# Velocity S-wave (km/s) = 3.43210 3.96622 3.70879
# Velocity P-wave (km/s) = 6.00979 7.89462 7.01579
#
# Compressibility (1/GPa) = 0.03356587
#
# Stress axis : x y z
#
# Youngs Moduli (GPa) = 22.52515 41.55254 58.83429
#
# Poissons Ratio (x) = 0.80189 -0.40882
# Poissons Ratio (y) = 0.43470 0.79993
# Poissons Ratio (z) = -0.15652 0.56496
#
# Static dielectric constant tensor:
#      x y z
#    x 1.463300 0.000000 0.002610 
#    y 0.000000 1.486260 0.000000 
#    z 0.002610 0.000000 1.467310 
# 
# From -- ./inp_files/294531.got.cif
#   From: 2010.05.17/outbox.cif.g08.bks.cpg/sg12_148_cif.got.tgz:294531.got - 2010.06.03 13:09:07.
