data_PCOD9177043
_publ_section_title
;
Structure prediction by ZEFSAII (Michael W. Deem and Ramdas Pophale) SiO2 
 PCOD9177043
Probable space group: C 2/M
;
_chemical_formula_sum "Si O2"
_cell_formula_units_Z 48
_cell_length_a 19.757939
_cell_length_b 13.154852
_cell_length_c 9.123812
_cell_angle_alpha 90.000000
_cell_angle_beta 99.672703
_cell_angle_gamma 90.000000
_cell_volume 2337.682556
_symmetry_space_group_name_H-M "C 2/M"
_symmetry_group_IT_number 12
_symmetry_cell_setting 'monoclinic'
loop_
_space_group_symop_operation_xyz
x,y,z
-x,y,-z
-x,-y,-z
x,-y,z
1/2+x,1/2+y,z
1/2-x,1/2+y,-z
1/2-x,1/2-y,-z
1/2+x,1/2-y,z
loop_
_atom_site_type_symbol
_atom_site_label
_atom_site_fract_x
_atom_site_fract_y
_atom_site_fract_z
Si Si1 0.927652 0.500000 0.145122
Si Si2 0.497732 0.217886 0.173898
Si Si3 0.234632 0.137719 0.957313
Si Si4 0.656063 0.000000 0.150556
Si Si5 0.101014 0.119179 0.708419
Si Si6 0.270563 0.000000 0.215796
Si Si7 0.421623 0.213858 0.529646
Si Si8 0.349278 0.000000 0.505307
O O1 0.964576 0.606264 0.196253
O O2 0.851014 0.500000 0.189508
O O3 0.914762 0.500000 0.964222
O O4 0.453494 0.312759 0.219915
O O5 0.568807 0.222422 0.291220
O O6 0.500000 0.226152 0.000000
O O7 0.299319 0.093257 0.893266
O O8 0.169001 0.119354 0.832949
O O9 0.250000 0.250000 0.000000
O O10 0.232871 0.089998 0.118821
O O11 0.653374 0.000000 0.321487
O O12 0.110104 0.187984 0.564287
O O13 0.082125 0.000000 0.674420
O O14 0.277557 0.000000 0.391365
O O15 0.500000 0.208553 0.500000
O O16 0.385795 0.106997 0.479710
#
# Coordination Sequence:
#
# PCOD9177043 Si02
#       8
#     4   8   8   4   8   4   8   4
#     4  10  18  37  60  88 124 152 185 240 300 374
#     4  11  22  36  59  91 117 151 196 246 301 342
#     4  10  19  39  62  81 109 153 205 235 277 359
#     4  10  22  35  60  94 116 149 185 241 319 338
#     4  11  22  41  61  76 117 162 203 237 281 351
#     4  10  20  33  58  90 106 153 194 224 300 347
#     4  10  22  36  59  87 117 164 191 230 296 359
#     4  12  20  37  58  94 130 136 185 259 307 351
#
# _framework density 20.533156999999999
#
# number of rings (size 3 to 8) (size 9 to 14) (size 15 to 20)
#    0.000    1.667    1.667    7.000    0.000    3.333 
#    0.000    5.000    0.000    0.000    0.000    0.000 
#    0.000    0.000    0.000    0.000    0.000    0.000 
#
# Total GULP energy -133780.614796 kJ/mol
# GULP energy per Si atom -5574.192283 kJ/mol
# Density = 2.048642 g / cm^3
# Si number density = 20.533157 Si / 1000 Ang^3
#
#
#
# Elastic Constant Matrix: (Units=GPa)
#
#
# Indices 1 2 3 4 5 6 
#
# 1 25.8173 29.0327 17.8268 0.0000 15.0327 0.0000
# 2 29.0327 214.0440 59.1614 0.0000 13.7398 0.0000
# 3 17.8268 59.1614 179.2519 0.0000 24.5765 0.0000
# 4 0.0000 0.0000 0.0000 54.3133 0.0000 -0.1807
# 5 15.0327 13.7398 24.5765 0.0000 36.4474 0.0000
# 6 0.0000 0.0000 0.0000 -0.1807 0.0000 29.9107
#
#
#
# Elastic Compliance Matrix: (Units=1/GPa)
#
#
# Indices 1 2 3 4 5 6 
#
# 1 0.058915 -0.006394 -0.000824 0.000000 -0.021333 0.000000
# 2 -0.006394 0.005860 -0.001495 0.000000 0.001436 0.000000
# 3 -0.000824 -0.001495 0.006645 0.000000 -0.003577 0.000000
# 4 0.000000 0.000000 0.000000 0.018412 0.000000 0.000111
# 5 -0.021333 0.001436 -0.003577 0.000000 0.038106 0.000000
# 6 0.000000 0.000000 0.000000 0.000111 0.000000 0.033433
#
#
# Mechanical properties :
#
#
# Convention : Reuss Voigt Hill
#
# Bulk Modulus (GPa) = 18.52079 70.12832 44.32455
# Shear Modulus (GPa) = 25.40713 45.00710 35.20712
#
# Velocity S-wave (km/s) = 3.52144 4.68688 4.14532
# Velocity P-wave (km/s) = 5.05704 7.96975 6.67422
#
# Compressibility (1/GPa) = 0.05399338
#
# Stress axis : x y z
#
# Youngs Moduli (GPa) = 16.97374 170.64028 150.49841
#
# Poissons Ratio (x) = 1.09107 0.12399
# Poissons Ratio (y) = 0.10853 0.22502
# Poissons Ratio (z) = 0.01398 0.25514
#
# Static dielectric constant tensor:
#      x y z
#    x 1.704840 0.000000 -0.073170 
#    y 0.000000 1.731980 0.000000 
#    z -0.073170 0.000000 1.767130 
# 
# From -- ./inp_files/95053.got.cif
#   From: 2010.05.17/outbox.cif.g08.bks.cpg/sg12_48_cif.got.tgz:95053.got - 2010.06.03 13:09:07.
