data_PCOD9177942
_publ_section_title
;
Structure prediction by ZEFSAII (Michael W. Deem and Ramdas Pophale) SiO2 
 PCOD9177942
Probable space group: C 2/M
;
_chemical_formula_sum "Si O2"
_cell_formula_units_Z 64
_cell_length_a 24.238164
_cell_length_b 7.374599
_cell_length_c 24.899160
_cell_angle_alpha 90.000000
_cell_angle_beta 136.361930
_cell_angle_gamma 90.000000
_cell_volume 3071.391718
_symmetry_space_group_name_H-M "C 2/M"
_symmetry_group_IT_number 12
_symmetry_cell_setting 'monoclinic'
loop_
_space_group_symop_operation_xyz
x,y,z
-x,y,-z
-x,-y,-z
x,-y,z
1/2+x,1/2+y,z
1/2-x,1/2+y,-z
1/2-x,1/2-y,-z
1/2+x,1/2-y,z
loop_
_atom_site_type_symbol
_atom_site_label
_atom_site_fract_x
_atom_site_fract_y
_atom_site_fract_z
Si Si1 0.865712 0.221117 0.529583
Si Si2 0.401349 0.281110 0.671041
Si Si3 0.238860 0.287306 0.353171
Si Si4 0.756997 0.777803 0.134093
Si Si5 0.079766 0.792842 0.806190
Si Si6 0.795655 0.778591 0.278412
Si Si7 0.522343 0.720345 0.576220
Si Si8 0.834322 0.285680 0.029613
O O1 0.858373 0.280812 0.585913
O O2 0.798870 0.287219 0.440920
O O3 0.952414 0.274269 0.567510
O O4 0.863067 0.000000 0.528162
O O5 0.403995 0.500000 0.672182
O O6 0.349736 0.230162 0.686245
O O7 0.492451 0.213058 0.735560
O O8 0.258619 0.500000 0.363488
O O9 0.254992 0.215697 0.304986
O O10 0.842358 0.715885 0.169148
O O11 0.754552 0.721644 0.194063
O O12 0.757238 0.000000 0.131615
O O13 0.684912 0.719843 0.044086
O O14 0.100285 0.793514 0.884089
O O15 0.074963 0.000000 0.783099
O O16 0.888725 0.722635 0.345281
O O17 0.794858 0.000000 0.277028
O O18 0.500000 0.777714 0.500000
O O19 0.522932 0.500000 0.576165
O O20 0.150860 0.500000 0.961575
O O21 0.750000 0.250000 0.000000
#
# Coordination Sequence:
#
# PCOD9177942 Si02
#       8
#     8   8   8   8   8   8   8   8
#     4   9  16  27  43  66  92 117 150 190 231 271
#     4  10  20  32  46  63  89 124 157 189 225 267
#     4  10  19  30  45  66  91 119 154 191 224 263
#     4   8  14  25  43  68  93 114 139 176 226 273
#     4   9  17  30  47  68  92 119 152 188 226 268
#     4   9  15  24  41  66  94 118 143 183 228 268
#     4   9  13  20  37  63  92 115 138 177 226 264
#     4   9  16  27  46  71  98 123 145 176 223 277
#
# _framework density 20.837461000000001
#
# number of rings (size 3 to 8) (size 9 to 14) (size 15 to 20)
#    0.000    2.875    1.250    2.250    0.000    3.500 
#    0.000    0.000    0.000    4.500    0.000    7.875 
#    0.000    0.000    0.000    0.000    0.000    0.000 
#
# Total GULP energy -178523.559471 kJ/mol
# GULP energy per Si atom -5578.861233 kJ/mol
# Density = 2.079003 g / cm^3
# Si number density = 20.837461 Si / 1000 Ang^3
#
#
#
# Elastic Constant Matrix: (Units=GPa)
#
#
# Indices 1 2 3 4 5 6 
#
# 1 90.5320 -3.8146 35.5097 0.0000 -16.9738 -0.0001
# 2 -3.8146 71.2945 -2.7717 0.0000 -1.2438 -0.0001
# 3 35.5097 -2.7717 100.7617 0.0000 -30.6737 0.0000
# 4 0.0000 0.0000 0.0000 6.9448 0.0000 1.4722
# 5 -16.9738 -1.2438 -30.6737 0.0000 26.4843 0.0000
# 6 -0.0001 -0.0001 0.0000 1.4722 0.0000 8.3876
#
#
#
# Elastic Compliance Matrix: (Units=1/GPa)
#
#
# Indices 1 2 3 4 5 6 
#
# 1 0.013224 0.000669 -0.003170 0.000000 0.004835 0.000000
# 2 0.000669 0.014125 0.000750 0.000000 0.001960 0.000000
# 3 -0.003170 0.000750 0.016148 0.000000 0.016706 0.000000
# 4 0.000000 0.000000 0.000000 0.149556 0.000000 -0.026250
# 5 0.004835 0.001960 0.016706 0.000000 0.060297 0.000000
# 6 0.000000 0.000000 0.000000 -0.026250 0.000000 0.123831
#
#
# Mechanical properties :
#
#
# Convention : Reuss Voigt Hill
#
# Bulk Modulus (GPa) = 25.00399 35.60388 30.30394
# Shear Modulus (GPa) = 12.68983 23.94100 18.31541
#
# Velocity S-wave (km/s) = 2.47045 3.39328 2.96795
# Velocity P-wave (km/s) = 4.49033 5.69877 5.13026
#
# Compressibility (1/GPa) = 0.03999362
#
# Stress axis : x y z
#
# Youngs Moduli (GPa) = 75.62063 70.79426 61.92863
#
# Poissons Ratio (x) = -0.04734 0.19631
# Poissons Ratio (y) = -0.05056 -0.04642
# Poissons Ratio (z) = 0.23971 -0.05307
#
# Static dielectric constant tensor:
#      x y z
#    x 1.715140 0.000000 -0.026760 
#    y 0.000000 1.864780 0.000000 
#    z -0.026760 0.000000 1.756620 
# 
# From -- ./inp_files/349050.got.cif
#   From: 2010.05.17/outbox.cif.g08.bks.cpg/sg12_175_cif.got.tgz:349050.got - 2010.06.03 13:09:07.
