data_PCOD9177447
_publ_section_title
;
Structure prediction by ZEFSAII (Michael W. Deem and Ramdas Pophale) SiO2 
 PCOD9177447
Probable space group: C 2/M
;
_chemical_formula_sum "Si O2"
_cell_formula_units_Z 56
_cell_length_a 29.043198
_cell_length_b 8.909261
_cell_length_c 13.353643
_cell_angle_alpha 90.000000
_cell_angle_beta 88.227467
_cell_angle_gamma 90.000000
_cell_volume 3453.647597
_symmetry_space_group_name_H-M "C 2/M"
_symmetry_group_IT_number 12
_symmetry_cell_setting 'monoclinic'
loop_
_space_group_symop_operation_xyz
x,y,z
-x,y,-z
-x,-y,-z
x,-y,z
1/2+x,1/2+y,z
1/2-x,1/2+y,-z
1/2-x,1/2-y,-z
1/2+x,1/2-y,z
loop_
_atom_site_type_symbol
_atom_site_label
_atom_site_fract_x
_atom_site_fract_y
_atom_site_fract_z
Si Si1 0.229467 0.168032 0.095459
Si Si2 0.317122 0.168611 0.232383
Si Si3 0.333679 0.177165 0.749035
Si Si4 0.990293 0.328818 0.119651
Si Si5 0.913848 0.820403 0.854441
Si Si6 0.749107 0.680375 0.609931
Si Si7 0.605179 0.679625 0.911448
O O1 0.271816 0.153049 0.167672
O O2 0.193496 0.278157 0.148691
O O3 0.210477 0.000000 0.076652
O O4 0.250000 0.250000 0.000000
O O5 0.295997 0.259774 0.327484
O O6 0.354758 0.248085 0.159074
O O7 0.332620 0.000000 0.259894
O O8 0.381290 0.262414 0.766925
O O9 0.297090 0.222063 0.664771
O O10 0.341660 0.000000 0.740804
O O11 0.984946 0.500000 0.156186
O O12 0.943280 0.235887 0.131077
O O13 0.035384 0.249395 0.160512
O O14 0.000000 0.335279 0.000000
O O15 0.915998 0.000000 0.853257
O O16 0.895748 0.777493 0.969109
O O17 0.747534 0.500000 0.607589
O O18 0.750000 0.750000 0.500000
O O19 0.608636 0.500000 0.907096
#
# Coordination Sequence:
#
# PCOD9177447 Si02
#       7
#     8   8   8   8   8   8   8
#     4  10  19  29  42  62  91 125 157 190 228 273
#     4  10  20  32  47  68  93 123 159 195 235 283
#     4  10  20  32  47  68  93 122 157 194 234 282
#     4   9  17  29  45  65  93 130 168 202 236 275
#     4  10  19  30  46  69  99 133 166 200 236 276
#     4  10  21  37  55  73  94 120 153 197 245 291
#     4  10  19  30  45  68  99 132 166 201 236 276
#
# _framework density 16.214741
#
# number of rings (size 3 to 8) (size 9 to 14) (size 15 to 20)
#    0.000    2.143    0.000    3.857    0.000    9.143 
#    0.000    0.000    0.000    0.000    0.000    1.000 
#    0.000    8.000    0.000    0.000    0.000    0.000 
#
# Total GULP energy -155942.692640 kJ/mol
# GULP energy per Si atom -5569.381880 kJ/mol
# Density = 1.617784 g / cm^3
# Si number density = 16.214741 Si / 1000 Ang^3
#
#
#
# Elastic Constant Matrix: (Units=GPa)
#
#
# Indices 1 2 3 4 5 6 
#
# 1 99.9041 38.6325 18.7182 0.0000 3.7916 0.0000
# 2 38.6325 77.9976 30.5780 0.0000 2.7010 0.0000
# 3 18.7182 30.5780 54.5302 0.0000 6.0530 0.0000
# 4 0.0000 0.0000 0.0000 20.1820 0.0000 -1.8892
# 5 3.7916 2.7010 6.0530 0.0000 18.9001 0.0000
# 6 0.0000 0.0000 0.0000 -1.8892 0.0000 30.8009
#
#
#
# Elastic Compliance Matrix: (Units=1/GPa)
#
#
# Indices 1 2 3 4 5 6 
#
# 1 0.012462 -0.005778 -0.000883 0.000000 -0.001391 0.000000
# 2 -0.005778 0.019120 -0.008879 0.000000 0.001270 0.000000
# 3 -0.000883 -0.008879 0.024325 0.000000 -0.006344 0.000000
# 4 0.000000 0.000000 0.000000 0.049835 0.000000 0.003057
# 5 -0.001391 0.001270 -0.006344 0.000000 0.055039 0.000000
# 6 0.000000 0.000000 0.000000 0.003057 0.000000 0.032654
#
#
# Mechanical properties :
#
#
# Convention : Reuss Voigt Hill
#
# Bulk Modulus (GPa) = 40.28046 45.36547 42.82297
# Shear Modulus (GPa) = 21.47842 23.61015 22.54428
#
# Velocity S-wave (km/s) = 3.64349 3.82002 3.73279
# Velocity P-wave (km/s) = 6.52655 6.89169 6.71160
#
# Compressibility (1/GPa) = 0.02482593
#
# Stress axis : x y z
#
# Youngs Moduli (GPa) = 80.24208 52.30184 41.11022
#
# Poissons Ratio (x) = 0.30221 0.03631
# Poissons Ratio (y) = 0.46365 0.36502
# Poissons Ratio (z) = 0.07087 0.46439
#
# Static dielectric constant tensor:
#      x y z
#    x 1.570390 0.000000 0.025750 
#    y 0.000000 1.569540 0.000000 
#    z 0.025750 0.000000 1.499000 
# 
# From -- ./inp_files/186384.got.cif
#   From: 2010.05.17/outbox.cif.g08.bks.cpg/sg12_94_cif.got.tgz:186384.got - 2010.06.03 13:09:07.
