data_PCOD9177988
_publ_section_title
;
Structure prediction by ZEFSAII (Michael W. Deem and Ramdas Pophale) SiO2 
 PCOD9177988
Probable space group: C 2/M
;
_chemical_formula_sum "Si O2"
_cell_formula_units_Z 44
_cell_length_a 31.440781
_cell_length_b 7.253573
_cell_length_c 8.471523
_cell_angle_alpha 90.000000
_cell_angle_beta 69.562779
_cell_angle_gamma 90.000000
_cell_volume 1810.389617
_symmetry_space_group_name_H-M "C 2/M"
_symmetry_group_IT_number 12
_symmetry_cell_setting 'monoclinic'
loop_
_space_group_symop_operation_xyz
x,y,z
-x,y,-z
-x,-y,-z
x,-y,z
1/2+x,1/2+y,z
1/2-x,1/2+y,-z
1/2-x,1/2-y,-z
1/2+x,1/2-y,z
loop_
_atom_site_type_symbol
_atom_site_label
_atom_site_fract_x
_atom_site_fract_y
_atom_site_fract_z
Si Si1 0.347802 0.724034 0.998307
Si Si2 0.041176 0.776222 0.656141
Si Si3 0.057036 0.776024 0.270617
Si Si4 0.250000 0.250000 0.000000
Si Si5 0.779124 0.218905 0.620081
Si Si6 0.134679 0.775308 0.671509
O O1 0.346813 0.500000 0.993687
O O2 0.395756 0.784611 0.863717
O O3 0.304402 0.784192 0.956380
O O4 0.347331 0.782351 0.181261
O O5 0.052436 0.726002 0.460455
O O6 0.083217 0.715350 0.707766
O O7 0.989538 0.716904 0.754888
O O8 0.040873 0.000000 0.663838
O O9 0.057443 0.000000 0.265107
O O10 0.244562 0.298215 0.195831
O O11 0.750000 0.250000 0.500000
O O12 0.829894 0.280429 0.509943
O O13 0.780828 0.000000 0.655604
O O14 0.135032 0.000000 0.670351
#
# Coordination Sequence:
#
# PCOD9177988 Si02
#       6
#     8   8   8   4   8   8
#     4  10  19  30  45  68 100 138 182 228 279 337
#     4   8  13  23  40  62  93 131 170 212 266 335
#     4   8  14  24  39  62  92 130 172 213 266 336
#     4  12  22  34  54  76 106 150 194 234 284 334
#     4  11  23  39  59  83 115 153 195 243 291 347
#     4   9  17  30  47  70 102 138 176 224 279 335
#
# _framework density 24.304158999999999
#
# number of rings (size 3 to 8) (size 9 to 14) (size 15 to 20)
#    0.000    2.545    1.818    2.727    0.000    4.364 
#    0.000    3.636    0.000    0.000    0.000    0.000 
#    0.000    4.364    0.000   19.091    0.000    4.545 
#
# Total GULP energy -122499.121030 kJ/mol
# GULP energy per Si atom -5568.141865 kJ/mol
# Density = 2.424884 g / cm^3
# Si number density = 24.304159 Si / 1000 Ang^3
#
#
#
# Elastic Constant Matrix: (Units=GPa)
#
#
# Indices 1 2 3 4 5 6 
#
# 1 212.4119 -5.3295 65.9990 0.0000 -15.0169 0.0000
# 2 -5.3295 109.2760 -2.7844 0.0000 -4.0852 0.0000
# 3 65.9990 -2.7844 127.9714 0.0000 -16.7665 0.0000
# 4 0.0000 0.0000 0.0000 -41.9684 0.0000 35.7953
# 5 -15.0169 -4.0852 -16.7665 0.0000 51.3372 0.0000
# 6 0.0000 0.0000 0.0000 35.7953 0.0000 -65.9790
#
#
#
# Elastic Compliance Matrix: (Units=1/GPa)
#
#
# Indices 1 2 3 4 5 6 
#
# 1 0.005638 0.000232 -0.002804 0.000000 0.000752 0.000000
# 2 0.000232 0.009200 0.000194 0.000000 0.000863 0.000000
# 3 -0.002804 0.000194 0.009569 0.000000 0.002320 0.000000
# 4 0.000000 0.000000 0.000000 -0.044349 0.000000 -0.024060
# 5 0.000752 0.000863 0.002320 0.000000 0.020525 0.000000
# 6 0.000000 0.000000 0.000000 -0.024060 0.000000 -0.028210
#
#
# Mechanical properties :
#
#
# Convention : Reuss Voigt Hill
#
# Bulk Modulus (GPa) = 50.89361 62.82550 56.85956
# Shear Modulus (GPa) = -306.38435 14.79622 -145.79406
#
# Velocity S-wave (km/s) = -11.23994 2.47005 -7.75355
# Velocity P-wave (km/s) = 12.14341 5.83444 7.53066
#
# Compressibility (1/GPa) = 0.01964883
#
# Stress axis : x y z
#
# Youngs Moduli (GPa) = 177.36469 108.69993 104.50766
#
# Poissons Ratio (x) = -0.02518 0.29306
# Poissons Ratio (y) = -0.04108 -0.02025
# Poissons Ratio (z) = 0.49737 -0.02106
#
# Static dielectric constant tensor:
#      x y z
#    x 1.882550 0.000000 0.006030 
#    y 0.000000 2.100670 0.000000 
#    z 0.006030 0.000000 1.828150 
# 
# From -- ./inp_files/109089.got.cif
#   From: 2010.05.17/outbox.cif.g08.bks.cpg/sg12_55_cif.got.tgz:109089.got - 2010.06.03 13:09:07.
