data_PCOD9177757
_publ_section_title
;
Structure prediction by ZEFSAII (Michael W. Deem and Ramdas Pophale) SiO2 
 PCOD9177757
Probable space group: C 2/M
;
_chemical_formula_sum "Si O2"
_cell_formula_units_Z 64
_cell_length_a 20.057778
_cell_length_b 9.283582
_cell_length_c 21.946131
_cell_angle_alpha 90.000000
_cell_angle_beta 110.670038
_cell_angle_gamma 90.000000
_cell_volume 3823.489681
_symmetry_space_group_name_H-M "C 2/M"
_symmetry_group_IT_number 12
_symmetry_cell_setting 'monoclinic'
loop_
_space_group_symop_operation_xyz
x,y,z
-x,y,-z
-x,-y,-z
x,-y,z
1/2+x,1/2+y,z
1/2-x,1/2+y,-z
1/2-x,1/2-y,-z
1/2+x,1/2-y,z
loop_
_atom_site_type_symbol
_atom_site_label
_atom_site_fract_x
_atom_site_fract_y
_atom_site_fract_z
Si Si1 0.577180 0.331678 0.547110
Si Si2 0.631652 0.664765 0.801037
Si Si3 0.316478 0.674135 0.052504
Si Si4 0.968334 0.166297 0.797311
Si Si5 0.322809 0.669104 0.538553
Si Si6 0.526394 0.324591 0.942285
Si Si7 0.584966 0.169735 0.672312
Si Si8 0.922817 0.328597 0.666400
O O1 0.500000 0.278447 0.500000
O O2 0.569441 0.500000 0.561970
O O3 0.629263 0.321625 0.506787
O O4 0.601099 0.244478 0.613641
O O5 0.649271 0.500000 0.790346
O O6 0.678206 0.710971 0.873955
O O7 0.550431 0.663949 0.800363
O O8 0.631009 0.763866 0.741895
O O9 0.311313 0.500000 0.046671
O O10 0.392038 0.717200 0.046162
O O11 0.250000 0.750000 0.000000
O O12 0.926469 0.263799 0.735737
O O13 0.975705 0.219129 0.869370
O O14 0.942981 0.000000 0.787718
O O15 0.311681 0.500000 0.548758
O O16 0.250000 0.750000 0.500000
O O17 0.365341 0.746551 0.606743
O O18 0.525408 0.500000 0.940985
O O19 0.500000 0.276593 0.000000
O O20 0.501440 0.196665 0.662208
O O21 0.595172 0.000000 0.671902
O O22 0.910295 0.500000 0.663078
#
# Coordination Sequence:
#
# PCOD9177757 Si02
#       8
#     8   8   8   8   8   8   8   8
#     4  10  20  35  55  78 102 132 167 201 247 304
#     4   8  15  28  45  67  97 131 167 202 244 299
#     4   9  17  29  48  73  99 131 166 203 246 297
#     4   8  14  26  47  72  95 124 165 208 247 291
#     4  11  23  38  56  76 102 135 169 205 247 300
#     4   8  14  27  49  75  99 125 163 208 249 290
#     4  10  19  29  49  79 105 127 161 215 258 285
#     4  10  19  31  49  75 104 132 165 207 253 296
#
# _framework density 16.738636
#
# number of rings (size 3 to 8) (size 9 to 14) (size 15 to 20)
#    0.000    2.750    1.250    2.625    0.000    2.750 
#    0.000    1.875    2.750    1.500    0.000    0.000 
#    0.000    0.000    0.000    0.000    0.000    0.000 
#
# Total GULP energy -178316.486798 kJ/mol
# GULP energy per Si atom -5572.390212 kJ/mol
# Density = 1.670054 g / cm^3
# Si number density = 16.738636 Si / 1000 Ang^3
#
#
#
# Elastic Constant Matrix: (Units=GPa)
#
#
# Indices 1 2 3 4 5 6 
#
# 1 34.7315 28.8151 42.3621 0.0000 5.4733 0.0000
# 2 28.8151 68.3370 78.7362 0.0000 8.2137 0.0000
# 3 42.3621 78.7362 181.5490 0.0000 4.0823 0.0000
# 4 0.0000 0.0000 0.0000 29.4161 0.0000 6.4173
# 5 5.4733 8.2137 4.0823 0.0000 25.1467 0.0000
# 6 0.0000 0.0000 0.0000 6.4173 0.0000 16.2588
#
#
#
# Elastic Compliance Matrix: (Units=1/GPa)
#
#
# Indices 1 2 3 4 5 6 
#
# 1 0.046764 -0.013340 -0.005014 0.000000 -0.005007 0.000000
# 2 -0.013340 0.034544 -0.011723 0.000000 -0.006476 0.000000
# 3 -0.005014 -0.011723 0.011694 0.000000 0.003022 0.000000
# 4 0.000000 0.000000 0.000000 0.037198 0.000000 -0.014682
# 5 -0.005007 -0.006476 0.003022 0.000000 0.042481 0.000000
# 6 0.000000 0.000000 0.000000 -0.014682 0.000000 0.067300
#
#
# Mechanical properties :
#
#
# Convention : Reuss Voigt Hill
#
# Bulk Modulus (GPa) = 30.44269 64.93826 47.69047
# Shear Modulus (GPa) = 16.07279 23.14461 19.60870
#
# Velocity S-wave (km/s) = 3.10211 3.72251 3.42638
# Velocity P-wave (km/s) = 5.57291 7.57336 6.64880
#
# Compressibility (1/GPa) = 0.03284861
#
# Stress axis : x y z
#
# Youngs Moduli (GPa) = 21.38378 28.94885 85.51236
#
# Poissons Ratio (x) = 0.38618 0.42874
# Poissons Ratio (y) = 0.28526 1.00245
# Poissons Ratio (z) = 0.10721 0.33936
#
# Static dielectric constant tensor:
#      x y z
#    x 1.554490 0.000000 -0.010150 
#    y 0.000000 1.557310 0.000000 
#    z -0.010150 0.000000 1.573860 
# 
# From -- ./inp_files/320187.got.cif
#   From: 2010.05.17/outbox.cif.g08.bks.cpg/sg12_161_cif.got.tgz:320187.got - 2010.06.03 13:09:07.
