data_PCOD9177368
_publ_section_title
;
Structure prediction by ZEFSAII (Michael W. Deem and Ramdas Pophale) SiO2 
 PCOD9177368
Probable space group: C 2/M
;
_chemical_formula_sum "Si O2"
_cell_formula_units_Z 56
_cell_length_a 20.044241
_cell_length_b 8.410597
_cell_length_c 22.426822
_cell_angle_alpha 90.000000
_cell_angle_beta 55.373252
_cell_angle_gamma 90.000000
_cell_volume 3111.114759
_symmetry_space_group_name_H-M "C 2/M"
_symmetry_group_IT_number 12
_symmetry_cell_setting 'monoclinic'
loop_
_space_group_symop_operation_xyz
x,y,z
-x,y,-z
-x,-y,-z
x,-y,z
1/2+x,1/2+y,z
1/2-x,1/2+y,-z
1/2-x,1/2-y,-z
1/2+x,1/2-y,z
loop_
_atom_site_type_symbol
_atom_site_label
_atom_site_fract_x
_atom_site_fract_y
_atom_site_fract_z
Si Si1 0.783803 0.310368 0.800201
Si Si2 0.457625 0.308518 0.688051
Si Si3 0.310930 0.310347 0.919131
Si Si4 0.510249 0.306871 0.190658
Si Si5 0.761508 0.310044 0.397886
Si Si6 0.376462 0.307506 0.445948
Si Si7 0.163591 0.808638 0.761303
O O1 0.778408 0.500000 0.808462
O O2 0.869539 0.266931 0.725961
O O3 0.784744 0.238848 0.865878
O O4 0.710723 0.250871 0.795787
O O5 0.448377 0.500000 0.690152
O O6 0.487514 0.267911 0.740074
O O7 0.529732 0.259857 0.607098
O O8 0.312994 0.500000 0.920674
O O9 0.403971 0.251688 0.879630
O O10 0.250000 0.250000 0.000000
O O11 0.509124 0.500000 0.188100
O O12 0.428024 0.247901 0.202018
O O13 0.762468 0.500000 0.391185
O O14 0.674425 0.261411 0.469721
O O15 0.827134 0.259716 0.414492
O O16 0.785369 0.233886 0.323375
O O17 0.373804 0.500000 0.442756
O O18 0.159444 0.000000 0.767295
#
# Coordination Sequence:
#
# PCOD9177368 Si02
#       7
#     8   8   8   8   8   8   8
#     4  10  21  34  53  79 106 135 169 212 259 305
#     4   9  16  31  53  71  96 137 179 217 255 307
#     4  10  20  37  60  82 105 133 166 206 249 303
#     4   8  15  30  54  76  94 131 176 203 238 299
#     4  10  19  28  46  76 103 131 173 226 267 298
#     4   9  17  31  48  69 100 138 177 215 264 315
#     4  10  19  35  53  72 104 142 174 208 256 314
#
# _framework density 17.999980000000001
#
# number of rings (size 3 to 8) (size 9 to 14) (size 15 to 20)
#    0.000    2.571    1.429    2.143    0.000    2.286 
#    0.000    2.143    0.000    8.571    0.000    0.000 
#    0.000    0.000    0.000    0.000    0.000    0.000 
#
# Total GULP energy -156090.936148 kJ/mol
# GULP energy per Si atom -5574.676291 kJ/mol
# Density = 1.795901 g / cm^3
# Si number density = 17.999980 Si / 1000 Ang^3
#
#
#
# Elastic Constant Matrix: (Units=GPa)
#
#
# Indices 1 2 3 4 5 6 
#
# 1 128.9191 17.6592 64.8736 0.0001 -12.5007 0.0007
# 2 17.6592 13.2296 13.8928 0.0001 -4.4873 0.0009
# 3 64.8736 13.8928 119.7272 0.0000 -24.0097 0.0001
# 4 0.0001 0.0001 0.0000 27.9302 0.0000 -2.1355
# 5 -12.5007 -4.4873 -24.0097 0.0000 21.1881 0.0000
# 6 0.0007 0.0009 0.0001 -2.1355 0.0000 19.9023
#
#
#
# Elastic Compliance Matrix: (Units=1/GPa)
#
#
# Indices 1 2 3 4 5 6 
#
# 1 0.011808 -0.010512 -0.005471 0.000000 -0.001459 0.000000
# 2 -0.010512 0.096764 -0.003451 -0.000001 0.010381 -0.000004
# 3 -0.005471 -0.003451 0.014136 0.000000 0.012059 0.000000
# 4 0.000000 -0.000001 0.000000 0.036100 0.000000 0.003873
# 5 -0.001459 0.010381 0.012059 0.000000 0.062199 -0.000001
# 6 0.000000 -0.000004 0.000000 0.003873 -0.000001 0.050661
#
#
# Mechanical properties :
#
#
# Convention : Reuss Voigt Hill
#
# Bulk Modulus (GPa) = 11.92732 50.52525 31.22628
# Shear Modulus (GPa) = 14.77180 24.83412 19.80296
#
# Velocity S-wave (km/s) = 2.86782 3.71843 3.32047
# Velocity P-wave (km/s) = 4.19601 6.82394 5.66448
#
# Compressibility (1/GPa) = 0.08384115
#
# Stress axis : x y z
#
# Youngs Moduli (GPa) = 84.68591 10.33439 70.74328
#
# Poissons Ratio (x) = 0.10863 0.38705
# Poissons Ratio (y) = 0.89018 0.24412
# Poissons Ratio (z) = 0.46333 0.03566
#
# Static dielectric constant tensor:
#      x y z
#    x 1.628100 0.000000 -0.029570 
#    y 0.000000 1.628610 0.000000 
#    z -0.029570 0.000000 1.610760 
# 
# From -- ./inp_files/313802.got.cif
#   From: 2010.05.17/outbox.cif.g08.bks.cpg/sg12_157_cif.got.tgz:313802.got - 2010.06.03 13:09:07.
