data_PCOD9177463
_publ_section_title
;
Structure prediction by ZEFSAII (Michael W. Deem and Ramdas Pophale) SiO2 
 PCOD9177463
Probable space group: C 2/M
;
_chemical_formula_sum "Si O2"
_cell_formula_units_Z 56
_cell_length_a 32.820787
_cell_length_b 9.002959
_cell_length_c 16.456336
_cell_angle_alpha 90.000000
_cell_angle_beta 50.655268
_cell_angle_gamma 90.000000
_cell_volume 3760.459891
_symmetry_space_group_name_H-M "C 2/M"
_symmetry_group_IT_number 12
_symmetry_cell_setting 'monoclinic'
loop_
_space_group_symop_operation_xyz
x,y,z
-x,y,-z
-x,-y,-z
x,-y,z
1/2+x,1/2+y,z
1/2-x,1/2+y,-z
1/2-x,1/2-y,-z
1/2+x,1/2-y,z
loop_
_atom_site_type_symbol
_atom_site_label
_atom_site_fract_x
_atom_site_fract_y
_atom_site_fract_z
Si Si1 0.101367 0.322789 0.487191
Si Si2 0.015081 0.179729 0.112701
Si Si3 0.916763 0.180191 0.126586
Si Si4 0.806324 0.821754 0.336175
Si Si5 0.058537 0.828836 0.386199
Si Si6 0.805141 0.176742 0.529764
Si Si7 0.013024 0.322831 0.290512
O O1 0.106419 0.500000 0.475717
O O2 0.094725 0.254209 0.405850
O O3 0.150050 0.252899 0.473410
O O4 0.046925 0.289392 0.604363
O O5 0.959432 0.223246 0.141241
O O6 0.021565 0.253638 0.191441
O O7 0.015490 0.000000 0.120136
O O8 0.059686 0.223133 0.990558
O O9 0.858150 0.229667 0.222486
O O10 0.916210 0.000000 0.128246
O O11 0.814986 0.793580 0.421373
O O12 0.752637 0.741634 0.378814
O O13 0.800223 0.000000 0.334128
O O14 0.000000 0.827038 0.500000
O O15 0.051516 0.747353 0.309311
O O16 0.074319 0.000000 0.356036
O O17 0.806162 0.000000 0.540319
O O18 0.018999 0.500000 0.281654
#
# Coordination Sequence:
#
# PCOD9177463 Si02
#       7
#     8   8   8   8   8   8   8
#     4  10  19  30  44  63  90 120 146 177 218 262
#     4   9  16  28  46  66  87 115 152 185 215 255
#     4   8  15  28  46  65  86 116 152 186 217 254
#     4   9  17  30  45  62  88 119 149 183 221 257
#     4   9  17  29  45  64  86 114 147 180 214 255
#     4  10  19  29  44  66  88 114 150 185 218 260
#     4  10  19  29  42  64  93 120 145 176 218 263
#
# _framework density 14.891795999999999
#
# number of rings (size 3 to 8) (size 9 to 14) (size 15 to 20)
#    0.000    2.714    0.000    3.429    0.000    5.143 
#    0.000    2.857    0.000    0.000    0.000    1.000 
#    0.000    0.000    0.000    0.000    0.000    0.000 
#
# Total GULP energy -156063.758759 kJ/mol
# GULP energy per Si atom -5573.705670 kJ/mol
# Density = 1.485790 g / cm^3
# Si number density = 14.891796 Si / 1000 Ang^3
#
#
#
# Elastic Constant Matrix: (Units=GPa)
#
#
# Indices 1 2 3 4 5 6 
#
# 1 129.0225 61.1403 62.1009 0.0000 10.0297 0.0000
# 2 61.1403 54.0560 44.5143 0.0000 6.5448 0.0000
# 3 62.1009 44.5143 95.2115 0.0000 7.4954 0.0000
# 4 0.0000 0.0000 0.0000 17.7711 0.0000 1.9803
# 5 10.0297 6.5448 7.4954 0.0000 28.0835 0.0000
# 6 0.0000 0.0000 0.0000 1.9803 0.0000 22.8239
#
#
#
# Elastic Compliance Matrix: (Units=1/GPa)
#
#
# Indices 1 2 3 4 5 6 
#
# 1 0.017442 -0.016716 -0.003450 0.000000 -0.001413 0.000000
# 2 -0.016716 0.046408 -0.010636 0.000000 -0.002006 0.000000
# 3 -0.003450 -0.010636 0.017808 0.000000 -0.001042 0.000000
# 4 0.000000 0.000000 0.000000 0.056821 0.000000 -0.004930
# 5 -0.001413 -0.002006 -0.001042 0.000000 0.036858 0.000000
# 6 0.000000 0.000000 0.000000 -0.004930 0.000000 0.044241
#
#
# Mechanical properties :
#
#
# Convention : Reuss Voigt Hill
#
# Bulk Modulus (GPa) = 49.86692 68.20011 59.03352
# Shear Modulus (GPa) = 17.36910 21.10467 19.23688
#
# Velocity S-wave (km/s) = 3.41890 3.76866 3.59803
# Velocity P-wave (km/s) = 7.01028 8.05193 7.54909
#
# Compressibility (1/GPa) = 0.02005338
#
# Stress axis : x y z
#
# Youngs Moduli (GPa) = 57.33193 21.54815 56.15453
#
# Poissons Ratio (x) = 0.36020 0.19374
# Poissons Ratio (y) = 0.95836 0.59727
# Poissons Ratio (z) = 0.19780 0.22919
#
# Static dielectric constant tensor:
#      x y z
#    x 1.470740 0.000000 -0.003700 
#    y 0.000000 1.494010 0.000000 
#    z -0.003700 0.000000 1.483850 
# 
# From -- ./inp_files/243059.got.cif
#   From: 2010.05.17/outbox.cif.g08.bks.cpg/sg12_122_cif.got.tgz:243059.got - 2010.06.03 13:09:07.
