data_PCOD9177134
_publ_section_title
;
Structure prediction by ZEFSAII (Michael W. Deem and Ramdas Pophale) SiO2 
 PCOD9177134
Probable space group: C 2/M
;
_chemical_formula_sum "Si O2"
_cell_formula_units_Z 52
_cell_length_a 18.848052
_cell_length_b 17.505575
_cell_length_c 8.635117
_cell_angle_alpha 90.000000
_cell_angle_beta 56.887790
_cell_angle_gamma 90.000000
_cell_volume 2386.431374
_symmetry_space_group_name_H-M "C 2/M"
_symmetry_group_IT_number 12
_symmetry_cell_setting 'monoclinic'
loop_
_space_group_symop_operation_xyz
x,y,z
-x,y,-z
-x,-y,-z
x,-y,z
1/2+x,1/2+y,z
1/2-x,1/2+y,-z
1/2-x,1/2-y,-z
1/2+x,1/2-y,z
loop_
_atom_site_type_symbol
_atom_site_label
_atom_site_fract_x
_atom_site_fract_y
_atom_site_fract_z
Si Si1 0.822890 0.840219 0.360979
Si Si2 0.487958 0.297980 0.337726
Si Si3 0.310676 0.821070 0.249619
Si Si4 0.272733 0.086669 0.002514
Si Si5 0.101466 0.914571 0.012408
Si Si6 0.459335 0.119582 0.709827
Si Si7 0.500000 0.120590 0.000000
O O1 0.890409 0.807019 0.403909
O O2 0.737667 0.862768 0.551564
O O3 0.797777 0.768764 0.283495
O O4 0.872136 0.899851 0.196268
O O5 0.500000 0.325341 0.500000
O O6 0.541804 0.349309 0.154252
O O7 0.518290 0.209910 0.297629
O O8 0.411095 0.835089 0.124209
O O9 0.269422 0.853890 0.145250
O O10 0.359380 0.106206 0.811788
O O11 0.280662 0.000000 0.055112
O O12 0.189811 0.089870 0.998742
O O13 0.065863 0.000000 0.075292
O O14 0.500000 0.093402 0.500000
O O15 0.487428 0.084314 0.842972
#
# Coordination Sequence:
#
# PCOD9177134 Si02
#       7
#     8   8   8   8   8   8   4
#     4  11  23  38  66  96 126 163 206 267 319 375
#     4  11  23  40  65  94 125 165 211 262 320 381
#     4  10  22  39  66  92 128 161 210 261 322 376
#     4  10  23  42  60  87 127 171 211 258 315 377
#     4  11  25  41  61  90 128 170 212 259 317 382
#     4  10  22  37  67  93 128 164 215 268 323 381
#     4  10  18  38  61  92 131 160 200 270 308 380
#
# _framework density 21.789857000000001
#
# number of rings (size 3 to 8) (size 9 to 14) (size 15 to 20)
#    0.000    1.538    1.538    3.231    2.154    6.154 
#    0.000    6.154    0.000    0.000    0.000    0.000 
#    0.000    0.000    0.000    0.000    0.000    0.000 
#
# Total GULP energy -145196.210104 kJ/mol
# GULP energy per Si atom -5584.469619 kJ/mol
# Density = 2.174026 g / cm^3
# Si number density = 21.789857 Si / 1000 Ang^3
#
#
#
# Elastic Constant Matrix: (Units=GPa)
#
#
# Indices 1 2 3 4 5 6 
#
# 1 94.0425 21.4601 25.1735 0.0000 -0.0429 0.0000
# 2 21.4601 63.7594 25.7570 0.0000 2.4950 0.0000
# 3 25.1735 25.7570 143.8153 0.0000 3.8592 0.0000
# 4 0.0000 0.0000 0.0000 0.1072 0.0000 3.1422
# 5 -0.0429 2.4950 3.8592 0.0000 31.5637 0.0000
# 6 0.0000 0.0000 0.0000 3.1422 0.0000 20.3078
#
#
#
# Elastic Compliance Matrix: (Units=1/GPa)
#
#
# Indices 1 2 3 4 5 6 
#
# 1 0.011802 -0.003397 -0.001470 0.000000 0.000464 0.000000
# 2 -0.003397 0.017914 -0.002584 0.000000 -0.001105 0.000000
# 3 -0.001470 -0.002584 0.007693 0.000000 -0.000738 0.000000
# 4 0.000000 0.000000 0.000000 -2.638276 0.000000 0.408222
# 5 0.000464 -0.001105 -0.000738 0.000000 0.031860 0.000000
# 6 0.000000 0.000000 0.000000 0.408222 0.000000 -0.013922
#
#
# Mechanical properties :
#
#
# Convention : Reuss Voigt Hill
#
# Bulk Modulus (GPa) = 44.42838 49.59981 47.01409
# Shear Modulus (GPa) = -1.95273 25.67750 11.86239
#
# Velocity S-wave (km/s) = -0.94769 3.43653 2.33577
# Velocity P-wave (km/s) = 4.38592 6.20955 5.37563
#
# Compressibility (1/GPa) = 0.02250814
#
# Stress axis : x y z
#
# Youngs Moduli (GPa) = 84.72911 55.82100 129.98303
#
# Poissons Ratio (x) = 0.18961 0.19107
# Poissons Ratio (y) = 0.28780 0.33590
# Poissons Ratio (z) = 0.12455 0.14425
#
# Static dielectric constant tensor:
#      x y z
#    x 1.776530 0.000000 0.019930 
#    y 0.000000 1.791760 0.000000 
#    z 0.019930 0.000000 1.818000 
# 
# From -- ./inp_files/88377.got.cif
#   From: 2010.05.17/outbox.cif.g08.bks.cpg/sg12_45_cif.got.tgz:88377.got - 2010.06.03 13:09:07.
