data_PCOD9177450
_publ_section_title
;
Structure prediction by ZEFSAII (Michael W. Deem and Ramdas Pophale) SiO2 
 PCOD9177450
Probable space group: C 2/M
;
_chemical_formula_sum "Si O2"
_cell_formula_units_Z 64
_cell_length_a 24.831667
_cell_length_b 8.927575
_cell_length_c 16.729902
_cell_angle_alpha 90.000000
_cell_angle_beta 69.599581
_cell_angle_gamma 90.000000
_cell_volume 3476.176911
_symmetry_space_group_name_H-M "C 2/M"
_symmetry_group_IT_number 12
_symmetry_cell_setting 'monoclinic'
loop_
_space_group_symop_operation_xyz
x,y,z
-x,y,-z
-x,-y,-z
x,-y,z
1/2+x,1/2+y,z
1/2-x,1/2+y,-z
1/2-x,1/2-y,-z
1/2+x,1/2-y,z
loop_
_atom_site_type_symbol
_atom_site_label
_atom_site_fract_x
_atom_site_fract_y
_atom_site_fract_z
Si Si1 0.631480 0.675583 0.242170
Si Si2 0.751461 0.675870 0.085680
Si Si3 0.692606 0.677382 0.795864
Si Si4 0.847185 0.674958 0.467640
Si Si5 0.605353 0.176643 0.732880
Si Si6 0.203893 0.820974 0.357646
Si Si7 0.515640 0.175551 0.275853
Si Si8 0.456888 0.667381 0.449738
O O1 0.614599 0.500000 0.250772
O O2 0.689354 0.690840 0.160437
O O3 0.650776 0.713838 0.323731
O O4 0.581278 0.775789 0.230149
O O5 0.764467 0.500000 0.073016
O O6 0.795681 0.754722 0.123059
O O7 0.750000 0.750000 0.000000
O O8 0.698381 0.500000 0.794955
O O9 0.632674 0.728346 0.789027
O O10 0.741100 0.746463 0.712079
O O11 0.832731 0.500000 0.475008
O O12 0.862980 0.719590 0.367998
O O13 0.804044 0.764029 0.547594
O O14 0.907699 0.709122 0.479950
O O15 0.536413 0.192810 0.760489
O O16 0.617529 0.000000 0.737900
O O17 0.210347 0.000000 0.353770
O O18 0.494900 0.287997 0.355027
O O19 0.513592 0.000000 0.300911
O O20 0.500000 0.667625 0.500000
O O21 0.430946 0.500000 0.455623
#
# Coordination Sequence:
#
# PCOD9177450 Si02
#       8
#     8   8   8   8   8   8   8   8
#     4   9  19  34  53  79 110 141 172 211 264 317
#     4  10  21  39  63  90 117 141 166 205 258 316
#     4  11  22  36  57  82 105 137 179 219 264 317
#     4  10  20  32  47  69  98 135 183 232 271 313
#     4   9  20  37  51  70 104 144 184 224 267 313
#     4  10  20  34  51  73 105 143 180 225 278 323
#     4  10  20  32  50  74 101 137 179 221 262 308
#     4  10  19  29  42  62  93 134 177 222 272 318
#
# _framework density 18.41103
#
# number of rings (size 3 to 8) (size 9 to 14) (size 15 to 20)
#    0.000    2.125    0.000    5.250    0.000   10.500 
#    0.000    0.000    0.000    0.750    0.000    5.250 
#    0.000    0.000    0.000    0.000    0.000    0.000 
#
# Total GULP energy -178432.111819 kJ/mol
# GULP energy per Si atom -5576.003494 kJ/mol
# Density = 1.836913 g / cm^3
# Si number density = 18.411030 Si / 1000 Ang^3
#
#
#
# Elastic Constant Matrix: (Units=GPa)
#
#
# Indices 1 2 3 4 5 6 
#
# 1 70.5944 44.4197 22.0739 0.0000 22.5008 0.0000
# 2 44.4197 81.6230 34.3956 0.0000 19.8215 0.0000
# 3 22.0739 34.3956 57.2083 0.0000 19.9385 0.0000
# 4 0.0000 0.0000 0.0000 28.9669 0.0000 4.6018
# 5 22.5008 19.8215 19.9385 0.0000 18.8383 0.0000
# 6 0.0000 0.0000 0.0000 4.6018 0.0000 35.0581
#
#
#
# Elastic Compliance Matrix: (Units=1/GPa)
#
#
# Indices 1 2 3 4 5 6 
#
# 1 0.028223 -0.010823 0.005383 0.000000 -0.028020 0.000000
# 2 -0.010823 0.022078 -0.008726 0.000000 -0.001067 0.000000
# 3 0.005383 -0.008726 0.031199 0.000000 -0.030269 0.000000
# 4 0.000000 0.000000 0.000000 0.035257 0.000000 -0.004628
# 5 -0.028020 -0.001067 -0.030269 0.000000 0.119710 0.000000
# 6 0.000000 0.000000 0.000000 -0.004628 0.000000 0.029132
#
#
# Mechanical properties :
#
#
# Convention : Reuss Voigt Hill
#
# Bulk Modulus (GPa) = 18.80857 45.68933 32.24895
# Shear Modulus (GPa) = 16.04346 23.80841 19.92593
#
# Velocity S-wave (km/s) = 2.95516 3.59995 3.29338
# Velocity P-wave (km/s) = 4.67783 6.49228 5.65826
#
# Compressibility (1/GPa) = 0.05316724
#
# Stress axis : x y z
#
# Youngs Moduli (GPa) = 35.43168 45.29467 32.05258
#
# Poissons Ratio (x) = 0.49024 -0.17253
# Poissons Ratio (y) = 0.38349 0.27968
# Poissons Ratio (z) = -0.19072 0.39523
#
# Static dielectric constant tensor:
#      x y z
#    x 1.719780 0.000000 -0.004300 
#    y 0.000000 1.621920 0.000000 
#    z -0.004300 0.000000 1.633150 
# 
# From -- ./inp_files/287612.got.cif
#   From: 2010.05.17/outbox.cif.g08.bks.cpg/sg12_144_cif.got.tgz:287612.got - 2010.06.03 13:09:07.
