data_PCOD9177409
_publ_section_title
;
Structure prediction by ZEFSAII (Michael W. Deem and Ramdas Pophale) SiO2 
 PCOD9177409
Probable space group: C 2/M
;
_chemical_formula_sum "Si O2"
_cell_formula_units_Z 64
_cell_length_a 27.925217
_cell_length_b 8.819216
_cell_length_c 20.108983
_cell_angle_alpha 90.000000
_cell_angle_beta 120.465219
_cell_angle_gamma 90.000000
_cell_volume 4268.666413
_symmetry_space_group_name_H-M "C 2/M"
_symmetry_group_IT_number 12
_symmetry_cell_setting 'monoclinic'
loop_
_space_group_symop_operation_xyz
x,y,z
-x,y,-z
-x,-y,-z
x,-y,z
1/2+x,1/2+y,z
1/2-x,1/2+y,-z
1/2-x,1/2-y,-z
1/2+x,1/2-y,z
loop_
_atom_site_type_symbol
_atom_site_label
_atom_site_fract_x
_atom_site_fract_y
_atom_site_fract_z
Si Si1 0.973325 0.680861 0.323489
Si Si2 0.793742 0.319333 0.479939
Si Si3 0.415338 0.680105 0.563387
Si Si4 0.802634 0.318436 0.997649
Si Si5 0.795483 0.318479 0.328732
Si Si6 0.084133 0.821141 0.591513
Si Si7 0.632471 0.816261 0.833125
Si Si8 0.752882 0.318489 0.160030
O O1 0.978081 0.500000 0.321739
O O2 0.950389 0.726000 0.379977
O O3 0.925346 0.736611 0.238934
O O4 0.033711 0.754550 0.358662
O O5 0.795157 0.500000 0.488058
O O6 0.750000 0.250000 0.500000
O O7 0.855612 0.254418 0.534704
O O8 0.777671 0.285099 0.391613
O O9 0.411002 0.500000 0.568456
O O10 0.428910 0.710040 0.494880
O O11 0.798959 0.500000 0.994738
O O12 0.854441 0.274350 0.081205
O O13 0.750000 0.250000 0.000000
O O14 0.794858 0.256973 0.917949
O O15 0.808067 0.500000 0.333757
O O16 0.851720 0.226118 0.355508
O O17 0.753823 0.284429 0.239044
O O18 0.075599 0.000000 0.597756
O O19 0.686514 0.770866 0.827231
O O20 0.631321 0.000000 0.828965
O O21 0.749232 0.500000 0.148698
#
# Coordination Sequence:
#
# PCOD9177409 Si02
#       8
#     8   8   8   8   8   8   8   8
#     4  11  19  29  44  61  85 120 156 185 216 261
#     4  10  20  35  54  71  88 115 145 180 226 273
#     4  10  21  34  45  63  89 114 145 187 225 261
#     4   9  16  26  38  55  80 114 151 185 220 256
#     4   9  17  30  47  65  87 117 151 181 220 268
#     4  10  19  29  41  60  88 117 147 186 225 254
#     4   8  15  26  39  55  82 117 150 183 216 249
#     4   9  15  27  42  59  84 113 148 188 218 253
#
# _framework density 14.992972
#
# number of rings (size 3 to 8) (size 9 to 14) (size 15 to 20)
#    0.000    2.500    1.250    3.000    0.000    4.000 
#    0.000    1.875    0.000    0.000    0.000    0.000 
#    0.000    1.000    0.000   11.500    0.000    3.500 
#
# Total GULP energy -178251.965438 kJ/mol
# GULP energy per Si atom -5570.373920 kJ/mol
# Density = 1.495885 g / cm^3
# Si number density = 14.992972 Si / 1000 Ang^3
#
#
#
# Elastic Constant Matrix: (Units=GPa)
#
#
# Indices 1 2 3 4 5 6 
#
# 1 60.8909 27.6600 57.3783 0.0000 -0.1780 0.0000
# 2 27.6600 34.5394 45.4086 0.0000 1.3057 0.0000
# 3 57.3783 45.4086 130.0368 0.0000 7.9800 0.0000
# 4 0.0000 0.0000 0.0000 22.5949 0.0000 0.9718
# 5 -0.1780 1.3057 7.9800 0.0000 10.7608 0.0000
# 6 0.0000 0.0000 0.0000 0.9718 0.0000 20.3971
#
#
#
# Elastic Compliance Matrix: (Units=1/GPa)
#
#
# Indices 1 2 3 4 5 6 
#
# 1 0.031727 -0.012180 -0.010340 0.000000 0.009670 0.000000
# 2 -0.012180 0.058820 -0.015417 0.000000 0.004094 0.000000
# 3 -0.010340 -0.015417 0.018368 0.000000 -0.011922 0.000000
# 4 0.000000 0.000000 0.000000 0.044349 0.000000 -0.002113
# 5 0.009670 0.004094 -0.011922 0.000000 0.101434 0.000000
# 6 0.000000 0.000000 0.000000 -0.002113 0.000000 0.049127
#
#
# Mechanical properties :
#
#
# Convention : Reuss Voigt Hill
#
# Bulk Modulus (GPa) = 30.26462 54.04007 42.15235
# Shear Modulus (GPa) = 12.79719 17.08522 14.94121
#
# Velocity S-wave (km/s) = 2.92472 3.37938 3.16024
# Velocity P-wave (km/s) = 5.62450 7.16581 6.44142
#
# Compressibility (1/GPa) = 0.03304188
#
# Stress axis : x y z
#
# Youngs Moduli (GPa) = 31.51874 17.00113 54.44374
#
# Poissons Ratio (x) = 0.20707 0.56294
# Poissons Ratio (y) = 0.38389 0.83934
# Poissons Ratio (z) = 0.32590 0.26210
#
# Static dielectric constant tensor:
#      x y z
#    x 1.462970 0.000000 -0.007770 
#    y 0.000000 1.503350 0.000000 
#    z -0.007770 0.000000 1.550050 
# 
# From -- ./inp_files/326917.got.cif
#   From: 2010.05.17/outbox.cif.g08.bks.cpg/sg12_164_cif.got.tgz:326917.got - 2010.06.03 13:09:07.
