data_PCOD9177897
_publ_section_title
;
Structure prediction by ZEFSAII (Michael W. Deem and Ramdas Pophale) SiO2 
 PCOD9177897
Probable space group: C 2/M
;
_chemical_formula_sum "Si O2"
_cell_formula_units_Z 64
_cell_length_a 24.973382
_cell_length_b 8.427026
_cell_length_c 16.218963
_cell_angle_alpha 90.000000
_cell_angle_beta 97.775972
_cell_angle_gamma 90.000000
_cell_volume 3381.916038
_symmetry_space_group_name_H-M "C 2/M"
_symmetry_group_IT_number 12
_symmetry_cell_setting 'monoclinic'
loop_
_space_group_symop_operation_xyz
x,y,z
-x,y,-z
-x,-y,-z
x,-y,z
1/2+x,1/2+y,z
1/2-x,1/2+y,-z
1/2-x,1/2-y,-z
1/2+x,1/2-y,z
loop_
_atom_site_type_symbol
_atom_site_label
_atom_site_fract_x
_atom_site_fract_y
_atom_site_fract_z
Si Si1 0.943483 0.322649 0.941835
Si Si2 0.092681 0.187674 0.795695
Si Si3 0.705785 0.306741 0.139718
Si Si4 0.640733 0.311764 0.289394
Si Si5 0.807184 0.311157 0.267730
Si Si6 0.972635 0.683658 0.756910
Si Si7 0.240261 0.312636 0.406506
Si Si8 0.145640 0.817891 0.975064
O O1 0.919493 0.500000 0.949651
O O2 0.957994 0.303162 0.850298
O O3 0.904596 0.192269 0.971946
O O4 0.000000 0.317321 0.000000
O O5 0.136378 0.225330 0.735036
O O6 0.121116 0.254411 0.885903
O O7 0.033929 0.256573 0.762751
O O8 0.085654 0.000000 0.806259
O O9 0.704645 0.500000 0.135664
O O10 0.662349 0.260053 0.202152
O O11 0.763828 0.259403 0.188310
O O12 0.808206 0.253212 0.955130
O O13 0.649934 0.500000 0.295262
O O14 0.578109 0.274631 0.293005
O O15 0.680120 0.227778 0.362183
O O16 0.814329 0.500000 0.262178
O O17 0.779717 0.270524 0.348726
O O18 0.970354 0.500000 0.731773
O O19 0.249058 0.500000 0.405001
O O20 0.250000 0.250000 0.500000
O O21 0.160338 0.000000 0.959270
#
# Coordination Sequence:
#
# PCOD9177897 Si02
#       8
#     8   8   8   8   8   8   8   8
#     4  10  19  30  44  68 102 140 190 246 291 327
#     4  11  23  35  50  75 109 153 201 242 284 336
#     4   8  16  31  51  74 103 141 186 236 287 331
#     4  10  19  34  57  86 118 147 182 230 284 331
#     4  10  21  39  59  80 111 149 188 231 283 337
#     4  11  21  33  51  76 109 150 194 239 287 336
#     4  11  22  40  67  97 122 143 175 217 270 332
#     4  10  19  31  48  71 102 145 196 242 288 334
#
# _framework density 18.924182999999999
#
# number of rings (size 3 to 8) (size 9 to 14) (size 15 to 20)
#    0.000    1.875    2.500    3.375    0.000    1.750 
#    0.000    0.625    0.000    0.750    0.000    5.250 
#    0.000    0.000    0.000    0.000    0.000    0.000 
#
# Total GULP energy -178464.114820 kJ/mol
# GULP energy per Si atom -5577.003588 kJ/mol
# Density = 1.888111 g / cm^3
# Si number density = 18.924183 Si / 1000 Ang^3
#
#
#
# Elastic Constant Matrix: (Units=GPa)
#
#
# Indices 1 2 3 4 5 6 
#
# 1 94.0278 4.7584 19.1087 0.0000 1.4800 0.0000
# 2 4.7584 26.3780 -3.6653 0.0000 1.3911 0.0000
# 3 19.1087 -3.6653 48.8246 0.0000 15.3767 0.0000
# 4 0.0000 0.0000 0.0000 18.4931 0.0000 0.6580
# 5 1.4800 1.3911 15.3767 0.0000 15.7923 0.0000
# 6 0.0000 0.0000 0.0000 0.6580 0.0000 26.8934
#
#
#
# Elastic Compliance Matrix: (Units=1/GPa)
#
#
# Indices 1 2 3 4 5 6 
#
# 1 0.012105 -0.003439 -0.006828 0.000000 0.005817 0.000000
# 2 -0.003439 0.040176 0.007752 0.000000 -0.010765 0.000000
# 3 -0.006828 0.007752 0.034253 0.000000 -0.033395 0.000000
# 4 0.000000 0.000000 0.000000 0.054121 0.000000 -0.001324
# 5 0.005817 -0.010765 -0.033395 0.000000 0.096241 0.000000
# 6 0.000000 0.000000 0.000000 -0.001324 0.000000 0.037216
#
#
# Mechanical properties :
#
#
# Convention : Reuss Voigt Hill
#
# Bulk Modulus (GPa) = 12.26924 23.29267 17.78095
# Shear Modulus (GPa) = 16.32333 22.17097 19.24715
#
# Velocity S-wave (km/s) = 2.94013 3.42653 3.19261
# Velocity P-wave (km/s) = 4.24538 5.29055 4.79652
#
# Compressibility (1/GPa) = 0.08150464
#
# Stress axis : x y z
#
# Youngs Moduli (GPa) = 82.60914 24.89066 29.19463
#
# Poissons Ratio (x) = 0.08560 0.19933
# Poissons Ratio (y) = 0.28411 -0.22633
# Poissons Ratio (z) = 0.56403 -0.19296
#
# Static dielectric constant tensor:
#      x y z
#    x 1.673490 0.000000 0.027940 
#    y 0.000000 1.684070 0.000000 
#    z 0.027940 0.000000 1.660340 
# 
# From -- ./inp_files/281274.got.cif
#   From: 2010.05.17/outbox.cif.g08.bks.cpg/sg12_141_cif.got.tgz:281274.got - 2010.06.03 13:09:07.
