data_PCOD9177725
_publ_section_title
;
Structure prediction by ZEFSAII (Michael W. Deem and Ramdas Pophale) SiO2 
 PCOD9177725
Probable space group: C 2/M
;
_chemical_formula_sum "Si O2"
_cell_formula_units_Z 56
_cell_length_a 29.912220
_cell_length_b 23.725797
_cell_length_c 12.572964
_cell_angle_alpha 90.000000
_cell_angle_beta 20.665384
_cell_angle_gamma 90.000000
_cell_volume 3148.985231
_symmetry_space_group_name_H-M "C 2/M"
_symmetry_group_IT_number 12
_symmetry_cell_setting 'monoclinic'
loop_
_space_group_symop_operation_xyz
x,y,z
-x,y,-z
-x,-y,-z
x,-y,z
1/2+x,1/2+y,z
1/2-x,1/2+y,-z
1/2-x,1/2-y,-z
1/2+x,1/2-y,z
loop_
_atom_site_type_symbol
_atom_site_label
_atom_site_fract_x
_atom_site_fract_y
_atom_site_fract_z
Si Si1 0.827593 0.346513 0.154676
Si Si2 0.503658 0.934731 0.863336
Si Si3 0.766580 0.648065 0.666657
Si Si4 0.387354 0.654779 0.196545
Si Si5 0.854444 0.681213 0.856574
Si Si6 0.642854 0.317066 0.150277
Si Si7 0.478211 0.229152 0.165699
O O1 0.709615 0.330261 0.492612
O O2 0.811500 0.345959 0.064198
O O3 0.882441 0.404847 0.079785
O O4 0.936540 0.300840 0.936710
O O5 0.623311 0.897383 0.561397
O O6 0.513712 0.000000 0.811364
O O7 0.500000 0.931375 0.000000
O O8 0.694882 0.633152 0.717713
O O9 0.835194 0.709912 0.506504
O O10 0.674603 0.652595 0.969929
O O11 0.500000 0.619124 0.000000
O O12 0.463224 0.708847 0.978841
O O13 0.852367 0.749157 0.874108
O O14 0.000000 0.665908 0.500000
O O15 0.751528 0.668011 0.994342
O O16 0.500000 0.331235 0.500000
O O17 0.500000 0.202283 0.000000
#
# Coordination Sequence:
#
# PCOD9177725 Si02
#       7
#     8   8   8   8   8   8   8
#     4  11  19  35  54  80 113 141 186 242 279 328
#     4  10  20  38  64  86 107 140 186 240 300 353
#     4  11  20  38  54  76 116 144 192 232 275 344
#     4  11  23  28  48  85 114 147 180 221 287 341
#     4  10  21  36  52  77 115 160 198 229 266 326
#     4  10  23  36  52  79 114 165 197 216 274 341
#     4  10  19  29  47  76 110 145 176 219 276 329
#
# _framework density 17.783505999999999
#
# number of rings (size 3 to 8) (size 9 to 14) (size 15 to 20)
#    0.000    1.571    2.857    3.857    8.000    1.143 
#    0.000    0.000    0.000    6.000    0.000    0.000 
#    0.000    0.000    0.000    0.000    0.000    0.000 
#
# Total GULP energy -156050.281510 kJ/mol
# GULP energy per Si atom -5573.224340 kJ/mol
# Density = 1.774303 g / cm^3
# Si number density = 17.783506 Si / 1000 Ang^3
#
#
#
# Elastic Constant Matrix: (Units=GPa)
#
#
# Indices 1 2 3 4 5 6 
#
# 1 103.3526 8.1527 54.3829 0.0005 0.7449 0.0000
# 2 8.1527 61.6545 24.9484 -0.0008 -0.6302 -0.0002
# 3 54.3829 24.9484 122.0589 -0.0019 3.5873 -0.0003
# 4 0.0005 -0.0008 -0.0019 6.4553 0.0004 -2.3443
# 5 0.7449 -0.6302 3.5873 0.0004 36.4532 0.0002
# 6 0.0000 -0.0002 -0.0003 -2.3443 0.0002 11.3545
#
#
#
# Elastic Compliance Matrix: (Units=1/GPa)
#
#
# Indices 1 2 3 4 5 6 
#
# 1 0.012667 0.000671 -0.005791 -0.000003 0.000323 -0.000001
# 2 0.000671 0.017733 -0.003944 0.000001 0.000681 0.000000
# 3 -0.005791 -0.003944 0.011611 0.000004 -0.001092 0.000001
# 4 -0.000003 0.000001 0.000004 0.167467 -0.000002 0.034577
# 5 0.000323 0.000681 -0.001092 -0.000002 0.027545 -0.000001
# 6 -0.000001 0.000000 0.000001 0.034577 -0.000001 0.095210
#
#
# Mechanical properties :
#
#
# Convention : Reuss Voigt Hill
#
# Bulk Modulus (GPa) = 41.86600 51.33710 46.60155
# Shear Modulus (GPa) = 13.95395 24.15807 19.05601
#
# Velocity S-wave (km/s) = 2.80421 3.68972 3.27701
# Velocity P-wave (km/s) = 5.83763 6.86167 6.37026
#
# Compressibility (1/GPa) = 0.02388573
#
# Stress axis : x y z
#
# Youngs Moduli (GPa) = 78.94372 56.39060 86.12566
#
# Poissons Ratio (x) = -0.03786 0.49872
# Poissons Ratio (y) = -0.05301 0.33966
# Poissons Ratio (z) = 0.45713 0.22239
#
# Static dielectric constant tensor:
#      x y z
#    x 1.665260 0.000000 -0.037230 
#    y 0.000000 1.613750 0.000000 
#    z -0.037230 0.000000 1.648230 
# 
# From -- ./inp_files/190382.got.cif
#   From: 2010.05.17/outbox.cif.g08.bks.cpg/sg12_96_cif.got.tgz:190382.got - 2010.06.03 13:09:07.
