data_PCOD9177273
_publ_section_title
;
Structure prediction by ZEFSAII (Michael W. Deem and Ramdas Pophale) SiO2 
 PCOD9177273
Probable space group: C 2/M
;
_chemical_formula_sum "Si O2"
_cell_formula_units_Z 32
_cell_length_a 19.005404
_cell_length_b 5.654532
_cell_length_c 11.679532
_cell_angle_alpha 90.000000
_cell_angle_beta 70.480139
_cell_angle_gamma 90.000000
_cell_volume 1183.020921
_symmetry_space_group_name_H-M "C 2/M"
_symmetry_group_IT_number 12
_symmetry_cell_setting 'monoclinic'
loop_
_space_group_symop_operation_xyz
x,y,z
-x,y,-z
-x,-y,-z
x,-y,z
1/2+x,1/2+y,z
1/2-x,1/2+y,-z
1/2-x,1/2-y,-z
1/2+x,1/2-y,z
loop_
_atom_site_type_symbol
_atom_site_label
_atom_site_fract_x
_atom_site_fract_y
_atom_site_fract_z
Si Si1 0.855608 0.000000 0.285285
Si Si2 0.912708 0.000000 0.517156
Si Si3 0.589862 0.000000 0.456010
Si Si4 0.588376 0.500000 0.004768
Si Si5 0.471602 0.000000 0.867347
Si Si6 0.823646 0.500000 0.849477
Si Si7 0.273942 0.500000 0.893545
Si Si8 0.641059 0.000000 0.688799
O O1 0.817156 0.744488 0.310852
O O2 0.902018 0.000000 0.382930
O O3 0.895865 0.000000 0.139536
O O4 0.883169 0.238983 0.590862
O O5 0.000000 0.000000 0.500000
O O6 0.500000 0.000000 0.500000
O O7 0.616266 0.000000 0.572483
O O8 0.548707 0.253289 0.064175
O O9 0.663282 0.500000 0.040078
O O10 0.560076 0.000000 0.795861
O O11 0.413742 0.000000 0.790045
O O12 0.786312 0.255462 0.831535
O O13 0.804818 0.500000 0.997503
#
# Coordination Sequence:
#
# PCOD9177273 Si02
#       8
#     4   4   4   4   4   4   4   4
#     4  10  19  28  38  53  74 101 127 153 181 215
#     4   8  14  25  39  52  66  88 117 151 186 214
#     4   8  14  25  39  52  66  88 117 151 186 214
#     4  10  19  28  38  53  74 101 130 155 180 215
#     4  10  19  28  38  53  74 101 130 155 180 215
#     4   8  14  25  39  52  66  88 121 157 187 212
#     4   8  14  25  39  52  66  88 121 157 187 212
#     4  10  19  28  38  53  74 101 127 153 181 215
#
# _framework density 27.049398
#
# number of rings (size 3 to 8) (size 9 to 14) (size 15 to 20)
#    0.000    3.000    0.000    1.500    0.000    3.000 
#    0.000    0.000    0.000    0.000    0.000    0.000 
#    0.000    0.000    0.000   36.000    0.000    0.000 
#
# Total GULP energy -89178.223676 kJ/mol
# GULP energy per Si atom -5573.638980 kJ/mol
# Density = 2.698783 g / cm^3
# Si number density = 27.049398 Si / 1000 Ang^3
#
#
#
# Elastic Constant Matrix: (Units=GPa)
#
#
# Indices 1 2 3 4 5 6 
#
# 1 110.0182 5.3187 18.9487 0.0000 30.6675 0.0000
# 2 5.3187 361.2042 24.1003 0.0000 2.7885 0.0000
# 3 18.9487 24.1003 96.6396 0.0000 0.5796 0.0000
# 4 0.0000 0.0000 0.0000 -11.5465 0.0000 14.5975
# 5 30.6675 2.7885 0.5796 0.0000 33.5124 0.0000
# 6 0.0000 0.0000 0.0000 14.5975 0.0000 -37.9716
#
#
#
# Elastic Compliance Matrix: (Units=1/GPa)
#
#
# Indices 1 2 3 4 5 6 
#
# 1 0.012750 0.000065 -0.002446 0.000000 -0.011630 0.000000
# 2 0.000065 0.002817 -0.000714 0.000000 -0.000282 0.000000
# 3 -0.002446 -0.000714 0.010993 0.000000 0.002108 0.000000
# 4 0.000000 0.000000 0.000000 -0.168501 0.000000 -0.064777
# 5 -0.011630 -0.000282 0.002108 0.000000 0.040470 0.000000
# 6 0.000000 0.000000 0.000000 -0.064777 0.000000 -0.051238
#
#
# Mechanical properties :
#
#
# Convention : Reuss Voigt Hill
#
# Bulk Modulus (GPa) = 49.09183 73.84414 61.46798
# Shear Modulus (GPa) = -35.78342 31.43183 -2.17580
#
# Velocity S-wave (km/s) = -3.64110 3.41253 -0.89784
# Velocity P-wave (km/s) = 0.71520 6.54875 4.65820
#
# Compressibility (1/GPa) = 0.02036999
#
# Stress axis : x y z
#
# Youngs Moduli (GPa) = 78.43403 354.94329 90.96900
#
# Poissons Ratio (x) = -0.02317 0.22255
# Poissons Ratio (y) = -0.00512 0.06493
# Poissons Ratio (z) = 0.19188 0.25333
#
# Static dielectric constant tensor:
#      x y z
#    x 2.095250 0.000000 0.007230 
#    y 0.000000 2.144430 0.000000 
#    z 0.007230 0.000000 1.672960 
# 
# From -- ./inp_files/170981.got.cif
#   From: 2010.05.17/outbox.cif.g08.bks.cpg/sg12_86_cif.got.tgz:170981.got - 2010.06.03 13:09:07.
