data_PCOD9177244
_publ_section_title
;
Structure prediction by ZEFSAII (Michael W. Deem and Ramdas Pophale) SiO2 
 PCOD9177244
Probable space group: C 2/M
;
_chemical_formula_sum "Si O2"
_cell_formula_units_Z 64
_cell_length_a 14.466754
_cell_length_b 18.009895
_cell_length_c 14.457404
_cell_angle_alpha 90.000000
_cell_angle_beta 89.865262
_cell_angle_gamma 90.000000
_cell_volume 3766.789869
_symmetry_space_group_name_H-M "C 2/M"
_symmetry_group_IT_number 12
_symmetry_cell_setting 'monoclinic'
loop_
_space_group_symop_operation_xyz
x,y,z
-x,y,-z
-x,-y,-z
x,-y,z
1/2+x,1/2+y,z
1/2-x,1/2+y,-z
1/2-x,1/2-y,-z
1/2+x,1/2-y,z
loop_
_atom_site_type_symbol
_atom_site_label
_atom_site_fract_x
_atom_site_fract_y
_atom_site_fract_z
Si Si1 0.788639 0.684669 0.434050
Si Si2 0.381623 0.588798 0.090342
Si Si3 0.372163 0.911931 0.596581
Si Si4 0.601673 0.589257 0.115670
Si Si5 0.201314 0.090367 0.720848
Si Si6 0.488569 0.785717 0.390850
Si Si7 0.114629 0.157072 0.305056
Si Si8 0.537519 0.415907 0.595284
O O1 0.750000 0.750000 0.500000
O O2 0.825248 0.620547 0.503399
O O3 0.705026 0.661398 0.368129
O O4 0.878905 0.710451 0.376543
O O5 0.367845 0.500000 0.087337
O O6 0.490184 0.599129 0.112107
O O7 0.322860 0.618478 0.176856
O O8 0.362483 0.613675 0.985732
O O9 0.300964 0.893656 0.679506
O O10 0.464980 0.866693 0.616338
O O11 0.384745 0.000000 0.589847
O O12 0.618842 0.500000 0.128015
O O13 0.637406 0.639917 0.199022
O O14 0.125221 0.117771 0.646821
O O15 0.192031 0.000000 0.723709
O O16 0.500000 0.767653 0.500000
O O17 0.548957 0.727941 0.330300
O O18 0.048515 0.089069 0.335833
O O19 0.500000 0.383226 0.500000
O O20 0.564496 0.500000 0.573342
#
# Coordination Sequence:
#
# PCOD9177244 Si02
#       8
#     8   8   8   8   8   8   8   8
#     4  11  23  37  51  76 106 140 182 212 268 323
#     4   8  14  28  46  73 113 141 170 210 258 325
#     4  10  21  37  56  77 102 139 189 226 252 303
#     4   9  17  28  47  78 110 141 172 211 265 320
#     4   9  16  28  49  77 103 137 175 213 259 303
#     4  10  22  38  52  72 100 145 180 215 262 315
#     4  12  20  31  53  72 104 137 178 214 262 326
#     4  10  19  26  39  73 112 138 165 208 260 307
#
# _framework density 16.990594000000002
#
# number of rings (size 3 to 8) (size 9 to 14) (size 15 to 20)
#    0.000    2.125    3.750    2.250    1.750    4.250 
#    0.000    0.000    0.000    0.750    0.000    0.000 
#    0.000    4.000    0.000    0.000    0.000    0.000 
#
# Total GULP energy -178266.717727 kJ/mol
# GULP energy per Si atom -5570.834929 kJ/mol
# Density = 1.695192 g / cm^3
# Si number density = 16.990594 Si / 1000 Ang^3
#
#
#
# Elastic Constant Matrix: (Units=GPa)
#
#
# Indices 1 2 3 4 5 6 
#
# 1 87.3418 29.6061 25.6690 0.0000 -7.2179 0.0000
# 2 29.6061 72.6670 24.3301 0.0000 -6.4664 0.0000
# 3 25.6690 24.3301 107.0454 0.0000 -8.6256 0.0000
# 4 0.0000 0.0000 0.0000 16.2983 0.0000 -8.6897
# 5 -7.2179 -6.4664 -8.6256 0.0000 17.8126 0.0000
# 6 0.0000 0.0000 0.0000 -8.6897 0.0000 9.6879
#
#
#
# Elastic Compliance Matrix: (Units=1/GPa)
#
#
# Indices 1 2 3 4 5 6 
#
# 1 0.013885 -0.004720 -0.002020 0.000000 0.002935 0.000000
# 2 -0.004720 0.016767 -0.002438 0.000000 0.002994 0.000000
# 3 -0.002020 -0.002438 0.010659 0.000000 0.003458 0.000000
# 4 0.000000 0.000000 0.000000 0.117591 0.000000 0.105474
# 5 0.002935 0.002994 0.003458 0.000000 0.060090 0.000000
# 6 0.000000 0.000000 0.000000 0.105474 0.000000 0.197827
#
#
# Mechanical properties :
#
#
# Convention : Reuss Voigt Hill
#
# Bulk Modulus (GPa) = 43.56268 47.36274 45.46271
# Shear Modulus (GPa) = 11.29109 21.25638 16.27373
#
# Velocity S-wave (km/s) = 2.58068 3.54088 3.09821
# Velocity P-wave (km/s) = 5.88004 6.68233 6.29398
#
# Compressibility (1/GPa) = 0.02295543
#
# Stress axis : x y z
#
# Youngs Moduli (GPa) = 72.01818 59.64118 93.81682
#
# Poissons Ratio (x) = 0.28148 0.18955
# Poissons Ratio (y) = 0.33989 0.22872
# Poissons Ratio (z) = 0.14551 0.14540
#
# Static dielectric constant tensor:
#      x y z
#    x 1.588050 0.000000 -0.023610 
#    y 0.000000 1.611480 0.000000 
#    z -0.023610 0.000000 1.629690 
# 
# From -- ./inp_files/215932.got.cif
#   From: 2010.05.17/outbox.cif.g08.bks.cpg/sg12_108_cif.got.tgz:215932.got - 2010.06.03 13:09:07.
