data_PCOD9177561
_publ_section_title
;
Structure prediction by ZEFSAII (Michael W. Deem and Ramdas Pophale) SiO2 
 PCOD9177561
Probable space group: C 2/M
;
_chemical_formula_sum "Si O2"
_cell_formula_units_Z 64
_cell_length_a 22.013178
_cell_length_b 9.163352
_cell_length_c 22.831911
_cell_angle_alpha 90.000000
_cell_angle_beta 123.411368
_cell_angle_gamma 90.000000
_cell_volume 3844.411683
_symmetry_space_group_name_H-M "C 2/M"
_symmetry_group_IT_number 12
_symmetry_cell_setting 'monoclinic'
loop_
_space_group_symop_operation_xyz
x,y,z
-x,y,-z
-x,-y,-z
x,-y,z
1/2+x,1/2+y,z
1/2-x,1/2+y,-z
1/2-x,1/2-y,-z
1/2+x,1/2-y,z
loop_
_atom_site_type_symbol
_atom_site_label
_atom_site_fract_x
_atom_site_fract_y
_atom_site_fract_z
Si Si1 0.902322 0.828079 0.889969
Si Si2 0.426078 0.672741 0.037045
Si Si3 0.832603 0.332142 0.380347
Si Si4 0.849644 0.170957 0.204443
Si Si5 0.938092 0.831545 0.518319
Si Si6 0.680442 0.825745 0.933381
Si Si7 0.543799 0.831668 0.656250
Si Si8 0.227482 0.669982 0.241107
O O1 0.847546 0.736508 0.821737
O O2 0.986925 0.807626 0.918600
O O3 0.885485 0.000000 0.874709
O O4 0.896350 0.792846 0.956032
O O5 0.411698 0.500000 0.040425
O O6 0.387797 0.772769 0.064229
O O7 0.818551 0.500000 0.388263
O O8 0.867789 0.244067 0.452659
O O9 0.894974 0.331485 0.362754
O O10 0.763173 0.256296 0.314057
O O11 0.829024 0.263134 0.136716
O O12 0.921095 0.238030 0.273078
O O13 0.785011 0.181957 0.217908
O O14 0.859483 0.000000 0.195390
O O15 0.000000 0.830407 0.500000
O O16 0.973053 0.742237 0.590278
O O17 0.924980 0.000000 0.526564
O O18 0.687934 0.000000 0.937114
O O19 0.750000 0.750000 0.000000
O O20 0.531515 0.000000 0.666323
O O21 0.220289 0.500000 0.251858
#
# Coordination Sequence:
#
# PCOD9177561 Si02
#       8
#     8   8   8   8   8   8   8   8
#     4   9  18  33  53  72  92 120 152 188 232 279
#     4   9  19  36  54  72  93 119 153 191 231 277
#     4   9  16  25  38  57  84 118 154 190 228 273
#     4  10  20  33  47  66  93 125 159 195 234 276
#     4   9  15  23  36  55  82 116 152 189 228 271
#     4  12  24  36  51  71  95 124 156 192 233 276
#     4   9  16  26  40  59  84 117 155 191 228 273
#     4  10  19  29  44  67  94 123 156 193 233 276
#
# _framework density 16.647542000000001
#
# number of rings (size 3 to 8) (size 9 to 14) (size 15 to 20)
#    0.000    2.375    0.000    4.500    0.000    9.000 
#    0.000    1.250    0.000    0.000    0.000    0.000 
#    0.000    1.000    0.000    3.750    0.000    6.125 
#
# Total GULP energy -178500.766725 kJ/mol
# GULP energy per Si atom -5578.148960 kJ/mol
# Density = 1.660965 g / cm^3
# Si number density = 16.647542 Si / 1000 Ang^3
#
#
#
# Elastic Constant Matrix: (Units=GPa)
#
#
# Indices 1 2 3 4 5 6 
#
# 1 12.3767 23.4590 14.8304 0.0000 5.6674 0.0000
# 2 23.4590 132.7333 70.5947 0.0000 16.9972 0.0000
# 3 14.8304 70.5947 122.8776 0.0000 28.5077 0.0000
# 4 0.0000 0.0000 0.0000 34.4519 0.0000 4.7515
# 5 5.6674 16.9972 28.5077 0.0000 20.4449 0.0000
# 6 0.0000 0.0000 0.0000 4.7515 0.0000 19.1283
#
#
#
# Elastic Compliance Matrix: (Units=1/GPa)
#
#
# Indices 1 2 3 4 5 6 
#
# 1 0.127573 -0.020544 0.000957 0.000000 -0.019619 0.000000
# 2 -0.020544 0.014160 -0.006276 0.000000 0.002674 0.000000
# 3 0.000957 -0.006276 0.015490 0.000000 -0.016647 0.000000
# 4 0.000000 0.000000 0.000000 0.030056 0.000000 -0.007466
# 5 -0.019619 0.002674 -0.016647 0.000000 0.075340 0.000000
# 6 0.000000 0.000000 0.000000 -0.007466 0.000000 0.054133
#
#
# Mechanical properties :
#
#
# Convention : Reuss Voigt Hill
#
# Bulk Modulus (GPa) = 9.47878 53.97286 31.72582
# Shear Modulus (GPa) = 12.38714 25.41190 18.89952
#
# Velocity S-wave (km/s) = 2.73075 3.91124 3.37304
# Velocity P-wave (km/s) = 3.95586 7.27244 5.85394
#
# Compressibility (1/GPa) = 0.10549876
#
# Stress axis : x y z
#
# Youngs Moduli (GPa) = 7.83863 70.61960 64.55593
#
# Poissons Ratio (x) = 1.45079 -0.06179
# Poissons Ratio (y) = 0.16104 0.40516
# Poissons Ratio (z) = -0.00750 0.44321
#
# Static dielectric constant tensor:
#      x y z
#    x 1.547090 0.000000 0.003240 
#    y 0.000000 1.555020 0.000000 
#    z 0.003240 0.000000 1.548600 
# 
# From -- ./inp_files/320132.got.cif
#   From: 2010.05.17/outbox.cif.g08.bks.cpg/sg12_161_cif.got.tgz:320132.got - 2010.06.03 13:09:07.
