data_PCOD9177193
_publ_section_title
;
Structure prediction by ZEFSAII (Michael W. Deem and Ramdas Pophale) SiO2 
 PCOD9177193
Probable space group: C 2/M
;
_chemical_formula_sum "Si O2"
_cell_formula_units_Z 44
_cell_length_a 10.356217
_cell_length_b 29.836852
_cell_length_c 7.366686
_cell_angle_alpha 90.000000
_cell_angle_beta 66.416902
_cell_angle_gamma 90.000000
_cell_volume 2086.169864
_symmetry_space_group_name_H-M "C 2/M"
_symmetry_group_IT_number 12
_symmetry_cell_setting 'monoclinic'
loop_
_space_group_symop_operation_xyz
x,y,z
-x,y,-z
-x,-y,-z
x,-y,z
1/2+x,1/2+y,z
1/2-x,1/2+y,-z
1/2-x,1/2-y,-z
1/2+x,1/2-y,z
loop_
_atom_site_type_symbol
_atom_site_label
_atom_site_fract_x
_atom_site_fract_y
_atom_site_fract_z
Si Si1 0.364371 0.210034 0.437188
Si Si2 0.191849 0.595733 0.038342
Si Si3 0.558456 0.952648 0.673135
Si Si4 0.769102 0.114689 0.414256
Si Si5 0.975076 0.052077 0.794674
Si Si6 0.500000 0.174002 0.000000
O O1 0.500000 0.213478 0.500000
O O2 0.250000 0.250000 0.500000
O O3 0.266652 0.166398 0.532522
O O4 0.437766 0.202751 0.200212
O O5 0.233700 0.606832 0.222162
O O6 0.072800 0.558026 0.127495
O O7 0.123312 0.640627 0.998713
O O8 0.322140 0.574027 0.862252
O O9 0.500000 0.955291 0.500000
O O10 0.660440 0.910969 0.605477
O O11 0.627971 0.000000 0.675774
O O12 0.914737 0.087419 0.352208
O O13 0.987721 0.000000 0.726825
O O14 0.000000 0.050674 0.000000
#
# Coordination Sequence:
#
# PCOD9177193 Si02
#       6
#     8   8   8   8   8   4
#     4  12  27  50  75 106 139 177 237 299 363 439
#     4  10  19  35  63  94 138 178 224 279 331 414
#     4   9  15  27  56  89 124 175 222 266 326 396
#     4  10  18  39  64  93 136 175 225 281 348 406
#     4   9  18  32  58  99 140 184 232 278 336 407
#     4  12  24  46  75  98 136 184 229 288 366 420
#
# _framework density 21.091284000000002
#
# number of rings (size 3 to 8) (size 9 to 14) (size 15 to 20)
#    0.000    1.818    3.636    1.636    0.000    6.545 
#    4.909    1.818    0.000    1.091    0.000    0.000 
#    0.000    0.000    0.000    0.000    0.000    0.000 
#
# Total GULP energy -122770.531269 kJ/mol
# GULP energy per Si atom -5580.478694 kJ/mol
# Density = 2.104328 g / cm^3
# Si number density = 21.091284 Si / 1000 Ang^3
#
#
#
# Elastic Constant Matrix: (Units=GPa)
#
#
# Indices 1 2 3 4 5 6 
#
# 1 119.9932 83.1743 73.0333 0.0000 -20.8103 0.0000
# 2 83.1743 206.9070 59.5035 0.0000 -30.9400 0.0000
# 3 73.0333 59.5035 96.5400 0.0000 -11.0111 0.0000
# 4 0.0000 0.0000 0.0000 29.3331 0.0000 4.2011
# 5 -20.8103 -30.9400 -11.0111 0.0000 44.6041 0.0000
# 6 0.0000 0.0000 0.0000 4.2011 0.0000 35.2999
#
#
#
# Elastic Compliance Matrix: (Units=1/GPa)
#
#
# Indices 1 2 3 4 5 6 
#
# 1 0.018202 -0.003623 -0.011170 0.000000 0.003222 0.000000
# 2 -0.003623 0.007100 -0.001303 0.000000 0.002913 0.000000
# 3 -0.011170 -0.001303 0.019462 0.000000 -0.001311 0.000000
# 4 0.000000 0.000000 0.000000 0.034682 0.000000 -0.004128
# 5 0.003222 0.002913 -0.001311 0.000000 0.025620 0.000000
# 6 0.000000 0.000000 0.000000 -0.004128 0.000000 0.028820
#
#
# Mechanical properties :
#
#
# Convention : Reuss Voigt Hill
#
# Bulk Modulus (GPa) = 79.53687 94.98470 87.26079
# Shear Modulus (GPa) = 29.36554 35.69604 32.53079
#
# Velocity S-wave (km/s) = 3.73541 4.11841 3.93158
# Velocity P-wave (km/s) = 7.50980 8.23091 7.87861
#
# Compressibility (1/GPa) = 0.01257279
#
# Stress axis : x y z
#
# Youngs Moduli (GPa) = 54.93833 140.84891 51.38271
#
# Poissons Ratio (x) = 0.51031 0.57392
# Poissons Ratio (y) = 0.19905 0.06695
# Poissons Ratio (z) = 0.61363 0.18351
#
# Static dielectric constant tensor:
#      x y z
#    x 1.824070 0.000000 0.047810 
#    y 0.000000 1.734690 0.000000 
#    z 0.047810 0.000000 1.784680 
# 
# From -- ./inp_files/41549.got.cif
#   From: 2010.05.17/outbox.cif.g08.bks.cpg/sg12_21_cif.got.tgz:41549.got - 2010.06.03 13:09:07.
