data_PCOD9177865
_publ_section_title
;
Structure prediction by ZEFSAII (Michael W. Deem and Ramdas Pophale) SiO2 
 PCOD9177865
Probable space group: C 2/M
;
_chemical_formula_sum "Si O2"
_cell_formula_units_Z 56
_cell_length_a 26.982043
_cell_length_b 7.391129
_cell_length_c 13.701376
_cell_angle_alpha 90.000000
_cell_angle_beta 112.670366
_cell_angle_gamma 90.000000
_cell_volume 2521.320159
_symmetry_space_group_name_H-M "C 2/M"
_symmetry_group_IT_number 12
_symmetry_cell_setting 'monoclinic'
loop_
_space_group_symop_operation_xyz
x,y,z
-x,y,-z
-x,-y,-z
x,-y,z
1/2+x,1/2+y,z
1/2-x,1/2+y,-z
1/2-x,1/2-y,-z
1/2+x,1/2-y,z
loop_
_atom_site_type_symbol
_atom_site_label
_atom_site_fract_x
_atom_site_fract_y
_atom_site_fract_z
Si Si1 0.380321 0.210830 0.955454
Si Si2 0.771829 0.795671 0.773492
Si Si3 0.169190 0.278207 0.598749
Si Si4 0.945735 0.279002 0.183145
Si Si5 0.668383 0.781369 0.379847
Si Si6 0.938434 0.719990 0.805473
Si Si7 0.945208 0.278996 0.406450
O O1 0.318011 0.219886 0.878289
O O2 0.415234 0.286669 0.891503
O O3 0.394489 0.000000 0.968422
O O4 0.398666 0.281669 0.074155
O O5 0.713194 0.714116 0.710527
O O6 0.797386 0.792911 0.683963
O O7 0.764054 0.000000 0.801096
O O8 0.170985 0.500000 0.600283
O O9 0.183450 0.221110 0.499431
O O10 0.108974 0.224255 0.579442
O O11 0.945671 0.500000 0.187896
O O12 0.942335 0.219239 0.292026
O O13 0.002299 0.222166 0.178292
O O14 0.606446 0.734393 0.309141
O O15 0.672854 0.000000 0.378200
O O16 0.939759 0.500000 0.810627
O O17 0.945852 0.500000 0.408020
O O18 0.000000 0.220005 0.500000
#
# Coordination Sequence:
#
# PCOD9177865 Si02
#       7
#     8   8   8   8   8   8   8
#     4   9  17  29  45  66  93 121 151 186 221 262
#     4  10  19  30  44  64  93 123 151 184 223 265
#     4   9  17  28  42  63  92 123 148 179 227 271
#     4   9  15  24  42  67  92 119 149 183 225 269
#     4   9  16  28  47  69  93 118 146 181 224 274
#     4   8  13  22  40  66  91 113 140 180 227 266
#     4   9  16  26  42  67  96 118 142 182 229 273
#
# _framework density 22.210585999999999
#
# number of rings (size 3 to 8) (size 9 to 14) (size 15 to 20)
#    0.000    3.000    0.000    3.000    0.000    5.143 
#    0.000    1.429    0.000    6.857    0.000    2.000 
#    0.000   10.286    0.000    0.000    0.000    0.000 
#
# Total GULP energy -156262.409969 kJ/mol
# GULP energy per Si atom -5580.800356 kJ/mol
# Density = 2.216003 g / cm^3
# Si number density = 22.210586 Si / 1000 Ang^3
#
#
#
# Elastic Constant Matrix: (Units=GPa)
#
#
# Indices 1 2 3 4 5 6 
#
# 1 67.0135 -8.5758 37.3470 0.0000 25.5530 0.0000
# 2 -8.5758 69.4979 -4.2705 0.0000 -3.6757 0.0000
# 3 37.3470 -4.2705 148.6002 0.0000 13.9796 0.0000
# 4 0.0000 0.0000 0.0000 2.7899 0.0000 6.2341
# 5 25.5530 -3.6757 13.9796 0.0000 26.8422 0.0000
# 6 0.0000 0.0000 0.0000 6.2341 0.0000 6.8022
#
#
#
# Elastic Compliance Matrix: (Units=1/GPa)
#
#
# Indices 1 2 3 4 5 6 
#
# 1 0.026122 0.001771 -0.004414 0.000000 -0.022326 0.000000
# 2 0.001771 0.014622 -0.000058 0.000000 0.000346 0.000000
# 3 -0.004414 -0.000058 0.007826 0.000000 0.000118 0.000000
# 4 0.000000 0.000000 0.000000 -0.342039 0.000000 0.313474
# 5 -0.022326 0.000346 0.000118 0.000000 0.058494 0.000000
# 6 0.000000 0.000000 0.000000 0.313474 0.000000 -0.140284
#
#
# Mechanical properties :
#
#
# Convention : Reuss Voigt Hill
#
# Bulk Modulus (GPa) = 23.16411 37.12368 30.14390
# Shear Modulus (GPa) = -14.06597 24.66091 5.29747
#
# Velocity S-wave (km/s) = -2.51928 3.33576 1.54606
# Velocity P-wave (km/s) = 1.41054 5.62024 4.09736
#
# Compressibility (1/GPa) = 0.04317022
#
# Stress axis : x y z
#
# Youngs Moduli (GPa) = 38.28168 68.38880 127.77882
#
# Poissons Ratio (x) = -0.12114 0.56401
# Poissons Ratio (y) = -0.06781 0.00735
# Poissons Ratio (z) = 0.16897 0.00393
#
# Static dielectric constant tensor:
#      x y z
#    x 1.776920 0.000000 0.022250 
#    y 0.000000 1.871070 0.000000 
#    z 0.022250 0.000000 1.807700 
# 
# From -- ./inp_files/244312.got.cif
#   From: 2010.05.17/outbox.cif.g08.bks.cpg/sg12_123_cif.got.tgz:244312.got - 2010.06.03 13:09:07.
