data_PCOD9177182
_publ_section_title
;
Structure prediction by ZEFSAII (Michael W. Deem and Ramdas Pophale) SiO2 
 PCOD9177182
Probable space group: C 2/M
;
_chemical_formula_sum "Si O2"
_cell_formula_units_Z 54
_cell_length_a 28.520161
_cell_length_b 16.742870
_cell_length_c 5.027850
_cell_angle_alpha 90.000000
_cell_angle_beta 82.417399
_cell_angle_gamma 90.000000
_cell_volume 2379.851559
_symmetry_space_group_name_H-M "C 2/M"
_symmetry_group_IT_number 12
_symmetry_cell_setting 'monoclinic'
loop_
_space_group_symop_operation_xyz
x,y,z
-x,y,-z
-x,-y,-z
x,-y,z
1/2+x,1/2+y,z
1/2-x,1/2+y,-z
1/2-x,1/2-y,-z
1/2+x,1/2-y,z
loop_
_atom_site_type_symbol
_atom_site_label
_atom_site_fract_x
_atom_site_fract_y
_atom_site_fract_z
Si Si1 0.937676 0.353265 0.429248
Si Si2 0.445323 0.688071 0.639246
Si Si3 0.205738 0.596094 0.245097
Si Si4 0.643115 0.655357 0.613352
Si Si5 0.155796 0.338293 0.779860
Si Si6 0.000000 0.500000 0.500000
Si Si7 0.000000 0.245857 0.000000
Si Si8 0.307623 0.407613 0.930108
O O1 0.925786 0.279620 0.630701
O O2 0.893820 0.375775 0.277963
O O3 0.959467 0.430036 0.545765
O O4 0.977091 0.307525 0.223619
O O5 0.500000 0.676259 0.500000
O O6 0.406849 0.640851 0.502002
O O7 0.456935 0.688391 0.942422
O O8 0.200356 0.500000 0.242366
O O9 0.195033 0.627405 0.547614
O O10 0.169845 0.637623 0.065520
O O11 0.258066 0.616271 0.101563
O O12 0.649126 0.744405 0.727906
O O13 0.679525 0.641767 0.342280
O O14 0.654273 0.601420 0.860683
O O15 0.304423 0.500000 0.849749
#
# Coordination Sequence:
#
# PCOD9177182 Si02
#       8
#     8   8   8   8   8   2   4   8
#     4  10  23  35  54  85 124 170 222 266 301 366
#     4   9  20  38  59  90 125 160 209 253 317 372
#     4  11  25  44  64  90 134 178 212 271 330 382
#     4  11  24  40  72  99 128 169 210 277 317 384
#     4  11  25  41  64  99 130 168 232 268 321 378
#     4  12  20  38  48  84 126 176 218 258 304 354
#     4  10  18  39  58  80 121 168 204 266 308 372
#     4  11  25  46  69  97 127 165 213 261 342 415
#
# _framework density 22.690491000000002
#
# number of rings (size 3 to 8) (size 9 to 14) (size 15 to 20)
#    0.000    1.481    2.222    2.667   12.444    6.222 
#    0.000    0.000    0.000    2.667    0.000    0.000 
#    0.000    0.000    0.000    0.000    0.000    0.000 
#
# Total GULP energy -150379.540240 kJ/mol
# GULP energy per Si atom -5569.612601 kJ/mol
# Density = 2.263885 g / cm^3
# Si number density = 22.690491 Si / 1000 Ang^3
#
#
#
# Elastic Constant Matrix: (Units=GPa)
#
#
# Indices 1 2 3 4 5 6 
#
# 1 70.4154 1.3286 -13.0761 0.0000 11.0881 0.0000
# 2 1.3286 18.8364 -8.6920 0.0000 -3.5135 0.0000
# 3 -13.0761 -8.6920 62.8706 0.0000 -1.3389 0.0000
# 4 0.0000 0.0000 0.0000 9.4699 0.0000 -1.1952
# 5 11.0881 -3.5135 -1.3389 0.0000 38.1425 0.0000
# 6 0.0000 0.0000 0.0000 -1.1952 0.0000 17.6825
#
#
#
# Elastic Compliance Matrix: (Units=1/GPa)
#
#
# Indices 1 2 3 4 5 6 
#
# 1 0.015477 -0.000510 0.003054 0.000000 -0.004439 0.000000
# 2 -0.000510 0.057901 0.008022 0.000000 0.005764 0.000000
# 3 0.003054 0.008022 0.017660 0.000000 0.000471 0.000000
# 4 0.000000 0.000000 0.000000 0.106507 0.000000 0.007199
# 5 -0.004439 0.005764 0.000471 0.000000 0.028055 0.000000
# 6 0.000000 0.000000 0.000000 0.007199 0.000000 0.057040
#
#
# Mechanical properties :
#
#
# Convention : Reuss Voigt Hill
#
# Bulk Modulus (GPa) = 8.91517 12.36037 10.63777
# Shear Modulus (GPa) = 16.72804 24.56311 20.64558
#
# Velocity S-wave (km/s) = 2.71814 3.29375 3.01969
# Velocity P-wave (km/s) = 3.71330 4.46366 4.10566
#
# Compressibility (1/GPa) = 0.11216836
#
# Stress axis : x y z
#
# Youngs Moduli (GPa) = 64.61121 17.27080 56.62547
#
# Poissons Ratio (x) = 0.00882 -0.17293
# Poissons Ratio (y) = 0.03298 -0.45423
# Poissons Ratio (z) = -0.19732 -0.13854
#
# Static dielectric constant tensor:
#      x y z
#    x 1.933920 0.000000 0.019970 
#    y 0.000000 1.798900 0.000000 
#    z 0.019970 0.000000 2.042300 
# 
# From -- ./inp_files/31548.got.cif
#   From: 2010.05.17/outbox.cif.g08.bks.cpg/sg12_16_cif.got.tgz:31548.got - 2010.06.03 13:09:07.
