data_PCOD9177534
_publ_section_title
;
Structure prediction by ZEFSAII (Michael W. Deem and Ramdas Pophale) SiO2 
 PCOD9177534
Probable space group: C 2/M
;
_chemical_formula_sum "Si O2"
_cell_formula_units_Z 64
_cell_length_a 22.756800
_cell_length_b 17.144135
_cell_length_c 16.421344
_cell_angle_alpha 90.000000
_cell_angle_beta 146.880578
_cell_angle_gamma 90.000000
_cell_volume 3500.539246
_symmetry_space_group_name_H-M "C 2/M"
_symmetry_group_IT_number 12
_symmetry_cell_setting 'monoclinic'
loop_
_space_group_symop_operation_xyz
x,y,z
-x,y,-z
-x,-y,-z
x,-y,z
1/2+x,1/2+y,z
1/2-x,1/2+y,-z
1/2-x,1/2-y,-z
1/2+x,1/2-y,z
loop_
_atom_site_type_symbol
_atom_site_label
_atom_site_fract_x
_atom_site_fract_y
_atom_site_fract_z
Si Si1 0.884763 0.274281 0.030377
Si Si2 0.752157 0.592125 0.957424
Si Si3 0.165374 0.414474 0.608855
Si Si4 0.343974 0.241254 0.494686
Si Si5 0.591273 0.413974 0.172853
Si Si6 0.939942 0.200048 0.272215
Si Si7 0.387056 0.250970 0.732915
Si Si8 0.192400 0.665348 0.802657
O O1 0.826062 0.355107 0.983713
O O2 0.916133 0.235820 0.154510
O O3 0.996047 0.283488 0.111185
O O4 0.799439 0.211816 0.896716
O O5 0.764449 0.500000 0.962786
O O6 0.782302 0.620495 0.084036
O O7 0.630400 0.622531 0.801908
O O8 0.120388 0.500000 0.536461
O O9 0.125440 0.340186 0.512278
O O10 0.292793 0.416730 0.735799
O O11 0.153088 0.393602 0.688832
O O12 0.432375 0.303961 0.570589
O O13 0.357509 0.227127 0.606936
O O14 0.219389 0.264028 0.336894
O O15 0.569625 0.500000 0.182978
O O16 0.595456 0.344384 0.241790
O O17 0.500000 0.397968 0.000000
O O18 0.890888 0.265398 0.275048
#
# Coordination Sequence:
#
# PCOD9177534 Si02
#       8
#     8   8   8   8   8   8   8   8
#     4   8  15  28  46  68  90 116 155 197 236 283
#     4   9  16  28  49  73  94 117 151 199 246 282
#     4  10  19  29  43  68 100 129 159 191 227 275
#     4   9  18  31  44  60  88 130 172 194 211 262
#     4   9  17  28  45  73 103 123 147 192 241 279
#     4   8  16  30  44  63  92 123 159 195 225 275
#     4   9  16  30  48  61  88 131 164 189 225 272
#     4   9  16  28  46  69 100 127 147 184 240 289
#
# _framework density 18.282896999999998
#
# number of rings (size 3 to 8) (size 9 to 14) (size 15 to 20)
#    0.000    3.125    0.000    2.625    0.000    0.500 
#    0.000   13.750    0.000    2.250    0.000   10.500 
#    0.000   46.000    0.000    0.000    0.000    0.000 
#
# Total GULP energy -178168.568097 kJ/mol
# GULP energy per Si atom -5567.767753 kJ/mol
# Density = 1.824128 g / cm^3
# Si number density = 18.282897 Si / 1000 Ang^3
#
#
#
# Elastic Constant Matrix: (Units=GPa)
#
#
# Indices 1 2 3 4 5 6 
#
# 1 39.3979 23.9445 18.5667 0.0000 11.1115 0.0000
# 2 23.9445 99.6863 23.1987 0.0000 2.8194 0.0000
# 3 18.5667 23.1987 46.0552 0.0000 23.5683 0.0000
# 4 0.0000 0.0000 0.0000 19.2842 0.0000 -1.5434
# 5 11.1115 2.8194 23.5683 0.0000 31.2168 0.0000
# 6 0.0000 0.0000 0.0000 -1.5434 0.0000 16.6293
#
#
#
# Elastic Compliance Matrix: (Units=1/GPa)
#
#
# Indices 1 2 3 4 5 6 
#
# 1 0.034528 -0.006332 -0.007714 0.000000 -0.005894 0.000000
# 2 -0.006332 0.013105 -0.007490 0.000000 0.006725 0.000000
# 3 -0.007714 -0.007490 0.043746 0.000000 -0.029606 0.000000
# 4 0.000000 0.000000 0.000000 0.052244 0.000000 0.004849
# 5 -0.005894 0.006725 -0.029606 0.000000 0.055877 0.000000
# 6 0.000000 0.000000 0.000000 0.004849 0.000000 0.060585
#
#
# Mechanical properties :
#
#
# Convention : Reuss Voigt Hill
#
# Bulk Modulus (GPa) = 20.70064 35.17325 27.93694
# Shear Modulus (GPa) = 15.66125 21.38802 18.52463
#
# Velocity S-wave (km/s) = 2.92996 3.42400 3.18657
# Velocity P-wave (km/s) = 4.77422 5.90862 5.37145
#
# Compressibility (1/GPa) = 0.04830769
#
# Stress axis : x y z
#
# Youngs Moduli (GPa) = 28.96211 76.30533 22.85911
#
# Poissons Ratio (x) = 0.48314 0.17633
# Poissons Ratio (y) = 0.18338 0.17122
# Poissons Ratio (z) = 0.22341 0.57155
#
# Static dielectric constant tensor:
#      x y z
#    x 1.664300 0.000000 0.044630 
#    y 0.000000 1.602380 0.000000 
#    z 0.044630 0.000000 1.685870 
# 
# From -- ./inp_files/290457.got.cif
#   From: 2010.05.17/outbox.cif.g08.bks.cpg/sg12_146_cif.got.tgz:290457.got - 2010.06.03 13:09:07.
