data_PCOD9177315
_publ_section_title
;
Structure prediction by ZEFSAII (Michael W. Deem and Ramdas Pophale) SiO2 
 PCOD9177315
Probable space group: C 2/M
;
_chemical_formula_sum "Si O2"
_cell_formula_units_Z 64
_cell_length_a 17.122743
_cell_length_b 11.654450
_cell_length_c 14.274200
_cell_angle_alpha 90.000000
_cell_angle_beta 54.822846
_cell_angle_gamma 90.000000
_cell_volume 2328.295391
_symmetry_space_group_name_H-M "C 2/M"
_symmetry_group_IT_number 12
_symmetry_cell_setting 'monoclinic'
loop_
_space_group_symop_operation_xyz
x,y,z
-x,y,-z
-x,-y,-z
x,-y,z
1/2+x,1/2+y,z
1/2-x,1/2+y,-z
1/2-x,1/2-y,-z
1/2+x,1/2-y,z
loop_
_atom_site_type_symbol
_atom_site_label
_atom_site_fract_x
_atom_site_fract_y
_atom_site_fract_z
Si Si1 0.010743 0.656860 0.833663
Si Si2 0.143241 0.129204 0.221334
Si Si3 0.170735 0.872702 0.501542
Si Si4 0.133953 0.648191 0.922792
Si Si5 0.134850 0.874762 0.748503
Si Si6 0.879791 0.627571 0.421637
Si Si7 0.324486 0.130902 0.742572
Si Si8 0.155120 0.125199 0.992110
O O1 0.046624 0.788255 0.811895
O O2 0.033441 0.623689 0.712192
O O3 0.910492 0.617848 0.945857
O O4 0.080243 0.611344 0.867753
O O5 0.115604 0.248937 0.292466
O O6 0.141861 0.149416 0.110564
O O7 0.101347 0.000000 0.269339
O O8 0.256233 0.121553 0.163759
O O9 0.153834 0.881907 0.624256
O O10 0.124457 0.745841 0.514584
O O11 0.286032 0.863698 0.417816
O O12 0.143258 0.000000 0.479257
O O13 0.114415 0.783331 0.948851
O O14 0.238355 0.851323 0.725488
O O15 0.106858 0.000000 0.801523
O O16 0.874360 0.500000 0.471179
O O17 0.363298 0.000000 0.701192
O O18 0.266000 0.127132 0.881722
O O19 0.117721 0.000000 0.001835
#
# Coordination Sequence:
#
# PCOD9177315 Si02
#       8
#     8   8   8   8   8   8   8   8
#     4  10  19  28  41  63  94 125 155 181 216 267
#     4  10  19  31  46  62  85 117 153 192 228 259
#     4   8  15  28  45  62  82 114 155 189 222 259
#     4  10  19  30  41  61  93 125 157 182 218 265
#     4   9  15  26  43  63  87 117 150 186 223 264
#     4   9  17  29  43  61  87 120 152 185 220 260
#     4   9  15  26  43  62  84 109 141 180 221 262
#     4   9  17  30  47  63  82 114 156 196 230 261
#
# _framework density 27.487921
#
# number of rings (size 3 to 8) (size 9 to 14) (size 15 to 20)
#    0.000    2.750    2.500    1.500    0.000    1.500 
#    0.000    2.500    0.000    0.000    0.000    0.000 
#    0.000    4.000    0.000   32.000    5.500    6.750 
#
# Total GULP energy -178282.371129 kJ/mol
# GULP energy per Si atom -5571.324098 kJ/mol
# Density = 2.742536 g / cm^3
# Si number density = 27.487921 Si / 1000 Ang^3
#
#
#
# Elastic Constant Matrix: (Units=GPa)
#
#
# Indices 1 2 3 4 5 6 
#
# 1 71.5081 8.4605 4.5252 0.0000 11.6895 0.0000
# 2 8.4605 301.3132 -1.6769 0.0000 15.6265 0.0000
# 3 4.5252 -1.6769 77.0995 0.0000 1.7850 0.0000
# 4 0.0000 0.0000 0.0000 467.6792 0.0000 50.3257
# 5 11.6895 15.6265 1.7850 0.0000 29.6672 0.0000
# 6 0.0000 0.0000 0.0000 50.3257 0.0000 -12.4735
#
#
#
# Elastic Compliance Matrix: (Units=1/GPa)
#
#
# Indices 1 2 3 4 5 6 
#
# 1 0.014994 -0.000125 -0.000749 0.000000 -0.005797 0.000000
# 2 -0.000125 0.003414 0.000122 0.000000 -0.001757 0.000000
# 3 -0.000749 0.000122 0.013030 0.000000 -0.000553 0.000000
# 4 0.000000 0.000000 0.000000 0.001491 0.000000 0.006015
# 5 -0.005797 -0.001757 -0.000553 0.000000 0.036950 0.000000
# 6 0.000000 0.000000 0.000000 0.006015 0.000000 -0.055901
#
#
# Mechanical properties :
#
#
# Convention : Reuss Voigt Hill
#
# Bulk Modulus (GPa) = 33.40424 52.50425 42.95425
# Shear Modulus (GPa) = 196.39638 126.21541 161.30589
#
# Velocity S-wave (km/s) = 8.46188 6.78354 7.66876
# Velocity P-wave (km/s) = 10.37545 8.97204 9.69916
#
# Compressibility (1/GPa) = 0.02993632
#
# Stress axis : x y z
#
# Youngs Moduli (GPa) = 66.69230 292.90463 76.74800
#
# Poissons Ratio (x) = 0.03647 0.05745
# Poissons Ratio (y) = 0.00830 -0.00938
# Poissons Ratio (z) = 0.04992 -0.03580
#
# Static dielectric constant tensor:
#      x y z
#    x 2.100500 0.000000 -0.058500 
#    y 0.000000 2.438400 0.000000 
#    z -0.058500 0.000000 2.222520 
# 
# From -- ./inp_files/289108.got.cif
#   From: 2010.05.17/outbox.cif.g08.bks.cpg/sg12_145_cif.got.tgz:289108.got - 2010.06.03 13:09:07.
