data_PCOD9177025
_publ_section_title
;
Structure prediction by ZEFSAII (Michael W. Deem and Ramdas Pophale) SiO2 
 PCOD9177025
Probable space group: C 2/M
;
_chemical_formula_sum "Si O2"
_cell_formula_units_Z 64
_cell_length_a 8.656333
_cell_length_b 20.377171
_cell_length_c 19.083450
_cell_angle_alpha 90.000000
_cell_angle_beta 91.610743
_cell_angle_gamma 90.000000
_cell_volume 3364.829758
_symmetry_space_group_name_H-M "C 2/M"
_symmetry_group_IT_number 12
_symmetry_cell_setting 'monoclinic'
loop_
_space_group_symop_operation_xyz
x,y,z
-x,y,-z
-x,-y,-z
x,-y,z
1/2+x,1/2+y,z
1/2-x,1/2+y,-z
1/2-x,1/2-y,-z
1/2+x,1/2-y,z
loop_
_atom_site_type_symbol
_atom_site_label
_atom_site_fract_x
_atom_site_fract_y
_atom_site_fract_z
Si Si1 0.100155 0.124761 0.307077
Si Si2 0.508271 0.423025 0.919643
Si Si3 0.837247 0.928260 0.538196
Si Si4 0.023188 0.748626 0.644589
Si Si5 0.999529 0.696807 0.792758
Si Si6 0.357441 0.334425 0.191889
Si Si7 0.779964 0.309768 0.552020
Si Si8 0.294805 0.923958 0.179170
O O1 0.121278 0.088102 0.380821
O O2 0.110793 0.200938 0.330911
O O3 0.215951 0.092782 0.252953
O O4 0.940791 0.129544 0.259131
O O5 0.550118 0.500000 0.918991
O O6 0.626200 0.381777 0.874120
O O7 0.341467 0.416869 0.879773
O O8 0.500000 0.401456 0.000000
O O9 0.742252 0.874336 0.494030
O O10 0.000000 0.929246 0.500000
O O11 0.764126 0.000000 0.533721
O O12 0.059485 0.706642 0.713691
O O13 0.947257 0.700162 0.587764
O O14 0.150054 0.796083 0.610508
O O15 0.816420 0.685657 0.792368
O O16 0.047299 0.767679 0.824236
O O17 0.079909 0.633521 0.827982
O O18 0.750000 0.250000 0.500000
O O19 0.348878 0.000000 0.178744
#
# Coordination Sequence:
#
# PCOD9177025 Si02
#       8
#     8   8   8   8   8   8   8   8
#     4  10  18  37  57  81 104 149 197 240 300 355
#     4   9  19  39  67  96 125 158 195 235 285 350
#     4  11  22  35  52  77 112 144 189 247 300 359
#     4  11  21  35  58  79 105 144 195 250 292 348
#     4  11  22  38  59  88 123 155 202 249 290 348
#     4  10  21  37  62  88 121 155 197 242 292 345
#     4  12  21  36  55  80 103 140 197 243 304 357
#     4  10  21  38  60  86 119 158 196 240 296 354
#
# _framework density 19.020278999999999
#
# number of rings (size 3 to 8) (size 9 to 14) (size 15 to 20)
#    0.000    1.500    2.500    5.250    0.000    1.000 
#    0.000    3.750    0.000    3.750    0.000    0.000 
#    0.000    0.000    0.000    0.000    0.000    0.000 
#
# Total GULP energy -178383.900299 kJ/mol
# GULP energy per Si atom -5574.496884 kJ/mol
# Density = 1.897699 g / cm^3
# Si number density = 19.020279 Si / 1000 Ang^3
#
#
#
# Elastic Constant Matrix: (Units=GPa)
#
#
# Indices 1 2 3 4 5 6 
#
# 1 48.7658 19.7348 13.1634 0.0000 -11.2786 0.0000
# 2 19.7348 105.2231 43.3044 0.0000 7.9834 0.0000
# 3 13.1634 43.3044 124.9414 0.0000 -4.2073 0.0000
# 4 0.0000 0.0000 0.0000 29.8734 0.0000 3.5894
# 5 -11.2786 7.9834 -4.2073 0.0000 13.7020 0.0000
# 6 0.0000 0.0000 0.0000 3.5894 0.0000 28.5596
#
#
#
# Elastic Compliance Matrix: (Units=1/GPa)
#
#
# Indices 1 2 3 4 5 6 
#
# 1 0.030721 -0.008344 0.000678 0.000000 0.030357 0.000000
# 2 -0.008344 0.014222 -0.004608 0.000000 -0.016570 0.000000
# 3 0.000678 -0.004608 0.009739 0.000000 0.006233 0.000000
# 4 0.000000 0.000000 0.000000 0.033988 0.000000 -0.004272
# 5 0.030357 -0.016570 0.006233 0.000000 0.109538 0.000000
# 6 0.000000 0.000000 0.000000 -0.004272 0.000000 0.035551
#
#
# Mechanical properties :
#
#
# Convention : Reuss Voigt Hill
#
# Bulk Modulus (GPa) = 33.18564 47.92618 40.55591
# Shear Modulus (GPa) = 18.63212 27.94218 23.28715
#
# Velocity S-wave (km/s) = 3.13324 3.83701 3.50284
# Velocity P-wave (km/s) = 5.52946 6.69942 6.14236
#
# Compressibility (1/GPa) = 0.03013352
#
# Stress axis : x y z
#
# Youngs Moduli (GPa) = 32.55102 70.31262 102.67491
#
# Poissons Ratio (x) = 0.58668 -0.06957
# Poissons Ratio (y) = 0.27160 0.47315
# Poissons Ratio (z) = -0.02205 0.32402
#
# Static dielectric constant tensor:
#      x y z
#    x 1.833460 0.000000 0.104880 
#    y 0.000000 1.671250 0.000000 
#    z 0.104880 0.000000 1.776070 
# 
# From -- ./inp_files/258104.got.cif
#   From: 2010.05.17/outbox.cif.g08.bks.cpg/sg12_130_cif.got.tgz:258104.got - 2010.06.03 13:09:07.
