data_PCOD9177017
_publ_section_title
;
Structure prediction by ZEFSAII (Michael W. Deem and Ramdas Pophale) SiO2 
 PCOD9177017
Probable space group: C 2/M
;
_chemical_formula_sum "Si O2"
_cell_formula_units_Z 40
_cell_length_a 20.179834
_cell_length_b 17.632874
_cell_length_c 9.910622
_cell_angle_alpha 90.000000
_cell_angle_beta 139.419264
_cell_angle_gamma 90.000000
_cell_volume 2294.042837
_symmetry_space_group_name_H-M "C 2/M"
_symmetry_group_IT_number 12
_symmetry_cell_setting 'monoclinic'
loop_
_space_group_symop_operation_xyz
x,y,z
-x,y,-z
-x,-y,-z
x,-y,z
1/2+x,1/2+y,z
1/2-x,1/2+y,-z
1/2-x,1/2-y,-z
1/2+x,1/2-y,z
loop_
_atom_site_type_symbol
_atom_site_label
_atom_site_fract_x
_atom_site_fract_y
_atom_site_fract_z
Si Si1 0.302945 0.153927 0.712840
Si Si2 0.680486 0.834558 0.741963
Si Si3 0.609164 0.740500 0.375416
Si Si4 0.879933 0.738355 0.080626
Si Si5 0.102334 0.500000 0.247869
Si Si6 0.895753 0.500000 0.424747
O O1 0.358701 0.220500 0.714402
O O2 0.182346 0.168594 0.511710
O O3 0.337117 0.074954 0.703559
O O4 0.340507 0.170543 0.922218
O O5 0.642472 0.799191 0.543255
O O6 0.616873 0.796982 0.765380
O O7 0.665003 0.924017 0.708659
O O8 0.795150 0.804272 0.942524
O O9 0.489040 0.731418 0.202532
O O10 0.084680 0.500000 0.382435
O O11 0.000000 0.500000 0.000000
O O12 0.000000 0.500000 0.500000
#
# Coordination Sequence:
#
# PCOD9177017 Si02
#       6
#     8   8   8   8   4   4
#     4  10  22  33  55  82 110 143 185 228 267 337
#     4  10  22  35  57  85 111 143 188 229 271 334
#     4  10  18  37  56  78 109 147 184 226 277 315
#     4  10  20  37  58  82 109 147 188 227 274 325
#     4  12  24  38  55  83 116 148 183 229 285 333
#     4  12  24  38  57  81 116 148 179 235 287 325
#
# _framework density 17.436464999999998
#
# number of rings (size 3 to 8) (size 9 to 14) (size 15 to 20)
#    0.000    1.600    2.000    3.600    2.800    0.000 
#    0.000    1.000    0.000    1.200    0.000    8.400 
#    0.000    0.000    0.000    0.000    0.000    0.000 
#
# Total GULP energy -111630.399182 kJ/mol
# GULP energy per Si atom -5581.519959 kJ/mol
# Density = 1.739678 g / cm^3
# Si number density = 17.436465 Si / 1000 Ang^3
#
#
#
# Elastic Constant Matrix: (Units=GPa)
#
#
# Indices 1 2 3 4 5 6 
#
# 1 86.3884 33.8766 29.8966 0.0000 16.3406 0.0000
# 2 33.8766 105.9917 34.7426 0.0000 13.0803 0.0000
# 3 29.8966 34.7426 62.2375 0.0000 9.8944 0.0000
# 4 0.0000 0.0000 0.0000 8.9733 0.0000 -4.1502
# 5 16.3406 13.0803 9.8944 0.0000 41.8385 0.0000
# 6 0.0000 0.0000 0.0000 -4.1502 0.0000 25.2234
#
#
#
# Elastic Compliance Matrix: (Units=1/GPa)
#
#
# Indices 1 2 3 4 5 6 
#
# 1 0.015141 -0.002669 -0.005170 0.000000 -0.003856 0.000000
# 2 -0.002669 0.012210 -0.005292 0.000000 -0.001524 0.000000
# 3 -0.005170 -0.005292 0.021739 0.000000 -0.001467 0.000000
# 4 0.000000 0.000000 0.000000 0.120620 0.000000 0.019846
# 5 -0.003856 -0.001524 -0.001467 0.000000 0.026231 0.000000
# 6 0.000000 0.000000 0.000000 0.019846 0.000000 0.042911
#
#
# Mechanical properties :
#
#
# Convention : Reuss Voigt Hill
#
# Bulk Modulus (GPa) = 43.80623 50.18327 46.99475
# Shear Modulus (GPa) = 18.33359 25.61382 21.97370
#
# Velocity S-wave (km/s) = 3.24613 3.83689 3.55380
# Velocity P-wave (km/s) = 6.26320 6.96219 6.62192
#
# Compressibility (1/GPa) = 0.02282780
#
# Stress axis : x y z
#
# Youngs Moduli (GPa) = 66.04645 81.89806 46.00125
#
# Poissons Ratio (x) = 0.21855 0.23784
# Poissons Ratio (y) = 0.17625 0.24344
# Poissons Ratio (z) = 0.34148 0.43341
#
# Static dielectric constant tensor:
#      x y z
#    x 1.610720 0.000000 0.000890 
#    y 0.000000 1.567700 0.000000 
#    z 0.000890 0.000000 1.602220 
# 
# From -- ./inp_files/47003.got.cif
#   From: 2010.05.17/outbox.cif.g08.bks.cpg/sg12_24_cif.got.tgz:47003.got - 2010.06.03 13:09:07.
