data_PCOD9177378
_publ_section_title
;
Structure prediction by ZEFSAII (Michael W. Deem and Ramdas Pophale) SiO2 
 PCOD9177378
Probable space group: C 2/M
;
_chemical_formula_sum "Si O2"
_cell_formula_units_Z 56
_cell_length_a 21.854594
_cell_length_b 22.416513
_cell_length_c 7.637105
_cell_angle_alpha 90.000000
_cell_angle_beta 61.399822
_cell_angle_gamma 90.000000
_cell_volume 3284.920931
_symmetry_space_group_name_H-M "C 2/M"
_symmetry_group_IT_number 12
_symmetry_cell_setting 'monoclinic'
loop_
_space_group_symop_operation_xyz
x,y,z
-x,y,-z
-x,-y,-z
x,-y,z
1/2+x,1/2+y,z
1/2-x,1/2+y,-z
1/2-x,1/2-y,-z
1/2+x,1/2-y,z
loop_
_atom_site_type_symbol
_atom_site_label
_atom_site_fract_x
_atom_site_fract_y
_atom_site_fract_z
Si Si1 0.809667 0.430422 0.513820
Si Si2 0.578120 0.258089 0.358536
Si Si3 0.352068 0.864436 0.102625
Si Si4 0.274164 0.290713 0.725048
Si Si5 0.788433 0.174719 0.306825
Si Si6 0.079610 0.757714 0.943217
Si Si7 0.920122 0.381701 0.636622
O O1 0.793758 0.500000 0.533148
O O2 0.834244 0.409770 0.284352
O O3 0.743551 0.390507 0.666396
O O4 0.869688 0.415948 0.573175
O O5 0.500000 0.280961 0.500000
O O6 0.644960 0.292805 0.338845
O O7 0.582444 0.188941 0.411942
O O8 0.585270 0.257542 0.142452
O O9 0.280908 0.836451 0.116905
O O10 0.390246 0.807788 0.145088
O O11 0.396603 0.886276 0.873600
O O12 0.246434 0.222757 0.777997
O O13 0.266799 0.307031 0.531768
O O14 0.870266 0.189431 0.189049
O O15 0.000000 0.763765 0.000000
O O16 0.000000 0.400768 0.500000
#
# Coordination Sequence:
#
# PCOD9177378 Si02
#       7
#     8   8   8   8   8   8   8
#     4  11  23  38  56  73 102 147 188 224 260 299
#     4  10  19  28  49  81 113 138 166 206 267 331
#     4   9  22  35  55  79 109 139 177 218 266 322
#     4   9  16  31  52  76 104 139 163 217 273 314
#     4   9  18  32  51  75 106 131 179 217 261 320
#     4  10  20  30  54  83 109 139 162 213 278 326
#     4  10  22  35  53  77 106 139 177 225 257 310
#
# _framework density 17.047592999999999
#
# number of rings (size 3 to 8) (size 9 to 14) (size 15 to 20)
#    0.000    2.286    1.429    1.714    8.000    2.571 
#    0.000    0.714    0.000    0.429    0.000    0.000 
#    0.000    6.000    0.000    0.000    0.000    0.000 
#
# Total GULP energy -155973.725254 kJ/mol
# GULP energy per Si atom -5570.490188 kJ/mol
# Density = 1.700879 g / cm^3
# Si number density = 17.047593 Si / 1000 Ang^3
#
#
#
# Elastic Constant Matrix: (Units=GPa)
#
#
# Indices 1 2 3 4 5 6 
#
# 1 94.4683 43.6075 19.9384 0.0000 -21.7917 0.0000
# 2 43.6075 98.7349 34.9342 0.0000 -10.7799 0.0000
# 3 19.9384 34.9342 64.1346 0.0000 -12.8241 0.0000
# 4 0.0000 0.0000 0.0000 13.2849 0.0000 2.0684
# 5 -21.7917 -10.7799 -12.8241 0.0000 35.1350 0.0000
# 6 0.0000 0.0000 0.0000 2.0684 0.0000 8.9951
#
#
#
# Elastic Compliance Matrix: (Units=1/GPa)
#
#
# Indices 1 2 3 4 5 6 
#
# 1 0.015000 -0.005804 0.000003 0.000000 0.007523 0.000000
# 2 -0.005804 0.014862 -0.006579 0.000000 -0.001442 0.000000
# 3 0.000003 -0.006579 0.020250 0.000000 0.005374 0.000000
# 4 0.000000 0.000000 0.000000 0.078068 0.000000 -0.017951
# 5 0.007523 -0.001442 0.005374 0.000000 0.034647 0.000000
# 6 0.000000 0.000000 0.000000 -0.017951 0.000000 0.115299
#
#
# Mechanical properties :
#
#
# Convention : Reuss Voigt Hill
#
# Bulk Modulus (GPa) = 39.44763 50.47754 44.96258
# Shear Modulus (GPa) = 16.05971 22.07352 19.06662
#
# Velocity S-wave (km/s) = 3.07262 3.60226 3.34793
# Velocity P-wave (km/s) = 5.98146 6.85389 6.43248
#
# Compressibility (1/GPa) = 0.02535007
#
# Stress axis : x y z
#
# Youngs Moduli (GPa) = 66.66736 67.28484 49.38366
#
# Poissons Ratio (x) = 0.39055 -0.00014
# Poissons Ratio (y) = 0.38697 0.32490
# Poissons Ratio (z) = -0.00019 0.44268
#
# Static dielectric constant tensor:
#      x y z
#    x 1.634750 0.000000 -0.079710 
#    y 0.000000 1.580900 0.000000 
#    z -0.079710 0.000000 1.734250 
# 
# From -- ./inp_files/89091.got.cif
#   From: 2010.05.17/outbox.cif.g08.bks.cpg/sg12_45_cif.got.tgz:89091.got - 2010.06.03 13:09:07.
