data_PCOD9177882
_publ_section_title
;
Structure prediction by ZEFSAII (Michael W. Deem and Ramdas Pophale) SiO2 
 PCOD9177882
Probable space group: C 2/M
;
_chemical_formula_sum "Si O2"
_cell_formula_units_Z 64
_cell_length_a 24.082274
_cell_length_b 9.088084
_cell_length_c 18.486714
_cell_angle_alpha 90.000000
_cell_angle_beta 91.744636
_cell_angle_gamma 90.000000
_cell_volume 4044.158632
_symmetry_space_group_name_H-M "C 2/M"
_symmetry_group_IT_number 12
_symmetry_cell_setting 'monoclinic'
loop_
_space_group_symop_operation_xyz
x,y,z
-x,y,-z
-x,-y,-z
x,-y,z
1/2+x,1/2+y,z
1/2-x,1/2+y,-z
1/2-x,1/2-y,-z
1/2+x,1/2-y,z
loop_
_atom_site_type_symbol
_atom_site_label
_atom_site_fract_x
_atom_site_fract_y
_atom_site_fract_z
Si Si1 0.814991 0.830857 0.079168
Si Si2 0.678527 0.677083 0.215884
Si Si3 0.502325 0.320599 0.584386
Si Si4 0.309191 0.175948 0.228876
Si Si5 0.809640 0.823706 0.505691
Si Si6 0.180024 0.330962 0.066220
Si Si7 0.885358 0.820701 0.643456
Si Si8 0.376296 0.676847 0.361122
O O1 0.827702 0.742195 0.152558
O O2 0.747607 0.830851 0.070458
O O3 0.833107 0.000000 0.085083
O O4 0.836651 0.754345 0.007162
O O5 0.675310 0.500000 0.208256
O O6 0.743359 0.712272 0.235389
O O7 0.662870 0.751317 0.139445
O O8 0.639587 0.725163 0.280585
O O9 0.500000 0.274034 0.500000
O O10 0.502090 0.500000 0.582924
O O11 0.447420 0.272569 0.625177
O O12 0.559874 0.276713 0.624194
O O13 0.345099 0.244511 0.294484
O O14 0.313912 0.000000 0.228374
O O15 0.750000 0.750000 0.500000
O O16 0.844239 0.775051 0.577257
O O17 0.844239 0.791887 0.434674
O O18 0.803176 0.000000 0.510092
O O19 0.161756 0.500000 0.063533
O O20 0.885748 0.000000 0.643678
O O21 0.375009 0.500000 0.349794
#
# Coordination Sequence:
#
# PCOD9177882 Si02
#       8
#     8   8   8   8   8   8   8   8
#     4   9  16  27  44  66  93 124 158 191 221 264
#     4   9  17  28  43  65  93 125 157 189 226 274
#     4   9  15  28  49  70  87 111 154 206 244 271
#     4  10  19  30  44  65  97 130 155 184 228 280
#     4  10  19  30  45  66  92 121 152 187 231 282
#     4   9  16  26  42  65  94 126 155 185 225 273
#     4   9  16  28  46  66  89 118 155 196 236 273
#     4  10  19  30  47  69  90 116 155 199 238 275
#
# _framework density 15.825293
#
# number of rings (size 3 to 8) (size 9 to 14) (size 15 to 20)
#    0.000    2.625    1.250    1.875    0.000    5.000 
#    0.000    0.625    0.000    1.875    0.000    0.875 
#    0.000    7.000    0.000    0.000    0.000    0.000 
#
# Total GULP energy -178344.787390 kJ/mol
# GULP energy per Si atom -5573.274606 kJ/mol
# Density = 1.578927 g / cm^3
# Si number density = 15.825293 Si / 1000 Ang^3
#
#
#
# Elastic Constant Matrix: (Units=GPa)
#
#
# Indices 1 2 3 4 5 6 
#
# 1 97.7595 32.9098 65.5272 0.0000 -17.3687 0.0000
# 2 32.9098 40.1421 55.1825 0.0000 -5.4432 0.0000
# 3 65.5272 55.1825 156.5478 0.0000 -23.5487 0.0000
# 4 0.0000 0.0000 0.0000 23.8394 0.0000 4.0272
# 5 -17.3687 -5.4432 -23.5487 0.0000 6.5158 0.0000
# 6 0.0000 0.0000 0.0000 4.0272 0.0000 13.5435
#
#
#
# Elastic Compliance Matrix: (Units=1/GPa)
#
#
# Indices 1 2 3 4 5 6 
#
# 1 0.028417 -0.026970 0.012310 0.000000 0.097708 0.000000
# 2 -0.026970 0.081326 -0.039384 0.000000 -0.146292 0.000000
# 3 0.012310 -0.039384 0.033099 0.000000 0.119538 0.000000
# 4 0.000000 0.000000 0.000000 0.044166 0.000000 -0.013133
# 5 0.097708 -0.146292 0.119538 0.000000 0.723743 0.000000
# 6 0.000000 0.000000 0.000000 -0.013133 0.000000 0.077741
#
#
# Mechanical properties :
#
#
# Convention : Reuss Voigt Hill
#
# Bulk Modulus (GPa) = 28.77400 66.85427 47.81413
# Shear Modulus (GPa) = 4.51197 18.16840 11.34018
#
# Velocity S-wave (km/s) = 1.69036 3.39198 2.67982
# Velocity P-wave (km/s) = 4.69377 7.59458 6.31305
#
# Compressibility (1/GPa) = 0.03475360
#
# Stress axis : x y z
#
# Youngs Moduli (GPa) = 35.19077 12.29626 30.21206
#
# Poissons Ratio (x) = 0.33163 -0.37191
# Poissons Ratio (y) = 0.94910 1.18987
# Poissons Ratio (z) = -0.43320 0.48427
#
# Static dielectric constant tensor:
#      x y z
#    x 1.509370 0.000000 -0.008720 
#    y 0.000000 1.529000 0.000000 
#    z -0.008720 0.000000 1.517110 
# 
# From -- ./inp_files/287492.got.cif
#   From: 2010.05.17/outbox.cif.g08.bks.cpg/sg12_144_cif.got.tgz:287492.got - 2010.06.03 13:09:07.
