data_PCOD9177569
_publ_section_title
;
Structure prediction by ZEFSAII (Michael W. Deem and Ramdas Pophale) SiO2 
 PCOD9177569
Probable space group: C 2/M
;
_chemical_formula_sum "Si O2"
_cell_formula_units_Z 64
_cell_length_a 24.713118
_cell_length_b 10.133683
_cell_length_c 14.078203
_cell_angle_alpha 90.000000
_cell_angle_beta 54.066115
_cell_angle_gamma 90.000000
_cell_volume 2854.719131
_symmetry_space_group_name_H-M "C 2/M"
_symmetry_group_IT_number 12
_symmetry_cell_setting 'monoclinic'
loop_
_space_group_symop_operation_xyz
x,y,z
-x,y,-z
-x,-y,-z
x,-y,z
1/2+x,1/2+y,z
1/2-x,1/2+y,-z
1/2-x,1/2-y,-z
1/2+x,1/2-y,z
loop_
_atom_site_type_symbol
_atom_site_label
_atom_site_fract_x
_atom_site_fract_y
_atom_site_fract_z
Si Si1 0.997524 0.850029 0.297151
Si Si2 0.857383 0.154510 0.068200
Si Si3 0.936842 0.643887 0.636555
Si Si4 0.689244 0.152771 0.589697
Si Si5 0.762536 0.854639 0.769015
Si Si6 0.866568 0.246624 0.534679
Si Si7 0.913841 0.156978 0.201126
Si Si8 0.690352 0.648848 0.077760
O O1 0.928757 0.838112 0.430976
O O2 0.974825 0.821608 0.211997
O O3 0.045825 0.748125 0.300140
O O4 0.023087 0.000000 0.276850
O O5 0.793786 0.243965 0.161408
O O6 0.916317 0.176505 0.084406
O O7 0.840901 0.000000 0.097351
O O8 0.865090 0.175819 0.946581
O O9 0.925611 0.500000 0.690959
O O10 0.881099 0.678231 0.617329
O O11 0.000000 0.640123 0.500000
O O12 0.750000 0.250000 0.500000
O O13 0.648424 0.151634 0.532801
O O14 0.642881 0.239305 0.707617
O O15 0.702269 0.000000 0.602864
O O16 0.802747 0.839433 0.629987
O O17 0.815293 0.849173 0.802744
O O18 0.730971 0.000000 0.807076
O O19 0.896377 0.000000 0.234914
O O20 0.713471 0.500000 0.032941
O O21 0.750000 0.750000 0.000000
#
# Coordination Sequence:
#
# PCOD9177569 Si02
#       8
#     8   8   8   8   8   8   8   8
#     4   9  18  31  46  65  89 114 143 182 224 263
#     4   9  17  30  47  65  90 124 154 181 219 266
#     4   9  18  32  48  64  84 112 146 182 220 264
#     4  11  22  33  44  61  89 123 154 184 217 256
#     4  10  19  29  44  68  94 119 151 189 223 258
#     4  10  20  31  46  65  90 120 151 181 219 264
#     4   9  18  31  46  65  88 116 150 183 218 264
#     4   8  15  28  44  63  88 117 149 185 222 259
#
# _framework density 22.419018000000001
#
# number of rings (size 3 to 8) (size 9 to 14) (size 15 to 20)
#    0.000    2.625    0.000    1.875    0.000   10.750 
#    0.000    0.000    0.000    0.000    0.000    0.875 
#    0.000    6.000    0.000    0.000    0.000    0.000 
#
# Total GULP energy -178240.851635 kJ/mol
# GULP energy per Si atom -5570.026614 kJ/mol
# Density = 2.236799 g / cm^3
# Si number density = 22.419018 Si / 1000 Ang^3
#
#
#
# Elastic Constant Matrix: (Units=GPa)
#
#
# Indices 1 2 3 4 5 6 
#
# 1 90.5464 53.7550 39.3824 0.0000 45.2808 0.0000
# 2 53.7550 108.8054 44.3187 0.0000 21.6511 0.0000
# 3 39.3824 44.3187 101.6633 0.0000 42.1099 0.0000
# 4 0.0000 0.0000 0.0000 14.5858 0.0000 13.7716
# 5 45.2808 21.6511 42.1099 0.0000 52.6593 0.0000
# 6 0.0000 0.0000 0.0000 13.7716 0.0000 14.8005
#
#
#
# Elastic Compliance Matrix: (Units=1/GPa)
#
#
# Indices 1 2 3 4 5 6 
#
# 1 0.025912 -0.009844 0.002701 0.000000 -0.020393 0.000000
# 2 -0.009844 0.014953 -0.005480 0.000000 0.006698 0.000000
# 3 0.002701 -0.005480 0.016759 0.000000 -0.013471 0.000000
# 4 0.000000 0.000000 0.000000 0.564474 0.000000 -0.525234
# 5 -0.020393 0.006698 -0.013471 0.000000 0.044544 0.000000
# 6 0.000000 0.000000 0.000000 -0.525234 0.000000 0.556287
#
#
# Mechanical properties :
#
#
# Convention : Reuss Voigt Hill
#
# Bulk Modulus (GPa) = 30.88535 63.99192 47.43863
# Shear Modulus (GPa) = 3.97151 27.31304 15.64228
#
# Velocity S-wave (km/s) = 1.33242 3.49420 2.64431
# Velocity P-wave (km/s) = 4.02162 6.69961 5.52532
#
# Compressibility (1/GPa) = 0.03237781
#
# Stress axis : x y z
#
# Youngs Moduli (GPa) = 38.59252 66.87576 59.67024
#
# Poissons Ratio (x) = 0.65830 -0.16115
# Poissons Ratio (y) = 0.37989 0.32699
# Poissons Ratio (z) = -0.10422 0.36648
#
# Static dielectric constant tensor:
#      x y z
#    x 1.933280 0.000000 0.030740 
#    y 0.000000 1.784450 0.000000 
#    z 0.030740 0.000000 1.838230 
# 
# From -- ./inp_files/243944.got.cif
#   From: 2010.05.17/outbox.cif.g08.bks.cpg/sg12_122_cif.got.tgz:243944.got - 2010.06.03 13:09:07.
