data_PCOD9177483
_publ_section_title
;
Structure prediction by ZEFSAII (Michael W. Deem and Ramdas Pophale) SiO2 
 PCOD9177483
Probable space group: C 2/M
;
_chemical_formula_sum "Si O2"
_cell_formula_units_Z 56
_cell_length_a 28.257666
_cell_length_b 8.505280
_cell_length_c 14.970473
_cell_angle_alpha 90.000000
_cell_angle_beta 76.442593
_cell_angle_gamma 90.000000
_cell_volume 3497.737742
_symmetry_space_group_name_H-M "C 2/M"
_symmetry_group_IT_number 12
_symmetry_cell_setting 'monoclinic'
loop_
_space_group_symop_operation_xyz
x,y,z
-x,y,-z
-x,-y,-z
x,-y,z
1/2+x,1/2+y,z
1/2-x,1/2+y,-z
1/2-x,1/2-y,-z
1/2+x,1/2-y,z
loop_
_atom_site_type_symbol
_atom_site_label
_atom_site_fract_x
_atom_site_fract_y
_atom_site_fract_z
Si Si1 0.369340 0.189821 0.709979
Si Si2 0.134679 0.188027 0.572502
Si Si3 0.816972 0.310138 0.904573
Si Si4 0.055659 0.309835 0.470174
Si Si5 0.684312 0.187805 0.714034
Si Si6 0.710017 0.310376 0.392410
Si Si7 0.792375 0.187285 0.104190
O O1 0.359028 0.237836 0.816419
O O2 0.417130 0.239928 0.633725
O O3 0.324233 0.253030 0.672407
O O4 0.367979 0.000000 0.708841
O O5 0.088431 0.250689 0.538045
O O6 0.141856 0.246947 0.669752
O O7 0.182053 0.243099 0.494022
O O8 0.133556 0.000000 0.571704
O O9 0.816750 0.500000 0.912586
O O10 0.764258 0.263470 0.886103
O O11 0.819472 0.237871 0.001642
O O12 0.055950 0.500000 0.472309
O O13 0.000000 0.255832 0.500000
O O14 0.735624 0.247420 0.649370
O O15 0.685482 0.239119 0.816369
O O16 0.683571 0.000000 0.709915
O O17 0.711100 0.500000 0.392656
O O18 0.792824 0.000000 0.113076
#
# Coordination Sequence:
#
# PCOD9177483 Si02
#       7
#     8   8   8   8   8   8   8
#     4   9  16  28  47  68  92 122 155 190 228 270
#     4  10  20  32  46  66  92 122 156 191 228 274
#     4   9  17  29  43  63  90 123 159 193 227 265
#     4   9  18  33  52  73  95 119 150 190 234 278
#     4  11  20  30  44  64  92 126 159 191 227 269
#     4   9  18  29  42  63  91 123 157 190 223 264
#     4  10  19  29  43  63  90 125 160 195 227 263
#
# _framework density 16.010348
#
# number of rings (size 3 to 8) (size 9 to 14) (size 15 to 20)
#    0.000    2.429    1.429    1.714    0.000    2.571 
#    0.000    0.000    0.000    0.000    0.000    1.000 
#    0.000    8.000    0.000    0.000    0.000    0.000 
#
# Total GULP energy -156056.164691 kJ/mol
# GULP energy per Si atom -5573.434453 kJ/mol
# Density = 1.597391 g / cm^3
# Si number density = 16.010348 Si / 1000 Ang^3
#
#
#
# Elastic Constant Matrix: (Units=GPa)
#
#
# Indices 1 2 3 4 5 6 
#
# 1 76.2291 17.1604 67.0621 0.0000 -0.1045 0.0000
# 2 17.1604 12.6461 21.4828 0.0000 1.6317 0.0000
# 3 67.0621 21.4828 117.7662 0.0000 14.6584 0.0000
# 4 0.0000 0.0000 0.0000 18.6148 0.0000 5.9620
# 5 -0.1045 1.6317 14.6584 0.0000 18.7798 0.0000
# 6 0.0000 0.0000 0.0000 5.9620 0.0000 17.9335
#
#
#
# Elastic Compliance Matrix: (Units=1/GPa)
#
#
# Indices 1 2 3 4 5 6 
#
# 1 0.031660 -0.016108 -0.016932 0.000000 0.014792 0.000000
# 2 -0.016108 0.123626 -0.013326 0.000000 -0.000430 0.000000
# 3 -0.016932 -0.013326 0.022630 0.000000 -0.016600 0.000000
# 4 0.000000 0.000000 0.000000 0.060123 0.000000 -0.019988
# 5 0.014792 -0.000430 -0.016600 0.000000 0.066326 0.000000
# 6 0.000000 0.000000 0.000000 -0.019988 0.000000 0.062407
#
#
# Mechanical properties :
#
#
# Convention : Reuss Voigt Hill
#
# Bulk Modulus (GPa) = 11.73896 46.45024 29.09460
# Shear Modulus (GPa) = 10.24805 17.79468 14.02136
#
# Velocity S-wave (km/s) = 2.53274 3.33746 2.96255
# Velocity P-wave (km/s) = 3.98761 6.62775 5.46938
#
# Compressibility (1/GPa) = 0.08518643
#
# Stress axis : x y z
#
# Youngs Moduli (GPa) = 31.58514 8.08891 44.18834
#
# Poissons Ratio (x) = 0.13029 0.74819
# Poissons Ratio (y) = 0.50876 0.58884
# Poissons Ratio (z) = 0.53480 0.10779
#
# Static dielectric constant tensor:
#      x y z
#    x 1.512260 0.000000 -0.014650 
#    y 0.000000 1.534320 0.000000 
#    z -0.014650 0.000000 1.564770 
# 
# From -- ./inp_files/242985.got.cif
#   From: 2010.05.17/outbox.cif.g08.bks.cpg/sg12_122_cif.got.tgz:242985.got - 2010.06.03 13:09:07.
