data_PCOD9177500
_publ_section_title
;
Structure prediction by ZEFSAII (Michael W. Deem and Ramdas Pophale) SiO2 
 PCOD9177500
Probable space group: C 2/M
;
_chemical_formula_sum "Si O2"
_cell_formula_units_Z 64
_cell_length_a 18.668429
_cell_length_b 7.341668
_cell_length_c 28.838152
_cell_angle_alpha 90.000000
_cell_angle_beta 131.803901
_cell_angle_gamma 90.000000
_cell_volume 2946.301363
_symmetry_space_group_name_H-M "C 2/M"
_symmetry_group_IT_number 12
_symmetry_cell_setting 'monoclinic'
loop_
_space_group_symop_operation_xyz
x,y,z
-x,y,-z
-x,-y,-z
x,-y,z
1/2+x,1/2+y,z
1/2-x,1/2+y,-z
1/2-x,1/2-y,-z
1/2+x,1/2-y,z
loop_
_atom_site_type_symbol
_atom_site_label
_atom_site_fract_x
_atom_site_fract_y
_atom_site_fract_z
Si Si1 0.049193 0.783061 0.386599
Si Si2 0.675144 0.217242 0.008399
Si Si3 0.466035 0.221801 0.888021
Si Si4 0.908707 0.222726 0.491329
Si Si5 0.341791 0.221665 0.750072
Si Si6 0.300480 0.782445 0.630274
Si Si7 0.784295 0.721555 0.871900
Si Si8 0.840077 0.778077 0.265944
O O1 0.079131 0.716031 0.450315
O O2 0.129356 0.751983 0.382369
O O3 0.945383 0.713276 0.325289
O O4 0.038480 0.000000 0.386920
O O5 0.570207 0.287017 0.948489
O O6 0.664422 0.000000 0.009300
O O7 0.750000 0.250000 0.000000
O O8 0.712878 0.286216 0.074187
O O9 0.428272 0.280443 0.821115
O O10 0.383398 0.272504 0.888978
O O11 0.468366 0.000000 0.888403
O O12 0.807018 0.284373 0.426731
O O13 0.000000 0.277749 0.500000
O O14 0.907315 0.000000 0.490518
O O15 0.341410 0.285458 0.697029
O O16 0.242035 0.273228 0.732403
O O17 0.344253 0.000000 0.751022
O O18 0.292706 0.000000 0.631693
O O19 0.781019 0.500000 0.870777
O O20 0.697868 0.780562 0.800975
O O21 0.841786 0.000000 0.266406
#
# Coordination Sequence:
#
# PCOD9177500 Si02
#       8
#     8   8   8   8   8   8   8   8
#     4  10  19  30  46  68  93 118 143 176 219 263
#     4  10  19  29  43  65  91 116 142 176 220 264
#     4   8  14  26  45  66  85 109 147 189 218 245
#     4   9  17  30  49  69  86 111 152 192 216 243
#     4   8  14  26  45  67  87 110 146 187 218 247
#     4  10  19  30  46  68  93 118 143 176 219 263
#     4   8  14  26  45  66  85 109 147 189 218 245
#     4   8  14  26  45  67  87 110 146 187 218 247
#
# _framework density 21.722149999999999
#
# number of rings (size 3 to 8) (size 9 to 14) (size 15 to 20)
#    0.000    3.125    0.000    3.000    0.000    5.500 
#    0.000    0.000    0.000    5.250    0.000    3.500 
#    0.000    0.000    0.000    0.000    0.000    0.000 
#
# Total GULP energy -178681.504763 kJ/mol
# GULP energy per Si atom -5583.797024 kJ/mol
# Density = 2.167271 g / cm^3
# Si number density = 21.722150 Si / 1000 Ang^3
#
#
#
# Elastic Constant Matrix: (Units=GPa)
#
#
# Indices 1 2 3 4 5 6 
#
# 1 49.7192 -6.5381 35.7436 -0.0001 -40.6723 0.0000
# 2 -6.5381 82.3477 5.7083 -0.0001 -0.0629 0.0001
# 3 35.7436 5.7083 131.5810 -0.0001 -50.3809 0.0000
# 4 -0.0001 -0.0001 -0.0001 35.6998 0.0000 4.0391
# 5 -40.6723 -0.0629 -50.3809 0.0000 34.4583 0.0000
# 6 0.0000 0.0001 0.0000 4.0391 0.0000 18.2964
#
#
#
# Elastic Compliance Matrix: (Units=1/GPa)
#
#
# Indices 1 2 3 4 5 6 
#
# 1 -0.121486 -0.006404 -0.049137 -0.000001 -0.215249 0.000000
# 2 -0.006404 0.011887 -0.003776 0.000000 -0.013057 0.000000
# 3 -0.049137 -0.003776 -0.002494 0.000000 -0.061652 0.000000
# 4 -0.000001 0.000000 0.000000 0.028729 -0.000001 -0.006342
# 5 -0.215249 -0.013057 -0.061652 -0.000001 -0.315210 0.000000
# 6 0.000000 0.000000 0.000000 -0.006342 0.000000 0.056056
#
#
# Mechanical properties :
#
#
# Convention : Reuss Voigt Hill
#
# Bulk Modulus (GPa) = -4.33413 37.05283 16.35935
# Shear Modulus (GPa) = -16.62262 32.93985 8.15861
#
# Velocity S-wave (km/s) = -2.76930 3.89835 1.94012
# Velocity P-wave (km/s) = 3.49641 6.11207 3.54489
#
# Compressibility (1/GPa) = -0.23072694
#
# Stress axis : x y z
#
# Youngs Moduli (GPa) = -8.23138 84.12603 -400.91604
#
# Poissons Ratio (x) = 0.53873 -19.69994
# Poissons Ratio (y) = -0.05271 -1.51366
# Poissons Ratio (z) = -0.40447 0.31762
#
# Static dielectric constant tensor:
#      x y z
#    x 1.719460 0.000000 -0.009940 
#    y 0.000000 1.863670 0.000000 
#    z -0.009940 0.000000 1.788510 
# 
# From -- ./inp_files/343092.got.cif
#   From: 2010.05.17/outbox.cif.g08.bks.cpg/sg12_172_cif.got.tgz:343092.got - 2010.06.03 13:09:07.
