data_PCOD9177807
_publ_section_title
;
Structure prediction by ZEFSAII (Michael W. Deem and Ramdas Pophale) SiO2 
 PCOD9177807
Probable space group: C 2/M
;
_chemical_formula_sum "Si O2"
_cell_formula_units_Z 48
_cell_length_a 28.863187
_cell_length_b 7.771977
_cell_length_c 12.912276
_cell_angle_alpha 90.000000
_cell_angle_beta 109.922937
_cell_angle_gamma 90.000000
_cell_volume 2723.181368
_symmetry_space_group_name_H-M "C 2/M"
_symmetry_group_IT_number 12
_symmetry_cell_setting 'monoclinic'
loop_
_space_group_symop_operation_xyz
x,y,z
-x,y,-z
-x,-y,-z
x,-y,z
1/2+x,1/2+y,z
1/2-x,1/2+y,-z
1/2-x,1/2-y,-z
1/2+x,1/2-y,z
loop_
_atom_site_type_symbol
_atom_site_label
_atom_site_fract_x
_atom_site_fract_y
_atom_site_fract_z
Si Si1 0.170862 0.705526 0.257946
Si Si2 0.873091 0.701023 0.557368
Si Si3 0.018338 0.200518 0.405964
Si Si4 0.006138 0.789131 0.837841
Si Si5 0.921465 0.206678 0.932391
Si Si6 0.728013 0.705124 0.596469
O O1 0.174209 0.500000 0.273823
O O2 0.145271 0.772132 0.344819
O O3 0.133841 0.741564 0.136662
O O4 0.227536 0.766721 0.295281
O O5 0.884611 0.500000 0.579004
O O6 0.922635 0.789752 0.557684
O O7 0.826562 0.718406 0.445057
O O8 0.000000 0.278660 0.500000
O O9 0.997366 0.274057 0.282170
O O10 0.003180 0.000000 0.395172
O O11 0.958149 0.734773 0.867857
O O12 0.005147 0.000000 0.835323
O O13 0.053544 0.735852 0.941291
O O14 0.923212 0.000000 0.933643
O O15 0.722462 0.500000 0.601472
O O16 0.750000 0.750000 0.500000
#
# Coordination Sequence:
#
# PCOD9177807 Si02
#       6
#     8   8   8   8   8   8
#     4   9  17  27  40  64  92 115 142 176 218 263
#     4  10  19  30  43  62  90 120 149 184 222 262
#     4  10  19  31  48  66  86 117 154 187 219 259
#     4   8  15  27  41  63  87 112 148 181 215 258
#     4   9  15  25  44  62  85 118 145 176 214 259
#     4   9  17  28  42  62  90 119 147 180 219 267
#
# _framework density 17.626442999999998
#
# number of rings (size 3 to 8) (size 9 to 14) (size 15 to 20)
#    0.000    2.833    1.667    3.000    0.000    3.667 
#    0.000    2.500    0.000    0.000    0.000    1.167 
#    0.000    0.000    0.000    0.000    0.000    0.000 
#
# Total GULP energy -133631.768629 kJ/mol
# GULP energy per Si atom -5567.990360 kJ/mol
# Density = 1.758632 g / cm^3
# Si number density = 17.626443 Si / 1000 Ang^3
#
#
#
# Elastic Constant Matrix: (Units=GPa)
#
#
# Indices 1 2 3 4 5 6 
#
# 1 54.6916 -8.3952 62.0973 0.0000 17.8142 0.0000
# 2 -8.3952 22.9838 -0.7161 0.0000 -6.6554 0.0000
# 3 62.0973 -0.7161 135.9844 0.0000 21.7996 0.0000
# 4 0.0000 0.0000 0.0000 12.0570 0.0000 9.0209
# 5 17.8142 -6.6554 21.7996 0.0000 34.3925 0.0000
# 6 0.0000 0.0000 0.0000 9.0209 0.0000 15.8272
#
#
#
# Elastic Compliance Matrix: (Units=1/GPa)
#
#
# Indices 1 2 3 4 5 6 
#
# 1 0.044571 0.013218 -0.018915 0.000000 -0.008539 0.000000
# 2 0.013218 0.050226 -0.006937 0.000000 0.007270 0.000000
# 3 -0.018915 -0.006937 0.016250 0.000000 -0.001846 0.000000
# 4 0.000000 0.000000 0.000000 0.144604 0.000000 -0.082419
# 5 -0.008539 0.007270 -0.001846 0.000000 0.036076 0.000000
# 6 0.000000 0.000000 0.000000 -0.082419 0.000000 0.110158
#
#
# Mechanical properties :
#
#
# Convention : Reuss Voigt Hill
#
# Bulk Modulus (GPa) = 11.65773 35.51464 23.58618
# Shear Modulus (GPa) = 10.97106 23.16693 17.06900
#
# Velocity S-wave (km/s) = 2.49754 3.62930 3.11525
# Velocity P-wave (km/s) = 3.86589 6.14448 5.13321
#
# Compressibility (1/GPa) = 0.08578000
#
# Stress axis : x y z
#
# Youngs Moduli (GPa) = 22.43633 19.91001 61.53667
#
# Poissons Ratio (x) = -0.26317 1.16394
# Poissons Ratio (y) = -0.29656 0.42688
# Poissons Ratio (z) = 0.42437 0.13811
#
# Static dielectric constant tensor:
#      x y z
#    x 1.598030 0.000000 0.039700 
#    y 0.000000 1.650200 0.000000 
#    z 0.039700 0.000000 1.639050 
# 
# From -- ./inp_files/185734.got.cif
#   From: 2010.05.17/outbox.cif.g08.bks.cpg/sg12_93_cif.got.tgz:185734.got - 2010.06.03 13:09:07.
