data_PCOD9177314
_publ_section_title
;
Structure prediction by ZEFSAII (Michael W. Deem and Ramdas Pophale) SiO2 
 PCOD9177314
Probable space group: C 2/M
;
_chemical_formula_sum "Si O2"
_cell_formula_units_Z 52
_cell_length_a 22.635312
_cell_length_b 23.207286
_cell_length_c 5.426358
_cell_angle_alpha 90.000000
_cell_angle_beta 118.650204
_cell_angle_gamma 90.000000
_cell_volume 2501.483736
_symmetry_space_group_name_H-M "C 2/M"
_symmetry_group_IT_number 12
_symmetry_cell_setting 'monoclinic'
loop_
_space_group_symop_operation_xyz
x,y,z
-x,y,-z
-x,-y,-z
x,-y,z
1/2+x,1/2+y,z
1/2-x,1/2+y,-z
1/2-x,1/2-y,-z
1/2+x,1/2-y,z
loop_
_atom_site_type_symbol
_atom_site_label
_atom_site_fract_x
_atom_site_fract_y
_atom_site_fract_z
Si Si1 0.226820 0.301782 0.703641
Si Si2 0.044693 0.438270 0.839386
Si Si3 0.043540 0.000000 0.337080
Si Si4 0.243551 0.668898 0.237103
Si Si5 0.612929 0.377330 0.475857
Si Si6 0.044578 0.689022 0.839157
Si Si7 0.888488 0.812374 0.026978
O O1 0.202064 0.329826 0.404578
O O2 0.219460 0.232820 0.688921
O O3 0.202064 0.329826 0.903679
O O4 0.307107 0.313142 0.864215
O O5 0.083210 0.500000 0.916420
O O6 0.076939 0.374985 0.903878
O O7 0.000000 0.439078 0.500000
O O8 0.000000 0.439078 0.000000
O O9 0.087032 0.058060 0.424066
O O10 0.000000 0.000000 0.500000
O O11 0.000000 0.000000 0.000000
O O12 0.305167 0.624835 0.360335
O O13 0.589860 0.344555 0.678881
O O14 0.589860 0.344556 0.180555
O O15 0.089124 0.746453 0.928248
O O16 0.000000 0.692350 0.500000
O O17 0.000000 0.692350 0.000000
#
# Coordination Sequence:
#
# PCOD9177314 Si02
#       7
#     8   8   4   8   8   8   8
#     4   8  14  25  44  69  92 109 133 176 232 290
#     4   8  14  25  39  55  77 106 142 175 201 239
#     4  12  26  40  52  68  94 134 184 222 254 298
#     4   8  14  27  46  67  88 109 138 179 231 285
#     4  10  21  35  50  67  90 123 162 204 248 295
#     4  10  19  28  41  63  90 121 155 186 223 272
#     4  10  19  31  48  71  96 120 154 201 253 295
#
# _framework density 20.787662000000001
#
# number of rings (size 3 to 8) (size 9 to 14) (size 15 to 20)
#    0.000    2.769    0.000    1.846    0.000    3.692 
#    0.000    0.000    0.000    0.000    2.000    0.000 
#    0.000    0.000    4.000    0.000    0.000    0.000 
#
# Total GULP energy -144978.465175 kJ/mol
# GULP energy per Si atom -5576.094814 kJ/mol
# Density = 2.074035 g / cm^3
# Si number density = 20.787662 Si / 1000 Ang^3
#
#
#
# Elastic Constant Matrix: (Units=GPa)
#
#
# Indices 1 2 3 4 5 6 
#
# 1 56.2210 52.8646 60.1079 0.0000 -22.8419 0.0000
# 2 52.8646 193.4192 59.3779 0.0000 -5.6434 0.0000
# 3 60.1079 59.3779 146.6613 0.0000 -55.4855 0.0000
# 4 0.0000 0.0000 0.0000 37.1184 0.0000 -3.5354
# 5 -22.8419 -5.6434 -55.4855 0.0000 39.5150 0.0000
# 6 0.0000 0.0000 0.0000 -3.5354 0.0000 33.0361
#
#
#
# Elastic Compliance Matrix: (Units=1/GPa)
#
#
# Indices 1 2 3 4 5 6 
#
# 1 0.038066 -0.007070 -0.010231 0.000000 0.006629 0.000000
# 2 -0.007070 0.007802 -0.002956 0.000000 -0.007124 0.000000
# 3 -0.010231 -0.002956 0.020930 0.000000 0.023052 0.000000
# 4 0.000000 0.000000 0.000000 0.027218 0.000000 0.002913
# 5 0.006629 -0.007124 0.023052 0.000000 0.060491 0.000000
# 6 0.000000 0.000000 0.000000 0.002913 0.000000 0.030582
#
#
# Mechanical properties :
#
#
# Convention : Reuss Voigt Hill
#
# Bulk Modulus (GPa) = 38.04631 82.33358 60.18995
# Shear Modulus (GPa) = 21.33430 36.86398 29.09914
#
# Velocity S-wave (km/s) = 3.20706 4.21569 3.74549
# Velocity P-wave (km/s) = 5.66178 7.96172 6.90814
#
# Compressibility (1/GPa) = 0.02628376
#
# Stress axis : x y z
#
# Youngs Moduli (GPa) = 26.27000 128.16964 47.77894
#
# Poissons Ratio (x) = 0.90615 0.48882
# Poissons Ratio (y) = 0.18573 0.14125
# Poissons Ratio (z) = 0.26877 0.37891
#
# Static dielectric constant tensor:
#      x y z
#    x 1.803890 0.000000 -0.031460 
#    y 0.000000 1.714960 0.000000 
#    z -0.031460 0.000000 1.840220 
# 
# From -- ./inp_files/25714.got.cif
#   From: 2010.05.17/outbox.cif.g08.bks.cpg/sg12_13_cif.got.tgz:25714.got - 2010.06.03 13:09:07.
