data_PCOD9177699
_publ_section_title
;
Structure prediction by ZEFSAII (Michael W. Deem and Ramdas Pophale) SiO2 
 PCOD9177699
Probable space group: C 2/M
;
_chemical_formula_sum "Si O2"
_cell_formula_units_Z 48
_cell_length_a 14.678122
_cell_length_b 20.134320
_cell_length_c 9.226246
_cell_angle_alpha 90.000000
_cell_angle_beta 128.022562
_cell_angle_gamma 90.000000
_cell_volume 2147.983627
_symmetry_space_group_name_H-M "C 2/M"
_symmetry_group_IT_number 12
_symmetry_cell_setting 'monoclinic'
loop_
_space_group_symop_operation_xyz
x,y,z
-x,y,-z
-x,-y,-z
x,-y,z
1/2+x,1/2+y,z
1/2-x,1/2+y,-z
1/2-x,1/2-y,-z
1/2+x,1/2-y,z
loop_
_atom_site_type_symbol
_atom_site_label
_atom_site_fract_x
_atom_site_fract_y
_atom_site_fract_z
Si Si1 0.477871 0.074575 0.222640
Si Si2 0.501242 0.427227 0.328856
Si Si3 0.820277 0.329157 0.219437
Si Si4 0.327399 0.318532 0.213117
Si Si5 0.633611 0.575998 0.187896
Si Si6 0.313088 0.924909 0.773060
O O1 0.430460 0.125962 0.291660
O O2 0.604521 0.087950 0.282671
O O3 0.474896 0.000000 0.278460
O O4 0.395052 0.074749 0.998111
O O5 0.500000 0.431981 0.500000
O O6 0.449479 0.500000 0.230859
O O7 0.431374 0.359029 0.240142
O O8 0.615391 0.421598 0.343330
O O9 0.849256 0.254475 0.297310
O O10 0.725298 0.371084 0.216998
O O11 0.765971 0.316870 0.006631
O O12 0.276982 0.367218 0.285379
O O13 0.668532 0.500000 0.184503
O O14 0.500000 0.586194 0.000000
O O15 0.264912 0.000000 0.717557
#
# Coordination Sequence:
#
# PCOD9177699 Si02
#       6
#     8   8   8   8   8   8
#     4   8  14  25  41  63  93 126 160 200 246 298
#     4  10  21  37  56  77 104 140 181 221 261 312
#     4  10  19  29  46  76 107 135 166 208 266 315
#     4  10  19  30  46  75 106 135 166 212 263 311
#     4  10  19  33  54  78 103 136 177 219 262 308
#     4   8  14  25  41  62  90 128 165 199 245 297
#
# _framework density 22.346539
#
# number of rings (size 3 to 8) (size 9 to 14) (size 15 to 20)
#    0.000    2.667    1.667    2.000    0.000    2.667 
#    3.000    0.833    0.000    0.000    0.000    0.000 
#    0.000    8.000    0.000    0.000    0.000    0.000 
#
# Total GULP energy -133818.942166 kJ/mol
# GULP energy per Si atom -5575.789257 kJ/mol
# Density = 2.229568 g / cm^3
# Si number density = 22.346539 Si / 1000 Ang^3
#
#
#
# Elastic Constant Matrix: (Units=GPa)
#
#
# Indices 1 2 3 4 5 6 
#
# 1 152.3168 135.6244 10.2713 0.0000 -16.8618 0.0000
# 2 135.6244 228.9356 11.4594 0.0000 -8.7361 0.0000
# 3 10.2713 11.4594 54.5140 0.0000 -18.5544 0.0000
# 4 0.0000 0.0000 0.0000 8.2326 0.0000 8.4835
# 5 -16.8618 -8.7361 -18.5544 0.0000 20.4019 0.0000
# 6 0.0000 0.0000 0.0000 8.4835 0.0000 -38.4166
#
#
#
# Elastic Compliance Matrix: (Units=1/GPa)
#
#
# Indices 1 2 3 4 5 6 
#
# 1 0.015665 -0.008978 0.002946 0.000000 0.011781 0.000000
# 2 -0.008978 0.009593 -0.002103 0.000000 -0.005226 0.000000
# 3 0.002946 -0.002103 0.027160 0.000000 0.026234 0.000000
# 4 0.000000 0.000000 0.000000 0.098951 0.000000 0.021851
# 5 0.011781 -0.005226 0.026234 0.000000 0.080373 0.000000
# 6 0.000000 0.000000 0.000000 0.021851 0.000000 -0.021205
#
#
# Mechanical properties :
#
#
# Convention : Reuss Voigt Hill
#
# Bulk Modulus (GPa) = 27.66547 83.38629 55.52588
# Shear Modulus (GPa) = 20.93302 16.60435 18.76868
#
# Velocity S-wave (km/s) = 3.06395 2.72883 2.90123
# Velocity P-wave (km/s) = 4.99241 6.87930 6.01036
#
# Compressibility (1/GPa) = 0.03614615
#
# Stress axis : x y z
#
# Youngs Moduli (GPa) = 63.83692 104.24716 36.81856
#
# Poissons Ratio (x) = 0.93593 -0.10845
# Poissons Ratio (y) = 0.57313 0.07745
# Poissons Ratio (z) = -0.18804 0.21928
#
# Static dielectric constant tensor:
#      x y z
#    x 1.796110 0.000000 0.038240 
#    y 0.000000 1.849580 0.000000 
#    z 0.038240 0.000000 1.936370 
# 
# From -- ./inp_files/144959.got.cif
#   From: 2010.05.17/outbox.cif.g08.bks.cpg/sg12_73_cif.got.tgz:144959.got - 2010.06.03 13:09:07.
