data_PCOD9177746
_publ_section_title
;
Structure prediction by ZEFSAII (Michael W. Deem and Ramdas Pophale) SiO2 
 PCOD9177746
Probable space group: C 2/M
;
_chemical_formula_sum "Si O2"
_cell_formula_units_Z 56
_cell_length_a 24.636062
_cell_length_b 14.866193
_cell_length_c 21.869887
_cell_angle_alpha 90.000000
_cell_angle_beta 161.116436
_cell_angle_gamma 90.000000
_cell_volume 2592.315458
_symmetry_space_group_name_H-M "C 2/M"
_symmetry_group_IT_number 12
_symmetry_cell_setting 'monoclinic'
loop_
_space_group_symop_operation_xyz
x,y,z
-x,y,-z
-x,-y,-z
x,-y,z
1/2+x,1/2+y,z
1/2-x,1/2+y,-z
1/2-x,1/2-y,-z
1/2+x,1/2-y,z
loop_
_atom_site_type_symbol
_atom_site_label
_atom_site_fract_x
_atom_site_fract_y
_atom_site_fract_z
Si Si1 0.855359 0.602188 0.792840
Si Si2 0.606090 0.341837 0.915117
Si Si3 0.180450 0.597801 0.077331
Si Si4 0.258789 0.157829 0.469146
Si Si5 0.618817 0.864000 0.881269
Si Si6 0.217294 0.711644 0.778175
Si Si7 0.336239 0.215281 0.413070
O O1 0.791355 0.500000 0.727173
O O2 0.717315 0.679236 0.643523
O O3 0.000000 0.613327 0.000000
O O4 0.979058 0.611078 0.866652
O O5 0.423684 0.384740 0.714361
O O6 0.603192 0.243348 0.879099
O O7 0.765734 0.385921 0.053290
O O8 0.647751 0.325739 0.030577
O O9 0.221365 0.500000 0.146686
O O10 0.265474 0.680029 0.201642
O O11 0.216183 0.600640 0.044073
O O12 0.250000 0.250000 0.500000
O O13 0.427582 0.106832 0.668202
O O14 0.280578 0.178734 0.419672
O O15 0.241879 0.680511 0.734655
O O16 0.032751 0.697157 0.609932
#
# Coordination Sequence:
#
# PCOD9177746 Si02
#       7
#     8   8   8   8   8   8   8
#     4  10  19  31  43  59  88 129 175 207 231 269
#     4   9  17  30  48  69  91 122 152 199 248 290
#     4  10  20  34  50  65  91 133 170 203 240 278
#     4  10  19  29  49  70  91 122 161 199 250 291
#     4   9  17  32  47  67  93 116 160 202 239 290
#     4  10  20  31  46  69 100 129 163 204 242 289
#     4  11  20  30  46  69  98 131 167 204 241 283
#
# _framework density 21.602309000000002
#
# number of rings (size 3 to 8) (size 9 to 14) (size 15 to 20)
#    0.000    2.143    2.857    2.571    2.000    0.571 
#    0.000    1.429    0.000    0.000    0.000    0.000 
#    0.000    2.286    0.000    2.571    0.000    0.000 
#
# Total GULP energy -155978.449569 kJ/mol
# GULP energy per Si atom -5570.658913 kJ/mol
# Density = 2.155314 g / cm^3
# Si number density = 21.602309 Si / 1000 Ang^3
#
#
#
# Elastic Constant Matrix: (Units=GPa)
#
#
# Indices 1 2 3 4 5 6 
#
# 1 125.5506 -3.5584 17.8592 0.0013 -9.3852 -0.0001
# 2 -3.5584 16.5318 -4.4633 0.0132 0.1890 0.0034
# 3 17.8592 -4.4633 76.4286 0.0047 4.3176 0.0003
# 4 0.0013 0.0132 0.0047 -3.3159 0.0028 5.9229
# 5 -9.3852 0.1890 4.3176 0.0028 28.0269 0.0000
# 6 -0.0001 0.0034 0.0003 5.9229 0.0000 -1.4860
#
#
#
# Elastic Compliance Matrix: (Units=1/GPa)
#
#
# Indices 1 2 3 4 5 6 
#
# 1 0.008536 0.001234 -0.002102 -0.000002 0.003174 -0.000006
# 2 0.001234 0.061663 0.003342 -0.000083 -0.000517 -0.000186
# 3 -0.002102 0.003342 0.013933 -0.000008 -0.002873 -0.000021
# 4 -0.000002 -0.000083 -0.000008 0.049280 -0.000004 0.196424
# 5 0.003174 -0.000517 -0.002873 -0.000004 0.037189 -0.000017
# 6 -0.000006 -0.000186 -0.000021 0.196424 -0.000017 0.109966
#
#
# Mechanical properties :
#
#
# Convention : Reuss Voigt Hill
#
# Bulk Modulus (GPa) = 11.22591 26.46509 18.84550
# Shear Modulus (GPa) = 16.37664 18.55659 17.46662
#
# Velocity S-wave (km/s) = 2.75634 2.93407 2.84659
# Velocity P-wave (km/s) = 3.91635 4.87401 4.42119
#
# Compressibility (1/GPa) = 0.08907963
#
# Stress axis : x y z
#
# Youngs Moduli (GPa) = 117.14915 16.21710 71.77348
#
# Poissons Ratio (x) = -0.02001 0.15086
# Poissons Ratio (y) = -0.14452 -0.23987
# Poissons Ratio (z) = 0.24624 -0.05420
#
# Static dielectric constant tensor:
#      x y z
#    x 1.877130 0.000000 0.016630 
#    y 0.000000 1.798420 0.000000 
#    z 0.016630 0.000000 1.790090 
# 
# From -- ./inp_files/76952.got.cif
#   From: 2010.05.17/outbox.cif.g08.bks.cpg/sg12_39_cif.got.tgz:76952.got - 2010.06.03 13:09:07.
