data_PCOD9177475
_publ_section_title
;
Structure prediction by ZEFSAII (Michael W. Deem and Ramdas Pophale) SiO2 
 PCOD9177475
Probable space group: C 2/M
;
_chemical_formula_sum "Si O2"
_cell_formula_units_Z 56
_cell_length_a 17.954523
_cell_length_b 13.445132
_cell_length_c 17.510528
_cell_angle_alpha 90.000000
_cell_angle_beta 135.142117
_cell_angle_gamma 90.000000
_cell_volume 2981.558132
_symmetry_space_group_name_H-M "C 2/M"
_symmetry_group_IT_number 12
_symmetry_cell_setting 'monoclinic'
loop_
_space_group_symop_operation_xyz
x,y,z
-x,y,-z
-x,-y,-z
x,-y,z
1/2+x,1/2+y,z
1/2-x,1/2+y,-z
1/2-x,1/2-y,-z
1/2+x,1/2-y,z
loop_
_atom_site_type_symbol
_atom_site_label
_atom_site_fract_x
_atom_site_fract_y
_atom_site_fract_z
Si Si1 0.163354 0.119473 0.947893
Si Si2 0.709365 0.237894 0.260063
Si Si3 0.492732 0.119949 0.835647
Si Si4 0.808718 0.380715 0.910113
Si Si5 0.121090 0.382004 0.613904
Si Si6 0.354727 0.119230 0.189432
Si Si7 0.034667 0.881828 0.108336
O O1 0.219316 0.141958 0.908875
O O2 0.046935 0.153306 0.886179
O O3 0.159050 0.000000 0.946478
O O4 0.242228 0.151005 0.072971
O O5 0.620697 0.172638 0.239617
O O6 0.716658 0.178315 0.185457
O O7 0.815536 0.285071 0.373275
O O8 0.649882 0.341747 0.203071
O O9 0.554324 0.150891 0.803291
O O10 0.477883 0.000000 0.824079
O O11 0.576644 0.138722 0.966497
O O12 0.806727 0.500000 0.893818
O O13 0.154953 0.500000 0.625515
O O14 0.127835 0.360524 0.709723
O O15 0.000000 0.378639 0.500000
O O16 0.353439 0.000000 0.181760
O O17 0.034128 0.000000 0.106838
O O18 0.000000 0.845883 0.000000
#
# Coordination Sequence:
#
# PCOD9177475 Si02
#       7
#     8   8   8   8   8   8   8
#     4   8  15  29  48  71 103 139 166 189 227 288
#     4  12  21  30  49  76 101 129 165 205 248 292
#     4   9  18  32  51  78 109 137 163 192 233 291
#     4   9  18  32  50  75 109 144 169 187 221 287
#     4  10  22  40  57  70  89 124 172 221 262 298
#     4   8  15  31  53  72  95 132 171 201 234 285
#     4  10  19  29  42  66 101 132 159 198 246 291
#
# _framework density 18.782126999999999
#
# number of rings (size 3 to 8) (size 9 to 14) (size 15 to 20)
#    0.000    2.571    0.000    4.714    0.000    4.571 
#    0.000    4.286    0.000    1.714    0.000    0.000 
#    0.000    0.000    0.000    0.000    0.000    0.000 
#
# Total GULP energy -155989.656028 kJ/mol
# GULP energy per Si atom -5571.059144 kJ/mol
# Density = 1.873938 g / cm^3
# Si number density = 18.782127 Si / 1000 Ang^3
#
#
#
# Elastic Constant Matrix: (Units=GPa)
#
#
# Indices 1 2 3 4 5 6 
#
# 1 67.9576 20.1637 15.3442 0.0000 7.2919 0.0000
# 2 20.1637 88.8110 8.9758 0.0000 10.9008 0.0000
# 3 15.3442 8.9758 34.6638 0.0000 13.5594 0.0000
# 4 0.0000 0.0000 0.0000 25.3124 0.0000 9.3117
# 5 7.2919 10.9008 13.5594 0.0000 17.3325 0.0000
# 6 0.0000 0.0000 0.0000 9.3117 0.0000 30.9353
#
#
#
# Elastic Compliance Matrix: (Units=1/GPa)
#
#
# Indices 1 2 3 4 5 6 
#
# 1 0.017202 -0.003232 -0.006833 0.000000 0.000141 0.000000
# 2 -0.003232 0.012810 0.001057 0.000000 -0.007524 0.000000
# 3 -0.006833 0.001057 0.044288 0.000000 -0.032437 0.000000
# 4 0.000000 0.000000 0.000000 0.044426 0.000000 -0.013372
# 5 0.000141 -0.007524 -0.032437 0.000000 0.087743 0.000000
# 6 0.000000 0.000000 0.000000 -0.013372 0.000000 0.036351
#
#
# Mechanical properties :
#
#
# Convention : Reuss Voigt Hill
#
# Bulk Modulus (GPa) = 17.76739 31.15551 24.46145
# Shear Modulus (GPa) = 17.88291 24.51261 21.19776
#
# Velocity S-wave (km/s) = 3.08900 3.61654 3.36313
# Velocity P-wave (km/s) = 4.71199 5.83635 5.30405
#
# Compressibility (1/GPa) = 0.05628288
#
# Stress axis : x y z
#
# Youngs Moduli (GPa) = 58.13370 78.06169 22.57970
#
# Poissons Ratio (x) = 0.25232 0.15428
# Poissons Ratio (y) = 0.18790 -0.02386
# Poissons Ratio (z) = 0.39721 -0.08248
#
# Static dielectric constant tensor:
#      x y z
#    x 1.720200 0.000000 0.023950 
#    y 0.000000 1.731510 0.000000 
#    z 0.023950 0.000000 1.619640 
# 
# From -- ./inp_files/156169.got.cif
#   From: 2010.05.17/outbox.cif.g08.bks.cpg/sg12_79_cif.got.tgz:156169.got - 2010.06.03 13:09:07.
