data_PCOD9177853
_publ_section_title
;
Structure prediction by ZEFSAII (Michael W. Deem and Ramdas Pophale) SiO2 
 PCOD9177853
Probable space group: C 2/M
;
_chemical_formula_sum "Si O2"
_cell_formula_units_Z 56
_cell_length_a 28.567554
_cell_length_b 8.741068
_cell_length_c 14.509886
_cell_angle_alpha 90.000000
_cell_angle_beta 60.029354
_cell_angle_gamma 90.000000
_cell_volume 3138.777798
_symmetry_space_group_name_H-M "C 2/M"
_symmetry_group_IT_number 12
_symmetry_cell_setting 'monoclinic'
loop_
_space_group_symop_operation_xyz
x,y,z
-x,y,-z
-x,-y,-z
x,-y,z
1/2+x,1/2+y,z
1/2-x,1/2+y,-z
1/2-x,1/2-y,-z
1/2+x,1/2-y,z
loop_
_atom_site_type_symbol
_atom_site_label
_atom_site_fract_x
_atom_site_fract_y
_atom_site_fract_z
Si Si1 0.567908 0.315433 0.744559
Si Si2 0.829719 0.815676 0.873139
Si Si3 0.068535 0.186396 0.340486
Si Si4 0.443474 0.686084 0.444098
Si Si5 0.130565 0.182466 0.864473
Si Si6 0.218702 0.318607 0.892340
Si Si7 0.466842 0.826101 0.936233
O O1 0.567301 0.500000 0.747326
O O2 0.582301 0.264036 0.627112
O O3 0.607554 0.263848 0.787891
O O4 0.507411 0.259281 0.827881
O O5 0.886773 0.762200 0.776250
O O6 0.781706 0.783122 0.847264
O O7 0.831291 0.000000 0.885342
O O8 0.811670 0.739692 0.985886
O O9 0.080539 0.235494 0.434137
O O10 0.006848 0.230681 0.380711
O O11 0.069830 0.000000 0.337710
O O12 0.442278 0.500000 0.446218
O O13 0.189004 0.243075 0.835217
O O14 0.130218 0.000000 0.865479
O O15 0.088071 0.240821 0.983357
O O16 0.212915 0.500000 0.891296
O O17 0.456324 0.000000 0.917259
O O18 0.500000 0.830262 0.000000
#
# Coordination Sequence:
#
# PCOD9177853 Si02
#       7
#     8   8   8   8   8   8   8
#     4   9  17  28  44  68  94 122 155 190 227 272
#     4   9  18  32  50  71  93 120 154 192 234 279
#     4   8  14  26  46  71  95 118 147 188 234 276
#     4   8  14  25  44  72  98 117 147 188 229 276
#     4  10  19  30  44  63  91 125 160 193 226 270
#     4  10  20  32  46  68  95 122 157 194 232 278
#     4   9  17  28  41  61  91 124 154 184 224 273
#
# _framework density 17.841339000000001
#
# number of rings (size 3 to 8) (size 9 to 14) (size 15 to 20)
#    0.000    3.000    0.000    2.143    2.000    2.857 
#    0.000    0.000    0.000    1.714    0.000    2.000 
#    0.000    0.000    0.000    0.000    0.000    0.857 
#
# Total GULP energy -155992.034705 kJ/mol
# GULP energy per Si atom -5571.144097 kJ/mol
# Density = 1.780073 g / cm^3
# Si number density = 17.841339 Si / 1000 Ang^3
#
#
#
# Elastic Constant Matrix: (Units=GPa)
#
#
# Indices 1 2 3 4 5 6 
#
# 1 55.2936 15.4969 -2.0480 0.0000 11.7517 0.0000
# 2 15.4969 14.7549 -2.4271 0.0000 1.6235 0.0000
# 3 -2.0480 -2.4271 37.5150 0.0000 4.6569 0.0000
# 4 0.0000 0.0000 0.0000 1.2063 0.0000 0.5802
# 5 11.7517 1.6235 4.6569 0.0000 27.0797 0.0000
# 6 0.0000 0.0000 0.0000 0.5802 0.0000 21.9913
#
#
#
# Elastic Compliance Matrix: (Units=1/GPa)
#
#
# Indices 1 2 3 4 5 6 
#
# 1 0.028396 -0.028464 0.001049 0.000000 -0.010797 0.000000
# 2 -0.028464 0.097697 0.004047 -0.000001 0.005799 0.000000
# 3 0.001049 0.004047 0.027652 0.000000 -0.005453 0.000000
# 4 0.000000 -0.000001 0.000000 0.839664 0.000000 -0.022154
# 5 -0.010797 0.005799 -0.005453 0.000000 0.042204 0.000000
# 6 0.000000 0.000000 0.000000 -0.022154 0.000000 0.046057
#
#
# Mechanical properties :
#
#
# Convention : Reuss Voigt Hill
#
# Bulk Modulus (GPa) = 9.34496 14.40078 11.87287
# Shear Modulus (GPa) = 4.29526 16.49155 10.39340
#
# Velocity S-wave (km/s) = 1.55329 3.04360 2.41622
# Velocity P-wave (km/s) = 2.90966 4.52111 3.80175
#
# Compressibility (1/GPa) = 0.10700950
#
# Stress axis : x y z
#
# Youngs Moduli (GPa) = 35.21603 10.23578 36.16372
#
# Poissons Ratio (x) = 0.29135 -0.03793
# Poissons Ratio (y) = 1.00237 -0.14635
# Poissons Ratio (z) = -0.03694 -0.04142
#
# Static dielectric constant tensor:
#      x y z
#    x 1.646010 0.000000 0.029820 
#    y 0.000000 1.607040 0.000000 
#    z 0.029820 0.000000 1.609270 
# 
# From -- ./inp_files/248140.got.cif
#   From: 2010.05.17/outbox.cif.g08.bks.cpg/sg12_125_cif.got.tgz:248140.got - 2010.06.03 13:09:07.
