data_PCOD9177878
_publ_section_title
;
Structure prediction by ZEFSAII (Michael W. Deem and Ramdas Pophale) SiO2 
 PCOD9177878
Probable space group: C 2/M
;
_chemical_formula_sum "Si O2"
_cell_formula_units_Z 56
_cell_length_a 20.282505
_cell_length_b 7.324145
_cell_length_c 25.181260
_cell_angle_alpha 90.000000
_cell_angle_beta 134.205687
_cell_angle_gamma 90.000000
_cell_volume 2681.507805
_symmetry_space_group_name_H-M "C 2/M"
_symmetry_group_IT_number 12
_symmetry_cell_setting 'monoclinic'
loop_
_space_group_symop_operation_xyz
x,y,z
-x,y,-z
-x,-y,-z
x,-y,z
1/2+x,1/2+y,z
1/2-x,1/2+y,-z
1/2-x,1/2-y,-z
1/2+x,1/2-y,z
loop_
_atom_site_type_symbol
_atom_site_label
_atom_site_fract_x
_atom_site_fract_y
_atom_site_fract_z
Si Si1 0.479619 0.222657 0.049047
Si Si2 0.275312 0.217406 0.954087
Si Si3 0.164878 0.278593 0.202531
Si Si4 0.316740 0.278617 0.201475
Si Si5 0.688671 0.277372 0.630130
Si Si6 0.170843 0.218047 0.499335
Si Si7 0.037527 0.777265 0.631512
O O1 0.561523 0.284066 0.133738
O O2 0.479686 0.000000 0.051396
O O3 0.500000 0.272335 0.000000
O O4 0.378088 0.288741 0.004349
O O5 0.203708 0.285570 0.869493
O O6 0.279933 0.000000 0.947870
O O7 0.250000 0.250000 0.000000
O O8 0.163001 0.500000 0.203405
O O9 0.227954 0.230900 0.187287
O O10 0.221779 0.218881 0.286037
O O11 0.322633 0.500000 0.204446
O O12 0.405434 0.217328 0.284477
O O13 0.687959 0.500000 0.629661
O O14 0.691450 0.215792 0.570835
O O15 0.598155 0.223856 0.613670
O O16 0.250000 0.250000 0.500000
O O17 0.067973 0.284077 0.427239
O O18 0.163864 0.000000 0.499372
O O19 0.037298 0.000000 0.630952
#
# Coordination Sequence:
#
# PCOD9177878 Si02
#       7
#     8   8   8   8   8   8   8
#     4   9  14  23  42  65  87 112 145 185 223 255
#     4  10  19  30  44  65  93 121 149 181 219 264
#     4   8  12  21  40  67  89 104 138 193 233 248
#     4   8  13  24  43  66  88 111 146 189 223 253
#     4   8  14  25  44  67  87 109 145 190 223 250
#     4  10  19  31  46  67  95 120 143 176 221 270
#     4   8  14  26  47  68  84 111 152 191 220 250
#
# _framework density 20.883772
#
# number of rings (size 3 to 8) (size 9 to 14) (size 15 to 20)
#    0.000    3.286    1.429    2.143    0.000    1.714 
#    2.571    0.000    0.000    2.143    0.000    3.000 
#    0.000    0.000    0.000    0.000    0.000    0.000 
#
# Total GULP energy -156138.365408 kJ/mol
# GULP energy per Si atom -5576.370193 kJ/mol
# Density = 2.083624 g / cm^3
# Si number density = 20.883772 Si / 1000 Ang^3
#
#
#
# Elastic Constant Matrix: (Units=GPa)
#
#
# Indices 1 2 3 4 5 6 
#
# 1 153.1392 0.4941 125.2034 0.0000 -6.6796 0.0000
# 2 0.4941 80.8709 7.2890 0.0001 1.4900 -0.0003
# 3 125.2034 7.2890 220.1258 0.0000 -9.8395 0.0000
# 4 0.0000 0.0001 0.0000 -9.6177 0.0000 -8.0364
# 5 -6.6796 1.4900 -9.8395 0.0000 29.8542 0.0000
# 6 0.0000 -0.0003 0.0000 -8.0364 0.0000 6.4760
#
#
#
# Elastic Compliance Matrix: (Units=1/GPa)
#
#
# Indices 1 2 3 4 5 6 
#
# 1 0.012236 0.000545 -0.006959 0.000000 0.000417 0.000000
# 2 0.000545 0.012444 -0.000755 0.000000 -0.000748 0.000000
# 3 -0.006959 -0.000755 0.008585 0.000000 0.001310 0.000000
# 4 0.000000 0.000000 0.000000 -0.051045 0.000000 -0.063345
# 5 0.000417 -0.000748 0.001310 0.000000 0.034059 0.000000
# 6 0.000000 0.000000 0.000000 -0.063345 0.000000 0.075809
#
#
# Mechanical properties :
#
#
# Convention : Reuss Voigt Hill
#
# Bulk Modulus (GPa) = 52.83928 80.01211 66.42570
# Shear Modulus (GPa) = 44.35212 26.75246 35.55229
#
# Velocity S-wave (km/s) = 4.61343 3.58301 4.13048
# Velocity P-wave (km/s) = 7.33040 7.45074 7.39082
#
# Compressibility (1/GPa) = 0.01892532
#
# Stress axis : x y z
#
# Youngs Moduli (GPa) = 81.72642 80.36054 116.48823
#
# Poissons Ratio (x) = -0.04378 0.81064
# Poissons Ratio (y) = -0.04452 0.08799
# Poissons Ratio (z) = 0.56873 0.06070
#
# Static dielectric constant tensor:
#      x y z
#    x 1.721790 0.000000 -0.021590 
#    y 0.000000 1.850860 0.000000 
#    z -0.021590 0.000000 1.772330 
# 
# From -- ./inp_files/342885.got.cif
#   From: 2010.05.17/outbox.cif.g08.bks.cpg/sg12_172_cif.got.tgz:342885.got - 2010.06.03 13:09:07.
