data_PCOD9177801
_publ_section_title
;
Structure prediction by ZEFSAII (Michael W. Deem and Ramdas Pophale) SiO2 
 PCOD9177801
Probable space group: C 2/M
;
_chemical_formula_sum "Si O2"
_cell_formula_units_Z 56
_cell_length_a 32.314024
_cell_length_b 7.315787
_cell_length_c 11.548274
_cell_angle_alpha 90.000000
_cell_angle_beta 82.307889
_cell_angle_gamma 90.000000
_cell_volume 2705.475142
_symmetry_space_group_name_H-M "C 2/M"
_symmetry_group_IT_number 12
_symmetry_cell_setting 'monoclinic'
loop_
_space_group_symop_operation_xyz
x,y,z
-x,y,-z
-x,-y,-z
x,-y,z
1/2+x,1/2+y,z
1/2-x,1/2+y,-z
1/2-x,1/2-y,-z
1/2+x,1/2-y,z
loop_
_atom_site_type_symbol
_atom_site_label
_atom_site_fract_x
_atom_site_fract_y
_atom_site_fract_z
Si Si1 0.875727 0.222761 0.913982
Si Si2 0.527004 0.722688 0.103139
Si Si3 0.317724 0.291803 0.512506
Si Si4 0.519546 0.278918 0.369654
Si Si5 0.383705 0.278082 0.653917
Si Si6 0.737189 0.277337 0.676628
Si Si7 0.290754 0.281972 0.063282
O O1 0.923714 0.277529 0.925227
O O2 0.866757 0.278698 0.784989
O O3 0.876472 0.000000 0.917450
O O4 0.835799 0.285993 0.002354
O O5 0.526683 0.500000 0.104232
O O6 0.509915 0.778713 0.238654
O O7 0.500000 0.779159 0.000000
O O8 0.327880 0.500000 0.475571
O O9 0.358329 0.207295 0.554148
O O10 0.294327 0.211760 0.411306
O O11 0.282964 0.290533 0.626324
O O12 0.500000 0.216001 0.500000
O O13 0.514133 0.500000 0.370226
O O14 0.568061 0.233111 0.365132
O O15 0.380676 0.500000 0.652112
O O16 0.739199 0.500000 0.672386
O O17 0.721117 0.215071 0.805522
O O18 0.295507 0.500000 0.069100
O O19 0.250000 0.250000 0.000000
#
# Coordination Sequence:
#
# PCOD9177801 Si02
#       7
#     8   8   8   8   8   8   8
#     4   8  14  24  37  53  75 103 136 168 198 242
#     4   8  13  22  34  49  71 102 134 161 198 249
#     4   9  16  28  44  59  78 110 142 164 202 253
#     4   8  13  21  31  48  73  96 124 164 199 232
#     4   8  13  22  37  53  70  98 135 163 190 240
#     4   9  18  29  40  59  85 105 133 178 209 234
#     4  10  19  30  43  61  85 112 141 175 212 245
#
# _framework density 20.698767
#
# number of rings (size 3 to 8) (size 9 to 14) (size 15 to 20)
#    0.000    3.429    0.000    2.571    0.000    1.714 
#    2.571    0.000    0.000    0.000    0.000    0.000 
#    0.000    1.143    0.000    0.857    0.000    1.143 
#
# Total GULP energy -155915.052696 kJ/mol
# GULP energy per Si atom -5568.394739 kJ/mol
# Density = 2.065166 g / cm^3
# Si number density = 20.698767 Si / 1000 Ang^3
#
#
#
# Elastic Constant Matrix: (Units=GPa)
#
#
# Indices 1 2 3 4 5 6 
#
# 1 82.0446 -5.4006 65.6120 0.0000 21.8159 0.0000
# 2 -5.4006 82.9614 -2.4902 0.0000 2.4903 0.0000
# 3 65.6120 -2.4902 153.2966 0.0000 -9.4083 0.0000
# 4 0.0000 0.0000 0.0000 -5.8460 0.0000 -2.7959
# 5 21.8159 2.4903 -9.4083 0.0000 30.1770 0.0000
# 6 0.0000 0.0000 0.0000 -2.7959 0.0000 -0.2392
#
#
#
# Elastic Compliance Matrix: (Units=1/GPa)
#
#
# Indices 1 2 3 4 5 6 
#
# 1 0.032354 0.002493 -0.015553 0.000000 -0.028444 0.000000
# 2 0.002493 0.012279 -0.001061 0.000000 -0.003146 0.000000
# 3 -0.015553 -0.001061 0.014129 0.000000 0.015736 0.000000
# 4 0.000000 0.000000 0.000000 0.037270 0.000000 -0.435601
# 5 -0.028444 -0.003146 0.015736 0.000000 0.058867 0.000000
# 6 0.000000 0.000000 0.000000 -0.435601 0.000000 0.910827
#
#
# Mechanical properties :
#
#
# Convention : Reuss Voigt Hill
#
# Bulk Modulus (GPa) = 32.76517 48.19389 40.47953
# Shear Modulus (GPa) = 4.52841 22.19043 13.35942
#
# Velocity S-wave (km/s) = 1.48072 3.27779 2.54327
# Velocity P-wave (km/s) = 4.33443 6.13671 5.31256
#
# Compressibility (1/GPa) = 0.03052021
#
# Stress axis : x y z
#
# Youngs Moduli (GPa) = 30.90823 81.44182 70.77845
#
# Poissons Ratio (x) = -0.20305 1.10081
# Poissons Ratio (y) = -0.07706 0.07508
# Poissons Ratio (z) = 0.48071 0.08639
#
# Static dielectric constant tensor:
#      x y z
#    x 1.710240 0.000000 -0.000430 
#    y 0.000000 1.799880 0.000000 
#    z -0.000430 0.000000 1.766940 
# 
# From -- ./inp_files/181561.got.cif
#   From: 2010.05.17/outbox.cif.g08.bks.cpg/sg12_91_cif.got.tgz:181561.got - 2010.06.03 13:09:07.
