data_PCOD9177825
_publ_section_title
;
Structure prediction by ZEFSAII (Michael W. Deem and Ramdas Pophale) SiO2 
 PCOD9177825
Probable space group: C 2/M
;
_chemical_formula_sum "Si O2"
_cell_formula_units_Z 64
_cell_length_a 25.158383
_cell_length_b 7.919010
_cell_length_c 16.736393
_cell_angle_alpha 90.000000
_cell_angle_beta 99.718367
_cell_angle_gamma 90.000000
_cell_volume 3286.532610
_symmetry_space_group_name_H-M "C 2/M"
_symmetry_group_IT_number 12
_symmetry_cell_setting 'monoclinic'
loop_
_space_group_symop_operation_xyz
x,y,z
-x,y,-z
-x,-y,-z
x,-y,z
1/2+x,1/2+y,z
1/2-x,1/2+y,-z
1/2-x,1/2-y,-z
1/2+x,1/2-y,z
loop_
_atom_site_type_symbol
_atom_site_label
_atom_site_fract_x
_atom_site_fract_y
_atom_site_fract_z
Si Si1 0.598436 0.197439 0.804069
Si Si2 0.347586 0.806983 0.023358
Si Si3 0.975616 0.800669 0.779631
Si Si4 0.806967 0.203963 0.274824
Si Si5 0.943081 0.196304 0.941867
Si Si6 0.260949 0.203069 0.593440
Si Si7 0.205253 0.293519 0.144509
Si Si8 0.862875 0.703189 0.719018
O O1 0.631342 0.275106 0.888644
O O2 0.536761 0.252209 0.776674
O O3 0.635247 0.230665 0.736878
O O4 0.595546 0.000000 0.820716
O O5 0.330523 0.000000 0.035533
O O6 0.400957 0.802224 0.981686
O O7 0.305065 0.731403 0.948470
O O8 0.956972 0.725956 0.859808
O O9 0.923455 0.758470 0.713467
O O10 0.977026 0.000000 0.791067
O O11 0.784510 0.261103 0.354914
O O12 0.762182 0.256284 0.197556
O O13 0.808417 0.000000 0.274907
O O14 0.923629 0.000000 0.932002
O O15 0.000000 0.190123 0.000000
O O16 0.250000 0.250000 0.500000
O O17 0.318301 0.261980 0.643731
O O18 0.261670 0.000000 0.598448
O O19 0.203698 0.500000 0.141482
O O20 0.160166 0.240656 0.199216
O O21 0.862124 0.500000 0.720658
#
# Coordination Sequence:
#
# PCOD9177825 Si02
#       8
#     8   8   8   8   8   8   8   8
#     4  11  23  34  47  72 104 142 186 224 259 302
#     4  10  19  30  47  69  96 136 184 224 263 305
#     4  11  21  32  49  73 103 141 180 219 265 309
#     4   9  19  37  56  74 102 140 175 207 256 316
#     4  10  19  30  43  65  98 133 177 229 270 300
#     4   9  19  36  62  91 112 134 162 200 256 317
#     4   8  15  30  51  71  96 134 176 219 262 304
#     4   9  17  32  54  80 108 136 169 210 259 309
#
# _framework density 19.473410000000001
#
# number of rings (size 3 to 8) (size 9 to 14) (size 15 to 20)
#    0.000    2.375    2.500    2.250    0.000    2.750 
#    0.000    2.500    0.000    0.750    0.000    5.250 
#    0.000    0.000    0.000    0.000    0.000    0.000 
#
# Total GULP energy -178336.256892 kJ/mol
# GULP energy per Si atom -5573.008028 kJ/mol
# Density = 1.942909 g / cm^3
# Si number density = 19.473410 Si / 1000 Ang^3
#
#
#
# Elastic Constant Matrix: (Units=GPa)
#
#
# Indices 1 2 3 4 5 6 
#
# 1 120.3012 1.0828 61.5600 0.0000 -6.7645 0.0000
# 2 1.0828 22.4678 3.5293 0.0000 0.1857 0.0000
# 3 61.5600 3.5293 105.4590 0.0000 4.6433 0.0000
# 4 0.0000 0.0000 0.0000 14.9855 0.0000 2.1575
# 5 -6.7645 0.1857 4.6433 0.0000 14.5410 0.0000
# 6 0.0000 0.0000 0.0000 2.1575 0.0000 13.3758
#
#
#
# Elastic Compliance Matrix: (Units=1/GPa)
#
#
# Indices 1 2 3 4 5 6 
#
# 1 0.012810 0.000549 -0.007869 0.000000 0.008465 0.000000
# 2 0.000549 0.044767 -0.001830 0.000000 0.000268 0.000000
# 3 -0.007869 -0.001830 0.014501 0.000000 -0.008268 0.000000
# 4 0.000000 0.000000 0.000000 0.068318 0.000000 -0.011019
# 5 0.008465 0.000268 -0.008268 0.000000 0.075346 0.000000
# 6 0.000000 0.000000 0.000000 -0.011019 0.000000 0.076539
#
#
# Mechanical properties :
#
#
# Convention : Reuss Voigt Hill
#
# Bulk Modulus (GPa) = 18.59524 42.28581 30.44052
# Shear Modulus (GPa) = 15.22039 20.71752 17.96895
#
# Velocity S-wave (km/s) = 2.79874 3.26527 3.04096
# Velocity P-wave (km/s) = 4.47367 5.99815 5.29110
#
# Compressibility (1/GPa) = 0.05377721
#
# Stress axis : x y z
#
# Youngs Moduli (GPa) = 78.06363 22.33794 68.96138
#
# Poissons Ratio (x) = -0.01226 0.54264
# Poissons Ratio (y) = -0.04283 0.12622
# Poissons Ratio (z) = 0.61426 0.04088
#
# Static dielectric constant tensor:
#      x y z
#    x 1.708140 0.000000 0.040240 
#    y 0.000000 1.731330 0.000000 
#    z 0.040240 0.000000 1.715250 
# 
# From -- ./inp_files/287773.got.cif
#   From: 2010.05.17/outbox.cif.g08.bks.cpg/sg12_144_cif.got.tgz:287773.got - 2010.06.03 13:09:07.
