data_PCOD9177856
_publ_section_title
;
Structure prediction by ZEFSAII (Michael W. Deem and Ramdas Pophale) SiO2 
 PCOD9177856
Probable space group: C 2/M
;
_chemical_formula_sum "Si O2"
_cell_formula_units_Z 64
_cell_length_a 30.622816
_cell_length_b 8.962243
_cell_length_c 14.507235
_cell_angle_alpha 90.000000
_cell_angle_beta 90.510002
_cell_angle_gamma 90.000000
_cell_volume 3981.340126
_symmetry_space_group_name_H-M "C 2/M"
_symmetry_group_IT_number 12
_symmetry_cell_setting 'monoclinic'
loop_
_space_group_symop_operation_xyz
x,y,z
-x,y,-z
-x,-y,-z
x,-y,z
1/2+x,1/2+y,z
1/2-x,1/2+y,-z
1/2-x,1/2-y,-z
1/2+x,1/2-y,z
loop_
_atom_site_type_symbol
_atom_site_label
_atom_site_fract_x
_atom_site_fract_y
_atom_site_fract_z
Si Si1 0.948722 0.319684 0.489586
Si Si2 0.703305 0.821288 0.018425
Si Si3 0.589690 0.321417 0.331279
Si Si4 0.623985 0.820840 0.886954
Si Si5 0.065139 0.828495 0.032273
Si Si6 0.148870 0.827747 0.171270
Si Si7 0.992184 0.178689 0.805155
Si Si8 0.424052 0.820398 0.285460
O O1 0.948319 0.500000 0.492987
O O2 0.920189 0.256798 0.572766
O O3 0.929085 0.269124 0.390913
O O4 0.000000 0.273497 0.500000
O O5 0.668030 0.771157 0.939733
O O6 0.706048 0.000000 0.016319
O O7 0.750000 0.750000 0.000000
O O8 0.683828 0.768096 0.116148
O O9 0.592990 0.500000 0.343650
O O10 0.631509 0.274310 0.270532
O O11 0.547326 0.293281 0.266694
O O12 0.616091 0.772629 0.781163
O O13 0.624091 0.000000 0.889429
O O14 0.583330 0.764192 0.947610
O O15 0.105589 0.829600 0.105774
O O16 0.024491 0.776315 0.093469
O O17 0.057532 0.000000 0.003628
O O18 0.163632 0.000000 0.179135
O O19 0.033342 0.264380 0.767362
O O20 0.999623 0.000000 0.806950
O O21 0.423993 0.000000 0.288305
#
# Coordination Sequence:
#
# PCOD9177856 Si02
#       8
#     8   8   8   8   8   8   8   8
#     4  10  19  30  44  64  88 121 164 204 238 265
#     4  10  19  32  52  76  97 119 146 178 223 278
#     4   9  17  29  46  66  91 122 157 198 236 268
#     4   9  19  33  46  63  89 120 151 182 221 272
#     4   8  15  28  44  61  86 118 152 188 223 261
#     4   8  15  29  47  69  95 121 149 184 227 272
#     4   9  17  28  42  62  86 118 157 193 229 265
#     4  10  20  32  43  59  88 122 157 195 229 264
#
# _framework density 16.07499
#
# number of rings (size 3 to 8) (size 9 to 14) (size 15 to 20)
#    0.000    2.875    1.250    1.875    0.000    3.250 
#    0.000    5.000    0.000    0.000    0.000    0.875 
#    0.000    0.000    0.000    0.000    0.000    0.000 
#
# Total GULP energy -178230.359313 kJ/mol
# GULP energy per Si atom -5569.698729 kJ/mol
# Density = 1.603840 g / cm^3
# Si number density = 16.074990 Si / 1000 Ang^3
#
#
#
# Elastic Constant Matrix: (Units=GPa)
#
#
# Indices 1 2 3 4 5 6 
#
# 1 66.2425 24.6747 63.0923 0.0000 -13.6935 0.0000
# 2 24.6747 10.8774 28.4994 0.0000 -2.9965 0.0000
# 3 63.0923 28.4994 147.7026 0.0000 -1.3771 0.0000
# 4 0.0000 0.0000 0.0000 23.3894 0.0000 -8.2045
# 5 -13.6935 -2.9965 -1.3771 0.0000 18.7687 0.0000
# 6 0.0000 0.0000 0.0000 -8.2045 0.0000 15.4797
#
#
#
# Elastic Compliance Matrix: (Units=1/GPa)
#
#
# Indices 1 2 3 4 5 6 
#
# 1 0.131459 -0.279579 -0.001732 0.000000 0.051148 0.000000
# 2 -0.279579 0.795364 -0.034784 0.000000 -0.079546 0.000000
# 3 -0.001732 -0.034784 0.014168 0.000000 -0.005777 0.000000
# 4 0.000000 0.000000 0.000000 0.052519 0.000000 0.027836
# 5 0.051148 -0.079546 -0.005777 0.000000 0.077473 0.000000
# 6 0.000000 0.000000 0.000000 0.027836 0.000000 0.079354
#
#
# Mechanical properties :
#
#
# Convention : Reuss Voigt Hill
#
# Bulk Modulus (GPa) = 3.23833 50.81727 27.02780
# Shear Modulus (GPa) = 2.65187 18.76464 10.70826
#
# Velocity S-wave (km/s) = 1.28580 3.42031 2.58378
# Velocity P-wave (km/s) = 2.05505 6.87599 5.07457
#
# Compressibility (1/GPa) = 0.30880125
#
# Stress axis : x y z
#
# Youngs Moduli (GPa) = 7.60694 1.25729 70.58272
#
# Poissons Ratio (x) = 0.35151 0.12222
# Poissons Ratio (y) = 2.12674 2.45514
# Poissons Ratio (z) = 0.01317 0.04373
#
# Static dielectric constant tensor:
#      x y z
#    x 1.541050 0.000000 0.026500 
#    y 0.000000 1.535310 0.000000 
#    z 0.026500 0.000000 1.566880 
# 
# From -- ./inp_files/248290.got.cif
#   From: 2010.05.17/outbox.cif.g08.bks.cpg/sg12_125_cif.got.tgz:248290.got - 2010.06.03 13:09:07.
