data_PCOD9177121
_publ_section_title
;
Structure prediction by ZEFSAII (Michael W. Deem and Ramdas Pophale) SiO2 
 PCOD9177121
Probable space group: C 2/M
;
_chemical_formula_sum "Si O2"
_cell_formula_units_Z 40
_cell_length_a 9.070479
_cell_length_b 26.509354
_cell_length_c 11.331969
_cell_angle_alpha 90.000000
_cell_angle_beta 44.032253
_cell_angle_gamma 90.000000
_cell_volume 1893.908682
_symmetry_space_group_name_H-M "C 2/M"
_symmetry_group_IT_number 12
_symmetry_cell_setting 'monoclinic'
loop_
_space_group_symop_operation_xyz
x,y,z
-x,y,-z
-x,-y,-z
x,-y,z
1/2+x,1/2+y,z
1/2-x,1/2+y,-z
1/2-x,1/2-y,-z
1/2+x,1/2-y,z
loop_
_atom_site_type_symbol
_atom_site_label
_atom_site_fract_x
_atom_site_fract_y
_atom_site_fract_z
Si Si1 0.037498 0.779358 0.738698
Si Si2 0.000000 0.262720 0.500000
Si Si3 0.888948 0.674358 0.939395
Si Si4 0.749931 0.000000 0.651107
Si Si5 0.392927 0.926624 0.812444
Si Si6 0.696308 0.500000 0.112081
Si Si7 0.730433 0.000000 0.309286
O O1 0.009490 0.770086 0.614698
O O2 0.280077 0.793308 0.626214
O O3 0.990967 0.726038 0.831321
O O4 0.857949 0.816130 0.890277
O O5 0.909623 0.631826 0.828494
O O6 0.000000 0.660838 0.000000
O O7 0.626762 0.048291 0.670817
O O8 0.707833 0.000000 0.814559
O O9 0.000000 0.000000 0.500000
O O10 0.267582 0.950078 0.774384
O O11 0.276306 0.952040 0.991774
O O12 0.440803 0.500000 0.265421
O O13 0.500000 0.000000 0.500000
#
# Coordination Sequence:
#
# PCOD9177121 Si02
#       7
#     8   4   8   4   8   4   4
#     4  10  22  40  67  85 131 165 212 258 331 372
#     4  10  20  44  60  92 118 170 202 264 326 380
#     4  11  21  40  62  97 119 173 216 264 302 388
#     4  10  19  36  61  92 120 160 198 256 317 367
#     4  10  21  38  62  87 119 164 212 247 301 382
#     4  10  18  38  60  84 116 164 192 250 299 375
#     4  10  21  42  61  88 128 162 194 259 327 370
#
# _framework density 21.120342000000001
#
# number of rings (size 3 to 8) (size 9 to 14) (size 15 to 20)
#    0.000    2.000    2.000    4.800    0.000    0.000 
#   10.800    4.000    0.000    0.000    0.000    0.000 
#    0.000    0.000    0.000    0.000    0.000    0.000 
#
# Total GULP energy -111687.957231 kJ/mol
# GULP energy per Si atom -5584.397862 kJ/mol
# Density = 2.107227 g / cm^3
# Si number density = 21.120342 Si / 1000 Ang^3
#
#
#
# Elastic Constant Matrix: (Units=GPa)
#
#
# Indices 1 2 3 4 5 6 
#
# 1 125.9608 16.2290 26.8326 0.0000 -23.8610 0.0000
# 2 16.2290 67.2085 6.4335 0.0000 -14.8232 0.0000
# 3 26.8326 6.4335 86.9307 0.0000 -29.8391 0.0000
# 4 0.0000 0.0000 0.0000 3.6574 0.0000 -1.7109
# 5 -23.8610 -14.8232 -29.8391 0.0000 59.7158 0.0000
# 6 0.0000 0.0000 0.0000 -1.7109 0.0000 0.8435
#
#
#
# Elastic Compliance Matrix: (Units=1/GPa)
#
#
# Indices 1 2 3 4 5 6 
#
# 1 0.008960 -0.001482 -0.001875 0.000000 0.002275 0.000000
# 2 -0.001482 0.015989 0.000523 0.000000 0.003638 0.000000
# 3 -0.001875 0.000523 0.014280 0.000000 0.006516 0.000000
# 4 0.000000 0.000000 0.000000 5.346966 0.000000 10.845798
# 5 0.002275 0.003638 0.006516 0.000000 0.021814 0.000000
# 6 0.000000 0.000000 0.000000 10.845798 0.000000 23.185240
#
#
# Mechanical properties :
#
#
# Convention : Reuss Voigt Hill
#
# Bulk Modulus (GPa) = 29.79629 42.12113 35.95871
# Shear Modulus (GPa) = 0.17476 28.21697 14.19587
#
# Velocity S-wave (km/s) = 0.28797 3.65911 2.59538
# Velocity P-wave (km/s) = 3.77479 6.15133 5.10333
#
# Compressibility (1/GPa) = 0.03356122
#
# Stress axis : x y z
#
# Youngs Moduli (GPa) = 111.60163 62.54160 70.02724
#
# Poissons Ratio (x) = 0.09271 0.13130
# Poissons Ratio (y) = 0.16543 -0.03662
# Poissons Ratio (z) = 0.20926 -0.03271
#
# Static dielectric constant tensor:
#      x y z
#    x 1.760020 0.000000 0.008190 
#    y 0.000000 1.710140 0.000000 
#    z 0.008190 0.000000 1.798700 
# 
# From -- ./inp_files/123462.got.cif
#   From: 2010.05.17/outbox.cif.g08.bks.cpg/sg12_62_cif.got.tgz:123462.got - 2010.06.03 13:09:07.
