data_PCOD9177781
_publ_section_title
;
Structure prediction by ZEFSAII (Michael W. Deem and Ramdas Pophale) SiO2 
 PCOD9177781
Probable space group: C 2/M
;
_chemical_formula_sum "Si O2"
_cell_formula_units_Z 64
_cell_length_a 27.822701
_cell_length_b 8.838350
_cell_length_c 24.658638
_cell_angle_alpha 90.000000
_cell_angle_beta 44.713975
_cell_angle_gamma 90.000000
_cell_volume 4266.243900
_symmetry_space_group_name_H-M "C 2/M"
_symmetry_group_IT_number 12
_symmetry_cell_setting 'monoclinic'
loop_
_space_group_symop_operation_xyz
x,y,z
-x,y,-z
-x,-y,-z
x,-y,z
1/2+x,1/2+y,z
1/2-x,1/2+y,-z
1/2-x,1/2-y,-z
1/2+x,1/2-y,z
loop_
_atom_site_type_symbol
_atom_site_label
_atom_site_fract_x
_atom_site_fract_y
_atom_site_fract_z
Si Si1 0.887101 0.315822 0.444134
Si Si2 0.929576 0.684951 0.529288
Si Si3 0.936223 0.825746 0.009004
Si Si4 0.783208 0.324111 0.683414
Si Si5 0.737868 0.323444 0.593810
Si Si6 0.957742 0.818317 0.161155
Si Si7 0.652528 0.178320 0.832989
Si Si8 0.092651 0.680071 0.690167
O O1 0.885827 0.500000 0.446286
O O2 0.920822 0.266245 0.473617
O O3 0.807166 0.270211 0.508840
O O4 0.922169 0.270708 0.359836
O O5 0.928692 0.500000 0.529615
O O6 0.861447 0.730478 0.616742
O O7 0.000000 0.734306 0.500000
O O8 0.971584 0.772238 0.925096
O O9 0.913758 0.000000 0.021459
O O10 0.878037 0.729793 0.084730
O O11 0.000000 0.825198 0.000000
O O12 0.782393 0.500000 0.701109
O O13 0.756334 0.319760 0.642834
O O14 0.729743 0.231850 0.761746
O O15 0.724008 0.500000 0.590977
O O16 0.671828 0.223774 0.636248
O O17 0.895232 0.755410 0.174845
O O18 0.949311 0.760121 0.228703
O O19 0.953916 0.000000 0.162329
O O20 0.646622 0.000000 0.831476
O O21 0.084227 0.500000 0.701302
#
# Coordination Sequence:
#
# PCOD9177781 Si02
#       8
#     8   8   8   8   8   8   8   8
#     4   8  16  27  38  58  83 107 138 177 214 243
#     4   8  14  27  47  66  83 107 141 178 213 249
#     4   8  16  29  42  54  74 108 144 175 206 241
#     4   9  16  26  42  62  84 110 141 176 209 243
#     4   9  16  27  40  52  77 114 143 169 203 241
#     4  10  19  30  41  54  78 114 149 175 204 242
#     4  11  19  26  40  61  84 108 139 176 209 247
#     4  11  19  25  37  58  85 111 140 176 207 240
#
# _framework density 15.001486999999999
#
# number of rings (size 3 to 8) (size 9 to 14) (size 15 to 20)
#    0.000    2.750    1.250    4.500    0.000    2.750 
#    0.000    0.625    0.000    1.125    0.000    0.000 
#    0.000    1.000    0.000    2.000    0.000    2.625 
#
# Total GULP energy -178233.634474 kJ/mol
# GULP energy per Si atom -5569.801077 kJ/mol
# Density = 1.496734 g / cm^3
# Si number density = 15.001487 Si / 1000 Ang^3
#
#
#
# Elastic Constant Matrix: (Units=GPa)
#
#
# Indices 1 2 3 4 5 6 
#
# 1 46.9196 13.8536 42.3189 0.0013 -4.6613 -0.0001
# 2 13.8536 39.6834 41.5438 0.0055 -1.4283 0.0039
# 3 42.3189 41.5438 148.8411 0.0012 6.6395 -0.0007
# 4 0.0013 0.0055 0.0012 5.6007 -0.0012 4.8477
# 5 -4.6613 -1.4283 6.6395 -0.0012 15.1332 0.0000
# 6 -0.0001 0.0039 -0.0007 4.8477 0.0000 6.4778
#
#
#
# Elastic Compliance Matrix: (Units=1/GPa)
#
#
# Indices 1 2 3 4 5 6 
#
# 1 0.031266 -0.000678 -0.009309 -0.000004 0.013651 0.000003
# 2 -0.000678 0.036561 -0.010359 -0.000033 0.007787 0.000001
# 3 -0.009309 -0.010359 0.012677 0.000003 -0.009407 0.000005
# 4 -0.000004 -0.000033 0.000003 0.506876 0.000036 -0.379322
# 5 0.013651 0.007787 -0.009407 0.000036 0.075147 -0.000033
# 6 0.000003 0.000001 0.000005 -0.379322 -0.000033 0.438240
#
#
# Mechanical properties :
#
#
# Convention : Reuss Voigt Hill
#
# Bulk Modulus (GPa) = 25.11903 47.87519 36.49711
# Shear Modulus (GPa) = 4.33002 14.62420 9.47711
#
# Velocity S-wave (km/s) = 1.70078 3.12565 2.51618
# Velocity P-wave (km/s) = 4.54286 6.70888 5.72917
#
# Compressibility (1/GPa) = 0.03981045
#
# Stress axis : x y z
#
# Youngs Moduli (GPa) = 31.98373 27.35120 78.88598
#
# Poissons Ratio (x) = 0.01854 0.73437
# Poissons Ratio (y) = 0.02168 0.81722
# Poissons Ratio (z) = 0.29775 0.28334
#
# Static dielectric constant tensor:
#      x y z
#    x 1.475720 0.000000 0.013380 
#    y 0.000000 1.504150 0.000000 
#    z 0.013380 0.000000 1.538050 
# 
# From -- ./inp_files/350944.got.cif
#   From: 2010.05.17/outbox.cif.g08.bks.cpg/sg12_176_cif.got.tgz:350944.got - 2010.06.03 13:09:07.
