data_PCOD9177528
_publ_section_title
;
Structure prediction by ZEFSAII (Michael W. Deem and Ramdas Pophale) SiO2 
 PCOD9177528
Probable space group: C 2/M
;
_chemical_formula_sum "Si O2"
_cell_formula_units_Z 56
_cell_length_a 27.379727
_cell_length_b 7.469533
_cell_length_c 14.148339
_cell_angle_alpha 90.000000
_cell_angle_beta 59.901275
_cell_angle_gamma 90.000000
_cell_volume 2503.374063
_symmetry_space_group_name_H-M "C 2/M"
_symmetry_group_IT_number 12
_symmetry_cell_setting 'monoclinic'
loop_
_space_group_symop_operation_xyz
x,y,z
-x,y,-z
-x,-y,-z
x,-y,z
1/2+x,1/2+y,z
1/2-x,1/2+y,-z
1/2-x,1/2-y,-z
1/2+x,1/2-y,z
loop_
_atom_site_type_symbol
_atom_site_label
_atom_site_fract_x
_atom_site_fract_y
_atom_site_fract_z
Si Si1 0.088038 0.781900 0.448678
Si Si2 0.983063 0.785908 0.662126
Si Si3 0.823591 0.787623 0.132864
Si Si4 0.217194 0.286429 0.130122
Si Si5 0.174247 0.202604 0.670832
Si Si6 0.886032 0.289461 0.879990
Si Si7 0.195326 0.218679 0.444639
O O1 0.057148 0.718557 0.384103
O O2 0.151965 0.725285 0.405218
O O3 0.046184 0.727426 0.575051
O O4 0.089243 0.000000 0.445149
O O5 0.950602 0.742688 0.789565
O O6 0.984180 0.000000 0.654181
O O7 0.761602 0.712917 0.163791
O O8 0.846176 0.714000 0.210641
O O9 0.816413 0.000000 0.154904
O O10 0.864522 0.771225 0.003102
O O11 0.213471 0.500000 0.149601
O O12 0.155242 0.213467 0.163293
O O13 0.250000 0.250000 0.000000
O O14 0.168401 0.277891 0.571377
O O15 0.242269 0.203795 0.619860
O O16 0.151922 0.000000 0.685824
O O17 0.876352 0.500000 0.889160
O O18 0.200166 0.000000 0.441355
#
# Coordination Sequence:
#
# PCOD9177528 Si02
#       7
#     8   8   8   8   8   8   8
#     4   8  16  31  50  69  90 119 156 192 225 267
#     4   9  17  31  49  68  90 121 157 188 225 273
#     4   9  17  30  45  62  89 125 155 181 218 271
#     4   8  15  26  38  55  83 115 145 174 209 255
#     4   9  18  30  47  71  96 121 152 186 225 273
#     4  10  19  29  43  67  94 119 149 190 231 270
#     4   9  17  31  49  70  94 120 151 190 230 268
#
# _framework density 22.369809
#
# number of rings (size 3 to 8) (size 9 to 14) (size 15 to 20)
#    0.000    3.143    0.000    1.286    2.000    1.143 
#    0.000    2.143    0.000    0.857    0.000    6.000 
#    0.000    0.000    0.000    0.000    0.000    0.000 
#
# Total GULP energy -156023.190153 kJ/mol
# GULP energy per Si atom -5572.256791 kJ/mol
# Density = 2.231889 g / cm^3
# Si number density = 22.369809 Si / 1000 Ang^3
#
#
#
# Elastic Constant Matrix: (Units=GPa)
#
#
# Indices 1 2 3 4 5 6 
#
# 1 34.3578 -3.6878 -3.2195 0.0000 -4.1885 0.0000
# 2 -3.6878 76.2760 -5.7358 -0.0001 4.1151 -0.0001
# 3 -3.2195 -5.7358 95.2972 0.0000 -5.9148 0.0000
# 4 0.0000 -0.0001 0.0000 3.1938 0.0000 -0.6583
# 5 -4.1885 4.1151 -5.9148 0.0000 32.0813 0.0000
# 6 0.0000 -0.0001 0.0000 -0.6583 0.0000 6.3140
#
#
#
# Elastic Compliance Matrix: (Units=1/GPa)
#
#
# Indices 1 2 3 4 5 6 
#
# 1 0.029858 0.001330 0.001335 0.000000 0.003974 0.000000
# 2 0.001330 0.013307 0.000759 0.000000 -0.001393 0.000000
# 3 0.001335 0.000759 0.010712 0.000000 0.002052 0.000000
# 4 0.000000 0.000000 0.000000 0.319983 0.000000 0.033360
# 5 0.003974 -0.001393 0.002052 0.000000 0.032247 0.000000
# 6 0.000000 0.000000 0.000000 0.033360 0.000000 0.161856
#
#
# Mechanical properties :
#
#
# Convention : Reuss Voigt Hill
#
# Bulk Modulus (GPa) = 16.46770 20.07163 18.26967
# Shear Modulus (GPa) = 8.60060 22.88943 15.74501
#
# Velocity S-wave (km/s) = 1.96293 3.20227 2.65590
# Velocity P-wave (km/s) = 3.53765 4.76076 4.19403
#
# Compressibility (1/GPa) = 0.06072493
#
# Stress axis : x y z
#
# Youngs Moduli (GPa) = 33.49217 75.14933 93.35621
#
# Poissons Ratio (x) = -0.09992 -0.12467
# Poissons Ratio (y) = -0.04453 -0.07089
# Poissons Ratio (z) = -0.04472 -0.05707
#
# Static dielectric constant tensor:
#      x y z
#    x 1.831670 0.000000 0.010130 
#    y 0.000000 1.842060 0.000000 
#    z 0.010130 0.000000 1.797870 
# 
# From -- ./inp_files/248162.got.cif
#   From: 2010.05.17/outbox.cif.g08.bks.cpg/sg12_125_cif.got.tgz:248162.got - 2010.06.03 13:09:07.
