data_PCOD9177458
_publ_section_title
;
Structure prediction by ZEFSAII (Michael W. Deem and Ramdas Pophale) SiO2 
 PCOD9177458
Probable space group: C 2/M
;
_chemical_formula_sum "Si O2"
_cell_formula_units_Z 64
_cell_length_a 31.051115
_cell_length_b 7.529483
_cell_length_c 15.628322
_cell_angle_alpha 90.000000
_cell_angle_beta 78.731672
_cell_angle_gamma 90.000000
_cell_volume 3583.447037
_symmetry_space_group_name_H-M "C 2/M"
_symmetry_group_IT_number 12
_symmetry_cell_setting 'monoclinic'
loop_
_space_group_symop_operation_xyz
x,y,z
-x,y,-z
-x,-y,-z
x,-y,z
1/2+x,1/2+y,z
1/2-x,1/2+y,-z
1/2-x,1/2-y,-z
1/2+x,1/2-y,z
loop_
_atom_site_type_symbol
_atom_site_label
_atom_site_fract_x
_atom_site_fract_y
_atom_site_fract_z
Si Si1 0.533450 0.782548 0.108956
Si Si2 0.952946 0.295251 0.709549
Si Si3 0.448091 0.708175 0.365600
Si Si4 0.193596 0.283709 0.449359
Si Si5 0.437131 0.786143 0.085737
Si Si6 0.096462 0.715425 0.437305
Si Si7 0.286579 0.706101 0.362063
Si Si8 0.875746 0.209612 0.260204
O O1 0.550385 0.717682 0.193772
O O2 0.482768 0.728177 0.112985
O O3 0.533173 0.000000 0.110976
O O4 0.560096 0.727995 0.014038
O O5 0.938544 0.500000 0.722235
O O6 0.925766 0.217360 0.641188
O O7 0.004438 0.292969 0.665665
O O8 0.454014 0.500000 0.344353
O O9 0.430467 0.728091 0.468473
O O10 0.411294 0.782136 0.314616
O O11 0.194785 0.500000 0.452497
O O12 0.147051 0.229679 0.428773
O O13 0.237117 0.219946 0.382514
O O14 0.197841 0.217858 0.545131
O O15 0.396410 0.728989 0.158775
O O16 0.437682 0.000000 0.085241
O O17 0.095241 0.500000 0.437293
O O18 0.281789 0.500000 0.338888
O O19 0.326944 0.784750 0.292657
O O20 0.872271 0.000000 0.281456
#
# Coordination Sequence:
#
# PCOD9177458 Si02
#       8
#     8   8   8   8   8   8   8   8
#     4   8  15  28  45  64  83 108 141 178 217 253
#     4  10  19  32  47  62  86 117 148 181 215 250
#     4  11  21  31  42  61  91 122 151 176 204 250
#     4   9  17  29  45  64  84 109 145 183 213 249
#     4   9  16  28  47  65  82 108 143 177 215 258
#     4  10  20  31  45  65  86 114 151 184 212 246
#     4   9  17  30  45  61  86 115 141 174 218 258
#     4  10  19  29  42  64  90 116 141 171 214 258
#
# _framework density 17.859897
#
# number of rings (size 3 to 8) (size 9 to 14) (size 15 to 20)
#    0.000    2.500    2.500    1.500    0.000    3.000 
#    0.000    1.875    0.000    0.000    0.000    0.875 
#    0.000    0.000    0.000    0.000    0.000    0.000 
#
# Total GULP energy -178456.604912 kJ/mol
# GULP energy per Si atom -5576.768903 kJ/mol
# Density = 1.781925 g / cm^3
# Si number density = 17.859897 Si / 1000 Ang^3
#
#
#
# Elastic Constant Matrix: (Units=GPa)
#
#
# Indices 1 2 3 4 5 6 
#
# 1 64.9560 -9.5498 53.7972 0.0000 -9.0858 0.0000
# 2 -9.5498 44.4778 -11.0229 0.0000 3.0901 0.0000
# 3 53.7972 -11.0229 124.5840 0.0000 -8.8392 0.0000
# 4 0.0000 0.0000 0.0000 5.8759 0.0000 -5.2377
# 5 -9.0858 3.0901 -8.8392 0.0000 28.7362 0.0000
# 6 0.0000 0.0000 0.0000 -5.2377 0.0000 5.5657
#
#
#
# Elastic Compliance Matrix: (Units=1/GPa)
#
#
# Indices 1 2 3 4 5 6 
#
# 1 0.024814 0.002496 -0.010179 0.000000 0.004446 0.000000
# 2 0.002496 0.023339 0.000884 0.000000 -0.001448 0.000000
# 3 -0.010179 0.000884 0.012539 0.000000 0.000544 0.000000
# 4 0.000000 0.000000 0.000000 1.056020 0.000000 0.993787
# 5 0.004446 -0.001448 0.000544 0.000000 0.036528 0.000000
# 6 0.000000 0.000000 0.000000 0.993787 0.000000 1.114895
#
#
# Mechanical properties :
#
#
# Convention : Reuss Voigt Hill
#
# Bulk Modulus (GPa) = 21.23346 33.38520 27.30933
# Shear Modulus (GPa) = 2.17634 21.42178 11.79906
#
# Velocity S-wave (km/s) = 1.10508 3.46704 2.57309
# Velocity P-wave (km/s) = 3.68008 5.89581 4.91445
#
# Compressibility (1/GPa) = 0.04709548
#
# Stress axis : x y z
#
# Youngs Moduli (GPa) = 40.29956 42.84696 79.75197
#
# Poissons Ratio (x) = -0.10696 0.81178
# Poissons Ratio (y) = -0.10060 -0.07052
# Poissons Ratio (z) = 0.41020 -0.03789
#
# Static dielectric constant tensor:
#      x y z
#    x 1.615390 0.000000 -0.009080 
#    y 0.000000 1.693000 0.000000 
#    z -0.009080 0.000000 1.608130 
# 
# From -- ./inp_files/248317.got.cif
#   From: 2010.05.17/outbox.cif.g08.bks.cpg/sg12_125_cif.got.tgz:248317.got - 2010.06.03 13:09:07.
