data_PCOD9177006
_publ_section_title
;
Structure prediction by ZEFSAII (Michael W. Deem and Ramdas Pophale) SiO2 
 PCOD9177006
Probable space group: C 2/M
;
_chemical_formula_sum "Si O2"
_cell_formula_units_Z 48
_cell_length_a 10.065403
_cell_length_b 26.318752
_cell_length_c 9.076827
_cell_angle_alpha 90.000000
_cell_angle_beta 96.792539
_cell_angle_gamma 90.000000
_cell_volume 2387.654155
_symmetry_space_group_name_H-M "C 2/M"
_symmetry_group_IT_number 12
_symmetry_cell_setting 'monoclinic'
loop_
_space_group_symop_operation_xyz
x,y,z
-x,y,-z
-x,-y,-z
x,-y,z
1/2+x,1/2+y,z
1/2-x,1/2+y,-z
1/2-x,1/2-y,-z
1/2+x,1/2-y,z
loop_
_atom_site_type_symbol
_atom_site_label
_atom_site_fract_x
_atom_site_fract_y
_atom_site_fract_z
Si Si1 0.651211 0.055801 0.957942
Si Si2 0.368669 0.632063 0.537865
Si Si3 0.393719 0.913092 0.378802
Si Si4 0.219617 0.665555 0.048803
Si Si5 0.973381 0.688654 0.234445
Si Si6 0.555830 0.302905 0.719472
O O1 0.639330 0.060266 0.779794
O O2 0.703195 0.000000 0.005807
O O3 0.500000 0.060596 0.000000
O O4 0.728375 0.104599 0.030428
O O5 0.500000 0.601497 0.500000
O O6 0.241329 0.599319 0.552107
O O7 0.357188 0.673908 0.405543
O O8 0.421012 0.663535 0.686807
O O9 0.500000 0.939044 0.500000
O O10 0.456403 0.858683 0.339747
O O11 0.358991 0.687991 0.122688
O O12 0.104877 0.678813 0.153459
O O13 0.156365 0.686501 0.889963
O O14 0.976440 0.744136 0.304584
#
# Coordination Sequence:
#
# PCOD9177006 Si02
#       6
#     8   8   8   8   8   8
#     4  10  21  40  62  89 117 145 198 264 315 352
#     4   8  22  36  50  83 117 161 197 231 286 348
#     4  11  21  36  62  86 116 156 198 249 294 359
#     4  10  18  37  53  82 116 159 194 246 297 346
#     4  10  20  30  52  84 115 153 203 234 278 352
#     4   9  20  34  52  75 123 163 192 230 287 346
#
# _framework density 20.103414000000001
#
# number of rings (size 3 to 8) (size 9 to 14) (size 15 to 20)
#    1.000    1.167    3.333    1.500    4.667    1.000 
#    3.000    0.000    0.000    2.500    0.000    0.000 
#    0.000    0.000    0.000    0.000    0.000    0.000 
#
# Total GULP energy -133762.751547 kJ/mol
# GULP energy per Si atom -5573.447981 kJ/mol
# Density = 2.005766 g / cm^3
# Si number density = 20.103414 Si / 1000 Ang^3
#
#
#
# Elastic Constant Matrix: (Units=GPa)
#
#
# Indices 1 2 3 4 5 6 
#
# 1 50.5188 12.0248 16.4048 0.0000 -5.6650 0.0000
# 2 12.0248 88.5545 -1.3052 0.0000 -3.0412 0.0000
# 3 16.4048 -1.3052 57.4905 0.0000 3.0453 0.0000
# 4 0.0000 0.0000 0.0000 -4.5298 0.0000 1.4073
# 5 -5.6650 -3.0412 3.0453 0.0000 38.0823 0.0000
# 6 0.0000 0.0000 0.0000 1.4073 0.0000 -1.0048
#
#
#
# Elastic Compliance Matrix: (Units=1/GPa)
#
#
# Indices 1 2 3 4 5 6 
#
# 1 0.023195 -0.003122 -0.006888 0.000000 0.003752 0.000000
# 2 -0.003122 0.011746 0.001137 0.000000 0.000383 0.000000
# 3 -0.006888 0.001137 0.019518 0.000000 -0.002495 0.000000
# 4 0.000000 0.000000 0.000000 -0.390807 0.000000 -0.547341
# 5 0.003752 0.000383 -0.002495 0.000000 0.027047 0.000000
# 6 0.000000 0.000000 0.000000 -0.547341 0.000000 -1.761762
#
#
# Mechanical properties :
#
#
# Convention : Reuss Voigt Hill
#
# Bulk Modulus (GPa) = 27.23852 27.86807 27.55330
# Shear Modulus (GPa) = -2.44969 17.80549 7.67790
#
# Velocity S-wave (km/s) = -1.10507 2.97929 1.95640
# Velocity P-wave (km/s) = 3.45693 5.07221 4.34038
#
# Compressibility (1/GPa) = 0.03671271
#
# Stress axis : x y z
#
# Youngs Moduli (GPa) = 43.11199 85.13266 51.23546
#
# Poissons Ratio (x) = 0.26582 0.35293
# Poissons Ratio (y) = 0.13461 -0.05827
# Poissons Ratio (z) = 0.29697 -0.09683
#
# Static dielectric constant tensor:
#      x y z
#    x 1.712400 0.000000 0.003470 
#    y 0.000000 1.684880 0.000000 
#    z 0.003470 0.000000 1.771590 
# 
# From -- ./inp_files/52048.got.cif
#   From: 2010.05.17/outbox.cif.g08.bks.cpg/sg12_27_cif.got.tgz:52048.got - 2010.06.03 13:09:07.
