data_PCOD9177846
_publ_section_title
;
Structure prediction by ZEFSAII (Michael W. Deem and Ramdas Pophale) SiO2 
 PCOD9177846
Probable space group: C 2/M
;
_chemical_formula_sum "Si O2"
_cell_formula_units_Z 48
_cell_length_a 24.763647
_cell_length_b 7.613545
_cell_length_c 15.907838
_cell_angle_alpha 90.000000
_cell_angle_beta 62.621268
_cell_angle_gamma 90.000000
_cell_volume 2663.292552
_symmetry_space_group_name_H-M "C 2/M"
_symmetry_group_IT_number 12
_symmetry_cell_setting 'monoclinic'
loop_
_space_group_symop_operation_xyz
x,y,z
-x,y,-z
-x,-y,-z
x,-y,z
1/2+x,1/2+y,z
1/2-x,1/2+y,-z
1/2-x,1/2-y,-z
1/2+x,1/2-y,z
loop_
_atom_site_type_symbol
_atom_site_label
_atom_site_fract_x
_atom_site_fract_y
_atom_site_fract_z
Si Si1 0.065922 0.203650 0.434542
Si Si2 0.297102 0.291293 0.165595
Si Si3 0.338128 0.793418 0.499448
Si Si4 0.679446 0.289424 0.030449
Si Si5 0.343804 0.713505 0.772391
Si Si6 0.703502 0.287384 0.649237
O O1 0.107492 0.209611 0.487722
O O2 0.106715 0.279109 0.329616
O O3 0.000000 0.283744 0.500000
O O4 0.055445 0.000000 0.418544
O O5 0.308452 0.500000 0.158639
O O6 0.224289 0.267239 0.206455
O O7 0.314254 0.222786 0.245423
O O8 0.329254 0.219820 0.058086
O O9 0.337804 0.766219 0.399662
O O10 0.272397 0.725944 0.578966
O O11 0.340413 0.000000 0.515656
O O12 0.671652 0.500000 0.032850
O O13 0.645507 0.226836 0.138863
O O14 0.750000 0.250000 0.000000
O O15 0.343687 0.500000 0.771648
O O16 0.705027 0.500000 0.649246
#
# Coordination Sequence:
#
# PCOD9177846 Si02
#       6
#     8   8   8   8   8   8
#     4  10  20  32  45  61  85 118 150 179 212 248
#     4   9  15  25  41  62  87 112 136 164 208 258
#     4  10  19  30  44  63  85 112 145 179 213 251
#     4   8  14  23  37  58  83 109 135 166 204 250
#     4   9  16  26  40  59  84 112 142 174 207 245
#     4   9  17  28  43  63  88 115 138 167 213 262
#
# _framework density 18.022804000000001
#
# number of rings (size 3 to 8) (size 9 to 14) (size 15 to 20)
#    0.000    2.833    1.667    0.500    0.000    1.667 
#    0.000    0.000    0.000    0.000    0.000    1.167 
#    0.000    9.333    0.000    0.000    0.000    0.000 
#
# Total GULP energy -133636.000710 kJ/mol
# GULP energy per Si atom -5568.166696 kJ/mol
# Density = 1.798178 g / cm^3
# Si number density = 18.022804 Si / 1000 Ang^3
#
#
#
# Elastic Constant Matrix: (Units=GPa)
#
#
# Indices 1 2 3 4 5 6 
#
# 1 55.1072 -5.5392 54.4215 0.0000 3.1176 0.0000
# 2 -5.5392 37.6404 -3.1722 -0.0001 0.3469 -0.0001
# 3 54.4215 -3.1722 167.0348 0.0000 30.7854 0.0000
# 4 0.0000 -0.0001 0.0000 7.0568 0.0000 1.2107
# 5 3.1176 0.3469 30.7854 0.0000 21.2513 0.0000
# 6 0.0000 -0.0001 0.0000 1.2107 0.0000 8.3960
#
#
#
# Elastic Compliance Matrix: (Units=1/GPa)
#
#
# Indices 1 2 3 4 5 6 
#
# 1 0.029531 0.003221 -0.011940 0.000000 0.012912 0.000000
# 2 0.003221 0.027001 -0.000502 0.000000 -0.000185 0.000000
# 3 -0.011940 -0.000502 0.013019 0.000000 -0.017100 0.000000
# 4 0.000000 0.000000 0.000000 0.145302 0.000000 -0.020953
# 5 0.012912 -0.000185 -0.017100 0.000000 0.069936 0.000000
# 6 0.000000 0.000000 0.000000 -0.020953 0.000000 0.122126
#
#
# Mechanical properties :
#
#
# Convention : Reuss Voigt Hill
#
# Bulk Modulus (GPa) = 19.56675 39.02251 29.29463
# Shear Modulus (GPa) = 11.30212 21.61231 16.45722
#
# Velocity S-wave (km/s) = 2.50692 3.46665 3.02509
# Velocity P-wave (km/s) = 4.38859 6.14185 5.33770
#
# Compressibility (1/GPa) = 0.05110712
#
# Stress axis : x y z
#
# Youngs Moduli (GPa) = 33.86234 37.03628 76.81027
#
# Poissons Ratio (x) = -0.11928 0.91713
# Poissons Ratio (y) = -0.10906 0.03859
# Poissons Ratio (z) = 0.40432 0.01861
#
# Static dielectric constant tensor:
#      x y z
#    x 1.571110 0.000000 0.022970 
#    y 0.000000 1.654820 0.000000 
#    z 0.022970 0.000000 1.699600 
# 
# From -- ./inp_files/236622.got.cif
#   From: 2010.05.17/outbox.cif.g08.bks.cpg/sg12_119_cif.got.tgz:236622.got - 2010.06.03 13:09:07.
