data_PCOD9177987
_publ_section_title
;
Structure prediction by ZEFSAII (Michael W. Deem and Ramdas Pophale) SiO2 
 PCOD9177987
Probable space group: C 2/M
;
_chemical_formula_sum "Si O2"
_cell_formula_units_Z 56
_cell_length_a 23.677295
_cell_length_b 16.589724
_cell_length_c 7.977326
_cell_angle_alpha 90.000000
_cell_angle_beta 84.681997
_cell_angle_gamma 90.000000
_cell_volume 3120.004246
_symmetry_space_group_name_H-M "C 2/M"
_symmetry_group_IT_number 12
_symmetry_cell_setting 'monoclinic'
loop_
_space_group_symop_operation_xyz
x,y,z
-x,y,-z
-x,-y,-z
x,-y,z
1/2+x,1/2+y,z
1/2-x,1/2+y,-z
1/2-x,1/2-y,-z
1/2+x,1/2-y,z
loop_
_atom_site_type_symbol
_atom_site_label
_atom_site_fract_x
_atom_site_fract_y
_atom_site_fract_z
Si Si1 0.777016 0.405971 0.058277
Si Si2 0.269295 0.312562 0.636208
Si Si3 0.947593 0.776132 0.607252
Si Si4 0.848327 0.131117 0.052943
Si Si5 0.648223 0.786175 0.143055
Si Si6 0.868114 0.094556 0.437255
Si Si7 0.538488 0.414299 0.153362
O O1 0.784012 0.500000 0.084220
O O2 0.775960 0.357368 0.234107
O O3 0.715236 0.391658 0.987010
O O4 0.825614 0.368853 0.927371
O O5 0.250000 0.250000 0.500000
O O6 0.305254 0.258903 0.755845
O O7 0.309223 0.380778 0.543377
O O8 0.907156 0.717537 0.724971
O O9 0.910802 0.837640 0.500597
O O10 0.974714 0.838660 0.730766
O O11 0.000000 0.735534 0.500000
O O12 0.860499 0.106946 0.240115
O O13 0.858133 0.225908 0.013805
O O14 0.895738 0.090930 0.920285
O O15 0.882204 0.000000 0.464957
O O16 0.527695 0.500000 0.241978
O O17 0.500000 0.411571 0.000000
#
# Coordination Sequence:
#
# PCOD9177987 Si02
#       7
#     8   8   8   8   8   8   8
#     4  11  20  33  53  75  99 129 168 207 245 293
#     4  10  19  32  49  72 104 135 163 196 242 293
#     4  10  21  34  48  68  96 130 170 211 256 301
#     4  10  19  32  49  71 103 141 171 196 239 293
#     4   9  20  35  51  69  95 131 166 203 246 299
#     4  11  20  29  46  74 105 135 169 207 246 288
#     4  10  19  30  45  68 100 136 173 207 238 283
#
# _framework density 17.948694
#
# number of rings (size 3 to 8) (size 9 to 14) (size 15 to 20)
#    0.000    1.857    0.000    7.286    0.000    2.286 
#    0.000    0.714    0.000    0.429    0.000    0.000 
#    0.000   33.143    0.000    0.000    0.000    6.857 
#
# Total GULP energy -156162.066114 kJ/mol
# GULP energy per Si atom -5577.216647 kJ/mol
# Density = 1.790784 g / cm^3
# Si number density = 17.948694 Si / 1000 Ang^3
#
#
#
# Elastic Constant Matrix: (Units=GPa)
#
#
# Indices 1 2 3 4 5 6 
#
# 1 65.1961 38.2447 27.7368 0.0000 -23.3197 0.0000
# 2 38.2447 63.3196 35.3582 0.0000 -19.9671 0.0000
# 3 27.7368 35.3582 85.2250 0.0000 -17.6193 0.0000
# 4 0.0000 0.0000 0.0000 -6.9796 0.0000 -3.5074
# 5 -23.3197 -19.9671 -17.6193 0.0000 38.5521 0.0000
# 6 0.0000 0.0000 0.0000 -3.5074 0.0000 -8.6088
#
#
#
# Elastic Compliance Matrix: (Units=1/GPa)
#
#
# Indices 1 2 3 4 5 6 
#
# 1 0.026384 -0.012193 -0.001695 0.000000 0.008870 0.000000
# 2 -0.012193 0.028330 -0.006932 0.000000 0.004130 0.000000
# 3 -0.001695 -0.006932 0.015689 0.000000 0.002555 0.000000
# 4 0.000000 0.000000 0.000000 -0.180161 0.000000 0.073401
# 5 0.008870 0.004130 0.002555 0.000000 0.034611 0.000000
# 6 0.000000 0.000000 0.000000 0.073401 0.000000 -0.146066
#
#
# Mechanical properties :
#
#
# Convention : Reuss Voigt Hill
#
# Bulk Modulus (GPa) = 34.76331 46.26891 40.51611
# Shear Modulus (GPa) = -29.41438 12.08614 -8.66412
#
# Velocity S-wave (km/s) = -4.05261 2.59776 -2.19946
# Velocity P-wave (km/s) = 1.57732 5.90188 4.02146
#
# Compressibility (1/GPa) = 0.02876596
#
# Stress axis : x y z
#
# Youngs Moduli (GPa) = 37.90129 35.29802 63.73783
#
# Poissons Ratio (x) = 0.43037 0.10801
# Poissons Ratio (y) = 0.46211 0.44181
# Poissons Ratio (z) = 0.06423 0.24468
#
# Static dielectric constant tensor:
#      x y z
#    x 1.654170 0.000000 -0.012940 
#    y 0.000000 1.610190 0.000000 
#    z -0.012940 0.000000 1.646960 
# 
# From -- ./inp_files/97330.got.cif
#   From: 2010.05.17/outbox.cif.g08.bks.cpg/sg12_49_cif.got.tgz:97330.got - 2010.06.03 13:09:07.
