data_PCOD9177283
_publ_section_title
;
Structure prediction by ZEFSAII (Michael W. Deem and Ramdas Pophale) SiO2 
 PCOD9177283
Probable space group: C 2/M
;
_chemical_formula_sum "Si O2"
_cell_formula_units_Z 64
_cell_length_a 25.327831
_cell_length_b 7.292111
_cell_length_c 17.071846
_cell_angle_alpha 90.000000
_cell_angle_beta 87.917708
_cell_angle_gamma 90.000000
_cell_volume 3150.974461
_symmetry_space_group_name_H-M "C 2/M"
_symmetry_group_IT_number 12
_symmetry_cell_setting 'monoclinic'
loop_
_space_group_symop_operation_xyz
x,y,z
-x,y,-z
-x,-y,-z
x,-y,z
1/2+x,1/2+y,z
1/2-x,1/2+y,-z
1/2-x,1/2-y,-z
1/2+x,1/2-y,z
loop_
_atom_site_type_symbol
_atom_site_label
_atom_site_fract_x
_atom_site_fract_y
_atom_site_fract_z
Si Si1 0.144223 0.223065 0.302604
Si Si2 0.765176 0.779566 0.814249
Si Si3 0.463334 0.277152 0.388390
Si Si4 0.049620 0.775453 0.788688
Si Si5 0.659868 0.723321 0.049717
Si Si6 0.066975 0.222266 0.165869
Si Si7 0.921532 0.777036 0.552577
Si Si8 0.651810 0.714356 0.874754
O O1 0.199304 0.283013 0.261022
O O2 0.098636 0.275268 0.242764
O O3 0.126241 0.284020 0.389423
O O4 0.145069 0.000000 0.303688
O O5 0.794552 0.716126 0.892445
O O6 0.704274 0.728400 0.819990
O O7 0.767565 0.000000 0.814402
O O8 0.463051 0.500000 0.387539
O O9 0.448854 0.217337 0.302198
O O10 0.425895 0.218156 0.462154
O O11 0.523092 0.224923 0.408948
O O12 0.100064 0.711304 0.834817
O O13 0.993421 0.717728 0.827910
O O14 0.049946 0.000000 0.788294
O O15 0.662188 0.500000 0.050004
O O16 0.603840 0.776967 0.091363
O O17 0.664151 0.789279 0.960714
O O18 0.066212 0.000000 0.165747
O O19 0.920686 0.000000 0.551826
O O20 0.640707 0.500000 0.887778
#
# Coordination Sequence:
#
# PCOD9177283 Si02
#       8
#     8   8   8   8   8   8   8   8
#     4   8  12  20  36  56  75  96 127 166 199 225
#     4   9  17  29  44  58  74 101 138 172 196 220
#     4   8  12  17  28  50  80 107 124 146 190 241
#     4   9  15  22  33  52  82 110 126 149 193 245
#     4   8  15  26  40  58  77  98 130 170 201 227
#     4   8  12  20  34  53  78 101 122 156 200 236
#     4   8  11  16  30  52  77 102 126 153 190 234
#     4  10  19  28  39  58  82 107 133 159 193 236
#
# _framework density 20.311176
#
# number of rings (size 3 to 8) (size 9 to 14) (size 15 to 20)
#    0.000    3.500    1.250    2.625    0.000    0.500 
#    0.000    2.500    0.000    0.750    0.000    5.250 
#    0.000    0.000    0.000    2.750    0.000    2.500 
#
# Total GULP energy -178440.263040 kJ/mol
# GULP energy per Si atom -5576.258220 kJ/mol
# Density = 2.026495 g / cm^3
# Si number density = 20.311176 Si / 1000 Ang^3
#
#
#
# Elastic Constant Matrix: (Units=GPa)
#
#
# Indices 1 2 3 4 5 6 
#
# 1 101.6281 -6.9651 20.3248 0.0000 -21.0966 0.0000
# 2 -6.9651 82.5987 -3.8413 0.0000 3.8780 0.0000
# 3 20.3248 -3.8413 51.6517 0.0000 -25.8221 0.0000
# 4 0.0000 0.0000 0.0000 -13.7718 0.0000 -7.6156
# 5 -21.0966 3.8780 -25.8221 0.0000 24.1957 0.0000
# 6 0.0000 0.0000 0.0000 -7.6156 0.0000 -4.8440
#
#
#
# Elastic Compliance Matrix: (Units=1/GPa)
#
#
# Indices 1 2 3 4 5 6 
#
# 1 0.012066 0.000524 0.001090 0.000000 0.011600 0.000000
# 2 0.000524 0.012222 -0.000103 0.000000 -0.001613 0.000000
# 3 0.001090 -0.000103 0.041605 0.000000 0.045368 0.000000
# 4 0.000000 0.000000 0.000000 -0.555921 0.000000 0.873996
# 5 0.011600 -0.001613 0.045368 0.000000 0.100120 0.000000
# 6 0.000000 0.000000 0.000000 0.873996 0.000000 -1.580500
#
#
# Mechanical properties :
#
#
# Convention : Reuss Voigt Hill
#
# Bulk Modulus (GPa) = 14.51110 28.32393 21.41751
# Shear Modulus (GPa) = -2.56350 16.20664 6.82157
#
# Velocity S-wave (km/s) = -1.12466 2.82781 1.83462
# Velocity P-wave (km/s) = 2.33954 4.96359 3.88012
#
# Compressibility (1/GPa) = 0.06891278
#
# Stress axis : x y z
#
# Youngs Moduli (GPa) = 82.88025 81.82108 24.03580
#
# Poissons Ratio (x) = -0.04283 -0.02620
# Poissons Ratio (y) = -0.04339 0.00248
# Poissons Ratio (z) = -0.09035 0.00845
#
# Static dielectric constant tensor:
#      x y z
#    x 1.683490 0.000000 -0.027500 
#    y 0.000000 1.828590 0.000000 
#    z -0.027500 0.000000 1.722780 
# 
# From -- ./inp_files/282556.got.cif
#   From: 2010.05.17/outbox.cif.g08.bks.cpg/sg12_142_cif.got.tgz:282556.got - 2010.06.03 13:09:07.
