data_PCOD9177064
_publ_section_title
;
Structure prediction by ZEFSAII (Michael W. Deem and Ramdas Pophale) SiO2 
 PCOD9177064
Probable space group: C 2/M
;
_chemical_formula_sum "Si O2"
_cell_formula_units_Z 56
_cell_length_a 27.638702
_cell_length_b 16.315328
_cell_length_c 9.121582
_cell_angle_alpha 90.000000
_cell_angle_beta 49.783667
_cell_angle_gamma 90.000000
_cell_volume 3140.916305
_symmetry_space_group_name_H-M "C 2/M"
_symmetry_group_IT_number 12
_symmetry_cell_setting 'monoclinic'
loop_
_space_group_symop_operation_xyz
x,y,z
-x,y,-z
-x,-y,-z
x,-y,z
1/2+x,1/2+y,z
1/2-x,1/2+y,-z
1/2-x,1/2-y,-z
1/2+x,1/2-y,z
loop_
_atom_site_type_symbol
_atom_site_label
_atom_site_fract_x
_atom_site_fract_y
_atom_site_fract_z
Si Si1 0.386094 0.725554 0.976555
Si Si2 0.662341 0.907938 0.453499
Si Si3 0.875215 0.844408 0.444881
Si Si4 0.278951 0.661996 0.389640
Si Si5 0.007782 0.091826 0.161279
Si Si6 0.178179 0.260162 0.196244
Si Si7 0.574071 0.816060 0.828933
O O1 0.325448 0.678977 0.162662
O O2 0.396472 0.800938 0.068327
O O3 0.445716 0.663320 0.873101
O O4 0.369190 0.754849 0.848222
O O5 0.721789 0.892340 0.444741
O O6 0.668994 0.842501 0.309443
O O7 0.602363 0.887386 0.673915
O O8 0.660894 0.000000 0.401551
O O9 0.822639 0.875217 0.432595
O O10 0.839806 0.812630 0.657170
O O11 0.905834 0.765623 0.300802
O O12 0.936054 0.899203 0.359982
O O13 0.250000 0.750000 0.500000
O O14 0.032403 0.000000 0.143696
O O15 0.000000 0.099874 0.000000
O O16 0.250000 0.250000 0.000000
O O17 0.500000 0.821486 0.000000
#
# Coordination Sequence:
#
# PCOD9177064 Si02
#       7
#     8   8   8   8   8   8   8
#     4  11  19  35  61  86 113 161 202 227 289 353
#     4  11  24  39  60  89 118 149 194 255 300 332
#     4  10  19  35  58  88 118 157 199 232 286 349
#     4  11  17  34  62  86 112 150 205 240 275 353
#     4  11  21  36  59  94 127 150 195 254 294 340
#     4  11  22  38  60  82 117 162 197 235 283 360
#     4  10  18  37  63  85 110 149 203 242 279 354
#
# _framework density 17.829194000000001
#
# number of rings (size 3 to 8) (size 9 to 14) (size 15 to 20)
#    0.000    1.286   10.000    0.000    0.000    2.000 
#    0.000    2.857    0.000    0.857    0.000    0.000 
#    0.000    0.000    0.000    0.000    0.000    0.000 
#
# Total GULP energy -156153.485837 kJ/mol
# GULP energy per Si atom -5576.910208 kJ/mol
# Density = 1.778861 g / cm^3
# Si number density = 17.829194 Si / 1000 Ang^3
#
#
#
# Elastic Constant Matrix: (Units=GPa)
#
#
# Indices 1 2 3 4 5 6 
#
# 1 96.2403 29.7016 52.6273 0.0000 3.2516 0.0000
# 2 29.7016 66.8395 22.9971 0.0000 9.8527 0.0000
# 3 52.6273 22.9971 115.0374 0.0000 -1.8339 0.0000
# 4 0.0000 0.0000 0.0000 11.0293 0.0000 -0.1529
# 5 3.2516 9.8527 -1.8339 0.0000 31.1921 0.0000
# 6 0.0000 0.0000 0.0000 -0.1529 0.0000 16.3926
#
#
#
# Elastic Compliance Matrix: (Units=1/GPa)
#
#
# Indices 1 2 3 4 5 6 
#
# 1 0.015100 -0.004574 -0.006001 0.000000 -0.000482 0.000000
# 2 -0.004574 0.018366 -0.001665 0.000000 -0.005422 0.000000
# 3 -0.006001 -0.001665 0.011801 0.000000 0.001845 0.000000
# 4 0.000000 0.000000 0.000000 0.090679 0.000000 0.000846
# 5 -0.000482 -0.005422 0.001845 0.000000 0.033931 0.000000
# 6 0.000000 0.000000 0.000000 0.000846 0.000000 0.061011
#
#
# Mechanical properties :
#
#
# Convention : Reuss Voigt Hill
#
# Bulk Modulus (GPa) = 48.11115 54.30771 51.20943
# Shear Modulus (GPa) = 19.06225 23.24224 21.15224
#
# Velocity S-wave (km/s) = 3.27335 3.61446 3.44813
# Velocity P-wave (km/s) = 6.42880 6.92425 6.68112
#
# Compressibility (1/GPa) = 0.02078520
#
# Stress axis : x y z
#
# Youngs Moduli (GPa) = 66.22342 54.44788 84.74080
#
# Poissons Ratio (x) = 0.24906 0.50856
# Poissons Ratio (y) = 0.30292 0.14113
# Poissons Ratio (z) = 0.39743 0.09068
#
# Static dielectric constant tensor:
#      x y z
#    x 1.631960 0.000000 -0.016430 
#    y 0.000000 1.623710 0.000000 
#    z -0.016430 0.000000 1.614480 
# 
# From -- ./inp_files/105545.got.cif
#   From: 2010.05.17/outbox.cif.g08.bks.cpg/sg12_53_cif.got.tgz:105545.got - 2010.06.03 13:09:07.
