data_PCOD9177356
_publ_section_title
;
Structure prediction by ZEFSAII (Michael W. Deem and Ramdas Pophale) SiO2 
 PCOD9177356
Probable space group: C 2/M
;
_chemical_formula_sum "Si O2"
_cell_formula_units_Z 56
_cell_length_a 19.991676
_cell_length_b 7.696151
_cell_length_c 22.235305
_cell_angle_alpha 90.000000
_cell_angle_beta 56.357224
_cell_angle_gamma 90.000000
_cell_volume 2848.093328
_symmetry_space_group_name_H-M "C 2/M"
_symmetry_group_IT_number 12
_symmetry_cell_setting 'monoclinic'
loop_
_space_group_symop_operation_xyz
x,y,z
-x,y,-z
-x,-y,-z
x,-y,z
1/2+x,1/2+y,z
1/2-x,1/2+y,-z
1/2-x,1/2-y,-z
1/2+x,1/2-y,z
loop_
_atom_site_type_symbol
_atom_site_label
_atom_site_fract_x
_atom_site_fract_y
_atom_site_fract_z
Si Si1 0.783175 0.209716 0.794973
Si Si2 0.460736 0.287760 0.684227
Si Si3 0.310440 0.291461 0.916617
Si Si4 0.513044 0.288457 0.190037
Si Si5 0.768683 0.296397 0.405543
Si Si6 0.384213 0.299799 0.453109
Si Si7 0.160822 0.794963 0.755119
O O1 0.868278 0.267153 0.723424
O O2 0.782223 0.270694 0.864675
O O3 0.708109 0.264319 0.792802
O O4 0.784833 0.000000 0.794880
O O5 0.462204 0.500000 0.681280
O O6 0.485765 0.240294 0.739958
O O7 0.528291 0.222607 0.604405
O O8 0.314432 0.500000 0.910618
O O9 0.402223 0.228741 0.879811
O O10 0.250000 0.250000 0.000000
O O11 0.513535 0.500000 0.187499
O O12 0.430623 0.227348 0.201160
O O13 0.770409 0.500000 0.421795
O O14 0.680520 0.226142 0.467533
O O15 0.835570 0.206654 0.414015
O O16 0.790322 0.281344 0.325391
O O17 0.397679 0.500000 0.464224
O O18 0.157101 0.000000 0.745733
#
# Coordination Sequence:
#
# PCOD9177356 Si02
#       7
#     8   8   8   8   8   8   8
#     4   9  19  34  53  75 101 130 163 206 251 290
#     4   8  13  28  52  71  90 126 173 212 240 286
#     4   9  18  35  58  80 101 127 160 201 243 291
#     4   8  15  29  52  75  94 127 171 203 233 285
#     4  10  19  28  44  73 104 130 163 214 261 294
#     4   9  16  29  49  71  95 130 175 212 249 297
#     4  11  20  33  52  72 100 136 171 206 246 298
#
# _framework density 19.662277
#
# number of rings (size 3 to 8) (size 9 to 14) (size 15 to 20)
#    0.000    2.857    1.429    2.571    0.000    1.143 
#    0.000    3.571    0.000    8.571    0.000    0.000 
#    0.000    0.000    0.000    0.000    0.000    0.000 
#
# Total GULP energy -156062.732707 kJ/mol
# GULP energy per Si atom -5573.669025 kJ/mol
# Density = 1.961752 g / cm^3
# Si number density = 19.662277 Si / 1000 Ang^3
#
#
#
# Elastic Constant Matrix: (Units=GPa)
#
#
# Indices 1 2 3 4 5 6 
#
# 1 135.5728 0.2472 65.1238 -0.0003 -19.7531 -0.0002
# 2 0.2472 35.8074 1.1844 -0.0008 -2.7071 -0.0023
# 3 65.1238 1.1844 132.7685 0.0001 -29.0433 0.0002
# 4 -0.0003 -0.0008 0.0001 18.5059 0.0001 2.0358
# 5 -19.7531 -2.7071 -29.0433 0.0001 25.0428 -0.0002
# 6 -0.0002 -0.0023 0.0002 2.0358 -0.0002 18.5585
#
#
#
# Elastic Compliance Matrix: (Units=1/GPa)
#
#
# Indices 1 2 3 4 5 6 
#
# 1 0.009806 0.000292 -0.004172 0.000000 0.002928 0.000000
# 2 0.000292 0.028197 0.000432 0.000001 0.003779 0.000003
# 3 -0.004172 0.000432 0.011878 0.000000 0.010532 0.000000
# 4 0.000000 0.000001 0.000000 0.054697 0.000000 -0.006000
# 5 0.002928 0.003779 0.010532 0.000000 0.054864 0.000001
# 6 0.000000 0.000003 0.000000 -0.006000 0.000001 0.054542
#
#
# Mechanical properties :
#
#
# Convention : Reuss Voigt Hill
#
# Bulk Modulus (GPa) = 23.26423 48.58439 35.92431
# Shear Modulus (GPa) = 21.25770 28.26098 24.75934
#
# Velocity S-wave (km/s) = 3.29164 3.79531 3.55241
# Velocity P-wave (km/s) = 5.12875 6.63091 5.92761
#
# Compressibility (1/GPa) = 0.04298444
#
# Stress axis : x y z
#
# Youngs Moduli (GPa) = 101.97497 35.46525 84.18667
#
# Poissons Ratio (x) = -0.01034 0.35124
# Poissons Ratio (y) = -0.02974 -0.03638
# Poissons Ratio (z) = 0.42546 -0.01533
#
# Static dielectric constant tensor:
#      x y z
#    x 1.691510 0.000000 -0.040680 
#    y 0.000000 1.767530 0.000000 
#    z -0.040680 0.000000 1.690300 
# 
# From -- ./inp_files/313803.got.cif
#   From: 2010.05.17/outbox.cif.g08.bks.cpg/sg12_157_cif.got.tgz:313803.got - 2010.06.03 13:09:07.
