data_PCOD9177178
_publ_section_title
;
Structure prediction by ZEFSAII (Michael W. Deem and Ramdas Pophale) SiO2 
 PCOD9177178
Probable space group: C 2/M
;
_chemical_formula_sum "Si O2"
_cell_formula_units_Z 38
_cell_length_a 16.936753
_cell_length_b 19.726899
_cell_length_c 11.481350
_cell_angle_alpha 90.000000
_cell_angle_beta 25.922105
_cell_angle_gamma 90.000000
_cell_volume 1676.915703
_symmetry_space_group_name_H-M "C 2/M"
_symmetry_group_IT_number 12
_symmetry_cell_setting 'monoclinic'
loop_
_space_group_symop_operation_xyz
x,y,z
-x,y,-z
-x,-y,-z
x,-y,z
1/2+x,1/2+y,z
1/2-x,1/2+y,-z
1/2-x,1/2-y,-z
1/2+x,1/2-y,z
loop_
_atom_site_type_symbol
_atom_site_label
_atom_site_fract_x
_atom_site_fract_y
_atom_site_fract_z
Si Si1 0.000000 0.000000 0.500000
Si Si2 0.215194 0.000000 0.444393
Si Si3 0.281860 0.354322 0.526852
Si Si4 0.157728 0.500000 0.104077
Si Si5 0.233820 0.000000 0.676754
Si Si6 0.282189 0.714090 0.284896
Si Si7 0.694597 0.612092 0.920681
O O1 0.945827 0.000000 0.434603
O O2 0.782361 0.000000 0.824941
O O3 0.305135 0.074279 0.320335
O O4 0.139980 0.000000 0.676855
O O5 0.214097 0.324929 0.492045
O O6 0.259345 0.293161 0.646556
O O7 0.495917 0.369665 0.230764
O O8 0.200324 0.567181 0.124680
O O9 0.945118 0.500000 0.365454
O O10 0.190064 0.065018 0.811754
O O11 0.221003 0.680386 0.245460
O O12 0.500000 0.707298 0.000000
#
# Coordination Sequence:
#
# PCOD9177178 Si02
#       7
#     2   4   8   4   4   8   8
#     4  12  26  44  64  96 142 172 216 270 336 406
#     4  12  22  42  68  95 129 176 227 266 341 402
#     4  10  19  35  61  98 129 172 217 272 332 396
#     4  11  24  43  66 101 140 169 218 288 331 390
#     4  11  23  39  72 107 127 163 230 285 331 389
#     4   9  19  34  61  98 140 166 220 279 326 395
#     4  10  18  38  70  96 131 171 219 277 333 386
#
# _framework density 22.66065
#
# number of rings (size 3 to 8) (size 9 to 14) (size 15 to 20)
#    0.000    1.684    4.211    1.895    0.000    1.263 
#    3.789    0.000    4.632    6.316    0.000    0.000 
#    0.000    0.000    0.000    0.000    0.000    0.000 
#
# Total GULP energy -105844.477492 kJ/mol
# GULP energy per Si atom -5570.761973 kJ/mol
# Density = 2.260907 g / cm^3
# Si number density = 22.660650 Si / 1000 Ang^3
#
#
#
# Elastic Constant Matrix: (Units=GPa)
#
#
# Indices 1 2 3 4 5 6 
#
# 1 61.9647 18.3330 26.7603 -0.0110 4.6968 0.0125
# 2 18.3330 187.2859 35.8895 -0.0100 11.5226 0.0038
# 3 26.7603 35.8895 111.5911 -0.0117 -3.4271 0.0100
# 4 -0.0110 -0.0100 -0.0117 44.2906 0.0080 3.7294
# 5 4.6968 11.5226 -3.4271 0.0080 20.9990 -0.0092
# 6 0.0125 0.0038 0.0100 3.7294 -0.0092 5.3897
#
#
#
# Elastic Compliance Matrix: (Units=1/GPa)
#
#
# Indices 1 2 3 4 5 6 
#
# 1 0.018571 -0.000706 -0.004364 0.000008 -0.004479 -0.000048
# 2 -0.000706 0.005975 -0.001858 0.000002 -0.003424 -0.000006
# 3 -0.004364 -0.001858 0.010720 0.000001 0.003745 -0.000003
# 4 0.000008 0.000002 0.000001 0.023975 -0.000019 -0.016590
# 5 -0.004479 -0.003424 0.003745 -0.000019 0.051113 0.000107
# 6 -0.000048 -0.000006 -0.000003 -0.016590 0.000107 0.197019
#
#
# Mechanical properties :
#
#
# Convention : Reuss Voigt Hill
#
# Bulk Modulus (GPa) = 46.70398 58.08971 52.39684
# Shear Modulus (GPa) = 15.22692 32.79313 24.01003
#
# Velocity S-wave (km/s) = 2.59502 3.80826 3.25860
# Velocity P-wave (km/s) = 5.44369 6.71024 6.10987
#
# Compressibility (1/GPa) = 0.02141145
#
# Stress axis : x y z
#
# Youngs Moduli (GPa) = 53.84669 167.35952 93.28165
#
# Poissons Ratio (x) = 0.11817 0.40708
# Poissons Ratio (y) = 0.03802 0.17327
# Poissons Ratio (z) = 0.23499 0.31088
#
# Static dielectric constant tensor:
#      x y z
#    x 1.832620 0.000000 -0.011930 
#    y 0.000000 1.928850 0.000010 
#    z -0.011930 0.000010 1.859700 
# 
# From -- ./inp_files/158471.got.cif
#   From: 2010.05.17/outbox.cif.g08.bks.cpg/sg12_80_cif.got.tgz:158471.got - 2010.06.03 13:09:07.
