data_PCOD9177646
_publ_section_title
;
Structure prediction by ZEFSAII (Michael W. Deem and Ramdas Pophale) SiO2 
 PCOD9177646
Probable space group: C 2/M
;
_chemical_formula_sum "Si O2"
_cell_formula_units_Z 48
_cell_length_a 23.221275
_cell_length_b 9.170876
_cell_length_c 14.180010
_cell_angle_alpha 90.000000
_cell_angle_beta 101.351849
_cell_angle_gamma 90.000000
_cell_volume 2960.691012
_symmetry_space_group_name_H-M "C 2/M"
_symmetry_group_IT_number 12
_symmetry_cell_setting 'monoclinic'
loop_
_space_group_symop_operation_xyz
x,y,z
-x,y,-z
-x,-y,-z
x,-y,z
1/2+x,1/2+y,z
1/2-x,1/2+y,-z
1/2-x,1/2-y,-z
1/2+x,1/2-y,z
loop_
_atom_site_type_symbol
_atom_site_label
_atom_site_fract_x
_atom_site_fract_y
_atom_site_fract_z
Si Si1 0.935150 0.167239 0.527125
Si Si2 0.553272 0.825166 0.086935
Si Si3 0.790010 0.173952 0.143894
Si Si4 0.894366 0.176064 0.316419
Si Si5 0.171672 0.826503 0.057336
Si Si6 0.013515 0.326142 0.286168
O O1 0.893757 0.214871 0.427330
O O2 0.941343 0.266605 0.620563
O O3 0.000000 0.167474 0.500000
O O4 0.921883 0.000000 0.549419
O O5 0.612424 0.745414 0.075504
O O6 0.535034 0.790594 0.188141
O O7 0.561866 0.000000 0.082851
O O8 0.500000 0.785301 0.000000
O O9 0.835791 0.213275 0.240501
O O10 0.728851 0.258966 0.125965
O O11 0.778853 0.000000 0.144793
O O12 0.819745 0.204193 0.051701
O O13 0.950827 0.251504 0.287440
O O14 0.902606 0.000000 0.314478
O O15 0.170169 0.000000 0.069120
O O16 0.007490 0.500000 0.292746
#
# Coordination Sequence:
#
# PCOD9177646 Si02
#       6
#     8   8   8   8   8   8
#     4   8  15  28  45  66  93 123 154 189 231 277
#     4  10  21  35  49  67  95 129 159 188 228 277
#     4   9  18  33  51  70  95 124 154 191 232 276
#     4   9  17  30  49  71  94 124 158 189 229 278
#     4  10  20  32  49  73  96 122 156 192 232 274
#     4  10  19  29  45  70  97 125 155 191 235 275
#
# _framework density 16.212430999999999
#
# number of rings (size 3 to 8) (size 9 to 14) (size 15 to 20)
#    0.000    2.667    0.000    3.000    0.000    6.000 
#    0.000    0.000    0.000    1.000    0.000    0.000 
#    0.000    0.000    0.000    0.000    0.000    0.000 
#
# Total GULP energy -133794.650595 kJ/mol
# GULP energy per Si atom -5574.777108 kJ/mol
# Density = 1.617553 g / cm^3
# Si number density = 16.212431 Si / 1000 Ang^3
#
#
#
# Elastic Constant Matrix: (Units=GPa)
#
#
# Indices 1 2 3 4 5 6 
#
# 1 111.5978 54.0580 83.2676 0.0000 13.4589 0.0000
# 2 54.0580 44.0133 60.3046 0.0000 2.1121 0.0000
# 3 83.2676 60.3046 152.1494 0.0000 25.5196 0.0000
# 4 0.0000 0.0000 0.0000 24.3844 0.0000 -2.7381
# 5 13.4589 2.1121 25.5196 0.0000 27.7410 0.0000
# 6 0.0000 0.0000 0.0000 -2.7381 0.0000 24.3098
#
#
#
# Elastic Compliance Matrix: (Units=1/GPa)
#
#
# Indices 1 2 3 4 5 6 
#
# 1 0.024432 -0.029352 -0.000147 0.000000 -0.009484 0.000000
# 2 -0.029352 0.092793 -0.025918 0.000000 0.031018 0.000000
# 3 -0.000147 -0.025918 0.019608 0.000000 -0.015993 0.000000
# 4 0.000000 0.000000 0.000000 0.041535 0.000000 0.004678
# 5 -0.009484 0.031018 -0.015993 0.000000 0.053000 0.000000
# 6 0.000000 0.000000 0.000000 0.004678 0.000000 0.041663
#
#
# Mechanical properties :
#
#
# Convention : Reuss Voigt Hill
#
# Bulk Modulus (GPa) = 38.46051 78.11344 58.28697
# Shear Modulus (GPa) = 12.73789 22.62908 17.68348
#
# Velocity S-wave (km/s) = 2.80605 3.74007 3.30621
# Velocity P-wave (km/s) = 5.85431 8.18148 7.11370
#
# Compressibility (1/GPa) = 0.02600070
#
# Stress axis : x y z
#
# Youngs Moduli (GPa) = 40.93000 10.77665 50.99984
#
# Poissons Ratio (x) = 0.31631 0.00749
# Poissons Ratio (y) = 1.20136 1.32180
# Poissons Ratio (z) = 0.00601 0.27931
#
# Static dielectric constant tensor:
#      x y z
#    x 1.508470 0.000000 0.018520 
#    y 0.000000 1.539890 0.000000 
#    z 0.018520 0.000000 1.561210 
# 
# From -- ./inp_files/172375.got.cif
#   From: 2010.05.17/outbox.cif.g08.bks.cpg/sg12_87_cif.got.tgz:172375.got - 2010.06.03 13:09:07.
