data_PCOD9177763
_publ_section_title
;
Structure prediction by ZEFSAII (Michael W. Deem and Ramdas Pophale) SiO2 
 PCOD9177763
Probable space group: C 2/M
;
_chemical_formula_sum "Si O2"
_cell_formula_units_Z 56
_cell_length_a 23.179626
_cell_length_b 12.137405
_cell_length_c 11.520637
_cell_angle_alpha 90.000000
_cell_angle_beta 89.469269
_cell_angle_gamma 90.000000
_cell_volume 3241.082819
_symmetry_space_group_name_H-M "C 2/M"
_symmetry_group_IT_number 12
_symmetry_cell_setting 'monoclinic'
loop_
_space_group_symop_operation_xyz
x,y,z
-x,y,-z
-x,-y,-z
x,-y,z
1/2+x,1/2+y,z
1/2-x,1/2+y,-z
1/2-x,1/2-y,-z
1/2+x,1/2-y,z
loop_
_atom_site_type_symbol
_atom_site_label
_atom_site_fract_x
_atom_site_fract_y
_atom_site_fract_z
Si Si1 0.581671 0.707948 0.735374
Si Si2 0.608480 0.866955 0.268210
Si Si3 0.408591 0.500000 0.967161
Si Si4 0.430827 0.869420 0.479190
Si Si5 0.805022 0.625712 0.926618
Si Si6 0.507390 0.124389 0.863211
Si Si7 0.486577 0.500000 0.199095
Si Si8 0.828946 0.825450 0.081934
O O1 0.584966 0.783260 0.621267
O O2 0.556572 0.791184 0.831514
O O3 0.535988 0.607347 0.731427
O O4 0.640846 0.666445 0.792787
O O5 0.601022 0.833940 0.401525
O O6 0.663413 0.833304 0.191351
O O7 0.550992 0.836501 0.198165
O O8 0.608911 0.000000 0.271915
O O9 0.447547 0.500000 0.850009
O O10 0.450727 0.500000 0.078590
O O11 0.367641 0.394996 0.990302
O O12 0.500000 0.864254 0.500000
O O13 0.418193 0.000000 0.454263
O O14 0.823565 0.500000 0.946787
O O15 0.736285 0.630836 0.914171
O O16 0.823759 0.702444 0.032274
O O17 0.519726 0.000000 0.820760
O O18 0.500000 0.121033 0.000000
#
# Coordination Sequence:
#
# PCOD9177763 Si02
#       8
#     8   8   4   8   8   8   4   8
#     4  11  21  34  53  78 110 144 183 219 259 322
#     4   9  18  32  52  78 107 138 173 214 272 328
#     4   9  18  36  52  74 112 142 184 210 263 324
#     4  10  19  34  56  80 108 142 174 221 280 325
#     4  10  20  36  55  80 108 138 178 225 272 320
#     4  10  19  29  49  83 112 133 161 219 281 324
#     4   9  22  32  51  78 106 152 182 214 252 328
#     4  10  21  34  55  80 107 145 178 220 270 317
#
# _framework density 17.278176999999999
#
# number of rings (size 3 to 8) (size 9 to 14) (size 15 to 20)
#    0.000    2.143    2.143    1.286    6.000    2.286 
#    0.000    1.071    0.000    0.857    0.000    0.000 
#    0.000    0.000    0.000    0.000    0.000    0.000 
#
# Total GULP energy -156026.515197 kJ/mol
# GULP energy per Si atom -5572.375543 kJ/mol
# Density = 1.723885 g / cm^3
# Si number density = 17.278177 Si / 1000 Ang^3
#
#
#
# Elastic Constant Matrix: (Units=GPa)
#
#
# Indices 1 2 3 4 5 6 
#
# 1 63.1557 11.4132 12.5712 0.0000 1.7162 0.0000
# 2 11.4132 72.7672 23.5899 0.0000 3.3593 0.0000
# 3 12.5712 23.5899 78.9342 0.0000 -0.6667 0.0000
# 4 0.0000 0.0000 0.0000 2.4193 0.0000 0.7610
# 5 1.7162 3.3593 -0.6667 0.0000 18.2224 0.0000
# 6 0.0000 0.0000 0.0000 0.7610 0.0000 9.8215
#
#
#
# Elastic Compliance Matrix: (Units=1/GPa)
#
#
# Indices 1 2 3 4 5 6 
#
# 1 0.016625 -0.001867 -0.002101 0.000000 -0.001298 0.000000
# 2 -0.001867 0.015589 -0.004386 0.000000 -0.002858 0.000000
# 3 -0.002101 -0.004386 0.014327 0.000000 0.001531 0.000000
# 4 0.000000 0.000000 0.000000 0.423675 0.000000 -0.032826
# 5 -0.001298 -0.002858 0.001531 0.000000 0.055583 0.000000
# 6 0.000000 0.000000 0.000000 -0.032826 0.000000 0.104361
#
#
# Mechanical properties :
#
#
# Convention : Reuss Voigt Hill
#
# Bulk Modulus (GPa) = 33.51827 34.44509 33.98168
# Shear Modulus (GPa) = 7.61254 17.24480 12.42867
#
# Velocity S-wave (km/s) = 2.10129 3.16265 2.68494
# Velocity P-wave (km/s) = 5.03275 5.77195 5.41498
#
# Compressibility (1/GPa) = 0.02983447
#
# Stress axis : x y z
#
# Youngs Moduli (GPa) = 60.15164 64.14795 69.79837
#
# Poissons Ratio (x) = 0.11973 0.14663
# Poissons Ratio (y) = 0.11227 0.30612
# Poissons Ratio (z) = 0.12637 0.28134
#
# Static dielectric constant tensor:
#      x y z
#    x 1.599670 0.000000 -0.007970 
#    y 0.000000 1.614320 0.000000 
#    z -0.007970 0.000000 1.585680 
# 
# From -- ./inp_files/173946.got.cif
#   From: 2010.05.17/outbox.cif.g08.bks.cpg/sg12_87_cif.got.tgz:173946.got - 2010.06.03 13:09:07.
