data_PCOD9177884
_publ_section_title
;
Structure prediction by ZEFSAII (Michael W. Deem and Ramdas Pophale) SiO2 
 PCOD9177884
Probable space group: C 2/M
;
_chemical_formula_sum "Si O2"
_cell_formula_units_Z 64
_cell_length_a 29.391427
_cell_length_b 8.341203
_cell_length_c 14.862235
_cell_angle_alpha 90.000000
_cell_angle_beta 71.757231
_cell_angle_gamma 90.000000
_cell_volume 3460.489974
_symmetry_space_group_name_H-M "C 2/M"
_symmetry_group_IT_number 12
_symmetry_cell_setting 'monoclinic'
loop_
_space_group_symop_operation_xyz
x,y,z
-x,y,-z
-x,-y,-z
x,-y,z
1/2+x,1/2+y,z
1/2-x,1/2+y,-z
1/2-x,1/2-y,-z
1/2+x,1/2-y,z
loop_
_atom_site_type_symbol
_atom_site_label
_atom_site_fract_x
_atom_site_fract_y
_atom_site_fract_z
Si Si1 0.543081 0.192792 0.593247
Si Si2 0.222979 0.194890 0.301345
Si Si3 0.802799 0.193607 0.493160
Si Si4 0.697826 0.809746 0.998411
Si Si5 0.849773 0.808534 0.800967
Si Si6 0.066641 0.693638 0.381612
Si Si7 0.326729 0.193494 0.187625
Si Si8 0.614673 0.691218 0.690952
O O1 0.569714 0.248516 0.484474
O O2 0.487279 0.235693 0.616454
O O3 0.566709 0.256058 0.669682
O O4 0.545772 0.000000 0.592139
O O5 0.192621 0.247209 0.406282
O O6 0.196624 0.245749 0.227595
O O7 0.277945 0.248099 0.268620
O O8 0.223606 0.000000 0.301274
O O9 0.750000 0.250000 0.500000
O O10 0.843196 0.255561 0.401296
O O11 0.804277 0.000000 0.489722
O O12 0.657659 0.766342 0.096827
O O13 0.702549 0.000000 0.987908
O O14 0.750000 0.750000 0.000000
O O15 0.681096 0.750470 0.910170
O O16 0.894928 0.762054 0.711743
O O17 0.848425 0.000000 0.810841
O O18 0.070622 0.500000 0.378810
O O19 0.371935 0.250582 0.217573
O O20 0.327674 0.000000 0.186802
O O21 0.616249 0.500000 0.690758
#
# Coordination Sequence:
#
# PCOD9177884 Si02
#       8
#     8   8   8   8   8   8   8   8
#     4   9  19  37  60  82 112 149 184 222 271 330
#     4   9  17  31  48  69 102 141 178 212 255 318
#     4  10  19  30  44  66 100 138 173 211 250 303
#     4  11  22  37  56  79 108 145 191 237 280 330
#     4  11  21  35  56  82 111 144 180 227 286 334
#     4   9  19  37  59  86 112 142 186 229 269 325
#     4  10  20  36  54  71 101 147 187 221 267 321
#     4  11  22  33  50  80 111 142 184 227 272 325
#
# _framework density 18.494491
#
# number of rings (size 3 to 8) (size 9 to 14) (size 15 to 20)
#    0.000    2.000    2.500    2.625    0.000    3.500 
#    0.000    2.500    0.000    0.750    0.000    5.250 
#    0.000    0.000    0.000    0.000    0.000    0.000 
#
# Total GULP energy -178476.236651 kJ/mol
# GULP energy per Si atom -5577.382395 kJ/mol
# Density = 1.845240 g / cm^3
# Si number density = 18.494491 Si / 1000 Ang^3
#
#
#
# Elastic Constant Matrix: (Units=GPa)
#
#
# Indices 1 2 3 4 5 6 
#
# 1 88.5357 13.8412 42.4923 0.0000 24.6002 0.0000
# 2 13.8412 19.9138 14.9216 0.0000 7.9921 0.0000
# 3 42.4923 14.9216 103.5081 0.0000 24.4000 0.0000
# 4 0.0000 0.0000 0.0000 21.0599 0.0000 -1.2600
# 5 24.6002 7.9921 24.4000 0.0000 33.0693 0.0000
# 6 0.0000 0.0000 0.0000 -1.2600 0.0000 23.5180
#
#
#
# Elastic Compliance Matrix: (Units=1/GPa)
#
#
# Indices 1 2 3 4 5 6 
#
# 1 0.016223 -0.005074 -0.004083 0.000000 -0.007830 0.000000
# 2 -0.005074 0.060308 -0.004921 0.000000 -0.007169 0.000000
# 3 -0.004083 -0.004921 0.013377 0.000000 -0.005644 0.000000
# 4 0.000000 0.000000 0.000000 0.047636 0.000000 0.002552
# 5 -0.007830 -0.007169 -0.005644 0.000000 0.041961 0.000000
# 6 0.000000 0.000000 0.000000 0.002552 0.000000 0.042657
#
#
# Mechanical properties :
#
#
# Convention : Reuss Voigt Hill
#
# Bulk Modulus (GPa) = 16.19380 39.38532 27.78956
# Shear Modulus (GPa) = 18.45685 24.90961 21.68323
#
# Velocity S-wave (km/s) = 3.16249 3.67395 3.42777
# Velocity P-wave (km/s) = 4.70214 6.27209 5.54298
#
# Compressibility (1/GPa) = 0.06175203
#
# Stress axis : x y z
#
# Youngs Moduli (GPa) = 61.64014 16.58161 74.75578
#
# Poissons Ratio (x) = 0.08414 0.30521
# Poissons Ratio (y) = 0.31279 0.36785
# Poissons Ratio (z) = 0.25166 0.08159
#
# Static dielectric constant tensor:
#      x y z
#    x 1.644930 0.000000 0.023260 
#    y 0.000000 1.639100 0.000000 
#    z 0.023260 0.000000 1.667790 
# 
# From -- ./inp_files/243751.got.cif
#   From: 2010.05.17/outbox.cif.g08.bks.cpg/sg12_122_cif.got.tgz:243751.got - 2010.06.03 13:09:07.
