data_PCOD9177325
_publ_section_title
;
Structure prediction by ZEFSAII (Michael W. Deem and Ramdas Pophale) SiO2 
 PCOD9177325
Probable space group: C 2/M
;
_chemical_formula_sum "Si O2"
_cell_formula_units_Z 58
_cell_length_a 14.041814
_cell_length_b 11.534302
_cell_length_c 17.540821
_cell_angle_alpha 90.000000
_cell_angle_beta 49.168635
_cell_angle_gamma 90.000000
_cell_volume 2149.572841
_symmetry_space_group_name_H-M "C 2/M"
_symmetry_group_IT_number 12
_symmetry_cell_setting 'monoclinic'
loop_
_space_group_symop_operation_xyz
x,y,z
-x,y,-z
-x,-y,-z
x,-y,z
1/2+x,1/2+y,z
1/2-x,1/2+y,-z
1/2-x,1/2-y,-z
1/2+x,1/2-y,z
loop_
_atom_site_type_symbol
_atom_site_label
_atom_site_fract_x
_atom_site_fract_y
_atom_site_fract_z
Si Si1 0.066326 0.869967 0.889196
Si Si2 0.707924 0.629529 0.277842
Si Si3 0.719880 0.872268 0.918831
Si Si4 0.318725 0.874787 0.682213
Si Si5 0.572232 0.875051 0.642719
Si Si6 0.571004 0.802074 0.137343
Si Si7 0.500000 0.500000 0.500000
Si Si8 0.927200 0.124562 0.391074
O O1 0.217050 0.878247 0.805024
O O2 0.020606 0.800312 0.840715
O O3 0.983786 0.000000 0.091322
O O4 0.000000 0.823306 0.000000
O O5 0.700676 0.500000 0.318566
O O6 0.810458 0.632321 0.156296
O O7 0.708211 0.742707 0.330341
O O8 0.578090 0.636091 0.297161
O O9 0.806271 0.762419 0.893945
O O10 0.779500 0.000000 0.897890
O O11 0.612125 0.867128 0.039161
O O12 0.460970 0.875556 0.637940
O O13 0.301151 0.000000 0.651097
O O14 0.502199 0.873194 0.760799
O O15 0.631158 0.746783 0.602303
O O16 0.640730 0.000000 0.599849
O O17 0.437249 0.599563 0.475901
O O18 0.886849 0.000000 0.377686
#
# Coordination Sequence:
#
# PCOD9177325 Si02
#       8
#     8   8   8   8   8   8   2   8
#     4  10  21  32  44  63  93 133 174 224 267 298
#     4   9  15  28  46  67  91 124 163 200 239 291
#     4  10  19  28  42  64  88 123 173 213 243 286
#     4   9  17  31  46  65  91 124 164 205 253 293
#     4  10  19  32  52  75 100 135 170 214 252 302
#     4  11  20  30  45  67  93 131 177 218 254 295
#     4   8  16  28  50  76 112 136 150 200 248 318
#     4   8  15  28  47  72 102 134 157 193 247 299
#
# _framework density 26.982105000000001
#
# number of rings (size 3 to 8) (size 9 to 14) (size 15 to 20)
#    0.414    2.069    2.759    1.655    1.931    0.552 
#    0.000    1.724    0.000    3.724    0.000    0.000 
#    0.000    4.414    1.655    0.000    0.000    0.000 
#
# Total GULP energy -161436.639319 kJ/mol
# GULP energy per Si atom -5566.780666 kJ/mol
# Density = 2.692069 g / cm^3
# Si number density = 26.982105 Si / 1000 Ang^3
#
#
#
# Elastic Constant Matrix: (Units=GPa)
#
#
# Indices 1 2 3 4 5 6 
#
# 1 70.7515 16.0171 8.8195 0.0000 7.3842 0.0000
# 2 16.0171 295.8689 25.8377 0.0000 22.1489 0.0000
# 3 8.8195 25.8377 80.9927 0.0000 -5.4488 0.0000
# 4 0.0000 0.0000 0.0000 20.9332 0.0000 16.4262
# 5 7.3842 22.1489 -5.4488 0.0000 32.0173 0.0000
# 6 0.0000 0.0000 0.0000 16.4262 0.0000 -33.3191
#
#
#
# Elastic Compliance Matrix: (Units=1/GPa)
#
#
# Indices 1 2 3 4 5 6 
#
# 1 0.014795 -0.000394 -0.001716 0.000000 -0.003432 0.000000
# 2 -0.000394 0.003720 -0.001326 0.000000 -0.002708 0.000000
# 3 -0.001716 -0.001326 0.013196 0.000000 0.003559 0.000000
# 4 0.000000 0.000000 0.000000 0.034446 0.000000 0.016982
# 5 -0.003432 -0.002708 0.003559 0.000000 0.034503 0.000000
# 6 0.000000 0.000000 0.000000 0.016982 0.000000 -0.021641
#
#
# Mechanical properties :
#
#
# Convention : Reuss Voigt Hill
#
# Bulk Modulus (GPa) = 40.26008 60.99575 50.62791
# Shear Modulus (GPa) = 53.09470 30.38888 41.74179
#
# Velocity S-wave (km/s) = 4.44077 3.35962 3.93748
# Velocity P-wave (km/s) = 6.42241 6.14040 6.28299
#
# Compressibility (1/GPa) = 0.02483850
#
# Stress axis : x y z
#
# Youngs Moduli (GPa) = 67.58902 268.83740 75.78008
#
# Poissons Ratio (x) = 0.10597 0.13006
# Poissons Ratio (y) = 0.02664 0.10048
# Poissons Ratio (z) = 0.11600 0.35645
#
# Static dielectric constant tensor:
#      x y z
#    x 2.060830 0.000000 -0.053190 
#    y 0.000000 2.195950 0.000000 
#    z -0.053190 0.000000 2.165970 
# 
# From -- ./inp_files/309810.got.cif
#   From: 2010.05.17/outbox.cif.g08.bks.cpg/sg12_155_cif.got.tgz:309810.got - 2010.06.03 13:09:07.
