data_PCOD9177623
_publ_section_title
;
Structure prediction by ZEFSAII (Michael W. Deem and Ramdas Pophale) SiO2 
 PCOD9177623
Probable space group: C 2/M
;
_chemical_formula_sum "Si O2"
_cell_formula_units_Z 64
_cell_length_a 34.305568
_cell_length_b 8.880841
_cell_length_c 17.136907
_cell_angle_alpha 90.000000
_cell_angle_beta 51.879867
_cell_angle_gamma 90.000000
_cell_volume 4107.431423
_symmetry_space_group_name_H-M "C 2/M"
_symmetry_group_IT_number 12
_symmetry_cell_setting 'monoclinic'
loop_
_space_group_symop_operation_xyz
x,y,z
-x,y,-z
-x,-y,-z
x,-y,z
1/2+x,1/2+y,z
1/2-x,1/2+y,-z
1/2-x,1/2-y,-z
1/2+x,1/2-y,z
loop_
_atom_site_type_symbol
_atom_site_label
_atom_site_fract_x
_atom_site_fract_y
_atom_site_fract_z
Si Si1 0.325936 0.680089 0.442856
Si Si2 0.907025 0.675402 0.447451
Si Si3 0.003311 0.182445 0.403973
Si Si4 0.725229 0.322127 0.808391
Si Si5 0.111860 0.821426 0.227306
Si Si6 0.702944 0.316791 0.011333
Si Si7 0.778880 0.320353 0.350464
Si Si8 0.342307 0.828289 0.683507
O O1 0.328707 0.500000 0.437265
O O2 0.375853 0.747006 0.417419
O O3 0.278021 0.721798 0.555863
O O4 0.313067 0.744434 0.373719
O O5 0.915465 0.500000 0.419369
O O6 0.957723 0.753970 0.410941
O O7 0.871630 0.684842 0.566993
O O8 0.000000 0.227800 0.500000
O O9 0.055581 0.235660 0.302883
O O10 0.001717 0.000000 0.404912
O O11 0.715073 0.500000 0.810312
O O12 0.709039 0.234648 0.751282
O O13 0.784448 0.303237 0.742121
O O14 0.704420 0.274486 0.918311
O O15 0.151671 0.765539 0.114862
O O16 0.136159 0.785870 0.280590
O O17 0.108281 0.000000 0.220185
O O18 0.706473 0.500000 0.011216
O O19 0.750000 0.250000 0.000000
O O20 0.782692 0.500000 0.351371
O O21 0.348738 0.000000 0.705343
#
# Coordination Sequence:
#
# PCOD9177623 Si02
#       8
#     8   8   8   8   8   8   8   8
#     4  10  20  33  50  71  99 131 160 196 242 289
#     4  11  21  32  48  71  98 129 166 202 239 288
#     4  10  20  33  48  68  95 129 168 206 244 287
#     4  10  19  32  47  68  99 133 165 197 241 291
#     4  10  20  33  48  67  95 129 168 209 243 282
#     4  10  20  32  48  70  96 129 166 204 243 286
#     4  10  20  32  49  73  99 128 163 199 237 286
#     4  10  19  29  45  68  97 130 163 201 240 281
#
# _framework density 15.581514
#
# number of rings (size 3 to 8) (size 9 to 14) (size 15 to 20)
#    0.000    1.875    3.750    1.125    0.000    3.250 
#    0.000    0.000    0.000    0.000    0.000    0.875 
#    0.000    7.000    0.000    0.000    0.000    0.000 
#
# Total GULP energy -178460.305885 kJ/mol
# GULP energy per Si atom -5576.884559 kJ/mol
# Density = 1.554605 g / cm^3
# Si number density = 15.581514 Si / 1000 Ang^3
#
#
#
# Elastic Constant Matrix: (Units=GPa)
#
#
# Indices 1 2 3 4 5 6 
#
# 1 111.1972 39.3672 65.4045 0.0000 5.1028 0.0000
# 2 39.3672 24.9583 31.6125 0.0000 2.5989 0.0002
# 3 65.4045 31.6125 96.1727 0.0000 -2.4908 0.0000
# 4 0.0000 0.0000 0.0000 16.4684 0.0000 4.4425
# 5 5.1028 2.5989 -2.4908 0.0000 26.7113 0.0000
# 6 0.0000 0.0002 0.0000 4.4425 0.0000 28.3898
#
#
#
# Elastic Compliance Matrix: (Units=1/GPa)
#
#
# Indices 1 2 3 4 5 6 
#
# 1 0.022453 -0.027011 -0.006450 0.000000 -0.002263 0.000000
# 2 -0.027011 0.103272 -0.015741 0.000000 -0.006356 -0.000001
# 3 -0.006450 -0.015741 0.020079 0.000000 0.004636 0.000000
# 4 0.000000 0.000000 0.000000 0.063399 0.000000 -0.009921
# 5 -0.002263 -0.006356 0.004636 0.000000 0.038920 0.000000
# 6 0.000000 -0.000001 0.000000 -0.009921 0.000000 0.036776
#
#
# Mechanical properties :
#
#
# Convention : Reuss Voigt Hill
#
# Bulk Modulus (GPa) = 21.09719 56.12183 38.60951
# Shear Modulus (GPa) = 12.52812 20.71018 16.61915
#
# Velocity S-wave (km/s) = 2.83863 3.64971 3.26942
# Velocity P-wave (km/s) = 4.93083 7.33873 6.25180
#
# Compressibility (1/GPa) = 0.04739968
#
# Stress axis : x y z
#
# Youngs Moduli (GPa) = 44.53699 9.68320 49.80449
#
# Poissons Ratio (x) = 0.26155 0.32123
# Poissons Ratio (y) = 1.20299 0.78398
# Poissons Ratio (z) = 0.28725 0.15242
#
# Static dielectric constant tensor:
#      x y z
#    x 1.494300 0.000000 -0.010950 
#    y 0.000000 1.534360 0.000000 
#    z -0.010950 0.000000 1.527490 
# 
# From -- ./inp_files/248989.got.cif
#   From: 2010.05.17/outbox.cif.g08.bks.cpg/sg12_125_cif.got.tgz:248989.got - 2010.06.03 13:09:07.
