data_PCOD9177200
_publ_section_title
;
Structure prediction by ZEFSAII (Michael W. Deem and Ramdas Pophale) SiO2 
 PCOD9177200
Probable space group: C 2/M
;
_chemical_formula_sum "Si O2"
_cell_formula_units_Z 56
_cell_length_a 11.648928
_cell_length_b 30.741706
_cell_length_c 9.256191
_cell_angle_alpha 90.000000
_cell_angle_beta 118.878842
_cell_angle_gamma 90.000000
_cell_volume 2902.507029
_symmetry_space_group_name_H-M "C 2/M"
_symmetry_group_IT_number 12
_symmetry_cell_setting 'monoclinic'
loop_
_space_group_symop_operation_xyz
x,y,z
-x,y,-z
-x,-y,-z
x,-y,z
1/2+x,1/2+y,z
1/2-x,1/2+y,-z
1/2-x,1/2-y,-z
1/2+x,1/2-y,z
loop_
_atom_site_type_symbol
_atom_site_label
_atom_site_fract_x
_atom_site_fract_y
_atom_site_fract_z
Si Si1 0.066380 0.176902 0.327541
Si Si2 0.178372 0.876458 0.841472
Si Si3 0.250398 0.671969 0.833145
Si Si4 0.022200 0.726546 0.684928
Si Si5 0.813658 0.654471 0.646589
Si Si6 0.355969 0.095164 0.395975
Si Si7 0.652201 0.551474 0.057401
O O1 0.136479 0.169415 0.216454
O O2 0.005852 0.224566 0.286502
O O3 0.180709 0.178684 0.516326
O O4 0.966301 0.137692 0.299397
O O5 0.284751 0.867598 0.782560
O O6 0.185320 0.922178 0.930618
O O7 0.200889 0.842666 0.984108
O O8 0.142065 0.637353 0.708290
O O9 0.174737 0.716567 0.798855
O O10 0.928353 0.690680 0.705704
O O11 0.000000 0.722240 0.500000
O O12 0.825819 0.616249 0.533585
O O13 0.500000 0.074675 0.500000
O O14 0.245662 0.066543 0.247789
O O15 0.665085 0.500000 0.045491
O O16 0.500000 0.561823 0.000000
#
# Coordination Sequence:
#
# PCOD9177200 Si02
#       7
#     8   8   8   8   8   8   8
#     4  11  23  36  59  81 118 164 212 257 294 354
#     4  11  23  39  59  89 123 157 196 252 318 367
#     4  10  21  39  55  78 119 162 203 246 303 359
#     4  12  21  37  58  81 116 164 216 255 291 353
#     4  11  21  37  59  87 116 163 201 250 309 356
#     4  10  18  39  66  89 117 160 208 248 301 369
#     4  10  22  42  69  94 122 161 201 249 316 389
#
# _framework density 19.293665000000001
#
# number of rings (size 3 to 8) (size 9 to 14) (size 15 to 20)
#    0.000    1.286    4.286    4.714    2.000    1.429 
#    2.571    0.714    0.000    4.286    0.000    0.000 
#    0.000    0.000    0.000    0.000    0.000    0.000 
#
# Total GULP energy -156177.857365 kJ/mol
# GULP energy per Si atom -5577.780620 kJ/mol
# Density = 1.924975 g / cm^3
# Si number density = 19.293665 Si / 1000 Ang^3
#
#
#
# Elastic Constant Matrix: (Units=GPa)
#
#
# Indices 1 2 3 4 5 6 
#
# 1 69.2231 35.1338 32.9004 0.0000 -5.5233 0.0000
# 2 35.1338 90.4403 21.6259 0.0000 -7.3631 0.0000
# 3 32.9004 21.6259 56.9931 0.0000 -11.0679 0.0000
# 4 0.0000 0.0000 0.0000 45.5838 0.0000 60.0501
# 5 -5.5233 -7.3631 -11.0679 0.0000 33.1108 0.0000
# 6 0.0000 0.0000 0.0000 60.0501 0.0000 169.3768
#
#
#
# Elastic Compliance Matrix: (Units=1/GPa)
#
#
# Indices 1 2 3 4 5 6 
#
# 1 0.022782 -0.006324 -0.011001 0.000000 -0.001283 0.000000
# 2 -0.006324 0.013964 -0.001336 0.000000 0.001604 0.000000
# 3 -0.011001 -0.001336 0.025655 0.000000 0.006443 0.000000
# 4 0.000000 0.000000 0.000000 0.041163 0.000000 -0.014594
# 5 -0.001283 0.001604 0.006443 0.000000 0.032498 0.000000
# 6 0.000000 0.000000 0.000000 -0.014594 0.000000 0.011078
#
#
# Mechanical properties :
#
#
# Convention : Reuss Voigt Hill
#
# Bulk Modulus (GPa) = 39.87591 43.99743 41.93667
# Shear Modulus (GPa) = 25.93076 58.08070 42.00573
#
# Velocity S-wave (km/s) = 3.67004 5.49262 4.67109
# Velocity P-wave (km/s) = 6.21866 7.94221 7.13269
#
# Compressibility (1/GPa) = 0.02507780
#
# Stress axis : x y z
#
# Youngs Moduli (GPa) = 43.89444 71.61312 38.97910
#
# Poissons Ratio (x) = 0.45290 0.42880
# Poissons Ratio (y) = 0.27760 0.05209
# Poissons Ratio (z) = 0.48287 0.09570
#
# Static dielectric constant tensor:
#      x y z
#    x 1.742460 0.000000 0.071380 
#    y 0.000000 1.661950 0.000000 
#    z 0.071380 0.000000 1.774010 
# 
# From -- ./inp_files/54814.got.cif
#   From: 2010.05.17/outbox.cif.g08.bks.cpg/sg12_28_cif.got.tgz:54814.got - 2010.06.03 13:09:07.
