data_PCOD9177695
_publ_section_title
;
Structure prediction by ZEFSAII (Michael W. Deem and Ramdas Pophale) SiO2 
 PCOD9177695
Probable space group: C 2/M
;
_chemical_formula_sum "Si O2"
_cell_formula_units_Z 64
_cell_length_a 24.473215
_cell_length_b 9.651509
_cell_length_c 14.109386
_cell_angle_alpha 90.000000
_cell_angle_beta 100.349789
_cell_angle_gamma 90.000000
_cell_volume 3278.460558
_symmetry_space_group_name_H-M "C 2/M"
_symmetry_group_IT_number 12
_symmetry_cell_setting 'monoclinic'
loop_
_space_group_symop_operation_xyz
x,y,z
-x,y,-z
-x,-y,-z
x,-y,z
1/2+x,1/2+y,z
1/2-x,1/2+y,-z
1/2-x,1/2-y,-z
1/2+x,1/2-y,z
loop_
_atom_site_type_symbol
_atom_site_label
_atom_site_fract_x
_atom_site_fract_y
_atom_site_fract_z
Si Si1 0.617795 0.664875 0.426770
Si Si2 0.453566 0.839240 0.103497
Si Si3 0.667050 0.161820 0.289594
Si Si4 0.664568 0.159540 0.824457
Si Si5 0.767026 0.661497 0.873405
Si Si6 0.889430 0.332221 0.910963
Si Si7 0.887654 0.162111 0.353096
Si Si8 0.495369 0.662396 0.717119
O O1 0.625357 0.500000 0.419137
O O2 0.663837 0.746208 0.381084
O O3 0.616549 0.696427 0.537594
O O4 0.558604 0.701753 0.360478
O O5 0.392233 0.838334 0.132719
O O6 0.491847 0.751487 0.185168
O O7 0.472558 0.000000 0.104989
O O8 0.438930 0.784763 0.993355
O O9 0.720254 0.171559 0.236682
O O10 0.617787 0.208218 0.200857
O O11 0.659250 0.000000 0.309860
O O12 0.716706 0.241014 0.883521
O O13 0.649160 0.238804 0.723025
O O14 0.679660 0.000000 0.814236
O O15 0.756624 0.500000 0.892504
O O16 0.827878 0.702286 0.931575
O O17 0.891668 0.500000 0.912607
O O18 0.950696 0.175888 0.334226
O O19 0.871886 0.000000 0.334669
O O20 0.490462 0.500000 0.741434
#
# Coordination Sequence:
#
# PCOD9177695 Si02
#       8
#     8   8   8   8   8   8   8   8
#     4  10  19  32  52  73  92 120 158 199 240 277
#     4   9  17  31  49  71  99 127 156 191 231 277
#     4   8  17  33  51  69  91 124 163 198 229 270
#     4  10  19  29  46  75 103 122 149 196 242 274
#     4   8  16  32  51  67  92 129 163 190 226 278
#     4   7  14  31  51  67  92 128 162 192 223 271
#     4   9  18  33  51  69  94 128 158 185 229 291
#     4   9  18  32  49  72  99 123 152 191 235 285
#
# _framework density 19.521359
#
# number of rings (size 3 to 8) (size 9 to 14) (size 15 to 20)
#    0.750    2.500    0.000    0.750    0.000    4.000 
#    0.000    2.500    0.000    7.500    0.000    0.000 
#    0.000    0.000    0.000    0.000    0.000    0.000 
#
# Total GULP energy -178232.203392 kJ/mol
# GULP energy per Si atom -5569.756356 kJ/mol
# Density = 1.947693 g / cm^3
# Si number density = 19.521359 Si / 1000 Ang^3
#
#
#
# Elastic Constant Matrix: (Units=GPa)
#
#
# Indices 1 2 3 4 5 6 
#
# 1 64.3098 22.2975 1.9488 0.0000 5.0878 0.0000
# 2 22.2975 38.3417 23.0560 0.0000 0.1143 0.0000
# 3 1.9488 23.0560 75.4119 0.0000 -10.7926 0.0000
# 4 0.0000 0.0000 0.0000 13.9011 0.0000 6.7834
# 5 5.0878 0.1143 -10.7926 0.0000 22.8382 0.0000
# 6 0.0000 0.0000 0.0000 6.7834 0.0000 10.3794
#
#
#
# Elastic Compliance Matrix: (Units=1/GPa)
#
#
# Indices 1 2 3 4 5 6 
#
# 1 0.020501 -0.013897 0.003298 0.000000 -0.002939 0.000000
# 2 -0.013897 0.041945 -0.012926 0.000000 -0.003223 0.000000
# 3 0.003298 -0.012926 0.018267 0.000000 0.007962 0.000000
# 4 0.000000 0.000000 0.000000 0.105621 0.000000 -0.069028
# 5 -0.002939 -0.003223 0.007962 0.000000 0.048220 0.000000
# 6 0.000000 0.000000 0.000000 -0.069028 0.000000 0.141457
#
#
# Mechanical properties :
#
#
# Convention : Reuss Voigt Hill
#
# Bulk Modulus (GPa) = 29.70570 30.29643 30.00107
# Shear Modulus (GPa) = 11.51329 18.14116 14.82723
#
# Velocity S-wave (km/s) = 2.43117 3.05175 2.75896
# Velocity P-wave (km/s) = 4.80946 5.28875 5.05479
#
# Compressibility (1/GPa) = 0.03366357
#
# Stress axis : x y z
#
# Youngs Moduli (GPa) = 48.77924 23.84057 54.74415
#
# Poissons Ratio (x) = 0.33130 -0.18056
# Poissons Ratio (y) = 0.67787 0.70763
# Poissons Ratio (z) = -0.16089 0.30817
#
# Static dielectric constant tensor:
#      x y z
#    x 1.717780 0.000000 -0.010850 
#    y 0.000000 1.638780 0.000000 
#    z -0.010850 0.000000 1.710740 
# 
# From -- ./inp_files/248457.got.cif
#   From: 2010.05.17/outbox.cif.g08.bks.cpg/sg12_125_cif.got.tgz:248457.got - 2010.06.03 13:09:07.
