data_PCOD9177997
_publ_section_title
;
Structure prediction by ZEFSAII (Michael W. Deem and Ramdas Pophale) SiO2 
 PCOD9177997
Probable space group: C 2/M
;
_chemical_formula_sum "Si O2"
_cell_formula_units_Z 56
_cell_length_a 33.372356
_cell_length_b 9.194464
_cell_length_c 18.676207
_cell_angle_alpha 90.000000
_cell_angle_beta 37.223692
_cell_angle_gamma 90.000000
_cell_volume 3466.617776
_symmetry_space_group_name_H-M "C 2/M"
_symmetry_group_IT_number 12
_symmetry_cell_setting 'monoclinic'
loop_
_space_group_symop_operation_xyz
x,y,z
-x,y,-z
-x,-y,-z
x,-y,z
1/2+x,1/2+y,z
1/2-x,1/2+y,-z
1/2-x,1/2-y,-z
1/2+x,1/2-y,z
loop_
_atom_site_type_symbol
_atom_site_label
_atom_site_fract_x
_atom_site_fract_y
_atom_site_fract_z
Si Si1 0.730019 0.672981 0.414634
Si Si2 0.001647 0.673842 0.913786
Si Si3 0.804535 0.832173 0.825836
Si Si4 0.609577 0.672054 0.021681
Si Si5 0.652245 0.167674 0.099821
Si Si6 0.759345 0.327613 0.751936
Si Si7 0.850228 0.327544 0.349443
O O1 0.723161 0.500000 0.415177
O O2 0.727451 0.753351 0.342731
O O3 0.800468 0.701200 0.353918
O O4 0.675646 0.735223 0.546867
O O5 0.989470 0.500000 0.925520
O O6 0.074717 0.703867 0.779189
O O7 0.946217 0.758318 0.948595
O O8 0.000000 0.712123 0.000000
O O9 0.847175 0.750888 0.825569
O O10 0.801073 0.747212 0.756019
O O11 0.824294 0.000000 0.788828
O O12 0.728794 0.832068 0.963560
O O13 0.599737 0.500000 0.044441
O O14 0.612072 0.750084 0.095224
O O15 0.681877 0.693822 0.882782
O O16 0.631799 0.000000 0.136223
O O17 0.771822 0.500000 0.731861
O O18 0.844390 0.500000 0.374141
#
# Coordination Sequence:
#
# PCOD9177997 Si02
#       7
#     8   8   8   8   8   8   8
#     4  10  19  32  51  71  92 121 158 199 239 280
#     4  10  20  34  51  70  95 127 160 194 234 282
#     4   9  16  26  42  65  93 123 156 194 234 278
#     4  10  20  31  45  68  97 128 161 197 236 279
#     4   9  16  27  43  63  91 126 159 191 232 282
#     4  10  19  30  45  68  98 128 158 194 238 284
#     4   9  19  34  50  69  94 124 157 194 238 284
#
# _framework density 16.154074000000001
#
# number of rings (size 3 to 8) (size 9 to 14) (size 15 to 20)
#    0.000    2.429    0.000    3.000    0.000    7.714 
#    0.000    0.000    0.000    0.000    0.000    1.000 
#    0.000    8.000    0.000    0.000    0.000    0.000 
#
# Total GULP energy -156185.802024 kJ/mol
# GULP energy per Si atom -5578.064358 kJ/mol
# Density = 1.611731 g / cm^3
# Si number density = 16.154074 Si / 1000 Ang^3
#
#
#
# Elastic Constant Matrix: (Units=GPa)
#
#
# Indices 1 2 3 4 5 6 
#
# 1 161.7786 101.8716 61.2178 -0.0001 29.6317 0.0000
# 2 101.8716 121.3903 60.4913 -0.0004 23.3214 -0.0004
# 3 61.2178 60.4913 51.0947 -0.0015 17.9972 0.0008
# 4 -0.0001 -0.0004 -0.0015 19.4448 0.0007 4.1332
# 5 29.6317 23.3214 17.9972 0.0007 27.8718 -0.0001
# 6 0.0000 -0.0004 0.0008 4.1332 -0.0001 34.4348
#
#
#
# Elastic Compliance Matrix: (Units=1/GPa)
#
#
# Indices 1 2 3 4 5 6 
#
# 1 0.014521 -0.008387 -0.005828 0.000000 -0.004657 0.000000
# 2 -0.008387 0.025011 -0.019845 -0.000001 0.000803 0.000001
# 3 -0.005828 -0.019845 0.054388 0.000005 -0.012318 -0.000002
# 4 0.000000 -0.000001 0.000005 0.052774 -0.000003 -0.006334
# 5 -0.004657 0.000803 -0.012318 -0.000003 0.048111 0.000001
# 6 0.000000 0.000001 -0.000002 -0.006334 0.000001 0.029801
#
#
# Mechanical properties :
#
#
# Convention : Reuss Voigt Hill
#
# Bulk Modulus (GPa) = 38.76065 86.82501 62.79283
# Shear Modulus (GPa) = 16.59329 23.72913 20.16121
#
# Velocity S-wave (km/s) = 3.20846 3.83681 3.53662
# Velocity P-wave (km/s) = 6.14590 8.57280 7.45872
#
# Compressibility (1/GPa) = 0.02579936
#
# Stress axis : x y z
#
# Youngs Moduli (GPa) = 68.86576 39.98162 18.38654
#
# Poissons Ratio (x) = 0.33534 0.10716
# Poissons Ratio (y) = 0.57760 0.36488
# Poissons Ratio (z) = 0.40135 0.79344
#
# Static dielectric constant tensor:
#      x y z
#    x 1.521130 0.000000 0.001540 
#    y 0.000000 1.538530 0.000000 
#    z 0.001540 0.000000 1.515290 
# 
# From -- ./inp_files/281704.got.cif
#   From: 2010.05.17/outbox.cif.g08.bks.cpg/sg12_141_cif.got.tgz:281704.got - 2010.06.03 13:09:07.
