data_PCOD9177692
_publ_section_title
;
Structure prediction by ZEFSAII (Michael W. Deem and Ramdas Pophale) SiO2 
 PCOD9177692
Probable space group: C 2/M
;
_chemical_formula_sum "Si O2"
_cell_formula_units_Z 64
_cell_length_a 24.234989
_cell_length_b 9.085375
_cell_length_c 17.145047
_cell_angle_alpha 90.000000
_cell_angle_beta 97.052567
_cell_angle_gamma 90.000000
_cell_volume 3746.501969
_symmetry_space_group_name_H-M "C 2/M"
_symmetry_group_IT_number 12
_symmetry_cell_setting 'monoclinic'
loop_
_space_group_symop_operation_xyz
x,y,z
-x,y,-z
-x,-y,-z
x,-y,z
1/2+x,1/2+y,z
1/2-x,1/2+y,-z
1/2-x,1/2-y,-z
1/2+x,1/2-y,z
loop_
_atom_site_type_symbol
_atom_site_label
_atom_site_fract_x
_atom_site_fract_y
_atom_site_fract_z
Si Si1 0.352097 0.174989 0.318512
Si Si2 0.234333 0.325188 0.577539
Si Si3 0.188020 0.175232 0.260905
Si Si4 0.573646 0.826397 0.221314
Si Si5 0.372571 0.676288 0.086988
Si Si6 0.724743 0.675301 0.824009
Si Si7 0.549957 0.175407 0.768173
Si Si8 0.062592 0.673540 0.033811
O O1 0.327197 0.209310 0.398857
O O2 0.317380 0.271718 0.251315
O O3 0.415941 0.197224 0.306069
O O4 0.339795 0.000000 0.302229
O O5 0.237754 0.500000 0.567143
O O6 0.250000 0.250000 0.500000
O O7 0.276193 0.285776 0.655654
O O8 0.126254 0.235798 0.258786
O O9 0.218203 0.246657 0.190660
O O10 0.188972 0.000000 0.252854
O O11 0.514011 0.778677 0.244741
O O12 0.569640 0.809736 0.127143
O O13 0.581637 0.000000 0.239588
O O14 0.376650 0.500000 0.089405
O O15 0.309933 0.716018 0.104218
O O16 0.415776 0.744086 0.157600
O O17 0.392005 0.739291 0.007940
O O18 0.732467 0.500000 0.823980
O O19 0.550540 0.000000 0.786331
O O20 0.067023 0.500000 0.014983
O O21 0.000000 0.721278 0.000000
#
# Coordination Sequence:
#
# PCOD9177692 Si02
#       8
#     8   8   8   8   8   8   8   8
#     4   8  15  28  48  74 101 127 160 201 242 285
#     4   9  18  32  52  79 103 126 157 195 241 290
#     4  10  21  36  52  73 101 130 163 201 245 295
#     4  10  20  33  51  73  97 131 170 204 246 296
#     4  10  19  29  46  73  99 125 164 213 256 291
#     4   9  17  30  48  70  96 126 164 206 246 293
#     4   9  16  30  50  70  97 132 167 204 246 290
#     4  10  19  33  49  69  98 131 170 210 249 295
#
# _framework density 17.082601
#
# number of rings (size 3 to 8) (size 9 to 14) (size 15 to 20)
#    0.000    2.625    1.250    1.875    0.000    5.250 
#    0.000    0.625    0.000    0.750    0.000    5.250 
#    0.000    0.000    0.000    0.000    0.000    0.000 
#
# Total GULP energy -178262.400504 kJ/mol
# GULP energy per Si atom -5570.700016 kJ/mol
# Density = 1.704372 g / cm^3
# Si number density = 17.082601 Si / 1000 Ang^3
#
#
#
# Elastic Constant Matrix: (Units=GPa)
#
#
# Indices 1 2 3 4 5 6 
#
# 1 121.1159 34.2562 36.5918 0.0000 -26.8128 0.0000
# 2 34.2562 29.8789 21.3133 0.0000 -8.6507 0.0000
# 3 36.5918 21.3133 48.5910 0.0000 -25.2072 0.0000
# 4 0.0000 0.0000 0.0000 25.0802 0.0000 -4.3447
# 5 -26.8128 -8.6507 -25.2072 0.0000 26.4973 0.0000
# 6 0.0000 0.0000 0.0000 -4.3447 0.0000 27.2371
#
#
#
# Elastic Compliance Matrix: (Units=1/GPa)
#
#
# Indices 1 2 3 4 5 6 
#
# 1 0.014314 -0.013966 0.000978 0.000000 0.010855 0.000000
# 2 -0.013966 0.063379 -0.027404 0.000000 -0.019510 0.000000
# 3 0.000978 -0.027404 0.054760 0.000000 0.044137 0.000000
# 4 0.000000 0.000000 0.000000 0.041005 0.000000 0.006541
# 5 0.010855 -0.019510 0.044137 0.000000 0.084343 0.000000
# 6 0.000000 0.000000 0.000000 0.006541 0.000000 0.037758
#
#
# Mechanical properties :
#
#
# Convention : Reuss Voigt Hill
#
# Bulk Modulus (GPa) = 19.35361 42.65649 31.00505
# Shear Modulus (GPa) = 12.70429 22.92456 17.81443
#
# Velocity S-wave (km/s) = 2.73004 3.66728 3.23281
# Velocity P-wave (km/s) = 4.61427 6.55415 5.66782
#
# Compressibility (1/GPa) = 0.05166994
#
# Stress axis : x y z
#
# Youngs Moduli (GPa) = 69.85933 15.77800 18.26138
#
# Poissons Ratio (x) = 0.22035 -0.01785
# Poissons Ratio (y) = 0.97565 0.50043
# Poissons Ratio (z) = -0.06829 0.43238
#
# Static dielectric constant tensor:
#      x y z
#    x 1.613860 0.000000 -0.030190 
#    y 0.000000 1.573270 0.000000 
#    z -0.030190 0.000000 1.569310 
# 
# From -- ./inp_files/287650.got.cif
#   From: 2010.05.17/outbox.cif.g08.bks.cpg/sg12_144_cif.got.tgz:287650.got - 2010.06.03 13:09:07.
