data_PCOD9177774
_publ_section_title
;
Structure prediction by ZEFSAII (Michael W. Deem and Ramdas Pophale) SiO2 
 PCOD9177774
Probable space group: C 2/M
;
_chemical_formula_sum "Si O2"
_cell_formula_units_Z 48
_cell_length_a 14.310145
_cell_length_b 20.818375
_cell_length_c 14.996614
_cell_angle_alpha 90.000000
_cell_angle_beta 149.739912
_cell_angle_gamma 90.000000
_cell_volume 2251.390846
_symmetry_space_group_name_H-M "C 2/M"
_symmetry_group_IT_number 12
_symmetry_cell_setting 'monoclinic'
loop_
_space_group_symop_operation_xyz
x,y,z
-x,y,-z
-x,-y,-z
x,-y,z
1/2+x,1/2+y,z
1/2-x,1/2+y,-z
1/2-x,1/2-y,-z
1/2+x,1/2-y,z
loop_
_atom_site_type_symbol
_atom_site_label
_atom_site_fract_x
_atom_site_fract_y
_atom_site_fract_z
Si Si1 0.280415 0.500000 0.928008
Si Si2 0.540891 0.677429 0.371184
Si Si3 0.753566 0.927190 0.541179
Si Si4 0.374655 0.134220 0.167927
Si Si5 0.818860 0.724397 0.287379
Si Si6 0.585573 0.772685 0.241216
Si Si7 0.281360 0.500000 0.730758
O O1 0.194359 0.500000 0.756438
O O2 0.226385 0.566659 0.929341
O O3 0.497270 0.500000 0.088833
O O4 0.565342 0.607084 0.349592
O O5 0.371869 0.706528 0.287214
O O6 0.562711 0.723490 0.303721
O O7 0.720553 0.689977 0.581622
O O8 0.579501 0.885703 0.369257
O O9 0.738250 0.937736 0.634989
O O10 0.740525 0.000000 0.495389
O O11 0.296377 0.175025 0.186623
O O12 0.413577 0.178820 0.113766
O O13 0.634995 0.732792 0.194495
O O14 0.000000 0.707278 0.500000
#
# Coordination Sequence:
#
# PCOD9177774 Si02
#       7
#     4   8   8   8   8   8   4
#     4  11  21  35  45  72 101 124 166 193 247 288
#     4   8  14  25  41  67  98 124 157 191 234 288
#     4   9  17  30  46  72  96 124 159 197 239 279
#     4  10  19  29  52  77  98 123 163 201 231 289
#     4   9  16  25  46  74 101 129 150 196 248 283
#     4   8  15  27  42  70 100 125 150 197 243 277
#     4   9  23  33  45  68  97 140 150 195 249 290
#
# _framework density 21.320153999999999
#
# number of rings (size 3 to 8) (size 9 to 14) (size 15 to 20)
#    0.500    2.500    0.833    3.000    4.667    0.667 
#    0.000    0.000    1.833    6.500    0.000    1.167 
#    0.000    0.000    0.000    0.000    0.000    0.000 
#
# Total GULP energy -133687.888499 kJ/mol
# GULP energy per Si atom -5570.328687 kJ/mol
# Density = 2.127163 g / cm^3
# Si number density = 21.320154 Si / 1000 Ang^3
#
#
#
# Elastic Constant Matrix: (Units=GPa)
#
#
# Indices 1 2 3 4 5 6 
#
# 1 92.8622 41.5219 12.2958 0.0000 14.5286 0.0001
# 2 41.5219 88.6485 11.0723 0.0000 12.7974 0.0000
# 3 12.2958 11.0723 41.8876 0.0000 -2.8212 0.0001
# 4 0.0000 0.0000 0.0000 -3.0709 0.0000 16.2863
# 5 14.5286 12.7974 -2.8212 0.0000 16.9884 0.0001
# 6 0.0001 0.0000 0.0001 16.2863 0.0001 -66.7572
#
#
#
# Elastic Compliance Matrix: (Units=1/GPa)
#
#
# Indices 1 2 3 4 5 6 
#
# 1 0.015094 -0.005224 -0.003695 0.000000 -0.009587 0.000000
# 2 -0.005224 0.015177 -0.002981 0.000000 -0.007460 0.000000
# 3 -0.003695 -0.002981 0.026405 -0.000002 0.009791 0.000000
# 4 0.000000 0.000000 -0.000002 1.108182 -0.000003 0.270356
# 5 -0.009587 -0.007460 0.009791 -0.000003 0.074307 -0.000001
# 6 0.000000 0.000000 0.000000 0.270356 -0.000001 0.050977
#
#
# Mechanical properties :
#
#
# Convention : Reuss Voigt Hill
#
# Bulk Modulus (GPa) = 30.41788 39.24203 34.82995
# Shear Modulus (GPa) = 3.77386 -0.00072 1.88657
#
# Velocity S-wave (km/s) = 1.33189 -0.01834 0.94170
# Velocity P-wave (km/s) = 4.08208 4.29483 4.18981
#
# Compressibility (1/GPa) = 0.03287540
#
# Stress axis : x y z
#
# Youngs Moduli (GPa) = 66.25268 65.89068 37.87102
#
# Poissons Ratio (x) = 0.34423 0.13995
# Poissons Ratio (y) = 0.34612 0.11288
# Poissons Ratio (z) = 0.24483 0.19639
#
# Static dielectric constant tensor:
#      x y z
#    x 1.798660 0.000000 -0.034010 
#    y 0.000000 1.826630 0.000000 
#    z -0.034010 0.000000 1.884060 
# 
# From -- ./inp_files/272575.got.cif
#   From: 2010.05.17/outbox.cif.g08.bks.cpg/sg12_137_cif.got.tgz:272575.got - 2010.06.03 13:09:07.
