data_PCOD9177260
_publ_section_title
;
Structure prediction by ZEFSAII (Michael W. Deem and Ramdas Pophale) SiO2 
 PCOD9177260
Probable space group: C 2/M
;
_chemical_formula_sum "Si O2"
_cell_formula_units_Z 56
_cell_length_a 32.115396
_cell_length_b 25.860659
_cell_length_c 5.070353
_cell_angle_alpha 90.000000
_cell_angle_beta 97.550249
_cell_angle_gamma 90.000000
_cell_volume 4174.546641
_symmetry_space_group_name_H-M "C 2/M"
_symmetry_group_IT_number 12
_symmetry_cell_setting 'monoclinic'
loop_
_space_group_symop_operation_xyz
x,y,z
-x,y,-z
-x,-y,-z
x,-y,z
1/2+x,1/2+y,z
1/2-x,1/2+y,-z
1/2-x,1/2-y,-z
1/2+x,1/2-y,z
loop_
_atom_site_type_symbol
_atom_site_label
_atom_site_fract_x
_atom_site_fract_y
_atom_site_fract_z
Si Si1 0.660451 0.000000 0.998434
Si Si2 0.816819 0.728381 0.053702
Si Si3 0.272739 0.668731 0.023102
Si Si4 0.158896 0.672601 0.426084
Si Si5 0.597991 0.087930 0.149091
Si Si6 0.282140 0.000000 0.458170
Si Si7 0.248062 0.387880 0.506775
Si Si8 0.047009 0.439831 0.624845
O O1 0.632542 0.049861 0.046503
O O2 0.698774 0.000000 0.233143
O O3 0.679509 0.000000 0.721170
O O4 0.807777 0.788116 0.107916
O O5 0.844884 0.697909 0.289598
O O6 0.771493 0.699871 0.021284
O O7 0.832847 0.718477 0.773617
O O8 0.267041 0.624904 0.238069
O O9 0.275520 0.643123 0.740838
O O10 0.121488 0.638151 0.280273
O O11 0.200582 0.636038 0.468158
O O12 0.575930 0.063825 0.388800
O O13 0.564755 0.093382 0.883273
O O14 0.256416 0.947182 0.414221
O O15 0.046536 0.500000 0.714514
O O16 0.000000 0.425614 0.500000
#
# Coordination Sequence:
#
# PCOD9177260 Si02
#       8
#     4   8   8   8   8   4   8   8
#     4  12  22  30  43  58  76 106 118 158 202 246
#     4   9  17  29  41  58  74  95 122 152 183 231
#     4   9  17  29  42  53  74 100 125 149 182 226
#     4  10  19  27  43  60  77  93 119 154 197 239
#     4  12  21  33  46  62  77  97 126 157 203 243
#     4  12  22  30  40  58  85 100 128 158 196 242
#     4  10  19  28  40  57  76 101 125 152 188 233
#     4  11  22  35  47  59  75 100 130 157 187 238
#
# _framework density 13.414631
#
# number of rings (size 3 to 8) (size 9 to 14) (size 15 to 20)
#    0.000    1.571    2.857    3.857    4.000    4.571 
#    0.000    0.000    0.000    0.000    0.000    0.000 
#    0.000    0.000    0.000    0.000    0.000    0.000 
#
# Total GULP energy -156130.123753 kJ/mol
# GULP energy per Si atom -5576.075848 kJ/mol
# Density = 1.338410 g / cm^3
# Si number density = 13.414631 Si / 1000 Ang^3
#
#
#
# Elastic Constant Matrix: (Units=GPa)
#
#
# Indices 1 2 3 4 5 6 
#
# 1 18.9202 21.3207 10.5312 0.0000 4.1172 0.0000
# 2 21.3207 53.7684 17.3385 0.0000 6.6261 0.0000
# 3 10.5312 17.3385 75.8946 0.0000 3.3920 0.0000
# 4 0.0000 0.0000 0.0000 18.3473 0.0000 3.5132
# 5 4.1172 6.6261 3.3920 0.0000 18.0226 0.0000
# 6 0.0000 0.0000 0.0000 3.5132 0.0000 8.3430
#
#
#
# Elastic Compliance Matrix: (Units=1/GPa)
#
#
# Indices 1 2 3 4 5 6 
#
# 1 0.098448 -0.036428 -0.004974 0.000000 -0.008161 0.000000
# 2 -0.036428 0.034359 -0.002624 0.000000 -0.003817 0.000000
# 3 -0.004974 -0.002624 0.014494 0.000000 -0.000627 0.000000
# 4 0.000000 0.000000 0.000000 0.059284 0.000000 -0.024964
# 5 -0.008161 -0.003817 -0.000627 0.000000 0.058871 0.000000
# 6 0.000000 0.000000 0.000000 -0.024964 0.000000 0.130374
#
#
# Mechanical properties :
#
#
# Convention : Reuss Voigt Hill
#
# Bulk Modulus (GPa) = 16.87780 27.44043 22.15912
# Shear Modulus (GPa) = 9.92789 15.56876 12.74833
#
# Velocity S-wave (km/s) = 2.72339 3.41043 3.08609
# Velocity P-wave (km/s) = 4.74322 6.00067 5.40861
#
# Compressibility (1/GPa) = 0.05924942
#
# Stress axis : x y z
#
# Youngs Moduli (GPa) = 10.15769 29.10404 68.99458
#
# Poissons Ratio (x) = 1.06019 0.34317
# Poissons Ratio (y) = 0.37002 0.18106
# Poissons Ratio (z) = 0.05052 0.07638
#
# Static dielectric constant tensor:
#      x y z
#    x 1.427490 0.000000 -0.003600 
#    y 0.000000 1.448910 0.000000 
#    z -0.003600 0.000000 1.461020 
# 
# From -- ./inp_files/32460.got.cif
#   From: 2010.05.17/outbox.cif.g08.bks.cpg/sg12_17_cif.got.tgz:32460.got - 2010.06.03 13:09:07.
