data_PCOD9177155
_publ_section_title
;
Structure prediction by ZEFSAII (Michael W. Deem and Ramdas Pophale) SiO2 
 PCOD9177155
Probable space group: C 2/M
;
_chemical_formula_sum "Si O2"
_cell_formula_units_Z 38
_cell_length_a 12.967204
_cell_length_b 19.935017
_cell_length_c 11.294718
_cell_angle_alpha 90.000000
_cell_angle_beta 34.120765
_cell_angle_gamma 90.000000
_cell_volume 1637.774215
_symmetry_space_group_name_H-M "C 2/M"
_symmetry_group_IT_number 12
_symmetry_cell_setting 'monoclinic'
loop_
_space_group_symop_operation_xyz
x,y,z
-x,y,-z
-x,-y,-z
x,-y,z
1/2+x,1/2+y,z
1/2-x,1/2+y,-z
1/2-x,1/2-y,-z
1/2+x,1/2-y,z
loop_
_atom_site_type_symbol
_atom_site_label
_atom_site_fract_x
_atom_site_fract_y
_atom_site_fract_z
Si Si1 0.235802 0.733268 0.680934
Si Si2 0.824556 0.891184 0.256179
Si Si3 0.000000 0.500000 0.500000
Si Si4 0.000000 0.133366 0.500000
Si Si5 0.128506 0.074555 0.149772
Si Si6 0.865714 0.305915 0.952564
O O1 0.240998 0.813307 0.682261
O O2 0.411716 0.687385 0.492920
O O3 0.079537 0.709364 0.739406
O O4 0.180045 0.704788 0.864782
O O5 0.658802 0.940996 0.381068
O O6 0.932773 0.909895 0.274621
O O7 0.000000 0.895805 0.000000
O O8 0.109680 0.084412 0.308868
O O9 0.182885 0.000000 0.063646
O O10 0.293184 0.125577 0.965092
O O11 0.750000 0.250000 0.000000
#
# Coordination Sequence:
#
# PCOD9177155 Si02
#       6
#     8   8   2   4   8   8
#     4  10  20  39  65  95 121 174 227 285 337 386
#     4  12  23  46  69  98 144 175 227 288 340 415
#     4  12  28  40  64 106 142 188 216 258 368 424
#     4  10  24  42  62  94 142 170 232 290 325 415
#     4  11  23  42  64  95 137 185 216 280 351 398
#     4  10  18  38  64  92 120 169 235 269 332 403
#
# _framework density 23.202221000000002
#
# number of rings (size 3 to 8) (size 9 to 14) (size 15 to 20)
#    0.000    1.263    5.263    1.263    0.000    0.842 
#    7.579    9.474    0.000    0.000    0.000    0.000 
#    0.000    0.000    0.000    0.000    0.000    0.000 
#
# Total GULP energy -105774.124786 kJ/mol
# GULP energy per Si atom -5567.059199 kJ/mol
# Density = 2.314941 g / cm^3
# Si number density = 23.202221 Si / 1000 Ang^3
#
#
#
# Elastic Constant Matrix: (Units=GPa)
#
#
# Indices 1 2 3 4 5 6 
#
# 1 123.1830 72.8132 31.9735 0.0047 -37.7978 -0.0020
# 2 72.8132 236.5766 29.6054 0.0052 -44.1952 -0.0035
# 3 31.9735 29.6054 46.9893 0.0102 -20.9769 -0.0066
# 4 0.0047 0.0052 0.0102 32.4261 -0.0072 -15.0658
# 5 -37.7978 -44.1952 -20.9769 -0.0072 51.5711 0.0038
# 6 -0.0020 -0.0035 -0.0066 -15.0658 0.0038 31.8698
#
#
#
# Elastic Compliance Matrix: (Units=1/GPa)
#
#
# Indices 1 2 3 4 5 6 
#
# 1 0.012211 -0.002215 -0.004601 0.000001 0.005180 -0.000001
# 2 -0.002215 0.005525 -0.000715 0.000000 0.002821 0.000000
# 3 -0.004601 -0.000715 0.028205 -0.000005 0.007488 0.000002
# 4 0.000001 0.000000 -0.000005 0.039519 0.000003 0.018682
# 5 0.005180 0.002821 0.007488 0.000003 0.028651 0.000000
# 6 -0.000001 0.000000 0.000002 0.018682 0.000000 0.040209
#
#
# Mechanical properties :
#
#
# Convention : Reuss Voigt Hill
#
# Bulk Modulus (GPa) = 32.38299 75.05923 53.72111
# Shear Modulus (GPa) = 27.82817 41.33055 34.57936
#
# Velocity S-wave (km/s) = 3.46696 4.22515 3.86469
# Velocity P-wave (km/s) = 5.47846 7.49818 6.56644
#
# Compressibility (1/GPa) = 0.03088041
#
# Stress axis : x y z
#
# Youngs Moduli (GPa) = 81.89439 180.99478 35.45455
#
# Poissons Ratio (x) = 0.40086 0.16312
# Poissons Ratio (y) = 0.18138 0.02534
# Poissons Ratio (z) = 0.37678 0.12936
#
# Static dielectric constant tensor:
#      x y z
#    x 1.731060 0.000000 -0.232050 
#    y 0.000000 1.827430 0.000000 
#    z -0.232050 0.000000 1.965640 
# 
# From -- ./inp_files/133679.got.cif
#   From: 2010.05.17/outbox.cif.g08.bks.cpg/sg12_67_cif.got.tgz:133679.got - 2010.06.03 13:09:07.
