data_PCOD9177961
_publ_section_title
;
Structure prediction by ZEFSAII (Michael W. Deem and Ramdas Pophale) SiO2 
 PCOD9177961
Probable space group: C 2/M
;
_chemical_formula_sum "Si O2"
_cell_formula_units_Z 64
_cell_length_a 22.388638
_cell_length_b 18.294454
_cell_length_c 11.646124
_cell_angle_alpha 90.000000
_cell_angle_beta 144.021033
_cell_angle_gamma 90.000000
_cell_volume 2802.384384
_symmetry_space_group_name_H-M "C 2/M"
_symmetry_group_IT_number 12
_symmetry_cell_setting 'monoclinic'
loop_
_space_group_symop_operation_xyz
x,y,z
-x,y,-z
-x,-y,-z
x,-y,z
1/2+x,1/2+y,z
1/2-x,1/2+y,-z
1/2-x,1/2-y,-z
1/2+x,1/2-y,z
loop_
_atom_site_type_symbol
_atom_site_label
_atom_site_fract_x
_atom_site_fract_y
_atom_site_fract_z
Si Si1 0.596793 0.080913 0.287368
Si Si2 0.973234 0.731877 0.742211
Si Si3 0.227306 0.241337 0.727372
Si Si4 0.932800 0.112434 0.757681
Si Si5 0.263138 0.082062 0.708299
Si Si6 0.898677 0.774067 0.262809
Si Si7 0.375903 0.577142 0.103565
Si Si8 0.703706 0.386942 0.249491
O O1 0.531645 0.152675 0.209830
O O2 0.640521 0.082968 0.226869
O O3 0.695797 0.091128 0.524373
O O4 0.552632 0.000000 0.240004
O O5 0.874163 0.745802 0.507323
O O6 0.960511 0.801390 0.804874
O O7 0.069411 0.737237 0.807134
O O8 0.260916 0.157049 0.776356
O O9 0.190150 0.259548 0.798004
O O10 0.301331 0.299715 0.783185
O O11 0.834167 0.093880 0.526590
O O12 0.892261 0.090198 0.820977
O O13 0.023246 0.081630 0.819680
O O14 0.256837 0.000000 0.750233
O O15 0.875220 0.856915 0.190359
O O16 0.000000 0.774390 0.500000
O O17 0.371840 0.500000 0.158290
O O18 0.292870 0.581925 0.873361
#
# Coordination Sequence:
#
# PCOD9177961 Si02
#       8
#     8   8   8   8   8   8   8   8
#     4   9  16  27  46  71  97 120 144 184 232 269
#     4   8  15  29  47  67  91 117 154 191 222 262
#     4   9  17  30  48  66  90 123 153 186 222 260
#     4   9  17  29  45  67  95 125 150 182 223 267
#     4   9  16  26  45  74  98 117 147 185 226 268
#     4   9  19  34  50  66  85 116 156 194 226 259
#     4  11  22  32  45  68  95 122 151 182 221 273
#     4  10  19  30  45  66  95 126 153 178 219 274
#
# _framework density 22.837695
#
# number of rings (size 3 to 8) (size 9 to 14) (size 15 to 20)
#    0.000    2.750    0.000    2.625    0.000    6.250 
#    0.000    0.000    0.000   10.125    0.000    3.500 
#    0.000   13.000    0.000    0.000    0.000    0.000 
#
# Total GULP energy -178549.346373 kJ/mol
# GULP energy per Si atom -5579.667074 kJ/mol
# Density = 2.278572 g / cm^3
# Si number density = 22.837695 Si / 1000 Ang^3
#
#
#
# Elastic Constant Matrix: (Units=GPa)
#
#
# Indices 1 2 3 4 5 6 
#
# 1 75.1003 34.5438 3.5868 0.0000 0.1460 0.0000
# 2 34.5438 182.1604 -1.1072 0.0000 7.5860 0.0000
# 3 3.5868 -1.1072 46.3076 0.0000 -1.2522 0.0000
# 4 0.0000 0.0000 0.0000 11.3059 0.0000 1.9124
# 5 0.1460 7.5860 -1.2522 0.0000 16.7949 0.0000
# 6 0.0000 0.0000 0.0000 1.9124 0.0000 9.6611
#
#
#
# Elastic Compliance Matrix: (Units=1/GPa)
#
#
# Indices 1 2 3 4 5 6 
#
# 1 0.014673 -0.002834 -0.001176 0.000000 0.001065 0.000000
# 2 -0.002834 0.006142 0.000293 0.000000 -0.002728 0.000000
# 3 -0.001176 0.000293 0.021733 0.000000 0.001498 0.000000
# 4 0.000000 0.000000 0.000000 0.091513 0.000000 -0.018115
# 5 0.001065 -0.002728 0.001498 0.000000 0.060877 0.000000
# 6 0.000000 0.000000 0.000000 -0.018115 0.000000 0.107094
#
#
# Mechanical properties :
#
#
# Convention : Reuss Voigt Hill
#
# Bulk Modulus (GPa) = 28.47776 41.95723 35.21749
# Shear Modulus (GPa) = 15.56800 25.32203 20.44502
#
# Velocity S-wave (km/s) = 2.61373 3.33345 2.99529
# Velocity P-wave (km/s) = 4.64817 5.76434 5.23608
#
# Compressibility (1/GPa) = 0.03511512
#
# Stress axis : x y z
#
# Youngs Moduli (GPa) = 68.15161 162.80076 46.01233
#
# Poissons Ratio (x) = 0.46138 0.05409
# Poissons Ratio (y) = 0.19314 -0.01346
# Poissons Ratio (z) = 0.08011 -0.04764
#
# Static dielectric constant tensor:
#      x y z
#    x 1.792570 0.000000 0.039250 
#    y 0.000000 1.867810 0.000000 
#    z 0.039250 0.000000 1.952630 
# 
# From -- ./inp_files/168817.got.cif
#   From: 2010.05.17/outbox.cif.g08.bks.cpg/sg12_85_cif.got.tgz:168817.got - 2010.06.03 13:09:07.
