data_PCOD9177571
_publ_section_title
;
Structure prediction by ZEFSAII (Michael W. Deem and Ramdas Pophale) SiO2 
 PCOD9177571
Probable space group: C 2/M
;
_chemical_formula_sum "Si O2"
_cell_formula_units_Z 56
_cell_length_a 28.201787
_cell_length_b 8.820696
_cell_length_c 18.932075
_cell_angle_alpha 90.000000
_cell_angle_beta 48.744760
_cell_angle_gamma 90.000000
_cell_volume 3540.529197
_symmetry_space_group_name_H-M "C 2/M"
_symmetry_group_IT_number 12
_symmetry_cell_setting 'monoclinic'
loop_
_space_group_symop_operation_xyz
x,y,z
-x,y,-z
-x,-y,-z
x,-y,z
1/2+x,1/2+y,z
1/2-x,1/2+y,-z
1/2-x,1/2-y,-z
1/2+x,1/2-y,z
loop_
_atom_site_type_symbol
_atom_site_label
_atom_site_fract_x
_atom_site_fract_y
_atom_site_fract_z
Si Si1 0.003543 0.683680 0.672447
Si Si2 0.931355 0.325500 0.105376
Si Si3 0.068167 0.323984 0.472028
Si Si4 0.007229 0.180906 0.823357
Si Si5 0.128942 0.315881 0.272831
Si Si6 0.749237 0.180843 0.922416
Si Si7 0.626643 0.319498 0.970734
O O1 0.007164 0.500000 0.671816
O O2 0.013976 0.752277 0.738819
O O3 0.933347 0.720440 0.712374
O O4 0.053410 0.739775 0.563981
O O5 0.911284 0.500000 0.131152
O O6 0.886654 0.234103 0.096163
O O7 0.943622 0.251516 0.169264
O O8 0.000000 0.323347 0.000000
O O9 0.086017 0.500000 0.464660
O O10 0.115394 0.261156 0.366554
O O11 0.000000 0.324257 0.500000
O O12 0.013695 0.000000 0.816507
O O13 0.936789 0.216015 0.922107
O O14 0.134245 0.500000 0.268461
O O15 0.190318 0.243427 0.178839
O O16 0.685863 0.235019 0.945856
O O17 0.751322 0.000000 0.924516
O O18 0.750000 0.250000 0.000000
O O19 0.636354 0.500000 0.963541
#
# Coordination Sequence:
#
# PCOD9177571 Si02
#       7
#     8   8   8   8   8   8   8
#     4   9  16  27  46  70  94 121 153 189 229 274
#     4   9  17  30  48  68  90 118 152 188 228 274
#     4   7  12  25  45  67  89 116 151 188 227 273
#     4  10  19  29  44  68  96 123 151 188 232 273
#     4   9  17  31  49  67  91 123 157 192 230 271
#     4  12  24  35  47  66  93 125 161 194 226 266
#     4  10  20  34  49  66  92 124 157 191 228 270
#
# _framework density 15.816844
#
# number of rings (size 3 to 8) (size 9 to 14) (size 15 to 20)
#    0.000    2.571    0.000    5.143    0.000    6.286 
#    0.000    0.714    0.000    2.571    0.000    1.000 
#    0.000    0.000    0.000    0.000    0.000    0.000 
#
# Total GULP energy -156030.331365 kJ/mol
# GULP energy per Si atom -5572.511834 kJ/mol
# Density = 1.578084 g / cm^3
# Si number density = 15.816844 Si / 1000 Ang^3
#
#
#
# Elastic Constant Matrix: (Units=GPa)
#
#
# Indices 1 2 3 4 5 6 
#
# 1 92.3236 39.7417 62.9306 -0.0010 24.1015 -0.0004
# 2 39.7417 52.2810 45.8954 -0.0041 8.2291 0.0040
# 3 62.9306 45.8954 130.1707 -0.0016 25.6363 0.0041
# 4 -0.0010 -0.0041 -0.0016 18.8676 0.0010 2.6669
# 5 24.1015 8.2291 25.6363 0.0010 28.6939 -0.0005
# 6 -0.0004 0.0040 0.0041 2.6669 -0.0005 24.5891
#
#
#
# Elastic Compliance Matrix: (Units=1/GPa)
#
#
# Indices 1 2 3 4 5 6 
#
# 1 0.021202 -0.010553 -0.004390 -0.000001 -0.010859 0.000003
# 2 -0.010553 0.032976 -0.007776 0.000006 0.006355 -0.000005
# 3 -0.004390 -0.007776 0.013811 0.000000 -0.006422 -0.000001
# 4 -0.000001 0.000006 0.000000 0.053826 -0.000002 -0.005838
# 5 -0.010859 0.006355 -0.006422 -0.000002 0.047887 0.000001
# 6 0.000003 -0.000005 -0.000001 -0.005838 0.000001 0.041302
#
#
# Mechanical properties :
#
#
# Convention : Reuss Voigt Hill
#
# Bulk Modulus (GPa) = 44.34771 63.54562 53.94667
# Shear Modulus (GPa) = 18.94236 22.84396 20.89316
#
# Velocity S-wave (km/s) = 3.46440 3.80449 3.63842
# Velocity P-wave (km/s) = 6.64093 7.71764 7.19944
#
# Compressibility (1/GPa) = 0.02254908
#
# Stress axis : x y z
#
# Youngs Moduli (GPa) = 47.16593 30.32548 72.40557
#
# Poissons Ratio (x) = 0.32003 0.31789
# Poissons Ratio (y) = 0.49775 0.56303
# Poissons Ratio (z) = 0.20708 0.23581
#
# Static dielectric constant tensor:
#      x y z
#    x 1.505660 0.000000 0.012440 
#    y 0.000000 1.529360 0.000000 
#    z 0.012440 0.000000 1.540260 
# 
# From -- ./inp_files/291847.got.cif
#   From: 2010.05.17/outbox.cif.g08.bks.cpg/sg12_146_cif.got.tgz:291847.got - 2010.06.03 13:09:07.
