data_PCOD9177237
_publ_section_title
;
Structure prediction by ZEFSAII (Michael W. Deem and Ramdas Pophale) SiO2 
 PCOD9177237
Probable space group: C 2/M
;
_chemical_formula_sum "Si O2"
_cell_formula_units_Z 38
_cell_length_a 18.501671
_cell_length_b 9.983717
_cell_length_c 12.825053
_cell_angle_alpha 90.000000
_cell_angle_beta 41.531879
_cell_angle_gamma 90.000000
_cell_volume 1570.724168
_symmetry_space_group_name_H-M "C 2/M"
_symmetry_group_IT_number 12
_symmetry_cell_setting 'monoclinic'
loop_
_space_group_symop_operation_xyz
x,y,z
-x,y,-z
-x,-y,-z
x,-y,z
1/2+x,1/2+y,z
1/2-x,1/2+y,-z
1/2-x,1/2-y,-z
1/2+x,1/2-y,z
loop_
_atom_site_type_symbol
_atom_site_label
_atom_site_fract_x
_atom_site_fract_y
_atom_site_fract_z
Si Si1 0.409482 0.786972 0.453630
Si Si2 0.628292 0.000000 0.882487
Si Si3 0.500000 0.000000 0.500000
Si Si4 0.199541 0.786911 0.830301
Si Si5 0.806169 0.500000 0.421954
Si Si6 0.905759 0.000000 0.206819
Si Si7 0.992228 0.000000 0.632969
Si Si8 0.350086 0.500000 0.959798
O O1 0.310671 0.784324 0.644094
O O2 0.453068 0.639093 0.390837
O O3 0.496414 0.883333 0.413492
O O4 0.366122 0.865970 0.399176
O O5 0.658682 0.139997 0.900839
O O6 0.692723 0.000000 0.702543
O O7 0.500000 0.000000 0.000000
O O8 0.119385 0.870741 0.839122
O O9 0.208130 0.873476 0.925599
O O10 0.690327 0.500000 0.604133
O O11 0.025218 0.000000 0.127487
O O12 0.000000 0.000000 0.500000
O O13 0.871759 0.000000 0.813779
#
# Coordination Sequence:
#
# PCOD9177237 Si02
#       8
#     8   4   2   8   4   4   4   4
#     4  10  22  42  68  91 128 165 221 270 328 374
#     4  12  24  35  58  95 146 169 218 250 313 396
#     4  10  18  42  72  88 116 162 218 272 326 388
#     4  10  22  40  61  97 134 169 204 264 318 390
#     4   9  23  37  60  98 128 179 205 262 315 381
#     4   9  19  37  63  92 127 173 215 239 317 395
#     4  12  26  43  68  97 116 162 232 278 310 375
#     4  11  23  41  67  88 132 177 210 255 329 380
#
# _framework density 24.192661999999999
#
# number of rings (size 3 to 8) (size 9 to 14) (size 15 to 20)
#    0.000    1.684    1.053    5.053    8.842    1.684 
#    0.000    1.053    0.000    0.000    0.000    0.000 
#    0.000    0.000    0.000    0.000    0.000    0.000 
#
# Total GULP energy -106097.187125 kJ/mol
# GULP energy per Si atom -5584.062480 kJ/mol
# Density = 2.413760 g / cm^3
# Si number density = 24.192662 Si / 1000 Ang^3
#
#
#
# Elastic Constant Matrix: (Units=GPa)
#
#
# Indices 1 2 3 4 5 6 
#
# 1 29.1842 29.2801 -18.5333 0.0000 1.9403 0.0000
# 2 29.2801 241.9314 33.3985 0.0000 5.5842 0.0000
# 3 -18.5333 33.3985 104.9905 0.0000 9.0235 0.0000
# 4 0.0000 0.0000 0.0000 1.0796 0.0000 10.8631
# 5 1.9403 5.5842 9.0235 0.0000 30.8886 0.0000
# 6 0.0000 0.0000 0.0000 10.8631 0.0000 0.5853
#
#
#
# Elastic Compliance Matrix: (Units=1/GPa)
#
#
# Indices 1 2 3 4 5 6 
#
# 1 0.049408 -0.007454 0.011533 0.000000 -0.005125 0.000000
# 2 -0.007454 0.005452 -0.003083 0.000000 0.000383 0.000000
# 3 0.011533 -0.003083 0.012879 0.000000 -0.003929 0.000000
# 4 0.000000 0.000000 0.000000 -0.004987 0.000000 0.092550
# 5 -0.005125 0.000383 -0.003929 0.000000 0.033775 0.000000
# 6 0.000000 0.000000 0.000000 0.092550 0.000000 -0.009198
#
#
# Mechanical properties :
#
#
# Convention : Reuss Voigt Hill
#
# Bulk Modulus (GPa) = 14.34053 51.59963 32.97008
# Shear Modulus (GPa) = 46.04872 28.64142 37.34507
#
# Velocity S-wave (km/s) = 4.36755 3.44450 3.93320
# Velocity P-wave (km/s) = 5.60129 6.09872 5.85529
#
# Compressibility (1/GPa) = 0.06973245
#
# Stress axis : x y z
#
# Youngs Moduli (GPa) = 20.23966 183.41053 77.64564
#
# Poissons Ratio (x) = 1.36705 -0.89550
# Poissons Ratio (y) = 0.15086 0.23939
# Poissons Ratio (z) = -0.23343 0.56547
#
# Static dielectric constant tensor:
#      x y z
#    x 2.032520 0.000000 0.015470 
#    y 0.000000 1.891250 0.000000 
#    z 0.015470 0.000000 1.965680 
# 
# From -- ./inp_files/220656.got.cif
#   From: 2010.05.17/outbox.cif.g08.bks.cpg/sg12_111_cif.got.tgz:220656.got - 2010.06.03 13:09:07.
