data_PCOD9177609
_publ_section_title
;
Structure prediction by ZEFSAII (Michael W. Deem and Ramdas Pophale) SiO2 
 PCOD9177609
Probable space group: C 2/M
;
_chemical_formula_sum "Si O2"
_cell_formula_units_Z 56
_cell_length_a 24.586994
_cell_length_b 9.452905
_cell_length_c 18.021075
_cell_angle_alpha 90.000000
_cell_angle_beta 62.188845
_cell_angle_gamma 90.000000
_cell_volume 3704.626482
_symmetry_space_group_name_H-M "C 2/M"
_symmetry_group_IT_number 12
_symmetry_cell_setting 'monoclinic'
loop_
_space_group_symop_operation_xyz
x,y,z
-x,y,-z
-x,-y,-z
x,-y,z
1/2+x,1/2+y,z
1/2-x,1/2+y,-z
1/2-x,1/2-y,-z
1/2+x,1/2-y,z
loop_
_atom_site_type_symbol
_atom_site_label
_atom_site_fract_x
_atom_site_fract_y
_atom_site_fract_z
Si Si1 0.572349 0.831834 0.961020
Si Si2 0.205365 0.834741 0.299499
Si Si3 0.336901 0.667584 0.997201
Si Si4 0.685407 0.837164 0.455069
Si Si5 0.716559 0.332420 0.127007
Si Si6 0.351490 0.165555 0.234817
Si Si7 0.666647 0.662865 0.610027
O O1 0.604218 0.742835 0.005465
O O2 0.606780 0.796547 0.861987
O O3 0.581847 0.000000 0.968016
O O4 0.500000 0.805659 0.000000
O O5 0.176718 0.738448 0.381622
O O6 0.189322 0.798110 0.224950
O O7 0.279691 0.820319 0.257972
O O8 0.191169 0.000000 0.322512
O O9 0.337069 0.500000 0.011876
O O10 0.277167 0.740628 0.072401
O O11 0.328274 0.688411 0.914342
O O12 0.656354 0.749357 0.541094
O O13 0.759334 0.835809 0.422927
O O14 0.665635 0.000000 0.467471
O O15 0.733728 0.500000 0.118001
O O16 0.362012 0.260355 0.300420
O O17 0.361559 0.000000 0.246352
O O18 0.647676 0.500000 0.615487
#
# Coordination Sequence:
#
# PCOD9177609 Si02
#       7
#     8   8   8   8   8   8   8
#     4  10  20  34  49  63  85 119 155 188 225 268
#     4   9  15  25  41  58  82 113 144 175 209 255
#     4  10  19  29  45  66  88 113 147 189 227 260
#     4   9  16  24  35  55  82 109 139 172 207 250
#     4   9  17  30  45  63  88 119 149 179 219 269
#     4   9  16  27  42  58  78 109 146 181 215 253
#     4   9  16  25  37  54  78 109 141 172 209 254
#
# _framework density 15.116232999999999
#
# number of rings (size 3 to 8) (size 9 to 14) (size 15 to 20)
#    0.000    2.714    1.429    1.286    0.000    5.429 
#    0.000    0.000    0.000    0.000    0.000    0.000 
#    0.000    1.143    0.000   13.143    0.000    4.571 
#
# Total GULP energy -155985.703786 kJ/mol
# GULP energy per Si atom -5570.917992 kJ/mol
# Density = 1.508183 g / cm^3
# Si number density = 15.116233 Si / 1000 Ang^3
#
#
#
# Elastic Constant Matrix: (Units=GPa)
#
#
# Indices 1 2 3 4 5 6 
#
# 1 58.1444 46.5356 38.8432 0.0000 17.5243 0.0000
# 2 46.5356 91.6831 64.9762 0.0000 27.1079 -0.0001
# 3 38.8432 64.9762 87.8191 0.0000 34.9108 0.0000
# 4 0.0000 0.0000 0.0000 24.3738 0.0000 7.5645
# 5 17.5243 27.1079 34.9108 0.0000 24.3920 0.0000
# 6 0.0000 -0.0001 0.0000 7.5645 0.0000 17.7325
#
#
#
# Elastic Compliance Matrix: (Units=1/GPa)
#
#
# Indices 1 2 3 4 5 6 
#
# 1 0.029879 -0.012063 -0.002520 0.000000 -0.004453 0.000000
# 2 -0.012063 0.027884 -0.014898 0.000000 -0.000999 0.000000
# 3 -0.002520 -0.014898 0.037637 0.000000 -0.035500 0.000000
# 4 0.000000 0.000000 0.000000 0.047288 0.000000 -0.020173
# 5 -0.004453 -0.000999 -0.035500 0.000000 0.096116 0.000000
# 6 0.000000 0.000000 0.000000 -0.020173 0.000000 0.064999
#
#
# Mechanical properties :
#
#
# Convention : Reuss Voigt Hill
#
# Bulk Modulus (GPa) = 27.44447 59.81740 43.63094
# Shear Modulus (GPa) = 13.33652 19.11910 16.22781
#
# Velocity S-wave (km/s) = 2.97352 3.56027 3.28004
# Velocity P-wave (km/s) = 5.47578 7.52052 6.57808
#
# Compressibility (1/GPa) = 0.03643721
#
# Stress axis : x y z
#
# Youngs Moduli (GPa) = 33.46867 35.86345 26.56965
#
# Poissons Ratio (x) = 0.43261 0.06696
# Poissons Ratio (y) = 0.40372 0.39583
# Poissons Ratio (z) = 0.08435 0.53429
#
# Static dielectric constant tensor:
#      x y z
#    x 1.479390 0.000000 0.024630 
#    y 0.000000 1.507650 0.000000 
#    z 0.024630 0.000000 1.496530 
# 
# From -- ./inp_files/287396.got.cif
#   From: 2010.05.17/outbox.cif.g08.bks.cpg/sg12_144_cif.got.tgz:287396.got - 2010.06.03 13:09:07.
