data_PCOD9177787
_publ_section_title
;
Structure prediction by ZEFSAII (Michael W. Deem and Ramdas Pophale) SiO2 
 PCOD9177787
Probable space group: C 2/M
;
_chemical_formula_sum "Si O2"
_cell_formula_units_Z 56
_cell_length_a 24.448771
_cell_length_b 7.290626
_cell_length_c 15.470291
_cell_angle_alpha 90.000000
_cell_angle_beta 109.533508
_cell_angle_gamma 90.000000
_cell_volume 2598.823963
_symmetry_space_group_name_H-M "C 2/M"
_symmetry_group_IT_number 12
_symmetry_cell_setting 'monoclinic'
loop_
_space_group_symop_operation_xyz
x,y,z
-x,y,-z
-x,-y,-z
x,-y,z
1/2+x,1/2+y,z
1/2-x,1/2+y,-z
1/2-x,1/2-y,-z
1/2+x,1/2-y,z
loop_
_atom_site_type_symbol
_atom_site_label
_atom_site_fract_x
_atom_site_fract_y
_atom_site_fract_z
Si Si1 0.311535 0.784641 0.829731
Si Si2 0.485604 0.777251 0.090194
Si Si3 0.596360 0.223925 0.259963
Si Si4 0.926174 0.723410 0.374462
Si Si5 0.441648 0.776959 0.577322
Si Si6 0.646739 0.223637 0.961702
Si Si7 0.682273 0.779826 0.795622
O O1 0.350524 0.712860 0.771833
O O2 0.242970 0.765440 0.783211
O O3 0.325561 0.000000 0.841308
O O4 0.328977 0.710775 0.933544
O O5 0.536601 0.720703 0.181287
O O6 0.420778 0.722605 0.081405
O O7 0.485847 0.000000 0.090208
O O8 0.500000 0.719504 0.000000
O O9 0.594097 0.283648 0.358136
O O10 0.597146 0.000000 0.261915
O O11 0.925703 0.500000 0.372628
O O12 0.919982 0.780202 0.471291
O O13 0.873901 0.785998 0.286412
O O14 0.990680 0.777640 0.378584
O O15 0.441307 0.000000 0.576378
O O16 0.680556 0.285238 0.894122
O O17 0.648746 0.000000 0.963554
O O18 0.678397 0.000000 0.796290
#
# Coordination Sequence:
#
# PCOD9177787 Si02
#       7
#     8   8   8   8   8   8   8
#     4  10  19  30  42  61  89 117 144 175 207 248
#     4   9  13  20  36  60  87 108 129 170 221 256
#     4   9  15  23  38  61  87 111 137 173 219 257
#     4   8  14  25  41  63  88 108 134 174 217 256
#     4   8  13  23  41  64  87 108 131 172 225 262
#     4   9  16  26  41  62  87 112 141 177 216 252
#     4  10  19  30  44  62  85 116 148 175 205 247
#
# _framework density 21.548207000000001
#
# number of rings (size 3 to 8) (size 9 to 14) (size 15 to 20)
#    0.000    3.000    1.429    2.143    0.000    3.429 
#    0.000    0.714    0.000    0.000    0.000    8.000 
#    0.000    0.000    0.000    0.000    0.000    0.000 
#
# Total GULP energy -156366.760372 kJ/mol
# GULP energy per Si atom -5584.527156 kJ/mol
# Density = 2.149916 g / cm^3
# Si number density = 21.548207 Si / 1000 Ang^3
#
#
#
# Elastic Constant Matrix: (Units=GPa)
#
#
# Indices 1 2 3 4 5 6 
#
# 1 117.0128 -1.3261 70.2921 0.0000 -19.6256 0.0000
# 2 -1.3261 89.1913 4.9536 0.0000 -4.3610 0.0000
# 3 70.2921 4.9536 122.9553 0.0000 -28.8375 0.0000
# 4 0.0000 0.0000 0.0000 -17.2568 0.0000 2.5391
# 5 -19.6256 -4.3610 -28.8375 0.0000 30.0400 0.0000
# 6 0.0000 0.0000 0.0000 2.5391 0.0000 5.4892
#
#
#
# Elastic Compliance Matrix: (Units=1/GPa)
#
#
# Indices 1 2 3 4 5 6 
#
# 1 0.013129 0.000680 -0.007096 0.000000 0.001864 0.000000
# 2 0.000680 0.011328 -0.000459 0.000000 0.001649 0.000000
# 3 -0.007096 -0.000459 0.014332 0.000000 0.009056 0.000000
# 4 0.000000 0.000000 0.000000 -0.054255 0.000000 0.025097
# 5 0.001864 0.001649 0.009056 0.000000 0.043440 0.000000
# 6 0.000000 0.000000 0.000000 0.025097 0.000000 0.170567
#
#
# Mechanical properties :
#
#
# Convention : Reuss Voigt Hill
#
# Bulk Modulus (GPa) = 39.93453 52.99986 46.46719
# Shear Modulus (GPa) = 22.66172 20.67046 21.66609
#
# Velocity S-wave (km/s) = 3.24647 3.10056 3.17436
# Velocity P-wave (km/s) = 5.71189 6.12106 5.92001
#
# Compressibility (1/GPa) = 0.02504098
#
# Stress axis : x y z
#
# Youngs Moduli (GPa) = 76.16621 88.27633 69.77334
#
# Poissons Ratio (x) = -0.06007 0.49511
# Poissons Ratio (y) = -0.05183 0.03201
# Poissons Ratio (z) = 0.54047 0.04049
#
# Static dielectric constant tensor:
#      x y z
#    x 1.741190 0.000000 -0.020840 
#    y 0.000000 1.875660 0.000000 
#    z -0.020840 0.000000 1.754590 
# 
# From -- ./inp_files/231824.got.cif
#   From: 2010.05.17/outbox.cif.g08.bks.cpg/sg12_116_cif.got.tgz:231824.got - 2010.06.03 13:09:07.
