data_PCOD9177909
_publ_section_title
;
Structure prediction by ZEFSAII (Michael W. Deem and Ramdas Pophale) SiO2 
 PCOD9177909
Probable space group: C 2/M
;
_chemical_formula_sum "Si O2"
_cell_formula_units_Z 64
_cell_length_a 28.471049
_cell_length_b 8.926192
_cell_length_c 22.335534
_cell_angle_alpha 90.000000
_cell_angle_beta 48.082711
_cell_angle_gamma 90.000000
_cell_volume 4223.798294
_symmetry_space_group_name_H-M "C 2/M"
_symmetry_group_IT_number 12
_symmetry_cell_setting 'monoclinic'
loop_
_space_group_symop_operation_xyz
x,y,z
-x,y,-z
-x,-y,-z
x,-y,z
1/2+x,1/2+y,z
1/2-x,1/2+y,-z
1/2-x,1/2-y,-z
1/2+x,1/2-y,z
loop_
_atom_site_type_symbol
_atom_site_label
_atom_site_fract_x
_atom_site_fract_y
_atom_site_fract_z
Si Si1 0.877541 0.678290 0.232641
Si Si2 0.152141 0.680163 0.972625
Si Si3 0.728230 0.180457 0.081880
Si Si4 0.074359 0.821282 0.930625
Si Si5 0.154969 0.827736 0.550298
Si Si6 0.955218 0.319887 0.287481
Si Si7 0.234640 0.172202 0.606982
Si Si8 0.097145 0.318668 0.149509
O O1 0.878268 0.500000 0.222738
O O2 0.901027 0.761805 0.153820
O O3 0.923707 0.712543 0.249550
O O4 0.808100 0.732692 0.311467
O O5 0.155800 0.500000 0.968667
O O6 0.222521 0.749447 0.913701
O O7 0.112227 0.741063 0.951454
O O8 0.118075 0.726169 0.064358
O O9 0.653925 0.220115 0.146625
O O10 0.734030 0.000000 0.075982
O O11 0.750000 0.250000 0.000000
O O12 0.082922 0.000000 0.927494
O O13 0.000000 0.787980 0.000000
O O14 0.089105 0.752655 0.624536
O O15 0.195981 0.825179 0.577002
O O16 0.197226 0.740469 0.466117
O O17 0.146856 0.000000 0.539739
O O18 0.953769 0.500000 0.295885
O O19 0.027420 0.265561 0.225536
O O20 0.239088 0.000000 0.622529
O O21 0.094224 0.500000 0.150540
#
# Coordination Sequence:
#
# PCOD9177909 Si02
#       8
#     8   8   8   8   8   8   8   8
#     4  10  19  30  45  63  85 116 151 185 218 255
#     4  10  19  32  48  64  84 114 151 188 225 263
#     4   9  16  28  45  65  87 112 144 182 223 265
#     4  11  23  35  46  63  88 117 150 187 223 259
#     4   9  16  25  38  59  84 110 141 176 215 257
#     4   9  16  27  42  61  86 116 147 176 212 259
#     4   9  16  27  42  58  80 111 145 180 215 254
#     4   8  15  27  44  64  86 113 144 177 215 262
#
# _framework density 15.152239
#
# number of rings (size 3 to 8) (size 9 to 14) (size 15 to 20)
#    0.000    2.625    0.000    3.750    0.000    5.500 
#    0.000    3.750    0.000    0.000    0.000    0.000 
#    0.000    1.000    0.000   10.750    0.000    5.250 
#
# Total GULP energy -178265.621896 kJ/mol
# GULP energy per Si atom -5570.800684 kJ/mol
# Density = 1.511775 g / cm^3
# Si number density = 15.152239 Si / 1000 Ang^3
#
#
#
# Elastic Constant Matrix: (Units=GPa)
#
#
# Indices 1 2 3 4 5 6 
#
# 1 91.2444 43.4628 48.2305 -0.0005 -25.1610 0.0040
# 2 43.4628 58.3507 34.8675 0.0021 -11.4222 -0.0020
# 3 48.2305 34.8675 95.0786 0.0012 -29.4615 0.0001
# 4 -0.0005 0.0021 0.0012 24.6648 -0.0015 -0.9940
# 5 -25.1610 -11.4222 -29.4615 -0.0015 24.8162 0.0011
# 6 0.0040 -0.0020 0.0001 -0.9940 0.0011 18.8366
#
#
#
# Elastic Compliance Matrix: (Units=1/GPa)
#
#
# Indices 1 2 3 4 5 6 
#
# 1 0.021745 -0.012115 -0.002347 0.000002 0.013684 -0.000007
# 2 -0.012115 0.028709 -0.006477 -0.000003 -0.006759 0.000006
# 3 -0.002347 -0.006477 0.019652 0.000001 0.017969 -0.000001
# 4 0.000002 -0.000003 0.000001 0.040630 0.000004 0.002144
# 5 0.013684 -0.006759 0.017969 0.000004 0.072392 -0.000008
# 6 -0.000007 0.000006 -0.000001 0.002144 -0.000008 0.053201
#
#
# Mechanical properties :
#
#
# Convention : Reuss Voigt Hill
#
# Bulk Modulus (GPa) = 35.42814 55.31058 45.36936
# Shear Modulus (GPa) = 17.38424 21.53769 19.46097
#
# Velocity S-wave (km/s) = 3.39086 3.77426 3.58769
# Velocity P-wave (km/s) = 6.22598 7.45492 6.86800
#
# Compressibility (1/GPa) = 0.02822615
#
# Stress axis : x y z
#
# Youngs Moduli (GPa) = 45.98834 34.83206 50.88648
#
# Poissons Ratio (x) = 0.42200 0.11945
# Poissons Ratio (y) = 0.55717 0.32959
# Poissons Ratio (z) = 0.10795 0.22561
#
# Static dielectric constant tensor:
#      x y z
#    x 1.509320 0.000000 -0.020720 
#    y 0.000000 1.506340 0.000000 
#    z -0.020720 0.000000 1.493900 
# 
# From -- ./inp_files/326885.got.cif
#   From: 2010.05.17/outbox.cif.g08.bks.cpg/sg12_164_cif.got.tgz:326885.got - 2010.06.03 13:09:07.
