data_PCOD9177481
_publ_section_title
;
Structure prediction by ZEFSAII (Michael W. Deem and Ramdas Pophale) SiO2 
 PCOD9177481
Probable space group: C 2/M
;
_chemical_formula_sum "Si O2"
_cell_formula_units_Z 64
_cell_length_a 23.197353
_cell_length_b 9.481242
_cell_length_c 22.794655
_cell_angle_alpha 90.000000
_cell_angle_beta 34.753761
_cell_angle_gamma 90.000000
_cell_volume 2857.920651
_symmetry_space_group_name_H-M "C 2/M"
_symmetry_group_IT_number 12
_symmetry_cell_setting 'monoclinic'
loop_
_space_group_symop_operation_xyz
x,y,z
-x,y,-z
-x,-y,-z
x,-y,z
1/2+x,1/2+y,z
1/2-x,1/2+y,-z
1/2-x,1/2-y,-z
1/2+x,1/2-y,z
loop_
_atom_site_type_symbol
_atom_site_label
_atom_site_fract_x
_atom_site_fract_y
_atom_site_fract_z
Si Si1 0.586846 0.835322 0.800651
Si Si2 0.383990 0.850614 0.691142
Si Si3 0.153628 0.663375 0.974648
Si Si4 0.058356 0.671858 0.696125
Si Si5 0.827129 0.661072 0.873977
Si Si6 0.623136 0.661392 0.405569
Si Si7 0.119739 0.838085 0.887055
Si Si8 0.123420 0.337921 0.516598
O O1 0.609212 0.790553 0.715183
O O2 0.629455 0.736599 0.815959
O O3 0.614412 0.000000 0.786369
O O4 0.463846 0.830976 0.908281
O O5 0.340036 0.852355 0.792569
O O6 0.342283 0.732966 0.683339
O O7 0.503380 0.840135 0.602567
O O8 0.370704 0.000000 0.670747
O O9 0.183146 0.500000 0.944127
O O10 0.227724 0.740618 0.958978
O O11 0.157188 0.741869 0.909269
O O12 0.053046 0.500000 0.696931
O O13 0.939549 0.716978 0.796697
O O14 0.120290 0.717272 0.586442
O O15 0.813304 0.500000 0.908557
O O16 0.500000 0.667582 0.500000
O O17 0.651541 0.500000 0.385971
O O18 0.660949 0.741632 0.431974
O O19 0.157102 0.000000 0.857587
O O20 0.000000 0.846309 0.000000
O O21 0.160851 0.500000 0.483299
#
# Coordination Sequence:
#
# PCOD9177481 Si02
#       8
#     8   8   8   8   8   8   8   8
#     4   9  17  30  46  63  84 109 139 175 213 252
#     4   8  14  24  37  52  72 103 140 171 198 234
#     4  10  19  29  43  63  85 110 139 174 216 254
#     4   8  15  28  44  60  82 115 147 172 203 245
#     4   9  17  29  43  59  83 115 147 175 203 242
#     4   9  15  21  32  52  76 101 130 167 208 242
#     4   9  17  30  47  64  80 101 134 176 218 255
#     4   8  13  23  38  53  72 103 140 169 195 236
#
# _framework density 22.393903000000002
#
# number of rings (size 3 to 8) (size 9 to 14) (size 15 to 20)
#    0.000    3.250    0.000    2.625    0.000    4.500 
#    0.000    3.125    0.000    0.000    0.000    0.000 
#    0.000    1.000    0.000    3.000    0.000    4.500 
#
# Total GULP energy -178507.828685 kJ/mol
# GULP energy per Si atom -5578.369646 kJ/mol
# Density = 2.234293 g / cm^3
# Si number density = 22.393903 Si / 1000 Ang^3
#
#
#
# Elastic Constant Matrix: (Units=GPa)
#
#
# Indices 1 2 3 4 5 6 
#
# 1 121.9379 49.3735 39.2642 -0.0001 30.6677 0.0000
# 2 49.3735 95.7274 14.6632 -0.0001 32.2561 0.0001
# 3 39.2642 14.6632 47.1092 0.0000 21.2494 0.0000
# 4 -0.0001 -0.0001 0.0000 -14.0568 0.0000 15.8870
# 5 30.6677 32.2561 21.2494 0.0000 50.9056 0.0000
# 6 0.0000 0.0001 0.0000 15.8870 0.0000 15.2237
#
#
#
# Elastic Compliance Matrix: (Units=1/GPa)
#
#
# Indices 1 2 3 4 5 6 
#
# 1 0.013534 -0.005236 -0.009202 0.000000 -0.000995 0.000000
# 2 -0.005236 0.015314 0.003143 0.000000 -0.007862 0.000000
# 3 -0.009202 0.003143 0.032421 0.000000 -0.009981 0.000000
# 4 0.000000 0.000000 0.000000 -0.032641 0.000000 0.034063
# 5 -0.000995 -0.007862 -0.009981 0.000000 0.029392 0.000000
# 6 0.000000 0.000000 0.000000 0.034063 0.000000 0.030139
#
#
# Mechanical properties :
#
#
# Convention : Reuss Voigt Hill
#
# Bulk Modulus (GPa) = 25.85285 52.37517 39.11401
# Shear Modulus (GPa) = 40.43956 21.17939 30.80947
#
# Velocity S-wave (km/s) = 4.25411 3.07867 3.71320
# Velocity P-wave (km/s) = 5.97492 6.00637 5.99067
#
# Compressibility (1/GPa) = 0.03868045
#
# Stress axis : x y z
#
# Youngs Moduli (GPa) = 73.88725 65.29793 30.84445
#
# Poissons Ratio (x) = 0.34189 0.28383
# Poissons Ratio (y) = 0.38686 -0.09695
# Poissons Ratio (z) = 0.67990 -0.20525
#
# Static dielectric constant tensor:
#      x y z
#    x 1.817770 0.000000 -0.019810 
#    y 0.000000 1.851820 0.000000 
#    z -0.019810 0.000000 1.908910 
# 
# From -- ./inp_files/348542.got.cif
#   From: 2010.05.17/outbox.cif.g08.bks.cpg/sg12_175_cif.got.tgz:348542.got - 2010.06.03 13:09:07.
