data_PCOD9177263
_publ_section_title
;
Structure prediction by ZEFSAII (Michael W. Deem and Ramdas Pophale) SiO2 
 PCOD9177263
Probable space group: C 2/M
;
_chemical_formula_sum "Si O2"
_cell_formula_units_Z 44
_cell_length_a 5.538754
_cell_length_b 19.247546
_cell_length_c 21.034062
_cell_angle_alpha 90.000000
_cell_angle_beta 82.436684
_cell_angle_gamma 90.000000
_cell_volume 2222.878398
_symmetry_space_group_name_H-M "C 2/M"
_symmetry_group_IT_number 12
_symmetry_cell_setting 'monoclinic'
loop_
_space_group_symop_operation_xyz
x,y,z
-x,y,-z
-x,-y,-z
x,-y,z
1/2+x,1/2+y,z
1/2-x,1/2+y,-z
1/2-x,1/2-y,-z
1/2+x,1/2-y,z
loop_
_atom_site_type_symbol
_atom_site_label
_atom_site_fract_x
_atom_site_fract_y
_atom_site_fract_z
Si Si1 0.144849 0.385544 0.209567
Si Si2 0.072772 0.584789 0.354268
Si Si3 0.536710 0.584160 0.426409
Si Si4 0.329343 0.597116 0.842037
Si Si5 0.769707 0.000000 0.960581
Si Si6 0.308479 0.248451 0.884063
O O1 0.403988 0.423077 0.191288
O O2 0.166997 0.316281 0.165032
O O3 0.107102 0.377628 0.285624
O O4 0.903767 0.423053 0.191401
O O5 0.077430 0.500000 0.344976
O O6 0.805693 0.603162 0.391332
O O7 0.302753 0.603166 0.391349
O O8 0.500000 0.608863 0.500000
O O9 0.535963 0.500000 0.427878
O O10 0.293432 0.566109 0.913229
O O11 0.328427 0.680439 0.844088
O O12 0.500000 0.000000 0.000000
O O13 0.000000 0.000000 0.000000
O O14 0.539695 0.250005 0.921641
#
# Coordination Sequence:
#
# PCOD9177263 Si02
#       6
#     8   8   8   8   4   8
#     4  10  19  33  55  81 112 137 178 224 285 321
#     4  10  19  27  44  75 107 136 182 232 267 324
#     4   9  17  30  43  61 101 156 192 220 264 314
#     4  10  21  36  58  78 109 143 173 215 267 323
#     4  12  26  42  60  84 114 148 181 208 251 324
#     4   8  16  32  53  76 102 136 171 212 261 320
#
# _framework density 19.794156000000001
#
# number of rings (size 3 to 8) (size 9 to 14) (size 15 to 20)
#    0.000    2.364    0.000    2.727    2.545    2.182 
#    0.000    0.000    0.000   29.455    0.000    0.000 
#    0.000  130.909    0.000    0.000    0.000    0.000 
#
# Total GULP energy -122474.581256 kJ/mol
# GULP energy per Si atom -5567.026421 kJ/mol
# Density = 1.974910 g / cm^3
# Si number density = 19.794156 Si / 1000 Ang^3
#
#
#
# Elastic Constant Matrix: (Units=GPa)
#
#
# Indices 1 2 3 4 5 6 
#
# 1 272.6725 10.8566 90.8070 0.0000 0.5480 0.0000
# 2 10.8566 57.7626 4.8371 0.0000 0.0841 0.0000
# 3 90.8070 4.8371 137.1316 0.0000 0.5264 0.0000
# 4 0.0000 0.0000 0.0000 2.6717 0.0000 0.0781
# 5 0.5480 0.0841 0.5264 0.0000 52.1643 0.0000
# 6 0.0000 0.0000 0.0000 0.0781 0.0000 -40.5489
#
#
#
# Elastic Compliance Matrix: (Units=1/GPa)
#
#
# Indices 1 2 3 4 5 6 
#
# 1 0.004728 -0.000628 -0.003108 0.000000 -0.000017 0.000000
# 2 -0.000628 0.017447 -0.000199 0.000000 -0.000020 0.000000
# 3 -0.003108 -0.000199 0.009358 0.000000 -0.000061 0.000000
# 4 0.000000 0.000000 0.000000 0.374279 0.000000 0.000721
# 5 -0.000017 -0.000020 -0.000061 0.000000 0.019171 0.000000
# 6 0.000000 0.000000 0.000000 0.000721 0.000000 -0.024660
#
#
# Mechanical properties :
#
#
# Convention : Reuss Voigt Hill
#
# Bulk Modulus (GPa) = 42.26426 75.61869 58.94147
# Shear Modulus (GPa) = 12.01689 26.92848 19.47268
#
# Velocity S-wave (km/s) = 2.46660 3.69240 3.13990
# Velocity P-wave (km/s) = 5.43235 7.51424 6.55646
#
# Compressibility (1/GPa) = 0.02366066
#
# Stress axis : x y z
#
# Youngs Moduli (GPa) = 211.52331 57.31633 106.86217
#
# Poissons Ratio (x) = 0.03601 0.33216
# Poissons Ratio (y) = 0.13289 0.02130
# Poissons Ratio (z) = 0.65749 0.01143
#
# Static dielectric constant tensor:
#      x y z
#    x 1.796500 0.000000 -0.000450 
#    y 0.000000 1.681000 0.000000 
#    z -0.000450 0.000000 1.647790 
# 
# From -- ./inp_files/252903.got.cif
#   From: 2010.05.17/outbox.cif.g08.bks.cpg/sg12_127_cif.got.tgz:252903.got - 2010.06.03 13:09:07.
