data_PCOD9177058
_publ_section_title
;
Structure prediction by ZEFSAII (Michael W. Deem and Ramdas Pophale) SiO2 
 PCOD9177058
Probable space group: C 2/M
;
_chemical_formula_sum "Si O2"
_cell_formula_units_Z 64
_cell_length_a 14.869463
_cell_length_b 17.730331
_cell_length_c 11.487588
_cell_angle_alpha 90.000000
_cell_angle_beta 95.073008
_cell_angle_gamma 90.000000
_cell_volume 3016.729947
_symmetry_space_group_name_H-M "C 2/M"
_symmetry_group_IT_number 12
_symmetry_cell_setting 'monoclinic'
loop_
_space_group_symop_operation_xyz
x,y,z
-x,y,-z
-x,-y,-z
x,-y,z
1/2+x,1/2+y,z
1/2-x,1/2+y,-z
1/2-x,1/2-y,-z
1/2+x,1/2-y,z
loop_
_atom_site_type_symbol
_atom_site_label
_atom_site_fract_x
_atom_site_fract_y
_atom_site_fract_z
Si Si1 0.891455 0.091034 0.006531
Si Si2 0.628208 0.081999 0.559898
Si Si3 0.260893 0.808535 0.107518
Si Si4 0.034563 0.781073 0.373836
Si Si5 0.706397 0.334350 0.501452
Si Si6 0.970895 0.375277 0.677019
Si Si7 0.065297 0.413964 0.912022
Si Si8 0.152451 0.827087 0.754700
O O1 0.829301 0.139239 0.908115
O O2 0.878134 0.000000 0.995345
O O3 0.855564 0.120323 0.130470
O O4 0.000000 0.105428 0.000000
O O5 0.727290 0.109193 0.554019
O O6 0.584137 0.081480 0.426907
O O7 0.569375 0.137646 0.630208
O O8 0.620613 0.000000 0.613636
O O9 0.346152 0.864551 0.099548
O O10 0.290997 0.749533 0.211361
O O11 0.250000 0.750000 0.000000
O O12 0.114988 0.835664 0.416799
O O13 0.072569 0.706386 0.315844
O O14 0.000000 0.760403 0.500000
O O15 0.951540 0.809299 0.289206
O O16 0.750000 0.250000 0.500000
O O17 0.691637 0.356216 0.635348
O O18 0.996796 0.415914 0.795881
O O19 0.090259 0.500000 0.946733
O O20 0.000000 0.377683 0.000000
#
# Coordination Sequence:
#
# PCOD9177058 Si02
#       8
#     8   8   8   8   8   8   8   8
#     4  10  23  45  66  89 125 170 218 267 320 376
#     4  11  22  37  60  92 124 162 207 252 310 377
#     4  10  22  40  65  93 121 158 212 264 313 376
#     4  10  18  37  62  87 121 157 200 255 308 363
#     4  11  22  37  60  92 129 163 204 253 311 385
#     4  11  19  39  60  86 123 164 202 251 310 376
#     4  11  24  40  60  89 127 164 201 258 328 385
#     4  10  22  40  64  93 121 164 208 261 320 372
#
# _framework density 21.215022999999999
#
# number of rings (size 3 to 8) (size 9 to 14) (size 15 to 20)
#    0.000    1.500    3.750    2.625    0.000    5.500 
#    0.000    0.625    0.000    2.250    0.000    0.000 
#    0.000    0.000    0.000    0.000    0.000    0.000 
#
# Total GULP energy -178341.822418 kJ/mol
# GULP energy per Si atom -5573.181951 kJ/mol
# Density = 2.116674 g / cm^3
# Si number density = 21.215023 Si / 1000 Ang^3
#
#
#
# Elastic Constant Matrix: (Units=GPa)
#
#
# Indices 1 2 3 4 5 6 
#
# 1 94.3027 28.9019 23.2887 0.0000 9.2867 0.0000
# 2 28.9019 62.3160 7.8038 0.0000 4.9212 0.0000
# 3 23.2887 7.8038 62.0684 0.0000 14.4499 0.0000
# 4 0.0000 0.0000 0.0000 19.3729 0.0000 -3.7761
# 5 9.2867 4.9212 14.4499 0.0000 28.7652 0.0000
# 6 0.0000 0.0000 0.0000 -3.7761 0.0000 27.4920
#
#
#
# Elastic Compliance Matrix: (Units=1/GPa)
#
#
# Indices 1 2 3 4 5 6 
#
# 1 0.013458 -0.005630 -0.004025 0.000000 -0.001360 0.000000
# 2 -0.005630 0.018761 0.000088 0.000000 -0.001436 0.000000
# 3 -0.004025 0.000088 0.019604 0.000000 -0.008564 0.000000
# 4 0.000000 0.000000 0.000000 0.053038 0.000000 0.007285
# 5 -0.001360 -0.001436 -0.008564 0.000000 0.039751 0.000000
# 6 0.000000 0.000000 0.000000 0.007285 0.000000 0.037375
#
#
# Mechanical properties :
#
#
# Convention : Reuss Voigt Hill
#
# Bulk Modulus (GPa) = 30.59201 37.63065 34.11133
# Shear Modulus (GPa) = 23.58304 25.70554 24.64429
#
# Velocity S-wave (km/s) = 3.33771 3.48468 3.41199
# Velocity P-wave (km/s) = 5.41341 5.82811 5.62459
#
# Compressibility (1/GPa) = 0.03268828
#
# Stress axis : x y z
#
# Youngs Moduli (GPa) = 74.30759 53.30247 51.00985
#
# Poissons Ratio (x) = 0.30010 0.20532
# Poissons Ratio (y) = 0.41836 -0.00449
# Poissons Ratio (z) = 0.29909 -0.00469
#
# Static dielectric constant tensor:
#      x y z
#    x 1.797920 0.000000 0.025670 
#    y 0.000000 1.789910 0.000000 
#    z 0.025670 0.000000 1.849110 
# 
# From -- ./inp_files/146139.got.cif
#   From: 2010.05.17/outbox.cif.g08.bks.cpg/sg12_74_cif.got.tgz:146139.got - 2010.06.03 13:09:07.
