data_PCOD9177117
_publ_section_title
;
Structure prediction by ZEFSAII (Michael W. Deem and Ramdas Pophale) SiO2 
 PCOD9177117
Probable space group: C 2/M
;
_chemical_formula_sum "Si O2"
_cell_formula_units_Z 48
_cell_length_a 29.397582
_cell_length_b 14.874588
_cell_length_c 11.910603
_cell_angle_alpha 90.000000
_cell_angle_beta 151.837328
_cell_angle_gamma 90.000000
_cell_volume 2458.163009
_symmetry_space_group_name_H-M "C 2/M"
_symmetry_group_IT_number 12
_symmetry_cell_setting 'monoclinic'
loop_
_space_group_symop_operation_xyz
x,y,z
-x,y,-z
-x,-y,-z
x,-y,z
1/2+x,1/2+y,z
1/2-x,1/2+y,-z
1/2-x,1/2-y,-z
1/2+x,1/2-y,z
loop_
_atom_site_type_symbol
_atom_site_label
_atom_site_fract_x
_atom_site_fract_y
_atom_site_fract_z
Si Si1 0.288360 0.651592 0.118051
Si Si2 0.886653 0.900797 0.767018
Si Si3 0.317373 0.896322 0.326025
Si Si4 0.471139 0.754423 0.561326
Si Si5 0.843515 0.214376 0.886240
Si Si6 0.736413 0.899819 0.254176
O O1 0.400470 0.670266 0.382300
O O2 0.246262 0.618148 0.143707
O O3 0.250000 0.750000 0.000000
O O4 0.248836 0.595115 0.929433
O O5 0.837648 0.890528 0.539300
O O6 0.857314 0.000000 0.745369
O O7 0.859004 0.829741 0.799947
O O8 0.000000 0.898466 0.000000
O O9 0.409731 0.832450 0.493642
O O10 0.340302 0.000000 0.412165
O O11 0.247949 0.837459 0.257044
O O12 0.500000 0.790337 0.500000
O O13 0.563055 0.716508 0.828952
O O14 0.824713 0.319631 0.829295
O O15 0.699152 0.000000 0.192318
#
# Coordination Sequence:
#
# PCOD9177117 Si02
#       6
#     8   8   8   8   8   8
#     4  10  18  38  59  87 126 163 204 256 309 377
#     4  10  23  41  64  93 120 160 218 264 315 382
#     4  11  23  39  63  95 129 168 210 260 322 380
#     4  11  21  37  62  90 130 169 210 258 316 387
#     4  12  22  41  66  90 132 166 210 267 323 372
#     4  11  22  39  63  89 122 167 213 255 310 382
#
# _framework density 19.526776000000002
#
# number of rings (size 3 to 8) (size 9 to 14) (size 15 to 20)
#    0.000    1.167    5.000    3.500    0.000    1.000 
#    0.000    3.333    0.000    0.500    0.000    0.000 
#    0.000    0.000    0.000    0.000    0.000    0.000 
#
# Total GULP energy -133759.235233 kJ/mol
# GULP energy per Si atom -5573.301468 kJ/mol
# Density = 1.948233 g / cm^3
# Si number density = 19.526776 Si / 1000 Ang^3
#
#
#
# Elastic Constant Matrix: (Units=GPa)
#
#
# Indices 1 2 3 4 5 6 
#
# 1 76.5056 44.9336 -2.7099 0.0000 -1.9111 0.0000
# 2 44.9336 106.1406 -6.1237 0.0000 -0.2967 0.0000
# 3 -2.7099 -6.1237 26.1789 0.0000 -1.0491 0.0000
# 4 0.0000 0.0000 0.0000 15.4880 0.0000 -9.4190
# 5 -1.9111 -0.2967 -1.0491 0.0000 29.4509 0.0000
# 6 0.0000 0.0000 0.0000 -9.4190 0.0000 14.6919
#
#
#
# Elastic Compliance Matrix: (Units=1/GPa)
#
#
# Indices 1 2 3 4 5 6 
#
# 1 0.017430 -0.007369 0.000123 0.000000 0.001061 0.000000
# 2 -0.007369 0.012666 0.002189 0.000000 -0.000273 0.000000
# 3 0.000123 0.002189 0.038780 0.000000 0.001412 0.000000
# 4 0.000000 0.000000 0.000000 0.105826 0.000000 0.067845
# 5 0.001061 -0.000273 0.001412 0.000000 0.034071 0.000000
# 6 0.000000 0.000000 0.000000 0.067845 0.000000 0.111561
#
#
# Mechanical properties :
#
#
# Convention : Reuss Voigt Hill
#
# Bulk Modulus (GPa) = 17.01733 31.22501 24.12117
# Shear Modulus (GPa) = 14.28433 23.44118 18.86275
#
# Velocity S-wave (km/s) = 2.70761 3.46853 3.11142
# Velocity P-wave (km/s) = 4.30217 5.66273 5.02867
#
# Compressibility (1/GPa) = 0.05876364
#
# Stress axis : x y z
#
# Youngs Moduli (GPa) = 57.37391 78.94892 25.78638
#
# Poissons Ratio (x) = 0.58174 -0.00317
# Poissons Ratio (y) = 0.42276 -0.05645
# Poissons Ratio (z) = -0.00706 -0.17284
#
# Static dielectric constant tensor:
#      x y z
#    x 1.702470 0.000000 -0.011830 
#    y 0.000000 1.715510 0.000000 
#    z -0.011830 0.000000 1.747450 
# 
# From -- ./inp_files/183902.got.cif
#   From: 2010.05.17/outbox.cif.g08.bks.cpg/sg12_92_cif.got.tgz:183902.got - 2010.06.03 13:09:07.
