data_PCOD9177486
_publ_section_title
;
Structure prediction by ZEFSAII (Michael W. Deem and Ramdas Pophale) SiO2 
 PCOD9177486
Probable space group: C 2/M
;
_chemical_formula_sum "Si O2"
_cell_formula_units_Z 48
_cell_length_a 27.957110
_cell_length_b 7.625196
_cell_length_c 24.345632
_cell_angle_alpha 90.000000
_cell_angle_beta 148.988409
_cell_angle_gamma 90.000000
_cell_volume 2673.928948
_symmetry_space_group_name_H-M "C 2/M"
_symmetry_group_IT_number 12
_symmetry_cell_setting 'monoclinic'
loop_
_space_group_symop_operation_xyz
x,y,z
-x,y,-z
-x,-y,-z
x,-y,z
1/2+x,1/2+y,z
1/2-x,1/2+y,-z
1/2-x,1/2-y,-z
1/2+x,1/2-y,z
loop_
_atom_site_type_symbol
_atom_site_label
_atom_site_fract_x
_atom_site_fract_y
_atom_site_fract_z
Si Si1 0.604290 0.207427 0.383599
Si Si2 0.397175 0.714117 0.834439
Si Si3 0.099421 0.704628 0.832278
Si Si4 0.722687 0.206370 0.053295
Si Si5 0.390866 0.288594 0.952532
Si Si6 0.713226 0.286885 0.380058
O O1 0.500267 0.281980 0.281609
O O2 0.646471 0.231536 0.364294
O O3 0.683510 0.277465 0.502732
O O4 0.598151 0.000000 0.389546
O O5 0.396685 0.500000 0.833673
O O6 0.371543 0.769644 0.871051
O O7 0.329191 0.773184 0.719338
O O8 0.504020 0.768574 0.929285
O O9 0.081937 0.500000 0.827550
O O10 0.176672 0.715871 0.860897
O O11 0.149384 0.779465 0.936017
O O12 0.681806 0.232205 0.073238
O O13 0.732346 0.000000 0.052202
O O14 0.391690 0.500000 0.952876
O O15 0.714430 0.500000 0.381035
#
# Coordination Sequence:
#
# PCOD9177486 Si02
#       6
#     8   8   8   8   8   8
#     4   9  17  28  43  64  88 112 138 170 208 248
#     4   8  15  27  44  65  86 112 143 170 199 244
#     4   9  18  31  44  60  85 114 140 169 208 251
#     4  10  19  29  43  64  86 108 139 176 211 248
#     4   9  16  28  45  63  86 114 141 169 205 246
#     4   9  16  27  44  65  88 112 139 170 204 245
#
# _framework density 17.951111999999998
#
# number of rings (size 3 to 8) (size 9 to 14) (size 15 to 20)
#    0.000    3.000    0.000    2.500    0.000    1.333 
#    0.000    2.500    0.000    1.000    0.000    7.000 
#    0.000    0.000    0.000    0.000    0.000    0.000 
#
# Total GULP energy -133752.980616 kJ/mol
# GULP energy per Si atom -5573.040859 kJ/mol
# Density = 1.791025 g / cm^3
# Si number density = 17.951112 Si / 1000 Ang^3
#
#
#
# Elastic Constant Matrix: (Units=GPa)
#
#
# Indices 1 2 3 4 5 6 
#
# 1 89.5026 -17.1770 76.4390 0.0000 2.9068 0.0000
# 2 -17.1770 30.5411 0.1407 0.0000 -1.3504 0.0000
# 3 76.4390 0.1407 175.2858 0.0000 3.7922 0.0000
# 4 0.0000 0.0000 0.0000 2.2698 0.0000 -0.7158
# 5 2.9068 -1.3504 3.7922 0.0000 27.5737 0.0000
# 6 0.0000 0.0000 0.0000 -0.7158 0.0000 19.8410
#
#
#
# Elastic Compliance Matrix: (Units=1/GPa)
#
#
# Indices 1 2 3 4 5 6 
#
# 1 0.021538 0.012139 -0.009394 0.000000 -0.000384 0.000000
# 2 0.012139 0.039657 -0.005356 0.000000 0.001399 0.000000
# 3 -0.009394 -0.005356 0.009819 0.000000 -0.000622 0.000000
# 4 0.000000 0.000000 0.000000 0.445645 0.000000 0.016076
# 5 -0.000384 0.001399 -0.000622 0.000000 0.036461 0.000000
# 6 0.000000 0.000000 0.000000 0.016076 0.000000 0.050981
#
#
# Mechanical properties :
#
#
# Convention : Reuss Voigt Hill
#
# Bulk Modulus (GPa) = 15.19907 46.01499 30.60703
# Shear Modulus (GPa) = 7.92078 25.66536 16.79307
#
# Velocity S-wave (km/s) = 2.10285 3.78529 3.06189
# Velocity P-wave (km/s) = 3.79227 6.69281 5.43944
#
# Compressibility (1/GPa) = 0.06579350
#
# Stress axis : x y z
#
# Youngs Moduli (GPa) = 46.43035 25.21637 101.84220
#
# Poissons Ratio (x) = -0.30611 0.95667
# Poissons Ratio (y) = -0.56364 0.54546
# Poissons Ratio (z) = 0.43615 0.13506
#
# Static dielectric constant tensor:
#      x y z
#    x 1.580790 0.000000 -0.002270 
#    y 0.000000 1.672240 0.000000 
#    z -0.002270 0.000000 1.645830 
# 
# From -- ./inp_files/164041.got.cif
#   From: 2010.05.17/outbox.cif.g08.bks.cpg/sg12_83_cif.got.tgz:164041.got - 2010.06.03 13:09:07.
