data_PCOD9177423
_publ_section_title
;
Structure prediction by ZEFSAII (Michael W. Deem and Ramdas Pophale) SiO2 
 PCOD9177423
Probable space group: C 2/M
;
_chemical_formula_sum "Si O2"
_cell_formula_units_Z 64
_cell_length_a 24.218944
_cell_length_b 7.294185
_cell_length_c 25.287233
_cell_angle_alpha 90.000000
_cell_angle_beta 136.417409
_cell_angle_gamma 90.000000
_cell_volume 3079.670383
_symmetry_space_group_name_H-M "C 2/M"
_symmetry_group_IT_number 12
_symmetry_cell_setting 'monoclinic'
loop_
_space_group_symop_operation_xyz
x,y,z
-x,y,-z
-x,-y,-z
x,-y,z
1/2+x,1/2+y,z
1/2-x,1/2+y,-z
1/2-x,1/2-y,-z
1/2+x,1/2-y,z
loop_
_atom_site_type_symbol
_atom_site_label
_atom_site_fract_x
_atom_site_fract_y
_atom_site_fract_z
Si Si1 0.302073 0.224068 0.358776
Si Si2 0.106700 0.724331 0.684657
Si Si3 0.821104 0.223429 0.970460
Si Si4 0.853630 0.719796 0.170391
Si Si5 0.951844 0.287420 0.522388
Si Si6 0.909030 0.222654 0.925068
Si Si7 0.374667 0.276218 0.781822
Si Si8 0.543061 0.284576 0.855293
O O1 0.336414 0.277475 0.324814
O O2 0.364981 0.288601 0.446921
O O3 0.210491 0.282193 0.300568
O O4 0.304562 0.000000 0.361374
O O5 0.105944 0.500000 0.683802
O O6 0.135990 0.784275 0.762328
O O7 0.016174 0.787384 0.608507
O O8 0.729726 0.285719 0.913169
O O9 0.852166 0.276454 0.933798
O O10 0.820699 0.000000 0.972469
O O11 0.885894 0.289511 0.057981
O O12 0.848452 0.500000 0.169403
O O13 0.927676 0.764459 0.184132
O O14 0.939653 0.500000 0.528480
O O15 0.000000 0.283755 0.500000
O O16 0.881581 0.279846 0.848008
O O17 0.909515 0.000000 0.925014
O O18 0.000000 0.280696 0.000000
O O19 0.373560 0.500000 0.780353
O O20 0.455008 0.213277 0.807977
O O21 0.538939 0.500000 0.864959
#
# Coordination Sequence:
#
# PCOD9177423 Si02
#       8
#     8   8   8   8   8   8   8   8
#     4   8  12  19  34  58  83 102 123 157 203 247
#     4   8  13  22  36  57  83 104 125 159 201 239
#     4   9  16  26  40  59  81 103 131 168 205 238
#     4  10  19  29  42  59  79 106 140 170 193 226
#     4   7  10  17  31  52  80 107 122 145 197 251
#     4   9  13  20  35  56  80 101 122 157 206 245
#     4   9  15  22  35  56  80 103 128 162 203 242
#     4  10  19  30  41  56  81 110 137 165 198 233
#
# _framework density 20.781445999999999
#
# number of rings (size 3 to 8) (size 9 to 14) (size 15 to 20)
#    0.000    3.250    1.250    2.625    0.000    3.000 
#    0.000    0.000    0.000    0.750    0.000    5.250 
#    0.000    4.500    0.000    0.000    0.000    0.000 
#
# Total GULP energy -178517.407367 kJ/mol
# GULP energy per Si atom -5578.668980 kJ/mol
# Density = 2.073415 g / cm^3
# Si number density = 20.781446 Si / 1000 Ang^3
#
#
#
# Elastic Constant Matrix: (Units=GPa)
#
#
# Indices 1 2 3 4 5 6 
#
# 1 100.3516 -1.0512 54.1393 0.0000 20.4596 -0.0001
# 2 -1.0512 85.3722 7.3669 0.0001 4.9889 0.0001
# 3 54.1393 7.3669 123.9098 0.0000 39.9315 0.0000
# 4 0.0000 0.0001 0.0000 -19.1578 -0.0001 -2.6976
# 5 20.4596 4.9889 39.9315 -0.0001 28.7203 0.0000
# 6 -0.0001 0.0001 0.0000 -2.6976 0.0000 1.3923
#
#
#
# Elastic Compliance Matrix: (Units=1/GPa)
#
#
# Indices 1 2 3 4 5 6 
#
# 1 0.013183 0.000744 -0.004957 0.000000 -0.002628 0.000001
# 2 0.000744 0.011876 -0.000354 0.000000 -0.002100 0.000000
# 3 -0.004957 -0.000354 0.016486 0.000000 -0.019329 0.000000
# 4 0.000000 0.000000 0.000000 -0.041010 0.000000 -0.079457
# 5 -0.002628 -0.002100 -0.019329 0.000000 0.063930 -0.000001
# 6 0.000001 0.000000 0.000000 -0.079457 -0.000001 0.564283
#
#
# Mechanical properties :
#
#
# Convention : Reuss Voigt Hill
#
# Bulk Modulus (GPa) = 30.85489 47.83816 39.34652
# Shear Modulus (GPa) = 7.70787 18.80286 13.25536
#
# Velocity S-wave (km/s) = 1.92797 3.01124 2.52830
# Velocity P-wave (km/s) = 4.45372 5.92956 5.24382
#
# Compressibility (1/GPa) = 0.03240978
#
# Stress axis : x y z
#
# Youngs Moduli (GPa) = 75.85534 84.20438 60.65577
#
# Poissons Ratio (x) = -0.06262 0.30069
# Poissons Ratio (y) = -0.05641 0.02148
# Poissons Ratio (z) = 0.37604 0.02982
#
# Static dielectric constant tensor:
#      x y z
#    x 1.703730 0.000000 0.032010 
#    y 0.000000 1.835810 0.000000 
#    z 0.032010 0.000000 1.747780 
# 
# From -- ./inp_files/321007.got.cif
#   From: 2010.05.17/outbox.cif.g08.bks.cpg/sg12_161_cif.got.tgz:321007.got - 2010.06.03 13:09:07.
