data_PCOD9177967
_publ_section_title
;
Structure prediction by ZEFSAII (Michael W. Deem and Ramdas Pophale) SiO2 
 PCOD9177967
Probable space group: C 2/M
;
_chemical_formula_sum "Si O2"
_cell_formula_units_Z 56
_cell_length_a 29.553952
_cell_length_b 9.045122
_cell_length_c 13.814276
_cell_angle_alpha 90.000000
_cell_angle_beta 77.538535
_cell_angle_gamma 90.000000
_cell_volume 3605.822017
_symmetry_space_group_name_H-M "C 2/M"
_symmetry_group_IT_number 12
_symmetry_cell_setting 'monoclinic'
loop_
_space_group_symop_operation_xyz
x,y,z
-x,y,-z
-x,-y,-z
x,-y,z
1/2+x,1/2+y,z
1/2-x,1/2+y,-z
1/2-x,1/2-y,-z
1/2+x,1/2-y,z
loop_
_atom_site_type_symbol
_atom_site_label
_atom_site_fract_x
_atom_site_fract_y
_atom_site_fract_z
Si Si1 0.035944 0.822827 0.279979
Si Si2 0.110057 0.675137 0.369636
Si Si3 0.303123 0.675430 0.583978
Si Si4 0.981596 0.819650 0.112570
Si Si5 0.888999 0.827949 0.253326
Si Si6 0.057224 0.170476 0.566347
Si Si7 0.303573 0.174799 0.373502
O O1 0.081940 0.741083 0.292236
O O2 0.015079 0.776284 0.185884
O O3 0.995150 0.794461 0.377522
O O4 0.042949 0.000000 0.274850
O O5 0.113545 0.500000 0.362826
O O6 0.160180 0.747779 0.362989
O O7 0.080120 0.724501 0.477370
O O8 0.311856 0.500000 0.576213
O O9 0.309406 0.741913 0.473367
O O10 0.249329 0.700601 0.635219
O O11 0.929023 0.773868 0.161947
O O12 0.980756 0.000000 0.114396
O O13 0.000000 0.771264 0.000000
O O14 0.913550 0.823495 0.347641
O O15 0.842350 0.735067 0.283181
O O16 0.878381 0.000000 0.237865
O O17 0.058840 0.000000 0.530038
O O18 0.309450 0.000000 0.386980
#
# Coordination Sequence:
#
# PCOD9177967 Si02
#       7
#     8   8   8   8   8   8   8
#     4   9  18  31  47  65  89 123 155 187 228 273
#     4  12  22  29  41  64  92 124 159 193 227 264
#     4  10  20  32  45  61  89 126 161 193 227 269
#     4   8  15  30  52  76  95 116 154 193 224 272
#     4   9  16  27  47  70  94 125 153 187 230 270
#     4   9  17  29  43  61  88 125 160 184 217 270
#     4  10  19  30  45  67  91 120 157 195 230 269
#
# _framework density 15.530438999999999
#
# number of rings (size 3 to 8) (size 9 to 14) (size 15 to 20)
#    0.000    2.429    1.429    4.286    0.000    4.000 
#    0.000    2.143    0.000    1.714    0.000    1.000 
#    0.000    0.000    0.000    0.000    0.000    0.000 
#
# Total GULP energy -156148.276298 kJ/mol
# GULP energy per Si atom -5576.724154 kJ/mol
# Density = 1.549509 g / cm^3
# Si number density = 15.530439 Si / 1000 Ang^3
#
#
#
# Elastic Constant Matrix: (Units=GPa)
#
#
# Indices 1 2 3 4 5 6 
#
# 1 133.6886 62.6517 47.1481 0.0000 -8.2709 0.0000
# 2 62.6517 65.1314 27.5321 0.0000 -4.2540 0.0000
# 3 47.1481 27.5321 73.0560 0.0000 -11.8507 0.0000
# 4 0.0000 0.0000 0.0000 0.6904 0.0000 -0.7135
# 5 -8.2709 -4.2540 -11.8507 0.0000 16.2004 0.0000
# 6 0.0000 0.0000 0.0000 -0.7135 0.0000 24.0920
#
#
#
# Elastic Compliance Matrix: (Units=1/GPa)
#
#
# Indices 1 2 3 4 5 6 
#
# 1 0.015054 -0.012343 -0.004928 0.000000 0.000840 0.000000
# 2 -0.012343 0.028385 -0.002887 0.000000 -0.000960 0.000000
# 3 -0.004928 -0.002887 0.019771 0.000000 0.011189 0.000000
# 4 0.000000 0.000000 0.000000 1.494258 0.000000 0.044252
# 5 0.000840 -0.000960 0.011189 0.000000 0.070089 0.000000
# 6 0.000000 0.000000 0.000000 0.044252 0.000000 0.042818
#
#
# Mechanical properties :
#
#
# Convention : Reuss Voigt Hill
#
# Bulk Modulus (GPa) = 43.67844 60.72664 52.20254
# Shear Modulus (GPa) = 2.90982 17.16615 10.03798
#
# Velocity S-wave (km/s) = 1.37029 3.32825 2.54508
# Velocity P-wave (km/s) = 5.53977 7.34549 6.50558
#
# Compressibility (1/GPa) = 0.02289459
#
# Stress axis : x y z
#
# Youngs Moduli (GPa) = 66.42533 35.23028 50.57860
#
# Poissons Ratio (x) = 0.43486 0.24923
# Poissons Ratio (y) = 0.81992 0.14601
# Poissons Ratio (z) = 0.32732 0.10170
#
# Static dielectric constant tensor:
#      x y z
#    x 1.543860 0.000000 -0.002460 
#    y 0.000000 1.517390 0.000000 
#    z -0.002460 0.000000 1.503900 
# 
# From -- ./inp_files/247832.got.cif
#   From: 2010.05.17/outbox.cif.g08.bks.cpg/sg12_124_cif.got.tgz:247832.got - 2010.06.03 13:09:07.
