data_PCOD9177791
_publ_section_title
;
Structure prediction by ZEFSAII (Michael W. Deem and Ramdas Pophale) SiO2 
 PCOD9177791
Probable space group: C 2/M
;
_chemical_formula_sum "Si O2"
_cell_formula_units_Z 64
_cell_length_a 17.077555
_cell_length_b 16.729681
_cell_length_c 9.712443
_cell_angle_alpha 90.000000
_cell_angle_beta 76.957852
_cell_angle_gamma 90.000000
_cell_volume 2703.285331
_symmetry_space_group_name_H-M "C 2/M"
_symmetry_group_IT_number 12
_symmetry_cell_setting 'monoclinic'
loop_
_space_group_symop_operation_xyz
x,y,z
-x,y,-z
-x,-y,-z
x,-y,z
1/2+x,1/2+y,z
1/2-x,1/2+y,-z
1/2-x,1/2-y,-z
1/2+x,1/2-y,z
loop_
_atom_site_type_symbol
_atom_site_label
_atom_site_fract_x
_atom_site_fract_y
_atom_site_fract_z
Si Si1 0.530341 0.909163 0.642581
Si Si2 0.825521 0.186581 0.483618
Si Si3 0.325391 0.085281 0.120680
Si Si4 0.809605 0.338815 0.854980
Si Si5 0.863461 0.090403 0.733564
Si Si6 0.576670 0.226598 0.784465
Si Si7 0.371082 0.682466 0.987457
Si Si8 0.691017 0.910845 0.426503
O O1 0.500000 0.894428 0.500000
O O2 0.510725 0.837311 0.755418
O O3 0.626814 0.906468 0.574961
O O4 0.506324 0.000000 0.689310
O O5 0.750000 0.250000 0.500000
O O6 0.863997 0.156357 0.611474
O O7 0.891882 0.224403 0.358439
O O8 0.779528 0.108745 0.444255
O O9 0.231160 0.085325 0.190069
O O10 0.359421 0.164083 0.177025
O O11 0.360271 0.000000 0.151680
O O12 0.338698 0.095738 0.952725
O O13 0.712225 0.342793 0.904207
O O14 0.831813 0.353002 0.689165
O O15 0.841068 0.255657 0.902576
O O16 0.889403 0.000000 0.684259
O O17 0.902655 0.119757 0.861834
O O18 0.572074 0.287655 0.912543
O O19 0.686928 0.000000 0.371684
#
# Coordination Sequence:
#
# PCOD9177791 Si02
#       8
#     8   8   8   8   8   8   8   8
#     4  10  22  37  52  73 102 141 185 221 255 299
#     4  12  19  29  47  75 104 133 167 212 257 313
#     4   9  16  26  42  65  96 136 174 196 238 311
#     4   9  16  27  44  70 101 135 168 208 254 306
#     4  10  19  30  42  65 106 143 163 192 248 319
#     4  11  19  31  51  72  98 133 170 219 265 299
#     4   9  18  30  46  69 100 137 171 201 255 315
#     4  11  20  30  48  73 106 143 175 213 260 304
#
# _framework density 23.674897000000001
#
# number of rings (size 3 to 8) (size 9 to 14) (size 15 to 20)
#    0.000    1.875    3.750    2.625    0.000    2.500 
#    0.000    0.000    0.000    3.000    0.000   11.375 
#    0.000    5.500    0.000    0.000    0.000    0.000 
#
# Total GULP energy -178580.306446 kJ/mol
# GULP energy per Si atom -5580.634576 kJ/mol
# Density = 2.362101 g / cm^3
# Si number density = 23.674897 Si / 1000 Ang^3
#
#
#
# Elastic Constant Matrix: (Units=GPa)
#
#
# Indices 1 2 3 4 5 6 
#
# 1 32.0312 18.5730 21.0542 0.0000 -2.1833 0.0000
# 2 18.5730 107.6500 57.4294 0.0000 6.5875 0.0000
# 3 21.0542 57.4294 138.4284 0.0000 17.6360 0.0000
# 4 0.0000 0.0000 0.0000 30.9559 0.0000 19.5062
# 5 -2.1833 6.5875 17.6360 0.0000 30.1081 0.0000
# 6 0.0000 0.0000 0.0000 19.5062 0.0000 -1.3876
#
#
#
# Elastic Compliance Matrix: (Units=1/GPa)
#
#
# Indices 1 2 3 4 5 6 
#
# 1 0.037238 -0.004315 -0.004688 0.000000 0.006390 0.000000
# 2 -0.004315 0.012432 -0.004447 0.000000 -0.000428 0.000000
# 3 -0.004688 -0.004447 0.010484 0.000000 -0.005508 0.000000
# 4 0.000000 0.000000 0.000000 0.003277 0.000000 0.046065
# 5 0.006390 -0.000428 -0.005508 0.000000 0.036997 0.000000
# 6 0.000000 0.000000 0.000000 0.046065 0.000000 -0.073105
#
#
# Mechanical properties :
#
#
# Convention : Reuss Voigt Hill
#
# Bulk Modulus (GPa) = 30.07074 52.46922 41.26998
# Shear Modulus (GPa) = 76.56084 24.00551 50.28317
#
# Velocity S-wave (km/s) = 5.69286 3.18774 4.61358
# Velocity P-wave (km/s) = 7.47934 5.97991 6.77126
#
# Compressibility (1/GPa) = 0.03325492
#
# Stress axis : x y z
#
# Youngs Moduli (GPa) = 26.85400 80.43492 95.38781
#
# Poissons Ratio (x) = 0.34708 0.44715
# Poissons Ratio (y) = 0.11588 0.42419
# Poissons Ratio (z) = 0.12588 0.35769
#
# Static dielectric constant tensor:
#      x y z
#    x 1.948550 0.000000 0.040130 
#    y 0.000000 1.974660 0.000000 
#    z 0.040130 0.000000 1.921280 
# 
# From -- ./inp_files/87939.got.cif
#   From: 2010.05.17/outbox.cif.g08.bks.cpg/sg12_44_cif.got.tgz:87939.got - 2010.06.03 13:09:07.
