data_PCOD9177718
_publ_section_title
;
Structure prediction by ZEFSAII (Michael W. Deem and Ramdas Pophale) SiO2 
 PCOD9177718
Probable space group: C 2/M
;
_chemical_formula_sum "Si O2"
_cell_formula_units_Z 48
_cell_length_a 30.995554
_cell_length_b 9.191729
_cell_length_c 20.326604
_cell_angle_alpha 90.000000
_cell_angle_beta 150.609261
_cell_angle_gamma 90.000000
_cell_volume 2842.059661
_symmetry_space_group_name_H-M "C 2/M"
_symmetry_group_IT_number 12
_symmetry_cell_setting 'monoclinic'
loop_
_space_group_symop_operation_xyz
x,y,z
-x,y,-z
-x,-y,-z
x,-y,z
1/2+x,1/2+y,z
1/2-x,1/2+y,-z
1/2-x,1/2-y,-z
1/2+x,1/2-y,z
loop_
_atom_site_type_symbol
_atom_site_label
_atom_site_fract_x
_atom_site_fract_y
_atom_site_fract_z
Si Si1 0.388422 0.167928 0.179274
Si Si2 0.602506 0.172020 0.136701
Si Si3 0.173637 0.171112 0.105845
Si Si4 0.159007 0.672557 0.362456
Si Si5 0.282631 0.667719 0.144418
Si Si6 0.995955 0.828121 0.214558
O O1 0.357949 0.245767 0.205592
O O2 0.461334 0.256793 0.235978
O O3 0.413336 0.000000 0.222620
O O4 0.302113 0.168184 0.017180
O O5 0.655596 0.260438 0.152785
O O6 0.638328 0.191594 0.257639
O O7 0.605710 0.000000 0.124156
O O8 0.500000 0.216543 0.000000
O O9 0.249237 0.253342 0.165660
O O10 0.192450 0.000000 0.134630
O O11 0.083595 0.188983 0.943830
O O12 0.162640 0.500000 0.380685
O O13 0.250000 0.750000 0.500000
O O14 0.080456 0.745934 0.299001
O O15 0.306483 0.500000 0.187621
O O16 0.012270 0.000000 0.244138
#
# Coordination Sequence:
#
# PCOD9177718 Si02
#       6
#     8   8   8   8   8   8
#     4   9  16  26  42  65  96 132 169 208 254 304
#     4  10  20  35  54  75 101 135 174 213 259 311
#     4  10  19  29  47  74 103 133 169 213 257 304
#     4  11  23  38  55  75 103 137 174 217 261 308
#     4   9  16  26  41  64  98 134 167 206 254 306
#     4  10  19  31  48  72 101 134 172 211 257 308
#
# _framework density 16.889158999999999
#
# number of rings (size 3 to 8) (size 9 to 14) (size 15 to 20)
#    0.000    2.167    1.667    2.500    0.000    7.000 
#    0.000    0.000    0.000    0.000    0.000    1.167 
#    0.000    9.333    0.000    0.000    0.000    0.000 
#
# Total GULP energy -133913.144105 kJ/mol
# GULP energy per Si atom -5579.714338 kJ/mol
# Density = 1.685072 g / cm^3
# Si number density = 16.889159 Si / 1000 Ang^3
#
#
#
# Elastic Constant Matrix: (Units=GPa)
#
#
# Indices 1 2 3 4 5 6 
#
# 1 179.4685 115.5940 29.7446 0.0000 10.0504 0.0000
# 2 115.5940 157.1370 44.5400 0.0000 9.2912 0.0000
# 3 29.7446 44.5400 34.8755 0.0000 2.7896 0.0000
# 4 0.0000 0.0000 0.0000 18.1994 0.0000 1.5524
# 5 10.0504 9.2912 2.7896 0.0000 8.1347 0.0000
# 6 0.0000 0.0000 0.0000 1.5524 0.0000 39.6577
#
#
#
# Elastic Compliance Matrix: (Units=1/GPa)
#
#
# Indices 1 2 3 4 5 6 
#
# 1 0.010794 -0.008092 0.001497 0.000000 -0.004607 0.000000
# 2 -0.008092 0.016472 -0.013809 0.000000 -0.004080 0.000000
# 3 0.001497 -0.013809 0.045156 0.000000 -0.001564 0.000000
# 4 0.000000 0.000000 0.000000 0.055131 0.000000 -0.002158
# 5 -0.004607 -0.004080 -0.001564 0.000000 0.133818 0.000000
# 6 0.000000 0.000000 0.000000 -0.002158 0.000000 0.025300
#
#
# Mechanical properties :
#
#
# Convention : Reuss Voigt Hill
#
# Bulk Modulus (GPa) = 31.63006 83.47090 57.55048
# Shear Modulus (GPa) = 14.79213 25.30518 20.04865
#
# Velocity S-wave (km/s) = 2.96266 3.87500 3.44913
# Velocity P-wave (km/s) = 5.52013 8.33972 7.07187
#
# Compressibility (1/GPa) = 0.03161550
#
# Stress axis : x y z
#
# Youngs Moduli (GPa) = 92.64315 60.70849 22.14525
#
# Poissons Ratio (x) = 0.49128 -0.03316
# Poissons Ratio (y) = 0.74971 0.30579
# Poissons Ratio (z) = -0.13872 0.83829
#
# Static dielectric constant tensor:
#      x y z
#    x 1.550600 0.000000 -0.000060 
#    y 0.000000 1.563370 0.000000 
#    z -0.000060 0.000000 1.546010 
# 
# From -- ./inp_files/229823.got.cif
#   From: 2010.05.17/outbox.cif.g08.bks.cpg/sg12_115_cif.got.tgz:229823.got - 2010.06.03 13:09:07.
