data_PCOD9177929
_publ_section_title
;
Structure prediction by ZEFSAII (Michael W. Deem and Ramdas Pophale) SiO2 
 PCOD9177929
Probable space group: C 2/M
;
_chemical_formula_sum "Si O2"
_cell_formula_units_Z 64
_cell_length_a 15.889974
_cell_length_b 7.287933
_cell_length_c 24.554907
_cell_angle_alpha 90.000000
_cell_angle_beta 53.303379
_cell_angle_gamma 90.000000
_cell_volume 2280.015507
_symmetry_space_group_name_H-M "C 2/M"
_symmetry_group_IT_number 12
_symmetry_cell_setting 'monoclinic'
loop_
_space_group_symop_operation_xyz
x,y,z
-x,y,-z
-x,-y,-z
x,-y,z
1/2+x,1/2+y,z
1/2-x,1/2+y,-z
1/2-x,1/2-y,-z
1/2+x,1/2-y,z
loop_
_atom_site_type_symbol
_atom_site_label
_atom_site_fract_x
_atom_site_fract_y
_atom_site_fract_z
Si Si1 0.915690 0.218026 0.354637
Si Si2 0.373486 0.723208 0.603899
Si Si3 0.119779 0.220885 0.518029
Si Si4 0.830704 0.718716 0.266866
Si Si5 0.869306 0.278448 0.137649
Si Si6 0.628948 0.718844 0.102249
Si Si7 0.620151 0.722456 0.224826
Si Si8 0.629372 0.781206 0.982436
O O1 0.851711 0.288437 0.432137
O O2 0.872619 0.247819 0.311011
O O3 0.035298 0.287121 0.301306
O O4 0.920802 0.000000 0.361399
O O5 0.369112 0.500000 0.605645
O O6 0.494802 0.765603 0.565474
O O7 0.341475 0.789326 0.555520
O O8 0.289342 0.784786 0.680645
O O9 0.130667 0.000000 0.511443
O O10 0.827957 0.500000 0.260246
O O11 0.891421 0.792469 0.190439
O O12 0.884461 0.500000 0.131455
O O13 0.742860 0.239716 0.184019
O O14 0.906428 0.211774 0.063351
O O15 0.633385 0.500000 0.103645
O O16 0.586758 0.785490 0.176715
O O17 0.750610 0.786241 0.055622
O O18 0.579974 0.758353 0.061868
O O19 0.613947 0.500000 0.228170
O O20 0.631882 0.000000 0.974684
#
# Coordination Sequence:
#
# PCOD9177929 Si02
#       8
#     8   8   8   8   8   8   8   8
#     4  10  19  30  45  65  90 118 146 178 216 256
#     4   8  14  26  46  70  90 110 144 186 217 245
#     4   8  14  26  46  70  90 110 144 186 217 245
#     4  10  19  30  45  65  90 118 146 178 216 256
#     4   8  14  26  45  65  83 110 149 184 211 248
#     4   8  13  22  38  61  85 105 131 172 218 258
#     4   8  14  26  45  65  83 110 149 184 211 248
#     4   8  13  22  38  61  85 105 131 172 218 258
#
# _framework density 28.069984999999999
#
# number of rings (size 3 to 8) (size 9 to 14) (size 15 to 20)
#    0.000    3.500    0.000    3.000    0.000    3.500 
#    0.000    1.250    0.000    5.250    0.000    7.000 
#    0.000    0.000    0.000    0.000    0.000    0.000 
#
# Total GULP energy -178745.131218 kJ/mol
# GULP energy per Si atom -5585.785351 kJ/mol
# Density = 2.800610 g / cm^3
# Si number density = 28.069985 Si / 1000 Ang^3
#
#
#
# Elastic Constant Matrix: (Units=GPa)
#
#
# Indices 1 2 3 4 5 6 
#
# 1 83.6946 -9.0812 26.7902 0.0005 29.4408 0.0008
# 2 -9.0812 124.2226 9.7606 0.0011 -1.7469 0.0023
# 3 26.7902 9.7606 274.6220 0.0000 21.5045 0.0001
# 4 0.0005 0.0011 0.0000 -0.7015 0.0001 12.1186
# 5 29.4408 -1.7469 21.5045 0.0001 60.1555 0.0004
# 6 0.0008 0.0023 0.0001 12.1186 0.0004 1.8796
#
#
#
# Elastic Compliance Matrix: (Units=1/GPa)
#
#
# Indices 1 2 3 4 5 6 
#
# 1 0.014780 0.001058 -0.000942 -0.000001 -0.006866 -0.000001
# 2 0.001058 0.008155 -0.000382 -0.000001 -0.000144 -0.000001
# 3 -0.000942 -0.000382 0.003818 0.000000 -0.000915 0.000000
# 4 -0.000001 -0.000001 0.000000 -0.012685 0.000000 0.081783
# 5 -0.006866 -0.000144 -0.000915 0.000000 0.020307 0.000000
# 6 -0.000001 -0.000001 0.000000 0.081783 0.000000 0.004734
#
#
# Mechanical properties :
#
#
# Convention : Reuss Voigt Hill
#
# Bulk Modulus (GPa) = 38.13551 59.71982 48.92766
# Shear Modulus (GPa) = 103.34428 42.60468 72.97448
#
# Velocity S-wave (km/s) = 6.07426 3.90012 5.10429
# Velocity P-wave (km/s) = 7.92533 6.45002 7.22543
#
# Compressibility (1/GPa) = 0.02622228
#
# Stress axis : x y z
#
# Youngs Moduli (GPa) = 67.66065 122.61861 261.88470
#
# Poissons Ratio (x) = -0.12972 0.24663
# Poissons Ratio (y) = -0.07158 0.09997
# Poissons Ratio (z) = 0.06372 0.04681
#
# Static dielectric constant tensor:
#      x y z
#    x 2.331140 0.000000 0.018040 
#    y 0.000000 2.072260 0.000000 
#    z 0.018040 0.000000 2.241530 
# 
# From -- ./inp_files/309896.got.cif
#   From: 2010.05.17/outbox.cif.g08.bks.cpg/sg12_155_cif.got.tgz:309896.got - 2010.06.03 13:09:07.
