data_PCOD9177414
_publ_section_title
;
Structure prediction by ZEFSAII (Michael W. Deem and Ramdas Pophale) SiO2 
 PCOD9177414
Probable space group: C 2/M
;
_chemical_formula_sum "Si O2"
_cell_formula_units_Z 64
_cell_length_a 27.841953
_cell_length_b 8.952795
_cell_length_c 20.277697
_cell_angle_alpha 90.000000
_cell_angle_beta 58.682528
_cell_angle_gamma 90.000000
_cell_volume 4318.048918
_symmetry_space_group_name_H-M "C 2/M"
_symmetry_group_IT_number 12
_symmetry_cell_setting 'monoclinic'
loop_
_space_group_symop_operation_xyz
x,y,z
-x,y,-z
-x,-y,-z
x,-y,z
1/2+x,1/2+y,z
1/2-x,1/2+y,-z
1/2-x,1/2-y,-z
1/2+x,1/2-y,z
loop_
_atom_site_type_symbol
_atom_site_label
_atom_site_fract_x
_atom_site_fract_y
_atom_site_fract_z
Si Si1 0.290226 0.819841 0.025853
Si Si2 0.781300 0.673978 0.181198
Si Si3 0.695770 0.820875 0.502891
Si Si4 0.031825 0.178902 0.825328
Si Si5 0.411282 0.322542 0.947706
Si Si6 0.415738 0.174293 0.083522
Si Si7 0.867029 0.820446 0.340230
Si Si8 0.757272 0.178612 0.332454
O O1 0.271237 0.772621 0.113508
O O2 0.289588 0.000000 0.024245
O O3 0.250000 0.750000 0.000000
O O4 0.354087 0.762867 0.971067
O O5 0.766162 0.500000 0.194901
O O6 0.848685 0.686123 0.142439
O O7 0.753449 0.756119 0.262403
O O8 0.750000 0.750000 0.500000
O O9 0.644308 0.755401 0.581279
O O10 0.706518 0.781950 0.418637
O O11 0.697172 0.000000 0.507773
O O12 0.053470 0.263371 0.874623
O O13 0.073838 0.217493 0.735853
O O14 0.965727 0.210321 0.864004
O O15 0.037359 0.000000 0.832653
O O16 0.400869 0.500000 0.954800
O O17 0.427870 0.269640 0.009576
O O18 0.428972 0.000000 0.062505
O O19 0.815983 0.775032 0.326790
O O20 0.863222 0.000000 0.350392
O O21 0.759631 0.000000 0.326087
#
# Coordination Sequence:
#
# PCOD9177414 Si02
#       8
#     8   8   8   8   8   8   8   8
#     4  10  21  37  53  70  90 113 144 184 228 274
#     4   9  18  29  43  65  88 112 146 183 220 261
#     4   9  17  27  38  56  81 114 152 188 221 258
#     4  10  19  30  43  61  88 120 156 188 219 263
#     4  10  20  32  47  65  86 117 150 184 225 267
#     4  10  19  29  41  61  89 119 152 190 224 258
#     4   9  17  28  40  58  84 118 155 189 219 256
#     4   9  16  26  41  59  83 114 150 186 218 255
#
# _framework density 14.821509000000001
#
# number of rings (size 3 to 8) (size 9 to 14) (size 15 to 20)
#    0.000    2.500    1.250    3.375    0.000    8.000 
#    0.000    0.000    0.000    0.000    0.000    0.000 
#    0.000    1.000    0.000   11.250    0.000    5.625 
#
# Total GULP energy -178259.633533 kJ/mol
# GULP energy per Si atom -5570.613548 kJ/mol
# Density = 1.478777 g / cm^3
# Si number density = 14.821509 Si / 1000 Ang^3
#
#
#
# Elastic Constant Matrix: (Units=GPa)
#
#
# Indices 1 2 3 4 5 6 
#
# 1 56.1564 28.0600 56.8585 0.0000 7.4446 -0.0001
# 2 28.0600 37.3825 45.2189 0.0000 0.5815 -0.0001
# 3 56.8585 45.2189 134.3120 0.0000 -0.7844 0.0001
# 4 0.0000 0.0000 0.0000 26.2319 0.0000 2.5417
# 5 7.4446 0.5815 -0.7844 0.0000 14.7228 0.0000
# 6 -0.0001 -0.0001 0.0001 2.5417 0.0000 16.6304
#
#
#
# Elastic Compliance Matrix: (Units=1/GPa)
#
#
# Indices 1 2 3 4 5 6 
#
# 1 0.040433 -0.015490 -0.012021 0.000000 -0.020474 0.000000
# 2 -0.015490 0.051163 -0.010637 0.000000 0.005245 0.000000
# 3 -0.012021 -0.010637 0.016158 0.000000 0.007359 0.000000
# 4 0.000000 0.000000 0.000000 0.038695 0.000000 -0.005914
# 5 -0.020474 0.005245 0.007359 0.000000 0.078459 0.000000
# 6 0.000000 0.000000 0.000000 -0.005914 0.000000 0.061035
#
#
# Mechanical properties :
#
#
# Convention : Reuss Voigt Hill
#
# Bulk Modulus (GPa) = 31.78868 54.23620 43.01244
# Shear Modulus (GPa) = 13.41472 18.03125 15.72299
#
# Velocity S-wave (km/s) = 3.01173 3.49171 3.26056
# Velocity P-wave (km/s) = 5.79553 7.27519 6.57710
#
# Compressibility (1/GPa) = 0.03145774
#
# Stress axis : x y z
#
# Youngs Moduli (GPa) = 24.73225 19.54546 61.88774
#
# Poissons Ratio (x) = 0.30277 0.74395
# Poissons Ratio (y) = 0.38311 0.65829
# Poissons Ratio (z) = 0.29731 0.20790
#
# Static dielectric constant tensor:
#      x y z
#    x 1.462100 0.000000 -0.015790 
#    y 0.000000 1.498360 0.000000 
#    z -0.015790 0.000000 1.528450 
# 
# From -- ./inp_files/323686.got.cif
#   From: 2010.05.17/outbox.cif.g08.bks.cpg/sg12_162_cif.got.tgz:323686.got - 2010.06.03 13:09:07.
