data_PCOD9177945
_publ_section_title
;
Structure prediction by ZEFSAII (Michael W. Deem and Ramdas Pophale) SiO2 
 PCOD9177945
Probable space group: C 2/M
;
_chemical_formula_sum "Si O2"
_cell_formula_units_Z 64
_cell_length_a 29.051203
_cell_length_b 8.400647
_cell_length_c 21.267318
_cell_angle_alpha 90.000000
_cell_angle_beta 134.530565
_cell_angle_gamma 90.000000
_cell_volume 3700.018062
_symmetry_space_group_name_H-M "C 2/M"
_symmetry_group_IT_number 12
_symmetry_cell_setting 'monoclinic'
loop_
_space_group_symop_operation_xyz
x,y,z
-x,y,-z
-x,-y,-z
x,-y,z
1/2+x,1/2+y,z
1/2-x,1/2+y,-z
1/2-x,1/2-y,-z
1/2+x,1/2-y,z
loop_
_atom_site_type_symbol
_atom_site_label
_atom_site_fract_x
_atom_site_fract_y
_atom_site_fract_z
Si Si1 0.058539 0.310381 0.599835
Si Si2 0.006909 0.815181 0.677448
Si Si3 0.036720 0.692919 0.098572
Si Si4 0.183934 0.309623 0.257696
Si Si5 0.147611 0.817452 0.492342
Si Si6 0.187255 0.315075 0.660834
Si Si7 0.972113 0.809499 0.776840
Si Si8 0.329181 0.186734 0.616912
O O1 0.060948 0.500000 0.590806
O O2 0.041804 0.279822 0.656095
O O3 0.128296 0.245965 0.645429
O O4 0.000000 0.245933 0.500000
O O5 0.929413 0.804052 0.592656
O O6 0.016729 0.768904 0.759762
O O7 0.024681 0.000000 0.687018
O O8 0.035075 0.500000 0.101828
O O9 0.112202 0.744750 0.169836
O O10 0.005863 0.765581 0.132225
O O11 0.000000 0.739080 0.000000
O O12 0.181041 0.500000 0.259002
O O13 0.242368 0.262638 0.268842
O O14 0.199136 0.253015 0.343851
O O15 0.164441 0.707339 0.566881
O O16 0.181957 0.776376 0.459261
O O17 0.162897 0.000000 0.524072
O O18 0.194901 0.500000 0.682940
O O19 0.905828 0.712290 0.703427
O O20 0.958470 0.000000 0.759453
O O21 0.315791 0.000000 0.595637
#
# Coordination Sequence:
#
# PCOD9177945 Si02
#       8
#     8   8   8   8   8   8   8   8
#     4  10  20  33  47  66  91 123 168 214 249 283
#     4   9  18  30  46  68  94 126 162 203 245 285
#     4   9  18  34  56  80 103 128 158 189 230 289
#     4   9  19  34  49  68  95 125 155 193 236 283
#     4  10  19  30  45  66  91 123 164 205 243 283
#     4  11  22  33  46  65  91 126 165 204 244 286
#     4   9  17  29  46  74 104 127 157 194 238 288
#     4   9  17  30  47  65  90 126 164 198 236 280
#
# _framework density 17.297214
#
# number of rings (size 3 to 8) (size 9 to 14) (size 15 to 20)
#    0.000    2.500    1.250    3.000    0.000    7.000 
#    0.000    0.000    0.000    0.000    0.000    0.875 
#    0.000    0.000    0.000    0.000    0.000    0.000 
#
# Total GULP energy -178379.631644 kJ/mol
# GULP energy per Si atom -5574.363489 kJ/mol
# Density = 1.725784 g / cm^3
# Si number density = 17.297214 Si / 1000 Ang^3
#
#
#
# Elastic Constant Matrix: (Units=GPa)
#
#
# Indices 1 2 3 4 5 6 
#
# 1 128.2347 9.2436 35.9782 0.0000 -3.6202 0.0000
# 2 9.2436 9.1894 4.9992 0.0000 2.6874 0.0000
# 3 35.9782 4.9992 78.5528 0.0000 -11.2041 0.0000
# 4 0.0000 0.0000 0.0000 16.7512 0.0000 -2.8308
# 5 -3.6202 2.6874 -11.2041 0.0000 18.6439 0.0000
# 6 0.0000 0.0000 0.0000 -2.8308 0.0000 25.6769
#
#
#
# Elastic Compliance Matrix: (Units=1/GPa)
#
#
# Indices 1 2 3 4 5 6 
#
# 1 0.009414 -0.007644 -0.003727 0.000000 0.000690 0.000000
# 2 -0.007644 0.128264 -0.008215 0.000000 -0.024910 0.000000
# 3 -0.003727 -0.008215 0.016434 0.000000 0.010337 0.000000
# 4 0.000000 0.000000 0.000000 0.060831 0.000000 0.006706
# 5 0.000690 -0.024910 0.010337 0.000000 0.063573 0.000000
# 6 0.000000 0.000000 0.000000 0.006706 0.000000 0.039685
#
#
# Mechanical properties :
#
#
# Convention : Reuss Voigt Hill
#
# Bulk Modulus (GPa) = 8.70008 35.15766 21.92887
# Shear Modulus (GPa) = 12.63624 23.26479 17.95051
#
# Velocity S-wave (km/s) = 2.70578 3.67141 3.22494
# Velocity P-wave (km/s) = 3.84738 6.19209 5.15482
#
# Compressibility (1/GPa) = 0.11494148
#
# Stress axis : x y z
#
# Youngs Moduli (GPa) = 106.22057 7.79640 60.84786
#
# Poissons Ratio (x) = 0.05960 0.22678
# Poissons Ratio (y) = 0.81198 0.49984
# Poissons Ratio (z) = 0.39588 0.06404
#
# Static dielectric constant tensor:
#      x y z
#    x 1.623240 0.000000 0.007320 
#    y 0.000000 1.597610 0.000000 
#    z 0.007320 0.000000 1.597630 
# 
# From -- ./inp_files/326922.got.cif
#   From: 2010.05.17/outbox.cif.g08.bks.cpg/sg12_164_cif.got.tgz:326922.got - 2010.06.03 13:09:07.
