data_PCOD9177250
_publ_section_title
;
Structure prediction by ZEFSAII (Michael W. Deem and Ramdas Pophale) SiO2 
 PCOD9177250
Probable space group: C 2/M
;
_chemical_formula_sum "Si O2"
_cell_formula_units_Z 48
_cell_length_a 12.129338
_cell_length_b 35.029390
_cell_length_c 5.466388
_cell_angle_alpha 90.000000
_cell_angle_beta 85.826811
_cell_angle_gamma 90.000000
_cell_volume 2316.419044
_symmetry_space_group_name_H-M "C 2/M"
_symmetry_group_IT_number 12
_symmetry_cell_setting 'monoclinic'
loop_
_space_group_symop_operation_xyz
x,y,z
-x,y,-z
-x,-y,-z
x,-y,z
1/2+x,1/2+y,z
1/2-x,1/2+y,-z
1/2-x,1/2-y,-z
1/2+x,1/2-y,z
loop_
_atom_site_type_symbol
_atom_site_label
_atom_site_fract_x
_atom_site_fract_y
_atom_site_fract_z
Si Si1 0.820527 0.045195 0.563644
Si Si2 0.709543 0.292505 0.951935
Si Si3 0.158791 0.635308 0.085940
Si Si4 0.373950 0.328069 0.537704
Si Si5 0.882494 0.915422 0.053943
Si Si6 0.832614 0.388272 0.416257
O O1 0.879978 0.061738 0.310669
O O2 0.704458 0.067909 0.577228
O O3 0.813314 0.000000 0.547740
O O4 0.870068 0.057348 0.818779
O O5 0.816430 0.320116 0.925180
O O6 0.651352 0.301739 0.698909
O O7 0.750000 0.250000 0.000000
O O8 0.641014 0.306028 0.202303
O O9 0.279252 0.613307 0.067033
O O10 0.108128 0.622480 0.346123
O O11 0.108458 0.622373 0.841699
O O12 0.500000 0.342414 0.500000
O O13 0.281011 0.361699 0.559236
O O14 0.000000 0.895084 0.000000
#
# Coordination Sequence:
#
# PCOD9177250 Si02
#       6
#     8   8   8   8   8   8
#     4  10  19  27  34  46  65  88 115 152 196 229
#     4  10  19  30  44  63  83 100 124 165 212 243
#     4   8  16  27  39  51  67  91 116 147 191 232
#     4  10  19  31  46  61  79 106 136 163 200 248
#     4  10  19  28  36  47  64  88 120 153 186 226
#     4   8  16  27  39  53  69  92 125 159 190 228
#
# _framework density 20.721639
#
# number of rings (size 3 to 8) (size 9 to 14) (size 15 to 20)
#    0.000    2.667    0.000    2.000    0.000   14.000 
#    0.000    0.000    0.000    0.000    0.000    0.000 
#    0.000    0.000    0.000    0.000    0.000    0.000 
#
# Total GULP energy -133821.642154 kJ/mol
# GULP energy per Si atom -5575.901756 kJ/mol
# Density = 2.067448 g / cm^3
# Si number density = 20.721639 Si / 1000 Ang^3
#
#
#
# Elastic Constant Matrix: (Units=GPa)
#
#
# Indices 1 2 3 4 5 6 
#
# 1 66.7288 9.4947 25.0920 0.0000 -2.6701 0.0000
# 2 9.4947 105.4696 27.8125 0.0000 -11.5978 0.0000
# 3 25.0920 27.8125 216.0329 0.0000 -11.0727 0.0000
# 4 0.0000 0.0000 0.0000 29.8114 0.0000 4.6836
# 5 -2.6701 -11.5978 -11.0727 0.0000 6.4359 0.0000
# 6 0.0000 0.0000 0.0000 4.6836 0.0000 -4.3161
#
#
#
# Elastic Compliance Matrix: (Units=1/GPa)
#
#
# Indices 1 2 3 4 5 6 
#
# 1 0.015795 -0.000725 -0.001615 0.000000 0.002469 0.000000
# 2 -0.000725 0.011902 -0.000399 0.000000 0.020460 0.000000
# 3 -0.001615 -0.000399 0.005261 0.000000 0.007661 0.000000
# 4 0.000000 0.000000 0.000000 0.028658 0.000000 0.031099
# 5 0.002469 0.020460 0.007661 0.000000 0.206452 0.000000
# 6 0.000000 0.000000 0.000000 0.031099 0.000000 -0.197946
#
#
# Mechanical properties :
#
#
# Convention : Reuss Voigt Hill
#
# Bulk Modulus (GPa) = 36.39021 57.00329 46.69675
# Shear Modulus (GPa) = 58.99044 28.10838 43.54941
#
# Velocity S-wave (km/s) = 5.34133 3.68703 4.58934
# Velocity P-wave (km/s) = 7.45918 6.75976 7.11807
#
# Compressibility (1/GPa) = 0.02747992
#
# Stress axis : x y z
#
# Youngs Moduli (GPa) = 63.31064 84.02109 190.09390
#
# Poissons Ratio (x) = 0.06088 0.30695
# Poissons Ratio (y) = 0.04587 0.07593
# Poissons Ratio (z) = 0.10223 0.03356
#
# Static dielectric constant tensor:
#      x y z
#    x 1.751710 0.000000 0.014340 
#    y 0.000000 1.697880 0.000000 
#    z 0.014340 0.000000 1.830500 
# 
# From -- ./inp_files/12830.got.cif
#   From: 2010.05.17/outbox.cif.g08.bks.cpg/sg12_7_cif.got.tgz:12830.got - 2010.06.03 13:09:07.
