data_PCOD9177966
_publ_section_title
;
Structure prediction by ZEFSAII (Michael W. Deem and Ramdas Pophale) SiO2 
 PCOD9177966
Probable space group: C 2/M
;
_chemical_formula_sum "Si O2"
_cell_formula_units_Z 64
_cell_length_a 9.344633
_cell_length_b 24.793450
_cell_length_c 25.007348
_cell_angle_alpha 90.000000
_cell_angle_beta 137.603801
_cell_angle_gamma 90.000000
_cell_volume 3906.519473
_symmetry_space_group_name_H-M "C 2/M"
_symmetry_group_IT_number 12
_symmetry_cell_setting 'monoclinic'
loop_
_space_group_symop_operation_xyz
x,y,z
-x,y,-z
-x,-y,-z
x,-y,z
1/2+x,1/2+y,z
1/2-x,1/2+y,-z
1/2-x,1/2-y,-z
1/2+x,1/2-y,z
loop_
_atom_site_type_symbol
_atom_site_label
_atom_site_fract_x
_atom_site_fract_y
_atom_site_fract_z
Si Si1 0.317874 0.435951 0.905243
Si Si2 0.117939 0.856056 0.173663
Si Si3 0.307626 0.195325 0.986638
Si Si4 0.057869 0.207306 0.575301
Si Si5 0.783211 0.320783 0.427562
Si Si6 0.986258 0.287847 0.755346
Si Si7 0.001778 0.842541 0.254442
Si Si8 0.978259 0.640398 0.856556
O O1 0.309716 0.500000 0.896882
O O2 0.365640 0.405351 0.863023
O O3 0.095011 0.410711 0.863111
O O4 0.500000 0.423315 0.000000
O O5 0.307768 0.814306 0.214627
O O6 0.894855 0.827509 0.099619
O O7 0.116796 0.869105 0.235773
O O8 0.500000 0.205519 0.000000
O O9 0.250000 0.250000 0.000000
O O10 0.387896 0.155129 0.054361
O O11 0.119894 0.269208 0.578102
O O12 0.274012 0.190929 0.666158
O O13 0.000000 0.183996 0.500000
O O14 0.861045 0.198749 0.561858
O O15 0.627681 0.350197 0.344025
O O16 0.000000 0.352339 0.500000
O O17 0.002361 0.222893 0.756728
O O18 0.984982 0.310633 0.815286
O O19 0.765468 0.864816 0.194816
#
# Coordination Sequence:
#
# PCOD9177966 Si02
#       8
#     8   8   8   8   8   8   8   8
#     4  10  22  42  61  75  98 133 179 229 282 322
#     4  11  23  34  52  77 103 142 179 221 262 316
#     4  12  24  33  48  75 113 148 178 210 246 304
#     4  10  19  30  45  67 102 149 192 224 244 298
#     4  10  20  30  46  69 104 150 189 218 253 298
#     4  10  21  32  48  74 110 151 180 209 260 307
#     4  11  20  33  50  75 113 143 176 218 258 308
#     4  11  21  36  50  75 105 138 180 216 262 312
#
# _framework density 16.38287
#
# number of rings (size 3 to 8) (size 9 to 14) (size 15 to 20)
#    0.000    1.375    3.750    3.750   10.500    0.000 
#    0.000    0.625    0.000    2.250    0.000    0.000 
#    0.000   19.000    0.000    0.000    0.000    0.000 
#
# Total GULP energy -178413.968739 kJ/mol
# GULP energy per Si atom -5575.436523 kJ/mol
# Density = 1.634558 g / cm^3
# Si number density = 16.382870 Si / 1000 Ang^3
#
#
#
# Elastic Constant Matrix: (Units=GPa)
#
#
# Indices 1 2 3 4 5 6 
#
# 1 134.9502 29.0776 41.5735 0.0000 -1.5034 0.0000
# 2 29.0776 50.6320 15.0607 0.0000 -0.7290 0.0000
# 3 41.5735 15.0607 100.6270 0.0000 4.0726 0.0000
# 4 0.0000 0.0000 0.0000 8.7462 0.0000 -0.7369
# 5 -1.5034 -0.7290 4.0726 0.0000 32.4075 0.0000
# 6 0.0000 0.0000 0.0000 -0.7369 0.0000 6.5218
#
#
#
# Elastic Compliance Matrix: (Units=1/GPa)
#
#
# Indices 1 2 3 4 5 6 
#
# 1 0.009366 -0.004404 -0.003240 0.000000 0.000743 0.000000
# 2 -0.004404 0.022765 -0.001608 0.000000 0.000510 0.000000
# 3 -0.003240 -0.001608 0.011584 0.000000 -0.001642 0.000000
# 4 0.000000 0.000000 0.000000 0.115434 0.000000 0.013043
# 5 0.000743 0.000510 -0.001642 0.000000 0.031109 0.000000
# 6 0.000000 0.000000 0.000000 0.013043 0.000000 0.154806
#
#
# Mechanical properties :
#
#
# Convention : Reuss Voigt Hill
#
# Bulk Modulus (GPa) = 39.66817 50.84807 45.25812
# Shear Modulus (GPa) = 13.44187 22.90160 18.17174
#
# Velocity S-wave (km/s) = 2.86752 3.74291 3.33407
# Velocity P-wave (km/s) = 5.93543 7.05577 6.51971
#
# Compressibility (1/GPa) = 0.02520913
#
# Stress axis : x y z
#
# Youngs Moduli (GPa) = 106.77421 43.92639 86.32922
#
# Poissons Ratio (x) = 0.19345 0.27973
# Poissons Ratio (y) = 0.47024 0.13885
# Poissons Ratio (z) = 0.34597 0.07065
#
# Static dielectric constant tensor:
#      x y z
#    x 1.561560 0.000000 -0.010320 
#    y 0.000000 1.508920 0.000000 
#    z -0.010320 0.000000 1.624060 
# 
# From -- ./inp_files/258921.got.cif
#   From: 2010.05.17/outbox.cif.g08.bks.cpg/sg12_130_cif.got.tgz:258921.got - 2010.06.03 13:09:07.
