data_PCOD9177653
_publ_section_title
;
Structure prediction by ZEFSAII (Michael W. Deem and Ramdas Pophale) SiO2 
 PCOD9177653
Probable space group: C 2/M
;
_chemical_formula_sum "Si O2"
_cell_formula_units_Z 56
_cell_length_a 22.611749
_cell_length_b 15.652547
_cell_length_c 19.098181
_cell_angle_alpha 90.000000
_cell_angle_beta 27.302598
_cell_angle_gamma 90.000000
_cell_volume 3100.489785
_symmetry_space_group_name_H-M "C 2/M"
_symmetry_group_IT_number 12
_symmetry_cell_setting 'monoclinic'
loop_
_space_group_symop_operation_xyz
x,y,z
-x,y,-z
-x,-y,-z
x,-y,z
1/2+x,1/2+y,z
1/2-x,1/2+y,-z
1/2-x,1/2-y,-z
1/2+x,1/2-y,z
loop_
_atom_site_type_symbol
_atom_site_label
_atom_site_fract_x
_atom_site_fract_y
_atom_site_fract_z
Si Si1 0.677363 0.094826 0.378728
Si Si2 0.680269 0.099424 0.530283
Si Si3 0.123921 0.850161 0.085012
Si Si4 0.413997 0.598096 0.029998
Si Si5 0.100340 0.683560 0.194421
Si Si6 0.476705 0.269281 0.447735
Si Si7 0.613384 0.599429 0.572113
O O1 0.743516 0.103285 0.386055
O O2 0.773680 0.094896 0.212693
O O3 0.593348 0.179407 0.462650
O O4 0.612641 0.000000 0.448616
O O5 0.540035 0.142099 0.669260
O O6 0.775215 0.131054 0.491265
O O7 0.658937 0.000000 0.568142
O O8 0.118011 0.751681 0.114278
O O9 0.020763 0.896318 0.243253
O O10 0.085670 0.860039 0.045214
O O11 0.274193 0.876294 0.935422
O O12 0.459291 0.500000 0.972363
O O13 0.500000 0.639655 0.000000
O O14 0.093448 0.737602 0.274597
O O15 0.500000 0.307805 0.500000
O O16 0.400182 0.335960 0.478805
O O17 0.636342 0.500000 0.528691
#
# Coordination Sequence:
#
# PCOD9177653 Si02
#       7
#     8   8   8   8   8   8   8
#     4   9  18  31  49  74 102 132 165 202 250 308
#     4   9  18  34  53  75 102 131 171 215 254 303
#     4  10  19  33  51  73 106 135 167 209 254 307
#     4  10  19  29  45  72 104 135 163 194 240 303
#     4   9  20  34  51  76 101 131 169 211 257 307
#     4  10  20  34  52  73 102 134 169 213 257 301
#     4  10  21  35  53  76 101 135 177 217 255 297
#
# _framework density 18.061662999999999
#
# number of rings (size 3 to 8) (size 9 to 14) (size 15 to 20)
#    0.000    2.429    0.000    2.143    0.000   10.286 
#    0.000    2.857    0.000    0.000    0.000    0.000 
#    0.000   34.286    0.000    0.000    0.000    0.000 
#
# Total GULP energy -155876.295879 kJ/mol
# GULP energy per Si atom -5567.010567 kJ/mol
# Density = 1.802055 g / cm^3
# Si number density = 18.061663 Si / 1000 Ang^3
#
#
#
# Elastic Constant Matrix: (Units=GPa)
#
#
# Indices 1 2 3 4 5 6 
#
# 1 145.4555 40.4234 38.6092 0.0000 17.6873 0.0000
# 2 40.4234 51.3721 13.7255 0.0000 8.0147 0.0000
# 3 38.6092 13.7255 60.7790 0.0000 2.9101 0.0000
# 4 0.0000 0.0000 0.0000 14.9249 0.0000 10.2306
# 5 17.6873 8.0147 2.9101 0.0000 28.1896 0.0000
# 6 0.0000 0.0000 0.0000 10.2306 0.0000 48.7968
#
#
#
# Elastic Compliance Matrix: (Units=1/GPa)
#
#
# Indices 1 2 3 4 5 6 
#
# 1 0.010459 -0.006218 -0.005035 0.000000 -0.004275 0.000000
# 2 -0.006218 0.025275 -0.001609 0.000000 -0.003119 0.000000
# 3 -0.005035 -0.001609 0.019940 0.000000 0.001558 0.000000
# 4 0.000000 0.000000 0.000000 0.078248 0.000000 -0.016405
# 5 -0.004275 -0.003119 0.001558 0.000000 0.038882 0.000000
# 6 0.000000 0.000000 0.000000 -0.016405 0.000000 0.023933
#
#
# Mechanical properties :
#
#
# Convention : Reuss Voigt Hill
#
# Bulk Modulus (GPa) = 33.38790 49.23586 41.31188
# Shear Modulus (GPa) = 21.51054 29.37213 25.44134
#
# Velocity S-wave (km/s) = 3.45476 4.03701 3.75718
# Velocity P-wave (km/s) = 5.86851 7.00350 6.46098
#
# Compressibility (1/GPa) = 0.02995097
#
# Stress axis : x y z
#
# Youngs Moduli (GPa) = 95.60798 39.56498 50.14960
#
# Poissons Ratio (x) = 0.24601 0.25252
# Poissons Ratio (y) = 0.59449 0.08067
# Poissons Ratio (z) = 0.48142 0.06364
#
# Static dielectric constant tensor:
#      x y z
#    x 1.663940 0.000000 -0.036620 
#    y 0.000000 1.623620 0.000000 
#    z -0.036620 0.000000 1.676230 
# 
# From -- ./inp_files/284506.got.cif
#   From: 2010.05.17/outbox.cif.g08.bks.cpg/sg12_143_cif.got.tgz:284506.got - 2010.06.03 13:09:07.
