data_PCOD9177839
_publ_section_title
;
Structure prediction by ZEFSAII (Michael W. Deem and Ramdas Pophale) SiO2 
 PCOD9177839
Probable space group: C 2/M
;
_chemical_formula_sum "Si O2"
_cell_formula_units_Z 40
_cell_length_a 14.294672
_cell_length_b 9.577394
_cell_length_c 14.374660
_cell_angle_alpha 90.000000
_cell_angle_beta 109.055327
_cell_angle_gamma 90.000000
_cell_volume 1860.135442
_symmetry_space_group_name_H-M "C 2/M"
_symmetry_group_IT_number 12
_symmetry_cell_setting 'monoclinic'
loop_
_space_group_symop_operation_xyz
x,y,z
-x,y,-z
-x,-y,-z
x,-y,z
1/2+x,1/2+y,z
1/2-x,1/2+y,-z
1/2-x,1/2-y,-z
1/2+x,1/2-y,z
loop_
_atom_site_type_symbol
_atom_site_label
_atom_site_fract_x
_atom_site_fract_y
_atom_site_fract_z
Si Si1 0.832187 0.338728 0.277732
Si Si2 0.389203 0.169813 0.492663
Si Si3 0.983278 0.157250 0.890762
Si Si4 0.210159 0.843948 0.903930
Si Si5 0.933319 0.661463 0.705459
O O1 0.799752 0.500000 0.259101
O O2 0.824896 0.290249 0.382350
O O3 0.778845 0.238012 0.188544
O O4 0.949827 0.339210 0.287986
O O5 0.500000 0.213553 0.500000
O O6 0.375717 0.215332 0.594691
O O7 0.388001 0.000000 0.494480
O O8 0.093185 0.144454 0.884739
O O9 0.926023 0.247317 0.795775
O O10 0.941495 0.000000 0.888381
O O11 0.000000 0.217507 0.000000
O O12 0.253013 0.000000 0.917364
O O13 0.250000 0.750000 0.000000
O O14 0.906614 0.500000 0.714645
#
# Coordination Sequence:
#
# PCOD9177839 Si02
#       5
#     8   8   8   8   8
#     4   8  13  23  39  58  82 110 137 166 203 247
#     4   7  10  18  34  56  81 107 132 161 201 247
#     4   9  18  31  44  60  85 115 143 171 207 250
#     4  10  19  30  44  62  85 112 142 175 209 246
#     4   8  13  22  38  60  83 107 137 170 203 242
#
# _framework density 21.503810999999999
#
# number of rings (size 3 to 8) (size 9 to 14) (size 15 to 20)
#    0.000    3.600    0.000    3.000    0.000    1.200 
#    0.000    1.000    0.000    6.000    0.000    1.400 
#    0.000    0.000    0.000    0.000    0.000    0.000 
#
# Total GULP energy -111467.487571 kJ/mol
# GULP energy per Si atom -5573.374379 kJ/mol
# Density = 2.145487 g / cm^3
# Si number density = 21.503811 Si / 1000 Ang^3
#
#
#
# Elastic Constant Matrix: (Units=GPa)
#
#
# Indices 1 2 3 4 5 6 
#
# 1 62.6508 4.8090 9.3914 0.0000 -10.5793 0.0000
# 2 4.8090 100.5681 113.8911 0.0000 -6.5715 0.0000
# 3 9.3914 113.8911 271.6831 0.0000 -26.3772 0.0000
# 4 0.0000 0.0000 0.0000 31.9959 0.0000 -8.1999
# 5 -10.5793 -6.5715 -26.3772 0.0000 17.3039 0.0000
# 6 0.0000 0.0000 0.0000 -8.1999 0.0000 -0.2245
#
#
#
# Elastic Compliance Matrix: (Units=1/GPa)
#
#
# Indices 1 2 3 4 5 6 
#
# 1 0.017952 -0.001330 0.001119 0.000000 0.012177 0.000000
# 2 -0.001330 0.019531 -0.008803 0.000000 -0.006815 0.000000
# 3 0.001119 -0.008803 0.008303 0.000000 0.009998 0.000000
# 4 0.000000 0.000000 0.000000 0.003017 0.000000 -0.110180
# 5 0.012177 -0.006815 0.009998 0.000000 0.077887 0.000000
# 6 0.000000 0.000000 0.000000 -0.110180 0.000000 -0.429922
#
#
# Mechanical properties :
#
#
# Convention : Reuss Voigt Hill
#
# Bulk Modulus (GPa) = 36.02605 76.78723 56.40664
# Shear Modulus (GPa) = -18.11924 30.26909 6.07492
#
# Velocity S-wave (km/s) = -2.90592 3.75589 1.68261
# Velocity P-wave (km/s) = 2.35171 7.38885 5.48296
#
# Compressibility (1/GPa) = 0.02775770
#
# Stress axis : x y z
#
# Youngs Moduli (GPa) = 55.70421 51.19959 120.43584
#
# Poissons Ratio (x) = 0.06812 -0.13481
# Poissons Ratio (y) = 0.07411 1.06024
# Poissons Ratio (z) = -0.06235 0.45073
#
# Static dielectric constant tensor:
#      x y z
#    x 1.877580 0.000000 0.022640 
#    y 0.000000 1.760490 0.000000 
#    z 0.022640 0.000000 1.806520 
# 
# From -- ./inp_files/152763.got.cif
#   From: 2010.05.17/outbox.cif.g08.bks.cpg/sg12_77_cif.got.tgz:152763.got - 2010.06.03 13:09:07.
