data_PCOD9177470
_publ_section_title
;
Structure prediction by ZEFSAII (Michael W. Deem and Ramdas Pophale) SiO2 
 PCOD9177470
Probable space group: C 2/M
;
_chemical_formula_sum "Si O2"
_cell_formula_units_Z 64
_cell_length_a 24.142522
_cell_length_b 7.868893
_cell_length_c 22.801063
_cell_angle_alpha 90.000000
_cell_angle_beta 124.052939
_cell_angle_gamma 90.000000
_cell_volume 3588.844600
_symmetry_space_group_name_H-M "C 2/M"
_symmetry_group_IT_number 12
_symmetry_cell_setting 'monoclinic'
loop_
_space_group_symop_operation_xyz
x,y,z
-x,y,-z
-x,-y,-z
x,-y,z
1/2+x,1/2+y,z
1/2-x,1/2+y,-z
1/2-x,1/2-y,-z
1/2+x,1/2-y,z
loop_
_atom_site_type_symbol
_atom_site_label
_atom_site_fract_x
_atom_site_fract_y
_atom_site_fract_z
Si Si1 0.603507 0.295016 0.584885
Si Si2 0.457973 0.703938 0.143060
Si Si3 0.535965 0.798960 0.720205
Si Si4 0.818846 0.795664 0.010085
Si Si5 0.671508 0.202481 0.738379
Si Si6 0.187247 0.208255 0.128255
Si Si7 0.534892 0.295938 0.433187
Si Si8 0.542999 0.707797 0.082780
O O1 0.606116 0.500000 0.586514
O O2 0.660333 0.232773 0.662507
O O3 0.594184 0.237322 0.511880
O O4 0.534403 0.242625 0.576231
O O5 0.456698 0.500000 0.137055
O O6 0.475374 0.742975 0.220218
O O7 0.383557 0.768666 0.083423
O O8 0.508064 0.765925 0.122054
O O9 0.606281 0.727558 0.734876
O O10 0.475701 0.757081 0.639871
O O11 0.543097 0.000000 0.724683
O O12 0.823327 0.000000 0.011017
O O13 0.750000 0.750000 0.000000
O O14 0.819048 0.736988 0.943021
O O15 0.742457 0.268403 0.803410
O O16 0.671934 0.000000 0.748020
O O17 0.119828 0.261612 0.121376
O O18 0.188054 0.000000 0.129487
O O19 0.536461 0.500000 0.434985
O O20 0.542384 0.500000 0.082274
O O21 0.500000 0.759196 0.000000
#
# Coordination Sequence:
#
# PCOD9177470 Si02
#       8
#     8   8   8   8   8   8   8   8
#     4   8  14  25  42  63  89 120 149 181 218 256
#     4  10  19  30  47  68  86 112 152 193 228 261
#     4  10  19  29  42  64  96 127 148 174 219 271
#     4  10  19  30  45  65  90 118 147 180 221 268
#     4   9  17  27  41  64  93 123 149 176 217 270
#     4   9  16  28  45  64  88 115 147 189 228 259
#     4   8  14  26  43  63  88 119 153 183 213 254
#     4   9  15  28  49  69  83 105 151 202 233 256
#
# _framework density 17.833037000000001
#
# number of rings (size 3 to 8) (size 9 to 14) (size 15 to 20)
#    0.000    2.875    1.250    1.875    0.000    2.500 
#    0.000    3.125    0.000    1.875    0.000    0.875 
#    0.000    0.000    0.000    0.000    0.000    0.000 
#
# Total GULP energy -178233.732759 kJ/mol
# GULP energy per Si atom -5569.804149 kJ/mol
# Density = 1.779245 g / cm^3
# Si number density = 17.833037 Si / 1000 Ang^3
#
#
#
# Elastic Constant Matrix: (Units=GPa)
#
#
# Indices 1 2 3 4 5 6 
#
# 1 81.1865 2.6484 50.6888 0.0000 -24.7037 0.0000
# 2 2.6484 14.3840 4.3067 0.0000 -1.3772 0.0000
# 3 50.6888 4.3067 150.8426 0.0000 -30.0447 0.0000
# 4 0.0000 0.0000 0.0000 17.0263 0.0000 -1.2447
# 5 -24.7037 -1.3772 -30.0447 0.0000 12.7325 0.0000
# 6 0.0000 0.0000 0.0000 -1.2447 0.0000 7.8370
#
#
#
# Elastic Compliance Matrix: (Units=1/GPa)
#
#
# Indices 1 2 3 4 5 6 
#
# 1 0.030739 -0.000166 0.002926 0.000000 0.066526 0.000000
# 2 -0.000166 0.070319 -0.000945 0.000000 0.005052 0.000000
# 3 0.002926 -0.000945 0.012799 0.000000 0.035777 0.000000
# 4 0.000000 0.000000 0.000000 0.059423 0.000000 0.009438
# 5 0.066526 0.005052 0.035777 0.000000 0.292582 0.000000
# 6 0.000000 0.000000 0.000000 0.009438 0.000000 0.129100
#
#
# Mechanical properties :
#
#
# Convention : Reuss Voigt Hill
#
# Bulk Modulus (GPa) = 8.51171 40.18899 24.35035
# Shear Modulus (GPa) = 7.93029 20.10376 14.01703
#
# Velocity S-wave (km/s) = 2.11107 3.36122 2.80664
# Velocity P-wave (km/s) = 3.27498 6.13587 4.91805
#
# Compressibility (1/GPa) = 0.11748527
#
# Stress axis : x y z
#
# Youngs Moduli (GPa) = 32.53242 14.22089 78.13009
#
# Poissons Ratio (x) = 0.00236 -0.22860
# Poissons Ratio (y) = 0.00541 0.07387
# Poissons Ratio (z) = -0.09519 0.01345
#
# Static dielectric constant tensor:
#      x y z
#    x 1.593910 0.000000 0.000070 
#    y 0.000000 1.649170 0.000000 
#    z 0.000070 0.000000 1.649230 
# 
# From -- ./inp_files/320004.got.cif
#   From: 2010.05.17/outbox.cif.g08.bks.cpg/sg12_161_cif.got.tgz:320004.got - 2010.06.03 13:09:07.
