data_PCOD9177933
_publ_section_title
;
Structure prediction by ZEFSAII (Michael W. Deem and Ramdas Pophale) SiO2 
 PCOD9177933
Probable space group: C 2/M
;
_chemical_formula_sum "Si O2"
_cell_formula_units_Z 64
_cell_length_a 30.033162
_cell_length_b 7.377847
_cell_length_c 10.689232
_cell_angle_alpha 90.000000
_cell_angle_beta 84.660198
_cell_angle_gamma 90.000000
_cell_volume 2358.242127
_symmetry_space_group_name_H-M "C 2/M"
_symmetry_group_IT_number 12
_symmetry_cell_setting 'monoclinic'
loop_
_space_group_symop_operation_xyz
x,y,z
-x,y,-z
-x,-y,-z
x,-y,z
1/2+x,1/2+y,z
1/2-x,1/2+y,-z
1/2-x,1/2-y,-z
1/2+x,1/2-y,z
loop_
_atom_site_type_symbol
_atom_site_label
_atom_site_fract_x
_atom_site_fract_y
_atom_site_fract_z
Si Si1 0.589257 0.714295 0.899707
Si Si2 0.279599 0.279551 0.291100
Si Si3 0.998205 0.713776 0.190143
Si Si4 0.819902 0.702771 0.720432
Si Si5 0.400053 0.214593 0.824884
Si Si6 0.197836 0.783827 0.994078
Si Si7 0.868617 0.222277 0.371231
Si Si8 0.044286 0.203475 0.544319
O O1 0.591685 0.500000 0.892569
O O2 0.537239 0.768354 0.914147
O O3 0.612265 0.785438 0.768241
O O4 0.612721 0.765212 0.023397
O O5 0.276564 0.500000 0.290014
O O6 0.227785 0.215305 0.311066
O O7 0.303309 0.230062 0.152528
O O8 0.316127 0.227566 0.387166
O O9 0.000898 0.500000 0.213186
O O10 0.048783 0.785123 0.184095
O O11 0.970502 0.807649 0.307460
O O12 0.822948 0.500000 0.665994
O O13 0.868955 0.794084 0.721481
O O14 0.816513 0.689615 0.872749
O O15 0.402453 0.000000 0.799366
O O16 0.187509 0.000000 0.005691
O O17 0.250000 0.750000 0.000000
O O18 0.905997 0.284988 0.460438
O O19 0.869668 0.000000 0.374901
O O20 0.000000 0.295646 0.500000
O O21 0.047207 0.000000 0.489803
#
# Coordination Sequence:
#
# PCOD9177933 Si02
#       8
#     8   8   8   8   8   8   8   8
#     4  10  19  30  45  65  91 123 158 193 225 262
#     4   8  13  22  37  56  79 108 142 179 216 256
#     4  10  20  33  48  66  90 120 152 185 225 273
#     4   9  17  27  38  55  81 114 151 188 222 255
#     4  10  20  31  42  61  92 126 157 190 225 260
#     4   9  15  23  35  52  76 109 149 188 222 254
#     4   8  14  25  42  65  89 112 141 180 225 267
#     4   9  18  33  52  73  94 112 136 179 232 281
#
# _framework density 27.138857999999999
#
# number of rings (size 3 to 8) (size 9 to 14) (size 15 to 20)
#    0.000    2.875    0.000    3.750    0.000    4.250 
#    0.000    0.000    0.000    6.750    0.000    0.875 
#    0.000    0.000    0.000    0.000    0.000    0.000 
#
# Total GULP energy -178203.182314 kJ/mol
# GULP energy per Si atom -5568.849447 kJ/mol
# Density = 2.707709 g / cm^3
# Si number density = 27.138858 Si / 1000 Ang^3
#
#
#
# Elastic Constant Matrix: (Units=GPa)
#
#
# Indices 1 2 3 4 5 6 
#
# 1 176.6014 14.6510 74.1270 0.0000 83.2806 0.0000
# 2 14.6510 111.5456 -1.3903 0.0000 9.2095 0.0000
# 3 74.1270 -1.3903 60.7840 0.0000 15.5085 0.0000
# 4 0.0000 0.0000 0.0000 -4.2623 0.0000 -56.7139
# 5 83.2806 9.2095 15.5085 0.0000 67.8919 0.0000
# 6 0.0000 0.0000 0.0000 -56.7139 0.0000 -374.1282
#
#
#
# Elastic Compliance Matrix: (Units=1/GPa)
#
#
# Indices 1 2 3 4 5 6 
#
# 1 0.047644 -0.002907 -0.046042 0.000000 -0.047531 0.000000
# 2 -0.002907 0.009261 0.003364 0.000000 0.001542 0.000000
# 3 -0.046042 0.003364 0.061997 0.000000 0.041860 0.000000
# 4 0.000000 0.000000 0.000000 0.230683 0.000000 -0.034969
# 5 -0.047531 0.001542 0.041860 0.000000 0.063263 0.000000
# 6 0.000000 0.000000 0.000000 -0.034969 0.000000 0.002628
#
#
# Mechanical properties :
#
#
# Convention : Reuss Voigt Hill
#
# Bulk Modulus (GPa) = 36.05879 58.18961 47.12420
# Shear Modulus (GPa) = 9.69196 -44.66349 -17.48577
#
# Velocity S-wave (km/s) = 1.89182 -4.06117 -2.54108
# Velocity P-wave (km/s) = 4.25295 0.70912 2.96520
#
# Compressibility (1/GPa) = 0.02773249
#
# Stress axis : x y z
#
# Youngs Moduli (GPa) = 20.98905 107.97434 16.12978
#
# Poissons Ratio (x) = 0.31392 0.74264
# Poissons Ratio (y) = 0.06102 -0.05426
# Poissons Ratio (z) = 0.96637 -0.36323
#
# Static dielectric constant tensor:
#      x y z
#    x 2.324990 0.000000 -0.054520 
#    y 0.000000 1.994640 0.000000 
#    z -0.054520 0.000000 2.258010 
# 
# From -- ./inp_files/248460.got.cif
#   From: 2010.05.17/outbox.cif.g08.bks.cpg/sg12_125_cif.got.tgz:248460.got - 2010.06.03 13:09:07.
