data_PCOD9177229
_publ_section_title
;
Structure prediction by ZEFSAII (Michael W. Deem and Ramdas Pophale) SiO2 
 PCOD9177229
Probable space group: C 2/M
;
_chemical_formula_sum "Si O2"
_cell_formula_units_Z 34
_cell_length_a 11.471838
_cell_length_b 21.389748
_cell_length_c 11.068288
_cell_angle_alpha 90.000000
_cell_angle_beta 152.390967
_cell_angle_gamma 90.000000
_cell_volume 1258.660642
_symmetry_space_group_name_H-M "C 2/M"
_symmetry_group_IT_number 12
_symmetry_cell_setting 'monoclinic'
loop_
_space_group_symop_operation_xyz
x,y,z
-x,y,-z
-x,-y,-z
x,-y,z
1/2+x,1/2+y,z
1/2-x,1/2+y,-z
1/2-x,1/2-y,-z
1/2+x,1/2-y,z
loop_
_atom_site_type_symbol
_atom_site_label
_atom_site_fract_x
_atom_site_fract_y
_atom_site_fract_z
Si Si1 0.000000 0.294854 0.000000
Si Si2 0.075137 0.822009 0.206184
Si Si3 0.145616 0.892511 0.770361
Si Si4 0.291211 0.000000 0.164233
Si Si5 0.000000 0.500000 0.000000
Si Si6 0.500000 0.109210 0.500000
Si Si7 0.844520 0.000000 0.560475
O O1 0.040109 0.252533 0.157979
O O2 0.247476 0.336830 0.213135
O O3 0.361333 0.847185 0.470889
O O4 0.915847 0.857081 0.160580
O O5 0.000000 0.837973 0.000000
O O6 0.901448 0.938432 0.532505
O O7 0.359601 0.945049 0.952943
O O8 0.307195 0.061206 0.261080
O O9 0.431732 0.000000 0.641911
O O10 0.048201 0.000000 0.855565
#
# Coordination Sequence:
#
# PCOD9177229 Si02
#       7
#     4   8   8   4   2   4   4
#     4   9  22  37  66  91 132 183 224 278 338 401
#     4  10  21  36  62  91 128 171 220 275 336 401
#     4  10  18  41  61  95 132 171 228 282 334 413
#     4  11  24  37  63  99 134 172 222 283 349 406
#     4   8  20  30  68  88 122 176 220 276 352 394
#     4  11  22  36  58  96 136 169 228 274 352 409
#     4  11  22  40  68  96 127 178 217 287 344 401
#
# _framework density 27.012841999999999
#
# number of rings (size 3 to 8) (size 9 to 14) (size 15 to 20)
#    0.706    1.176    2.353    2.118    0.000    0.941 
#    0.000    5.294    0.000   24.000    0.000    0.000 
#    0.000    0.000    0.000    0.000    0.000    0.000 
#
# Total GULP energy -94678.184655 kJ/mol
# GULP energy per Si atom -5569.304980 kJ/mol
# Density = 2.695136 g / cm^3
# Si number density = 27.012842 Si / 1000 Ang^3
#
#
#
# Elastic Constant Matrix: (Units=GPa)
#
#
# Indices 1 2 3 4 5 6 
#
# 1 151.2717 73.3413 53.2035 0.0002 42.6122 0.0002
# 2 73.3413 205.3928 32.7055 0.0000 27.3780 0.0001
# 3 53.2035 32.7055 119.7633 0.0007 9.5923 0.0013
# 4 0.0002 0.0000 0.0007 14.9097 0.0003 21.7708
# 5 42.6122 27.3780 9.5923 0.0003 62.9587 0.0004
# 6 0.0002 0.0001 0.0013 21.7708 0.0004 54.8068
#
#
#
# Elastic Compliance Matrix: (Units=1/GPa)
#
#
# Indices 1 2 3 4 5 6 
#
# 1 0.010658 -0.002487 -0.003608 0.000000 -0.005582 0.000000
# 2 -0.002487 0.005939 -0.000451 0.000000 -0.000831 0.000000
# 3 -0.003608 -0.000451 0.009986 0.000000 0.001117 0.000000
# 4 0.000000 0.000000 0.000000 0.159700 0.000000 -0.063437
# 5 -0.005582 -0.000831 0.001117 0.000000 0.019853 0.000000
# 6 0.000000 0.000000 0.000000 -0.063437 0.000000 0.043445
#
#
# Mechanical properties :
#
#
# Convention : Reuss Voigt Hill
#
# Bulk Modulus (GPa) = 74.11980 88.32539 81.22259
# Shear Modulus (GPa) = 18.71458 47.68022 33.19740
#
# Velocity S-wave (km/s) = 2.63497 4.20586 3.50944
# Velocity P-wave (km/s) = 6.06265 7.50694 6.82312
#
# Compressibility (1/GPa) = 0.01349167
#
# Stress axis : x y z
#
# Youngs Moduli (GPa) = 93.82573 168.37069 100.13621
#
# Poissons Ratio (x) = 0.41875 0.36133
# Poissons Ratio (y) = 0.23335 0.04511
# Poissons Ratio (z) = 0.33856 0.07586
#
# Static dielectric constant tensor:
#      x y z
#    x 2.192160 0.000000 -0.124650 
#    y 0.000000 2.115740 0.000000 
#    z -0.124650 0.000000 2.379330 
# 
# From -- ./inp_files/78595.got.cif
#   From: 2010.05.17/outbox.cif.g08.bks.cpg/sg12_40_cif.got.tgz:78595.got - 2010.06.03 13:09:07.
