data_PCOD9177553
_publ_section_title
;
Structure prediction by ZEFSAII (Michael W. Deem and Ramdas Pophale) SiO2 
 PCOD9177553
Probable space group: C 2/M
;
_chemical_formula_sum "Si O2"
_cell_formula_units_Z 64
_cell_length_a 28.416066
_cell_length_b 9.303624
_cell_length_c 21.177094
_cell_angle_alpha 90.000000
_cell_angle_beta 134.695528
_cell_angle_gamma 90.000000
_cell_volume 3979.817035
_symmetry_space_group_name_H-M "C 2/M"
_symmetry_group_IT_number 12
_symmetry_cell_setting 'monoclinic'
loop_
_space_group_symop_operation_xyz
x,y,z
-x,y,-z
-x,-y,-z
x,-y,z
1/2+x,1/2+y,z
1/2-x,1/2+y,-z
1/2-x,1/2-y,-z
1/2+x,1/2-y,z
loop_
_atom_site_type_symbol
_atom_site_label
_atom_site_fract_x
_atom_site_fract_y
_atom_site_fract_z
Si Si1 0.555025 0.828002 0.605014
Si Si2 0.144895 0.165385 0.478923
Si Si3 0.821081 0.669745 0.361727
Si Si4 0.822724 0.171021 0.741986
Si Si5 0.486372 0.334934 0.308626
Si Si6 0.834420 0.333827 0.624485
Si Si7 0.458353 0.827551 0.897791
Si Si8 0.005891 0.335554 0.205000
O O1 0.500000 0.786557 0.500000
O O2 0.627530 0.795903 0.645197
O O3 0.542838 0.749843 0.659452
O O4 0.548564 0.000000 0.607809
O O5 0.158659 0.241032 0.557880
O O6 0.177585 0.251505 0.452094
O O7 0.065880 0.167529 0.393208
O O8 0.165943 0.000000 0.499429
O O9 0.829902 0.500000 0.384360
O O10 0.742916 0.693112 0.277826
O O11 0.809481 0.247492 0.661995
O O12 0.889032 0.243312 0.831397
O O13 0.832268 0.000000 0.741747
O O14 0.464555 0.500000 0.288037
O O15 0.474076 0.260842 0.229355
O O16 0.813314 0.500000 0.603056
O O17 0.914625 0.335452 0.708398
O O18 0.498885 0.787685 0.872406
O O19 0.445284 0.000000 0.880735
O O20 0.500000 0.800485 0.000000
O O21 0.982743 0.500000 0.189121
#
# Coordination Sequence:
#
# PCOD9177553 Si02
#       8
#     8   8   8   8   8   8   8   8
#     4  10  19  32  50  66  86 125 173 211 244 285
#     4  10  19  29  44  66  91 123 163 205 246 283
#     4  10  21  34  46  64  91 126 166 204 241 286
#     4  10  20  33  48  69  98 125 155 196 240 285
#     4  10  19  29  44  68  97 124 157 206 250 281
#     4   9  17  30  47  64  89 126 165 198 233 281
#     4   9  18  34  56  80 103 127 156 188 228 288
#     4   8  15  28  47  70  95 124 155 188 228 280
#
# _framework density 16.081140999999999
#
# number of rings (size 3 to 8) (size 9 to 14) (size 15 to 20)
#    0.000    2.500    1.250    2.250    0.000    6.500 
#    0.000    0.000    0.000    0.000    0.000    0.875 
#    0.000    0.000    0.000    0.000    0.000    0.000 
#
# Total GULP energy -178444.121083 kJ/mol
# GULP energy per Si atom -5576.378784 kJ/mol
# Density = 1.604454 g / cm^3
# Si number density = 16.081141 Si / 1000 Ang^3
#
#
#
# Elastic Constant Matrix: (Units=GPa)
#
#
# Indices 1 2 3 4 5 6 
#
# 1 130.4958 73.4352 52.7369 0.0000 -18.9471 0.0000
# 2 73.4352 79.3471 45.0940 0.0000 -12.0191 0.0000
# 3 52.7369 45.0940 69.2544 0.0000 -21.5988 0.0000
# 4 0.0000 0.0000 0.0000 14.0630 0.0000 -4.3187
# 5 -18.9471 -12.0191 -21.5988 0.0000 22.1844 0.0000
# 6 0.0000 0.0000 0.0000 -4.3187 0.0000 21.5027
#
#
#
# Elastic Compliance Matrix: (Units=1/GPa)
#
#
# Indices 1 2 3 4 5 6 
#
# 1 0.017046 -0.013519 -0.002760 0.000000 0.004547 0.000000
# 2 -0.013519 0.030837 -0.011739 0.000000 -0.006269 0.000000
# 3 -0.002760 -0.011739 0.030826 0.000000 0.021296 0.000000
# 4 0.000000 0.000000 0.000000 0.075783 0.000000 0.015221
# 5 0.004547 -0.006269 0.021296 0.000000 0.066298 0.000000
# 6 0.000000 0.000000 0.000000 0.015221 0.000000 0.049563
#
#
# Mechanical properties :
#
#
# Convention : Reuss Voigt Hill
#
# Bulk Modulus (GPa) = 44.10441 69.06993 56.58717
# Shear Modulus (GPa) = 14.97245 18.73875 16.85560
#
# Velocity S-wave (km/s) = 3.05463 3.41730 3.24104
# Velocity P-wave (km/s) = 6.31876 7.65602 7.01931
#
# Compressibility (1/GPa) = 0.02267347
#
# Stress axis : x y z
#
# Youngs Moduli (GPa) = 58.66366 32.42901 32.43965
#
# Poissons Ratio (x) = 0.43841 0.08953
# Poissons Ratio (y) = 0.79308 0.38082
# Poissons Ratio (z) = 0.16190 0.38069
#
# Static dielectric constant tensor:
#      x y z
#    x 1.548210 0.000000 0.012720 
#    y 0.000000 1.542120 0.000000 
#    z 0.012720 0.000000 1.524910 
# 
# From -- ./inp_files/326994.got.cif
#   From: 2010.05.17/outbox.cif.g08.bks.cpg/sg12_164_cif.got.tgz:326994.got - 2010.06.03 13:09:07.
