data_PCOD9177213
_publ_section_title
;
Structure prediction by ZEFSAII (Michael W. Deem and Ramdas Pophale) SiO2 
 PCOD9177213
Probable space group: C 2/M
;
_chemical_formula_sum "Si O2"
_cell_formula_units_Z 40
_cell_length_a 11.783856
_cell_length_b 18.358752
_cell_length_c 17.020905
_cell_angle_alpha 90.000000
_cell_angle_beta 27.522984
_cell_angle_gamma 90.000000
_cell_volume 1701.583756
_symmetry_space_group_name_H-M "C 2/M"
_symmetry_group_IT_number 12
_symmetry_cell_setting 'monoclinic'
loop_
_space_group_symop_operation_xyz
x,y,z
-x,y,-z
-x,-y,-z
x,-y,z
1/2+x,1/2+y,z
1/2-x,1/2+y,-z
1/2-x,1/2-y,-z
1/2+x,1/2-y,z
loop_
_atom_site_type_symbol
_atom_site_label
_atom_site_fract_x
_atom_site_fract_y
_atom_site_fract_z
Si Si1 0.239817 0.912754 0.408390
Si Si2 0.015452 0.000000 0.084884
Si Si3 0.155911 0.302767 0.162701
Si Si4 0.770091 0.500000 0.079765
Si Si5 0.954720 0.144881 0.307750
Si Si6 0.677342 0.654262 0.772129
O O1 0.454611 0.857295 0.247256
O O2 0.162750 0.875394 0.537672
O O3 0.000000 0.910363 0.500000
O O4 0.298757 0.000000 0.383174
O O5 0.863615 0.069002 0.202244
O O6 0.263953 0.000000 0.986529
O O7 0.000000 0.000000 0.000000
O O8 0.173858 0.330281 0.241429
O O9 0.112399 0.218018 0.205909
O O10 0.408354 0.312105 0.959385
O O11 0.621307 0.573945 0.188837
O O12 0.000000 0.500000 0.000000
O O13 0.764248 0.166427 0.354808
#
# Coordination Sequence:
#
# PCOD9177213 Si02
#       6
#     8   4   8   4   8   8
#     4  11  27  48  67  97 137 183 232 277 340 412
#     4  10  18  40  60  94 144 161 218 271 348 399
#     4  11  24  42  73  99 137 175 220 288 344 400
#     4  10  24  40  69 100 135 185 229 290 336 411
#     4  11  24  47  65  98 139 178 232 276 342 413
#     4  10  24  41  70 107 129 171 229 284 342 416
#
# _framework density 23.50751
#
# number of rings (size 3 to 8) (size 9 to 14) (size 15 to 20)
#    0.000    1.400    3.000    1.200    8.400    4.000 
#    0.000    1.000    0.000    0.000    0.000    0.000 
#    0.000    0.000    0.000    0.000    0.000    0.000 
#
# Total GULP energy -111366.918578 kJ/mol
# GULP energy per Si atom -5568.345929 kJ/mol
# Density = 2.345401 g / cm^3
# Si number density = 23.507510 Si / 1000 Ang^3
#
#
#
# Elastic Constant Matrix: (Units=GPa)
#
#
# Indices 1 2 3 4 5 6 
#
# 1 153.4525 -2.7572 25.1909 -0.2089 -3.9635 -0.0431
# 2 -2.7572 178.0286 36.5095 -0.3788 -28.6714 -0.1365
# 3 25.1909 36.5095 58.6344 -1.2838 0.2492 -0.4887
# 4 -0.2089 -0.3788 -1.2838 581.7806 1.2122 189.7788
# 5 -3.9635 -28.6714 0.2492 1.2122 38.8151 0.3658
# 6 -0.0431 -0.1365 -0.4887 189.7788 0.3658 126.5220
#
#
#
# Elastic Compliance Matrix: (Units=1/GPa)
#
#
# Indices 1 2 3 4 5 6 
#
# 1 0.007207 0.001156 -0.003823 -0.000007 0.001614 -0.000006
# 2 0.001156 0.007654 -0.005288 -0.000018 0.005807 -0.000002
# 3 -0.003823 -0.005288 0.022010 0.000046 -0.004439 0.000022
# 4 -0.000007 -0.000018 0.000046 0.003366 -0.000072 -0.005048
# 5 0.001614 0.005807 -0.004439 -0.000072 0.030248 0.000010
# 6 -0.000006 -0.000002 0.000022 -0.005048 0.000010 0.015476
#
#
# Mechanical properties :
#
#
# Convention : Reuss Voigt Hill
#
# Bulk Modulus (GPa) = 47.70761 56.44467 52.07614
# Shear Modulus (GPa) = 45.93162 171.50169 108.71666
#
# Velocity S-wave (km/s) = 4.42510 8.55070 6.80794
# Velocity P-wave (km/s) = 6.81523 11.02495 9.16507
#
# Compressibility (1/GPa) = 0.02096102
#
# Stress axis : x y z
#
# Youngs Moduli (GPa) = 138.76050 130.64275 45.43456
#
# Poissons Ratio (x) = -0.15096 0.17368
# Poissons Ratio (y) = -0.16034 0.24024
# Poissons Ratio (z) = 0.53044 0.69080
#
# Static dielectric constant tensor:
#      x y z
#    x 2.342180 -0.000090 -0.063080 
#    y -0.000090 1.859840 0.000060 
#    z -0.063080 0.000060 1.949730 
# 
# From -- ./inp_files/264407.got.cif
#   From: 2010.05.17/outbox.cif.g08.bks.cpg/sg12_133_cif.got.tgz:264407.got - 2010.06.03 13:09:07.
