data_PCOD9177465
_publ_section_title
;
Structure prediction by ZEFSAII (Michael W. Deem and Ramdas Pophale) SiO2 
 PCOD9177465
Probable space group: C 2/M
;
_chemical_formula_sum "Si O2"
_cell_formula_units_Z 56
_cell_length_a 5.047595
_cell_length_b 35.432495
_cell_length_c 17.366227
_cell_angle_alpha 90.000000
_cell_angle_beta 107.897111
_cell_angle_gamma 90.000000
_cell_volume 2955.634051
_symmetry_space_group_name_H-M "C 2/M"
_symmetry_group_IT_number 12
_symmetry_cell_setting 'monoclinic'
loop_
_space_group_symop_operation_xyz
x,y,z
-x,y,-z
-x,-y,-z
x,-y,z
1/2+x,1/2+y,z
1/2-x,1/2+y,-z
1/2-x,1/2-y,-z
1/2+x,1/2-y,z
loop_
_atom_site_type_symbol
_atom_site_label
_atom_site_fract_x
_atom_site_fract_y
_atom_site_fract_z
Si Si1 0.335100 0.226485 0.918815
Si Si2 0.874842 0.090982 0.903157
Si Si3 0.475365 0.699479 0.416000
Si Si4 0.164838 0.692801 0.249154
Si Si5 0.158336 0.855496 0.244896
Si Si6 0.875191 0.458067 0.903074
Si Si7 0.973685 0.353698 0.415160
O O1 0.533313 0.262926 0.922797
O O2 0.327939 0.209778 0.834326
O O3 0.500000 0.203812 0.000000
O O4 0.879022 0.123344 0.839088
O O5 0.565986 0.074024 0.882350
O O6 0.066818 0.057346 0.887640
O O7 0.000000 0.100946 0.000000
O O8 0.500000 0.720552 0.500000
O O9 0.315145 0.717264 0.329115
O O10 0.766989 0.681894 0.414984
O O11 0.268168 0.664248 0.417570
O O12 0.364263 0.656372 0.254849
O O13 0.855300 0.680757 0.244802
O O14 0.333355 0.874673 0.330308
O O15 0.887777 0.500000 0.869238
O O16 0.000000 0.461168 0.000000
O O17 0.000000 0.373903 0.500000
#
# Coordination Sequence:
#
# PCOD9177465 Si02
#       7
#     8   8   8   8   8   8   8
#     4  10  21  36  51  65  82 110 152 193 217 243
#     4  10  19  29  42  64  94 119 141 178 218 253
#     4   8  14  25  42  63  84 108 137 167 206 257
#     4  10  19  31  48  66  87 116 143 174 220 268
#     4  10  19  29  44  69  95 116 139 171 221 273
#     4   9  17  30  46  61  82 119 159 184 206 242
#     4   8  14  25  40  59  85 114 142 170 201 247
#
# _framework density 18.946864999999999
#
# number of rings (size 3 to 8) (size 9 to 14) (size 15 to 20)
#    0.000    2.714    0.000    2.143    0.000    2.857 
#    0.000    0.000    0.000    0.857    0.000    0.000 
#    0.000    3.429    0.000    0.000    0.000    0.000 
#
# Total GULP energy -155877.053060 kJ/mol
# GULP energy per Si atom -5567.037609 kJ/mol
# Density = 1.890374 g / cm^3
# Si number density = 18.946865 Si / 1000 Ang^3
#
#
#
# Elastic Constant Matrix: (Units=GPa)
#
#
# Indices 1 2 3 4 5 6 
#
# 1 71.2350 3.5579 1.2538 0.0000 -13.0394 0.0000
# 2 3.5579 11.5786 20.7833 0.0000 1.3807 0.0000
# 3 1.2538 20.7833 164.8596 0.0000 -9.9470 0.0000
# 4 0.0000 0.0000 0.0000 -18.1941 0.0000 -35.5505
# 5 -13.0394 1.3807 -9.9470 0.0000 29.6115 0.0000
# 6 0.0000 0.0000 0.0000 -35.5505 0.0000 -15.5244
#
#
#
# Elastic Compliance Matrix: (Units=1/GPa)
#
#
# Indices 1 2 3 4 5 6 
#
# 1 0.015866 -0.008329 0.001403 0.000000 0.007846 0.000000
# 2 -0.008329 0.119061 -0.015823 0.000000 -0.014535 0.000000
# 3 0.001403 -0.015823 0.008300 0.000000 0.004144 0.000000
# 4 0.000000 0.000000 0.000000 0.015819 0.000000 -0.036225
# 5 0.007846 -0.014535 0.004144 0.000000 0.039295 0.000000
# 6 0.000000 0.000000 0.000000 -0.036225 0.000000 0.018539
#
#
# Mechanical properties :
#
#
# Convention : Reuss Voigt Hill
#
# Bulk Modulus (GPa) = 10.23245 33.20704 21.71974
# Shear Modulus (GPa) = 16.95173 13.98379 15.46776
#
# Velocity S-wave (km/s) = 2.99440 2.71966 2.86033
# Velocity P-wave (km/s) = 4.16744 5.23703 4.73255
#
# Compressibility (1/GPa) = 0.09772827
#
# Stress axis : x y z
#
# Youngs Moduli (GPa) = 63.02977 8.39902 120.48336
#
# Poissons Ratio (x) = 0.06995 -0.16900
# Poissons Ratio (y) = 0.52496 1.90644
# Poissons Ratio (z) = -0.08841 0.13290
#
# Static dielectric constant tensor:
#      x y z
#    x 1.684160 0.000000 0.025160 
#    y 0.000000 1.659060 0.000000 
#    z 0.025160 0.000000 1.813480 
# 
# From -- ./inp_files/253921.got.cif
#   From: 2010.05.17/outbox.cif.g08.bks.cpg/sg12_127_cif.got.tgz:253921.got - 2010.06.03 13:09:07.
