data_PCOD9177235
_publ_section_title
;
Structure prediction by ZEFSAII (Michael W. Deem and Ramdas Pophale) SiO2 
 PCOD9177235
Probable space group: C 2/M
;
_chemical_formula_sum "Si O2"
_cell_formula_units_Z 34
_cell_length_a 23.319649
_cell_length_b 17.687511
_cell_length_c 9.007268
_cell_angle_alpha 90.000000
_cell_angle_beta 23.471020
_cell_angle_gamma 90.000000
_cell_volume 1479.707774
_symmetry_space_group_name_H-M "C 2/M"
_symmetry_group_IT_number 12
_symmetry_cell_setting 'monoclinic'
loop_
_space_group_symop_operation_xyz
x,y,z
-x,y,-z
-x,-y,-z
x,-y,z
1/2+x,1/2+y,z
1/2-x,1/2+y,-z
1/2-x,1/2-y,-z
1/2+x,1/2-y,z
loop_
_atom_site_type_symbol
_atom_site_label
_atom_site_fract_x
_atom_site_fract_y
_atom_site_fract_z
Si Si1 0.165035 0.000000 0.652141
Si Si2 0.486358 0.767355 0.867404
Si Si3 0.279351 0.653782 0.649053
Si Si4 0.000000 0.500000 0.500000
Si Si5 0.832709 0.624404 0.753650
Si Si6 0.356936 0.500000 0.940986
O O1 0.228871 0.923858 0.425280
O O2 0.000000 0.000000 0.000000
O O3 0.157265 0.000000 0.848273
O O4 0.556372 0.684322 0.723988
O O5 0.601429 0.804490 0.483370
O O6 0.500000 0.802588 0.000000
O O7 0.329027 0.785197 0.172152
O O8 0.228974 0.640220 0.936968
O O9 0.960866 0.565351 0.472466
O O10 0.718442 0.577668 0.931333
O O11 0.500000 0.500000 0.500000
#
# Coordination Sequence:
#
# PCOD9177235 Si02
#       6
#     4   8   8   2   8   4
#     4  12  26  49  75 107 146 197 243 305 361 434
#     4  12  26  44  69 108 149 193 242 303 368 442
#     4  12  26  47  75 106 149 195 244 304 369 434
#     4  10  18  42  68  98 132 178 240 282 348 410
#     4  11  23  43  72 103 143 189 240 302 359 431
#     4  11  25  43  70 110 142 187 245 300 366 435
#
# _framework density 22.977509999999999
#
# number of rings (size 3 to 8) (size 9 to 14) (size 15 to 20)
#    0.000    0.471    2.353    6.353    0.000    3.765 
#    0.000    2.941    0.000    1.412    0.000    0.000 
#    0.000    0.000    0.000    0.000    0.000    0.000 
#
# Total GULP energy -94646.513114 kJ/mol
# GULP energy per Si atom -5567.441948 kJ/mol
# Density = 2.292521 g / cm^3
# Si number density = 22.977510 Si / 1000 Ang^3
#
#
#
# Elastic Constant Matrix: (Units=GPa)
#
#
# Indices 1 2 3 4 5 6 
#
# 1 174.0165 42.7099 42.8877 0.0000 37.1749 0.0000
# 2 42.7099 110.6967 36.8173 0.0000 10.5810 0.0000
# 3 42.8877 36.8173 81.9872 -0.0002 27.8303 0.0001
# 4 0.0000 0.0000 -0.0002 29.4962 0.0001 2.7508
# 5 37.1749 10.5810 27.8303 0.0001 60.5384 0.0000
# 6 0.0000 0.0000 0.0001 2.7508 0.0000 50.4332
#
#
#
# Elastic Compliance Matrix: (Units=1/GPa)
#
#
# Indices 1 2 3 4 5 6 
#
# 1 0.007391 -0.001909 -0.001874 0.000000 -0.003344 0.000000
# 2 -0.001909 0.011121 -0.004424 0.000000 0.001262 0.000000
# 3 -0.001874 -0.004424 0.017194 0.000000 -0.005980 0.000000
# 4 0.000000 0.000000 0.000000 0.034076 0.000000 -0.001859
# 5 -0.003344 0.001262 -0.005980 0.000000 0.021100 0.000000
# 6 0.000000 0.000000 0.000000 -0.001859 0.000000 0.019930
#
#
# Mechanical properties :
#
#
# Convention : Reuss Voigt Hill
#
# Bulk Modulus (GPa) = 51.83431 67.94780 59.89106
# Shear Modulus (GPa) = 37.40929 44.37925 40.89427
#
# Velocity S-wave (km/s) = 4.03933 4.39956 4.22329
# Velocity P-wave (km/s) = 6.66052 7.44606 7.06422
#
# Compressibility (1/GPa) = 0.01929224
#
# Stress axis : x y z
#
# Youngs Moduli (GPa) = 135.29476 89.92092 58.15980
#
# Poissons Ratio (x) = 0.17164 0.10901
# Poissons Ratio (y) = 0.25825 0.25729
# Poissons Ratio (z) = 0.25358 0.39780
#
# Static dielectric constant tensor:
#      x y z
#    x 1.846820 0.000000 -0.103050 
#    y 0.000000 1.827940 0.000000 
#    z -0.103050 0.000000 1.800250 
# 
# From -- ./inp_files/88343.got.cif
#   From: 2010.05.17/outbox.cif.g08.bks.cpg/sg12_45_cif.got.tgz:88343.got - 2010.06.03 13:09:07.
