data_PCOD9177594
_publ_section_title
;
Structure prediction by ZEFSAII (Michael W. Deem and Ramdas Pophale) SiO2 
 PCOD9177594
Probable space group: C 2/M
;
_chemical_formula_sum "Si O2"
_cell_formula_units_Z 48
_cell_length_a 23.320090
_cell_length_b 7.664881
_cell_length_c 20.273605
_cell_angle_alpha 90.000000
_cell_angle_beta 44.824198
_cell_angle_gamma 90.000000
_cell_volume 2554.553300
_symmetry_space_group_name_H-M "C 2/M"
_symmetry_group_IT_number 12
_symmetry_cell_setting 'monoclinic'
loop_
_space_group_symop_operation_xyz
x,y,z
-x,y,-z
-x,-y,-z
x,-y,z
1/2+x,1/2+y,z
1/2-x,1/2+y,-z
1/2-x,1/2-y,-z
1/2+x,1/2-y,z
loop_
_atom_site_type_symbol
_atom_site_label
_atom_site_fract_x
_atom_site_fract_y
_atom_site_fract_z
Si Si1 0.045149 0.295283 0.176931
Si Si2 0.629407 0.208671 0.642620
Si Si3 0.197401 0.710608 0.447241
Si Si4 0.591339 0.789614 0.411392
Si Si5 0.195956 0.290790 0.979606
Si Si6 0.151708 0.792303 0.216254
O O1 0.035243 0.500000 0.169312
O O2 0.092343 0.283447 0.208471
O O3 0.955247 0.219650 0.260191
O O4 0.106654 0.220599 0.071282
O O5 0.708177 0.241250 0.623133
O O6 0.652381 0.275162 0.550589
O O7 0.619497 0.000000 0.644066
O O8 0.193199 0.500000 0.451392
O O9 0.152417 0.773851 0.418456
O O10 0.500000 0.725885 0.500000
O O11 0.620671 0.745004 0.314414
O O12 0.589350 0.000000 0.417286
O O13 0.187811 0.500000 0.979796
O O14 0.255396 0.228956 0.872678
O O15 0.250000 0.250000 0.000000
O O16 0.151096 0.000000 0.206190
#
# Coordination Sequence:
#
# PCOD9177594 Si02
#       6
#     8   8   8   8   8   8
#     4   9  16  29  49  69  91 122 156 184 219 271
#     4   9  17  30  49  69  88 114 149 187 223 263
#     4   9  18  31  46  66  91 117 146 183 226 267
#     4  10  20  34  50  66  89 123 157 183 216 272
#     4   8  15  27  43  65  92 119 148 184 224 266
#     4  10  19  29  44  70  99 121 146 187 233 267
#
# _framework density 18.789977
#
# number of rings (size 3 to 8) (size 9 to 14) (size 15 to 20)
#    0.000    2.833    0.000    1.500    0.000    5.000 
#    0.000    3.333    0.000    1.000    0.000    7.000 
#    0.000    0.000    0.000    0.000    0.000    0.000 
#
# Total GULP energy -133706.963731 kJ/mol
# GULP energy per Si atom -5571.123489 kJ/mol
# Density = 1.874721 g / cm^3
# Si number density = 18.789977 Si / 1000 Ang^3
#
#
#
# Elastic Constant Matrix: (Units=GPa)
#
#
# Indices 1 2 3 4 5 6 
#
# 1 67.1009 -9.2123 72.4858 0.0015 -20.6816 0.0001
# 2 -9.2123 32.8003 -1.4806 0.0061 -5.4222 -0.0102
# 3 72.4858 -1.4806 192.9295 0.0046 -36.7343 -0.0019
# 4 0.0015 0.0061 0.0046 -13.4767 -0.0002 0.7489
# 5 -20.6816 -5.4222 -36.7343 -0.0002 35.2701 0.0008
# 6 0.0001 -0.0102 -0.0019 0.7489 0.0008 17.8263
#
#
#
# Elastic Compliance Matrix: (Units=1/GPa)
#
#
# Indices 1 2 3 4 5 6 
#
# 1 0.028568 0.009069 -0.008992 0.000004 0.008781 0.000003
# 2 0.009069 0.034486 -0.001398 0.000017 0.009164 0.000018
# 3 -0.008992 -0.001398 0.009363 0.000002 0.004264 0.000000
# 4 0.000004 0.000017 0.000002 -0.074029 0.000006 0.003110
# 5 0.008781 0.009164 0.004264 0.000006 0.039351 0.000004
# 6 0.000003 0.000018 0.000000 0.003110 0.000004 0.055966
#
#
# Mechanical properties :
#
#
# Convention : Reuss Voigt Hill
#
# Bulk Modulus (GPa) = 14.33164 46.26850 30.30007
# Shear Modulus (GPa) = 41.80442 23.32645 32.56544
#
# Velocity S-wave (km/s) = 4.72192 3.52722 4.16760
# Velocity P-wave (km/s) = 6.11331 6.42385 6.27050
#
# Compressibility (1/GPa) = 0.06977570
#
# Stress axis : x y z
#
# Youngs Moduli (GPa) = 35.00455 28.99693 106.80715
#
# Poissons Ratio (x) = -0.26298 0.96038
# Poissons Ratio (y) = -0.31746 0.14931
# Poissons Ratio (z) = 0.31475 0.04054
#
# Static dielectric constant tensor:
#      x y z
#    x 1.615740 0.000000 -0.035970 
#    y 0.000000 1.719500 0.000000 
#    z -0.035970 0.000000 1.700510 
# 
# From -- ./inp_files/280060.got.cif
#   From: 2010.05.17/outbox.cif.g08.bks.cpg/sg12_141_cif.got.tgz:280060.got - 2010.06.03 13:09:07.
