data_PCOD9177069
_publ_section_title
;
Structure prediction by ZEFSAII (Michael W. Deem and Ramdas Pophale) SiO2 
 PCOD9177069
Probable space group: C 2/M
;
_chemical_formula_sum "Si O2"
_cell_formula_units_Z 64
_cell_length_a 17.316814
_cell_length_b 27.187132
_cell_length_c 10.638708
_cell_angle_alpha 90.000000
_cell_angle_beta 35.739062
_cell_angle_gamma 90.000000
_cell_volume 2925.523284
_symmetry_space_group_name_H-M "C 2/M"
_symmetry_group_IT_number 12
_symmetry_cell_setting 'monoclinic'
loop_
_space_group_symop_operation_xyz
x,y,z
-x,y,-z
-x,-y,-z
x,-y,z
1/2+x,1/2+y,z
1/2-x,1/2+y,-z
1/2-x,1/2-y,-z
1/2+x,1/2-y,z
loop_
_atom_site_type_symbol
_atom_site_label
_atom_site_fract_x
_atom_site_fract_y
_atom_site_fract_z
Si Si1 0.181189 0.943042 0.997016
Si Si2 0.388409 0.808547 0.246779
Si Si3 0.700466 0.944246 0.412347
Si Si4 0.506324 0.087892 0.862557
Si Si5 0.746281 0.856994 0.912880
Si Si6 0.033065 0.288085 0.313463
Si Si7 0.607803 0.688745 0.514712
Si Si8 0.944550 0.111855 0.199689
O O1 0.295477 0.934232 0.741551
O O2 0.191447 0.899703 0.084372
O O3 0.186771 0.000000 0.033122
O O4 0.044665 0.932100 0.103496
O O5 0.394978 0.867660 0.229012
O O6 0.432594 0.801843 0.332654
O O7 0.245745 0.790008 0.391493
O O8 0.500000 0.789771 0.000000
O O9 0.563241 0.938363 0.665281
O O10 0.804595 0.909639 0.344179
O O11 0.747433 0.000000 0.363586
O O12 0.371847 0.114131 0.000702
O O13 0.500000 0.057561 0.000000
O O14 0.671752 0.812871 0.087830
O O15 0.844384 0.835558 0.678576
O O16 0.006165 0.229523 0.348826
O O17 0.000000 0.304800 0.500000
O O18 0.563637 0.648669 0.674175
O O19 0.000000 0.137198 0.000000
#
# Coordination Sequence:
#
# PCOD9177069 Si02
#       8
#     8   8   8   8   8   8   8   8
#     4  10  24  44  67  96 136 180 226 282 346 410
#     4  10  19  44  68  90 130 176 225 274 337 406
#     4  10  20  37  66  99 131 169 224 290 341 401
#     4  10  18  37  63  93 126 167 216 271 336 394
#     4  11  25  44  68  94 138 180 223 284 342 403
#     4  11  27  41  66 102 132 180 230 285 336 402
#     4  12  23  45  68  95 137 178 226 280 340 407
#     4  10  22  41  69 100 130 176 227 278 338 410
#
# _framework density 21.876429000000002
#
# number of rings (size 3 to 8) (size 9 to 14) (size 15 to 20)
#    0.000    1.500    5.000    0.750    5.250    3.250 
#    2.250    4.375    0.000    0.000    0.000    0.000 
#    0.000    0.000    0.000    0.000    0.000    0.000 
#
# Total GULP energy -178458.596026 kJ/mol
# GULP energy per Si atom -5576.831126 kJ/mol
# Density = 2.182664 g / cm^3
# Si number density = 21.876429 Si / 1000 Ang^3
#
#
#
# Elastic Constant Matrix: (Units=GPa)
#
#
# Indices 1 2 3 4 5 6 
#
# 1 112.7158 45.7159 51.7639 -0.0002 28.4638 -0.0001
# 2 45.7159 103.5933 56.5658 -0.0001 24.1020 0.0000
# 3 51.7639 56.5658 113.5726 -0.0004 28.7353 -0.0003
# 4 -0.0002 -0.0001 -0.0004 106.1567 0.0001 67.5628
# 5 28.4638 24.1020 28.7353 0.0001 45.3151 0.0001
# 6 -0.0001 0.0000 -0.0003 67.5628 0.0001 72.6912
#
#
#
# Elastic Compliance Matrix: (Units=1/GPa)
#
#
# Indices 1 2 3 4 5 6 
#
# 1 0.012592 -0.002760 -0.003257 0.000000 -0.004376 0.000000
# 2 -0.002760 0.014322 -0.005225 0.000000 -0.002571 0.000000
# 3 -0.003257 -0.005225 0.013901 0.000000 -0.003990 0.000000
# 4 0.000000 0.000000 0.000000 0.023062 0.000000 -0.021435
# 5 -0.004376 -0.002571 -0.003990 0.000000 0.028714 0.000000
# 6 0.000000 0.000000 0.000000 -0.021435 0.000000 0.033680
#
#
# Mechanical properties :
#
#
# Convention : Reuss Voigt Hill
#
# Bulk Modulus (GPa) = 54.55213 70.88587 62.71900
# Shear Modulus (GPa) = 32.28561 56.55501 44.42031
#
# Velocity S-wave (km/s) = 3.84580 5.09001 4.51101
# Velocity P-wave (km/s) = 6.68662 8.18642 7.47423
#
# Compressibility (1/GPa) = 0.01833109
#
# Stress axis : x y z
#
# Youngs Moduli (GPa) = 79.41315 69.82112 71.93501
#
# Poissons Ratio (x) = 0.19273 0.23432
# Poissons Ratio (y) = 0.21920 0.37585
# Poissons Ratio (z) = 0.25868 0.36481
#
# Static dielectric constant tensor:
#      x y z
#    x 1.870170 0.000000 0.022040 
#    y 0.000000 1.805050 0.000000 
#    z 0.022040 0.000000 1.863050 
# 
# From -- ./inp_files/161180.got.cif
#   From: 2010.05.17/outbox.cif.g08.bks.cpg/sg12_81_cif.got.tgz:161180.got - 2010.06.03 13:09:07.
