data_PCOD9177613
_publ_section_title
;
Structure prediction by ZEFSAII (Michael W. Deem and Ramdas Pophale) SiO2 
 PCOD9177613
Probable space group: C 2/M
;
_chemical_formula_sum "Si O2"
_cell_formula_units_Z 50
_cell_length_a 24.838936
_cell_length_b 7.586685
_cell_length_c 17.183125
_cell_angle_alpha 90.000000
_cell_angle_beta 60.408918
_cell_angle_gamma 90.000000
_cell_volume 2815.740566
_symmetry_space_group_name_H-M "C 2/M"
_symmetry_group_IT_number 12
_symmetry_cell_setting 'monoclinic'
loop_
_space_group_symop_operation_xyz
x,y,z
-x,y,-z
-x,-y,-z
x,-y,z
1/2+x,1/2+y,z
1/2-x,1/2+y,-z
1/2-x,1/2-y,-z
1/2+x,1/2-y,z
loop_
_atom_site_type_symbol
_atom_site_label
_atom_site_fract_x
_atom_site_fract_y
_atom_site_fract_z
Si Si1 0.180085 0.285130 0.207798
Si Si2 0.846398 0.287318 0.947400
Si Si3 0.459358 0.303370 0.649984
Si Si4 0.311271 0.298550 0.141957
Si Si5 0.985435 0.288977 0.806197
Si Si6 0.000000 0.500000 0.500000
Si Si7 0.556143 0.708256 0.906334
O O1 0.178850 0.500000 0.210208
O O2 0.181287 0.232817 0.115838
O O3 0.115086 0.221730 0.288331
O O4 0.242809 0.222584 0.204938
O O5 0.841367 0.500000 0.957915
O O6 0.918954 0.239572 0.890536
O O7 0.817937 0.202191 0.043715
O O8 0.472441 0.500000 0.612763
O O9 0.486403 0.283262 0.718264
O O10 0.485120 0.153826 0.576009
O O11 0.309437 0.500000 0.172382
O O12 0.375532 0.216077 0.125826
O O13 0.986465 0.500000 0.799646
O O14 0.036818 0.229736 0.830666
O O15 0.560065 0.500000 0.922599
O O16 0.500000 0.781700 0.000000
#
# Coordination Sequence:
#
# PCOD9177613 Si02
#       7
#     8   8   8   8   8   2   8
#     4   9  18  34  48  71 111 148 184 228 282 331
#     4   9  17  27  43  65  99 146 192 236 272 319
#     4  11  22  38  64  90 115 145 173 221 290 353
#     4  10  19  29  45  68 105 153 199 237 273 308
#     4  10  19  34  51  74 113 152 188 237 283 323
#     4  12  22  44  64  94 122 128 172 228 288 364
#     4  10  19  30  45  72 109 153 206 247 270 312
#
# _framework density 17.757317
#
# number of rings (size 3 to 8) (size 9 to 14) (size 15 to 20)
#    0.000    2.080    3.200    2.160    0.000    4.160 
#    0.000    0.000    0.000    0.000    0.000    1.120 
#    0.000    0.000    0.000    0.000    0.000    0.000 
#
# Total GULP energy -139205.825345 kJ/mol
# GULP energy per Si atom -5568.233014 kJ/mol
# Density = 1.771690 g / cm^3
# Si number density = 17.757317 Si / 1000 Ang^3
#
#
#
# Elastic Constant Matrix: (Units=GPa)
#
#
# Indices 1 2 3 4 5 6 
#
# 1 103.8077 10.0627 13.5907 -0.0001 6.7924 -0.0006
# 2 10.0627 77.0226 15.4917 -0.0002 2.1683 -0.0011
# 3 13.5907 15.4917 63.1659 0.0001 13.8148 0.0000
# 4 -0.0001 -0.0002 0.0001 20.5167 0.0000 9.5034
# 5 6.7924 2.1683 13.8148 0.0000 2.1731 0.0000
# 6 -0.0006 -0.0011 0.0000 9.5034 0.0000 16.8116
#
#
#
# Elastic Compliance Matrix: (Units=1/GPa)
#
#
# Indices 1 2 3 4 5 6 
#
# 1 0.008470 -0.000140 -0.010174 0.000000 0.038342 0.000001
# 2 -0.000140 0.013340 0.001091 0.000000 -0.019811 0.000001
# 3 -0.010174 0.001091 -0.028271 0.000000 0.210435 0.000000
# 4 0.000000 0.000000 0.000000 0.066030 0.000002 -0.037326
# 5 0.038342 -0.019811 0.210435 0.000002 -0.977684 -0.000003
# 6 0.000001 0.000001 0.000000 -0.037326 -0.000003 0.080583
#
#
# Mechanical properties :
#
#
# Convention : Reuss Voigt Hill
#
# Bulk Modulus (GPa) = -40.15199 35.80961 -2.17119
# Shear Modulus (GPa) = -6.04310 21.55701 7.75696
#
# Velocity S-wave (km/s) = -1.84677 3.48800 2.09232
# Velocity P-wave (km/s) = 5.21613 6.03584 2.14749
#
# Compressibility (1/GPa) = -0.02490537
#
# Stress axis : x y z
#
# Youngs Moduli (GPa) = 118.06503 74.96440 -35.37227
#
# Poissons Ratio (x) = 0.01047 -0.35987
# Poissons Ratio (y) = 0.01649 0.03860
# Poissons Ratio (z) = 1.20116 -0.08181
#
# Static dielectric constant tensor:
#      x y z
#    x 1.659070 0.000000 -0.016410 
#    y 0.000000 1.637790 0.000000 
#    z -0.016410 0.000000 1.559710 
# 
# From -- ./inp_files/237220.got.cif
#   From: 2010.05.17/outbox.cif.g08.bks.cpg/sg12_119_cif.got.tgz:237220.got - 2010.06.03 13:09:07.
