data_PCOD9177650
_publ_section_title
;
Structure prediction by ZEFSAII (Michael W. Deem and Ramdas Pophale) SiO2 
 PCOD9177650
Probable space group: C 2/M
;
_chemical_formula_sum "Si O2"
_cell_formula_units_Z 48
_cell_length_a 13.118292
_cell_length_b 23.547509
_cell_length_c 14.590562
_cell_angle_alpha 90.000000
_cell_angle_beta 141.236760
_cell_angle_gamma 90.000000
_cell_volume 2821.892964
_symmetry_space_group_name_H-M "C 2/M"
_symmetry_group_IT_number 12
_symmetry_cell_setting 'monoclinic'
loop_
_space_group_symop_operation_xyz
x,y,z
-x,y,-z
-x,-y,-z
x,-y,z
1/2+x,1/2+y,z
1/2-x,1/2+y,-z
1/2-x,1/2-y,-z
1/2+x,1/2-y,z
loop_
_atom_site_type_symbol
_atom_site_label
_atom_site_fract_x
_atom_site_fract_y
_atom_site_fract_z
Si Si1 0.008809 0.434444 0.896347
Si Si2 0.486691 0.281897 0.776991
Si Si3 0.848700 0.061731 0.325950
Si Si4 0.069974 0.816760 0.652000
Si Si5 0.317664 0.714532 0.833918
Si Si6 0.825197 0.667871 0.089163
O O1 0.061005 0.500000 0.922037
O O2 0.112755 0.390297 0.910980
O O3 0.818680 0.430766 0.735889
O O4 0.000000 0.421889 0.000000
O O5 0.447309 0.295855 0.644570
O O6 0.349602 0.302018 0.751391
O O7 0.534265 0.215743 0.824668
O O8 0.659434 0.312234 0.922261
O O9 0.876178 0.118879 0.288833
O O10 0.000000 0.058964 0.500000
O O11 0.836774 0.000000 0.269627
O O12 0.219366 0.773187 0.764933
O O13 0.000000 0.814549 0.500000
O O14 0.225206 0.672066 0.838476
O O15 0.500000 0.723175 0.000000
#
# Coordination Sequence:
#
# PCOD9177650 Si02
#       6
#     8   8   8   8   8   8
#     4  10  19  30  49  74  96 119 152 198 238 270
#     4   9  17  29  47  68  95 128 158 191 233 285
#     4   9  18  31  45  65  94 124 151 182 232 291
#     4  10  19  29  45  71  98 121 153 201 244 276
#     4   9  18  32  49  67  91 129 164 189 229 286
#     4   9  17  29  48  71  94 123 158 194 231 279
#
# _framework density 17.009858999999999
#
# number of rings (size 3 to 8) (size 9 to 14) (size 15 to 20)
#    0.000    2.667    0.000    3.000    0.000    4.667 
#    0.000    1.667    0.000    5.500    0.000    0.000 
#    0.000   22.667    0.000    0.000    0.000    0.000 
#
# Total GULP energy -133609.064854 kJ/mol
# GULP energy per Si atom -5567.044369 kJ/mol
# Density = 1.697114 g / cm^3
# Si number density = 17.009859 Si / 1000 Ang^3
#
#
#
# Elastic Constant Matrix: (Units=GPa)
#
#
# Indices 1 2 3 4 5 6 
#
# 1 138.8995 64.8906 29.8779 0.0000 -17.9239 0.0000
# 2 64.8906 129.1364 20.8158 0.0000 -1.8940 0.0000
# 3 29.8779 20.8158 35.4809 0.0000 0.7672 0.0000
# 4 0.0000 0.0000 0.0000 14.2896 0.0000 -1.5781
# 5 -17.9239 -1.8940 0.7672 0.0000 24.5787 0.0000
# 6 0.0000 0.0000 0.0000 -1.5781 0.0000 27.7082
#
#
#
# Elastic Compliance Matrix: (Units=1/GPa)
#
#
# Indices 1 2 3 4 5 6 
#
# 1 0.012211 -0.004770 -0.007674 0.000000 0.008777 0.000000
# 2 -0.004770 0.010433 -0.002047 0.000000 -0.002611 0.000000
# 3 -0.007674 -0.002047 0.035996 0.000000 -0.006878 0.000000
# 4 0.000000 0.000000 0.000000 0.070424 0.000000 0.004011
# 5 0.008777 -0.002611 -0.006878 0.000000 0.047100 0.000000
# 6 0.000000 0.000000 0.000000 0.004011 0.000000 0.036319
#
#
# Mechanical properties :
#
#
# Convention : Reuss Voigt Hill
#
# Bulk Modulus (GPa) = 33.71890 59.40949 46.56419
# Shear Modulus (GPa) = 19.89245 25.84411 22.86828
#
# Velocity S-wave (km/s) = 3.42346 3.90213 3.67060
# Velocity P-wave (km/s) = 5.95759 7.43670 6.73785
#
# Compressibility (1/GPa) = 0.02965696
#
# Stress axis : x y z
#
# Youngs Moduli (GPa) = 81.89017 95.85373 27.78086
#
# Poissons Ratio (x) = 0.45727 0.21319
# Poissons Ratio (y) = 0.39066 0.05687
# Poissons Ratio (z) = 0.62844 0.19620
#
# Static dielectric constant tensor:
#      x y z
#    x 1.617520 0.000000 -0.024750 
#    y 0.000000 1.586770 0.000000 
#    z -0.024750 0.000000 1.630800 
# 
# From -- ./inp_files/208006.got.cif
#   From: 2010.05.17/outbox.cif.g08.bks.cpg/sg12_105_cif.got.tgz:208006.got - 2010.06.03 13:09:07.
