data_PCOD9177785
_publ_section_title
;
Structure prediction by ZEFSAII (Michael W. Deem and Ramdas Pophale) SiO2 
 PCOD9177785
Probable space group: C 2/M
;
_chemical_formula_sum "Si O2"
_cell_formula_units_Z 56
_cell_length_a 5.329809
_cell_length_b 37.098863
_cell_length_c 23.809898
_cell_angle_alpha 90.000000
_cell_angle_beta 77.064826
_cell_angle_gamma 90.000000
_cell_volume 4588.459078
_symmetry_space_group_name_H-M "C 2/M"
_symmetry_group_IT_number 12
_symmetry_cell_setting 'monoclinic'
loop_
_space_group_symop_operation_xyz
x,y,z
-x,y,-z
-x,-y,-z
x,-y,z
1/2+x,1/2+y,z
1/2-x,1/2+y,-z
1/2-x,1/2-y,-z
1/2+x,1/2-y,z
loop_
_atom_site_type_symbol
_atom_site_label
_atom_site_fract_x
_atom_site_fract_y
_atom_site_fract_z
Si Si1 0.336786 0.456611 0.663214
Si Si2 0.069793 0.645960 0.430207
Si Si3 0.933440 0.456089 0.066560
Si Si4 0.929708 0.271201 0.570292
Si Si5 0.134175 0.043986 0.865825
Si Si6 0.930637 0.897920 0.569363
Si Si7 0.266644 0.043655 0.733357
O O1 0.344657 0.500000 0.655343
O O2 0.396694 0.435389 0.603306
O O3 0.549090 0.446315 0.699231
O O4 0.052448 0.446315 0.699231
O O5 0.089919 0.687329 0.410081
O O6 0.337492 0.624608 0.414182
O O7 0.000000 0.647409 0.500000
O O8 0.834143 0.624608 0.414182
O O9 0.933810 0.500000 0.066190
O O10 0.649643 0.444788 0.100309
O O11 0.149739 0.444788 0.100309
O O12 0.000000 0.444492 0.000000
O O13 0.661864 0.250000 0.588136
O O14 0.000000 0.271679 0.500000
O O15 0.200493 0.056211 0.799507
O O16 0.134845 0.000000 0.865155
O O17 0.000000 0.902854 0.500000
O O18 0.264339 0.000000 0.735661
#
# Coordination Sequence:
#
# PCOD9177785 Si02
#       7
#     8   8   8   8   8   8   8
#     4  10  19  30  42  54  66  82 112 152 187 222
#     4   9  17  28  40  55  74  93 111 129 158 206
#     4   9  15  21  30  46  66  85 103 121 145 188
#     4   9  15  23  37  56  75  93 111 129 147 176
#     4   9  15  23  34  46  62  83 103 126 160 198
#     4  10  19  30  42  54  70  91 111 138 181 227
#     4   9  17  28  40  52  64  80 106 142 180 213
#
# _framework density 12.204533
#
# number of rings (size 3 to 8) (size 9 to 14) (size 15 to 20)
#    0.000    2.714    0.000    3.000    0.000    8.857 
#    0.000    0.000    0.000    5.143    0.000    0.000 
#    0.000    0.000    0.000    0.000    0.000    0.000 
#
# Total GULP energy -155920.147303 kJ/mol
# GULP energy per Si atom -5568.576689 kJ/mol
# Density = 1.217675 g / cm^3
# Si number density = 12.204533 Si / 1000 Ang^3
#
#
#
# Elastic Constant Matrix: (Units=GPa)
#
#
# Indices 1 2 3 4 5 6 
#
# 1 137.4710 37.2200 48.1455 0.0000 3.3377 0.0000
# 2 37.2200 45.0532 29.7182 0.0000 0.3782 0.0000
# 3 48.1455 29.7182 65.0857 0.0000 0.3112 0.0000
# 4 0.0000 0.0000 0.0000 0.1804 0.0000 0.4453
# 5 3.3377 0.3782 0.3112 0.0000 11.7090 0.0000
# 6 0.0000 0.0000 0.0000 0.4453 0.0000 9.0149
#
#
#
# Elastic Compliance Matrix: (Units=1/GPa)
#
#
# Indices 1 2 3 4 5 6 
#
# 1 0.010670 -0.005143 -0.005532 0.000000 -0.002728 0.000000
# 2 -0.005143 0.034246 -0.011835 0.000000 0.000675 0.000000
# 3 -0.005532 -0.011835 0.024854 0.000000 0.001299 0.000000
# 4 0.000000 0.000000 0.000000 6.313754 0.000000 -0.311900
# 5 -0.002728 0.000675 0.001299 0.000000 0.086126 0.000000
# 6 0.000000 0.000000 0.000000 -0.311900 0.000000 0.126336
#
#
# Mechanical properties :
#
#
# Convention : Reuss Voigt Hill
#
# Bulk Modulus (GPa) = 40.40419 53.08636 46.74527
# Shear Modulus (GPa) = 0.75196 13.01593 6.88395
#
# Velocity S-wave (km/s) = 0.78579 3.26925 2.37755
# Velocity P-wave (km/s) = 5.83104 7.60541 6.77655
#
# Compressibility (1/GPa) = 0.02474991
#
# Stress axis : x y z
#
# Youngs Moduli (GPa) = 93.71732 29.20013 40.23484
#
# Poissons Ratio (x) = 0.15019 0.22256
# Poissons Ratio (y) = 0.48203 0.47620
# Poissons Ratio (z) = 0.51841 0.34560
#
# Static dielectric constant tensor:
#      x y z
#    x 1.412970 0.000000 0.001550 
#    y 0.000000 1.368310 0.000000 
#    z 0.001550 0.000000 1.382140 
# 
# From -- ./inp_files/298216.got.cif
#   From: 2010.05.17/outbox.cif.g08.bks.cpg/sg12_150_cif.got.tgz:298216.got - 2010.06.03 13:09:07.
