data_PCOD9177203
_publ_section_title
;
Structure prediction by ZEFSAII (Michael W. Deem and Ramdas Pophale) SiO2 
 PCOD9177203
Probable space group: C 2/M
;
_chemical_formula_sum "Si O2"
_cell_formula_units_Z 28
_cell_length_a 18.072629
_cell_length_b 9.059221
_cell_length_c 6.896617
_cell_angle_alpha 90.000000
_cell_angle_beta 100.358648
_cell_angle_gamma 90.000000
_cell_volume 1110.738000
_symmetry_space_group_name_H-M "C 2/M"
_symmetry_group_IT_number 12
_symmetry_cell_setting 'monoclinic'
loop_
_space_group_symop_operation_xyz
x,y,z
-x,y,-z
-x,-y,-z
x,-y,z
1/2+x,1/2+y,z
1/2-x,1/2+y,-z
1/2-x,1/2-y,-z
1/2+x,1/2-y,z
loop_
_atom_site_type_symbol
_atom_site_label
_atom_site_fract_x
_atom_site_fract_y
_atom_site_fract_z
Si Si1 0.069224 0.665767 0.750249
Si Si2 0.131754 0.000000 0.708875
Si Si3 0.719717 0.000000 0.474515
Si Si4 0.168963 0.000000 0.167502
Si Si5 0.101707 0.301596 0.215927
O O1 0.087410 0.500000 0.672228
O O2 0.091793 0.833399 0.683726
O O3 0.978749 0.667391 0.728821
O O4 0.099604 0.656731 0.987000
O O5 0.199770 0.000000 0.591997
O O6 0.170038 0.000000 0.937977
O O7 0.669929 0.133083 0.371336
O O8 0.747237 0.000000 0.708165
O O9 0.119085 0.867156 0.215383
#
# Coordination Sequence:
#
# PCOD9177203 Si02
#       5
#     8   4   4   4   8
#     4  10  18  39  67  92 125 171 218 260 315 382
#     4  10  25  40  67  99 124 168 218 262 323 376
#     4  12  22  41  63  96 135 160 208 276 317 373
#     4  10  23  38  63  95 131 170 206 258 331 389
#     4  10  19  38  64  93 122 172 215 255 321 382
#
# _framework density 25.208466000000001
#
# number of rings (size 3 to 8) (size 9 to 14) (size 15 to 20)
#    0.000    1.714    2.857    2.571    0.000    8.000 
#    2.571    2.857    0.000    8.571    0.000    0.000 
#    0.000    0.000    0.000    0.000    0.000    0.000 
#
# Total GULP energy -78166.034396 kJ/mol
# GULP energy per Si atom -5583.288171 kJ/mol
# Density = 2.515109 g / cm^3
# Si number density = 25.208466 Si / 1000 Ang^3
#
#
#
# Elastic Constant Matrix: (Units=GPa)
#
#
# Indices 1 2 3 4 5 6 
#
# 1 96.8606 38.2647 27.7842 0.0000 10.6151 0.0000
# 2 38.2647 247.8515 39.9577 0.0000 13.3045 0.0000
# 3 27.7842 39.9577 102.9557 0.0000 15.3270 0.0000
# 4 0.0000 0.0000 0.0000 34.3767 0.0000 6.8737
# 5 10.6151 13.3045 15.3270 0.0000 34.7634 0.0000
# 6 0.0000 0.0000 0.0000 6.8737 0.0000 -9.8981
#
#
#
# Elastic Compliance Matrix: (Units=1/GPa)
#
#
# Indices 1 2 3 4 5 6 
#
# 1 0.011746 -0.001325 -0.002352 0.000000 -0.002043 0.000000
# 2 -0.001325 0.004484 -0.001271 0.000000 -0.000751 0.000000
# 3 -0.002352 -0.001271 0.011410 0.000000 -0.003826 0.000000
# 4 0.000000 0.000000 0.000000 0.025543 0.000000 0.017738
# 5 -0.002043 -0.000751 -0.003826 0.000000 0.031364 0.000000
# 6 0.000000 0.000000 0.000000 0.017738 0.000000 -0.088712
#
#
# Mechanical properties :
#
#
# Convention : Reuss Voigt Hill
#
# Bulk Modulus (GPa) = 56.35039 73.29790 64.82415
# Shear Modulus (GPa) = 429.33609 34.62582 231.98095
#
# Velocity S-wave (km/s) = 13.06461 3.71020 9.60337
# Velocity P-wave (km/s) = 15.81079 6.89159 12.19580
#
# Compressibility (1/GPa) = 0.01774610
#
# Stress axis : x y z
#
# Youngs Moduli (GPa) = 85.13664 222.99363 87.63880
#
# Poissons Ratio (x) = 0.29538 0.20609
# Poissons Ratio (y) = 0.11277 0.11140
# Poissons Ratio (z) = 0.20021 0.28345
#
# Static dielectric constant tensor:
#      x y z
#    x 1.945440 0.000000 -0.075280 
#    y 0.000000 2.527600 0.000000 
#    z -0.075280 0.000000 2.083710 
# 
# From -- ./inp_files/69738.got.cif
#   From: 2010.05.17/outbox.cif.g08.bks.cpg/sg12_35_cif.got.tgz:69738.got - 2010.06.03 13:09:07.
