data_PCOD9177817
_publ_section_title
;
Structure prediction by ZEFSAII (Michael W. Deem and Ramdas Pophale) SiO2 
 PCOD9177817
Probable space group: C 2/M
;
_chemical_formula_sum "Si O2"
_cell_formula_units_Z 56
_cell_length_a 9.752298
_cell_length_b 27.926517
_cell_length_c 19.327948
_cell_angle_alpha 90.000000
_cell_angle_beta 138.198917
_cell_angle_gamma 90.000000
_cell_volume 3508.649434
_symmetry_space_group_name_H-M "C 2/M"
_symmetry_group_IT_number 12
_symmetry_cell_setting 'monoclinic'
loop_
_space_group_symop_operation_xyz
x,y,z
-x,y,-z
-x,-y,-z
x,-y,z
1/2+x,1/2+y,z
1/2-x,1/2+y,-z
1/2-x,1/2-y,-z
1/2+x,1/2-y,z
loop_
_atom_site_type_symbol
_atom_site_label
_atom_site_fract_x
_atom_site_fract_y
_atom_site_fract_z
Si Si1 0.672245 0.700208 0.878234
Si Si2 0.180766 0.557626 0.620197
Si Si3 0.380708 0.594359 0.197883
Si Si4 0.472839 0.786053 0.872044
Si Si5 0.989578 0.391021 0.835402
Si Si6 0.344649 0.056957 0.228671
Si Si7 0.636465 0.554664 0.954473
O O1 0.612131 0.645853 0.838500
O O2 0.505571 0.737731 0.842077
O O3 0.774082 0.717902 0.845409
O O4 0.844288 0.703432 0.003483
O O5 0.207798 0.500000 0.626408
O O6 0.398995 0.582116 0.686985
O O7 0.127556 0.568975 0.680105
O O8 0.000000 0.571378 0.500000
O O9 0.199277 0.593943 0.185829
O O10 0.341833 0.557667 0.120475
O O11 0.474874 0.833660 0.826592
O O12 0.006453 0.415030 0.766839
O O13 0.198543 0.409536 0.951013
O O14 0.102716 0.066716 0.120475
O O15 0.374014 0.000000 0.231789
O O16 0.675502 0.500000 0.992451
#
# Coordination Sequence:
#
# PCOD9177817 Si02
#       7
#     8   8   8   8   8   8   8
#     4   9  17  31  44  65  96 127 166 200 227 281
#     4   9  19  37  55  70  93 126 166 209 249 292
#     4  10  19  31  49  71  95 128 167 201 239 289
#     4   9  18  30  44  65  98 133 160 194 234 274
#     4  11  19  29  45  72 103 129 156 199 240 283
#     4   9  19  32  46  69  97 126 163 200 237 289
#     4  10  19  30  43  64 100 139 165 186 225 287
#
# _framework density 15.960557
#
# number of rings (size 3 to 8) (size 9 to 14) (size 15 to 20)
#    0.000    2.429    1.429    2.571    0.000    6.286 
#    5.143    0.714    0.000    2.571    0.000    9.000 
#    0.000    0.000    0.000    0.000    0.000    0.000 
#
# Total GULP energy -156018.147049 kJ/mol
# GULP energy per Si atom -5572.076680 kJ/mol
# Density = 1.592423 g / cm^3
# Si number density = 15.960557 Si / 1000 Ang^3
#
#
#
# Elastic Constant Matrix: (Units=GPa)
#
#
# Indices 1 2 3 4 5 6 
#
# 1 91.4893 49.7766 25.8025 0.0001 -12.0505 0.0000
# 2 49.7766 56.1343 15.6543 0.0000 -6.2523 0.0000
# 3 25.8025 15.6543 67.4509 0.0003 -3.3626 0.0000
# 4 0.0001 0.0000 0.0003 12.5326 0.0001 -6.4917
# 5 -12.0505 -6.2523 -3.3626 0.0001 8.8275 0.0000
# 6 0.0000 0.0000 0.0000 -6.4917 0.0000 28.9276
#
#
#
# Elastic Compliance Matrix: (Units=1/GPa)
#
#
# Indices 1 2 3 4 5 6 
#
# 1 0.024786 -0.018693 -0.004196 0.000000 0.018998 0.000000
# 2 -0.018693 0.034487 -0.000925 0.000000 -0.001444 0.000000
# 3 -0.004196 -0.000925 0.016643 0.000000 -0.000044 0.000000
# 4 0.000000 0.000000 0.000000 0.090287 -0.000002 0.020261
# 5 0.018998 -0.001444 -0.000044 -0.000002 0.138178 0.000000
# 6 0.000000 0.000000 0.000000 0.020261 0.000000 0.039116
#
#
# Mechanical properties :
#
#
# Convention : Reuss Voigt Hill
#
# Bulk Modulus (GPa) = 35.35021 44.17125 39.76073
# Shear Modulus (GPa) = 12.48268 18.31361 15.39815
#
# Velocity S-wave (km/s) = 2.79963 3.39105 3.10943
# Velocity P-wave (km/s) = 5.71377 6.56259 6.15283
#
# Compressibility (1/GPa) = 0.02828837
#
# Stress axis : x y z
#
# Youngs Moduli (GPa) = 40.34515 28.99628 60.08390
#
# Poissons Ratio (x) = 0.54202 0.25213
# Poissons Ratio (y) = 0.75416 0.05559
# Poissons Ratio (z) = 0.16930 0.02683
#
# Static dielectric constant tensor:
#      x y z
#    x 1.546980 0.000000 -0.008600 
#    y 0.000000 1.543120 0.000000 
#    z -0.008600 0.000000 1.532680 
# 
# From -- ./inp_files/259580.got.cif
#   From: 2010.05.17/outbox.cif.g08.bks.cpg/sg12_130_cif.got.tgz:259580.got - 2010.06.03 13:09:07.
