data_PCOD9177158
_publ_section_title
;
Structure prediction by ZEFSAII (Michael W. Deem and Ramdas Pophale) SiO2 
 PCOD9177158
Probable space group: C 2/M
;
_chemical_formula_sum "Si O2"
_cell_formula_units_Z 48
_cell_length_a 12.449343
_cell_length_b 27.497475
_cell_length_c 14.980124
_cell_angle_alpha 90.000000
_cell_angle_beta 153.049423
_cell_angle_gamma 90.000000
_cell_volume 2324.156690
_symmetry_space_group_name_H-M "C 2/M"
_symmetry_group_IT_number 12
_symmetry_cell_setting 'monoclinic'
loop_
_space_group_symop_operation_xyz
x,y,z
-x,y,-z
-x,-y,-z
x,-y,z
1/2+x,1/2+y,z
1/2-x,1/2+y,-z
1/2-x,1/2-y,-z
1/2+x,1/2-y,z
loop_
_atom_site_type_symbol
_atom_site_label
_atom_site_fract_x
_atom_site_fract_y
_atom_site_fract_z
Si Si1 0.518891 0.500000 0.767570
Si Si2 0.239927 0.000000 0.737230
Si Si3 0.608753 0.262581 0.807001
Si Si4 0.756529 0.000000 0.872770
Si Si5 0.629562 0.918593 0.442129
Si Si6 0.716732 0.897770 0.300449
Si Si7 0.110994 0.311206 0.487905
Si Si8 0.000000 0.675156 0.000000
O O1 0.667192 0.500000 0.786026
O O2 0.347152 0.452693 0.635208
O O3 0.676404 0.500000 0.972877
O O4 0.357666 0.949772 0.796312
O O5 0.000000 0.000000 0.500000
O O6 0.376409 0.292173 0.665860
O O7 0.535329 0.213993 0.700003
O O8 0.750000 0.250000 0.000000
O O9 0.776430 0.293414 0.865920
O O10 0.599411 0.046724 0.730120
O O11 0.000000 0.000000 0.000000
O O12 0.670705 0.901030 0.371114
O O13 0.604884 0.869441 0.479114
O O14 0.580059 0.857282 0.143511
O O15 0.000000 0.891092 0.500000
O O16 0.000000 0.294862 0.500000
#
# Coordination Sequence:
#
# PCOD9177158 Si02
#       8
#     4   4   8   4   8   8   8   4
#     4  11  23  42  70  92 141 176 223 280 338 391
#     4  10  18  38  64  98 136 179 208 267 333 407
#     4  11  25  48  70 103 139 172 228 285 349 411
#     4  11  29  46  64  96 136 185 235 288 327 398
#     4  11  24  44  67  99 131 180 229 273 334 413
#     4  11  22  40  64 100 138 176 217 270 340 411
#     4  11  26  46  74  98 134 185 228 282 342 410
#     4  12  26  39  70 102 134 177 216 284 346 402
#
# _framework density 20.652653000000001
#
# number of rings (size 3 to 8) (size 9 to 14) (size 15 to 20)
#    0.000    1.000    3.333    3.500    4.667    5.667 
#    1.500    0.000    0.000    0.000    0.000    0.000 
#    0.000    0.000    0.000    0.000    0.000    0.000 
#
# Total GULP energy -134298.834370 kJ/mol
# GULP energy per Si atom -5595.784765 kJ/mol
# Density = 2.060565 g / cm^3
# Si number density = 20.652653 Si / 1000 Ang^3
#
#
#
# Elastic Constant Matrix: (Units=GPa)
#
#
# Indices 1 2 3 4 5 6 
#
# 1 93.9086 16.5227 5.8818 0.0038 9.4707 -0.0136
# 2 16.5227 109.2766 30.1498 0.0021 -7.2789 -0.0087
# 3 5.8818 30.1498 77.0454 0.0011 -9.5955 -0.0038
# 4 0.0038 0.0021 0.0011 71.4766 0.0006 -200.5400
# 5 9.4707 -7.2789 -9.5955 0.0006 33.8867 -0.0011
# 6 -0.0136 -0.0087 -0.0038 -200.5400 -0.0011 801.6256
#
#
#
# Elastic Compliance Matrix: (Units=1/GPa)
#
#
# Indices 1 2 3 4 5 6 
#
# 1 0.011382 -0.001796 -0.000633 0.000000 -0.003746 0.000000
# 2 -0.001796 0.010582 -0.003792 0.000000 0.001701 0.000000
# 3 -0.000633 -0.003792 0.014960 0.000000 0.003598 0.000000
# 4 0.000000 0.000000 0.000000 0.046930 0.000000 0.011740
# 5 -0.003746 0.001701 0.003598 0.000000 0.031941 0.000000
# 6 0.000000 0.000000 0.000000 0.011740 0.000000 0.004185
#
#
# Mechanical properties :
#
#
# Convention : Reuss Voigt Hill
#
# Bulk Modulus (GPa) = 40.84536 42.81547 41.83042
# Shear Modulus (GPa) = 35.56627 196.57618 116.07122
#
# Velocity S-wave (km/s) = 4.15434 9.76671 7.50491
# Velocity P-wave (km/s) = 6.54459 12.16393 9.76711
#
# Compressibility (1/GPa) = 0.02448258
#
# Stress axis : x y z
#
# Youngs Moduli (GPa) = 87.85762 94.49825 66.84601
#
# Poissons Ratio (x) = 0.16971 0.04229
# Poissons Ratio (y) = 0.15779 0.25349
# Poissons Ratio (z) = 0.05559 0.35835
#
# Static dielectric constant tensor:
#      x y z
#    x 1.837830 0.000000 0.002990 
#    y 0.000000 1.737080 0.000000 
#    z 0.002990 0.000000 1.772550 
# 
# From -- ./inp_files/209513.got.cif
#   From: 2010.05.17/outbox.cif.g08.bks.cpg/sg12_105_cif.got.tgz:209513.got - 2010.06.03 13:09:07.
