data_PCOD9177706
_publ_section_title
;
Structure prediction by ZEFSAII (Michael W. Deem and Ramdas Pophale) SiO2 
 PCOD9177706
Probable space group: C 2/M
;
_chemical_formula_sum "Si O2"
_cell_formula_units_Z 52
_cell_length_a 25.862846
_cell_length_b 26.172821
_cell_length_c 5.261859
_cell_angle_alpha 90.000000
_cell_angle_beta 124.041246
_cell_angle_gamma 90.000000
_cell_volume 2951.407843
_symmetry_space_group_name_H-M "C 2/M"
_symmetry_group_IT_number 12
_symmetry_cell_setting 'monoclinic'
loop_
_space_group_symop_operation_xyz
x,y,z
-x,y,-z
-x,-y,-z
x,-y,z
1/2+x,1/2+y,z
1/2-x,1/2+y,-z
1/2-x,1/2-y,-z
1/2+x,1/2-y,z
loop_
_atom_site_type_symbol
_atom_site_label
_atom_site_fract_x
_atom_site_fract_y
_atom_site_fract_z
Si Si1 0.194181 0.235040 0.157727
Si Si2 0.139036 0.840931 0.317975
Si Si3 0.755522 0.444481 0.958485
Si Si4 0.331209 0.555192 0.783208
Si Si5 0.266327 0.833207 0.956538
Si Si6 0.042602 0.000000 0.368463
Si Si7 0.956955 0.887237 0.629265
O O1 0.250000 0.250000 0.500000
O O2 0.135818 0.210083 0.142036
O O3 0.185409 0.288280 0.982882
O O4 0.225548 0.191454 0.070275
O O5 0.128988 0.893330 0.133337
O O6 0.211635 0.840895 0.597885
O O7 0.096079 0.846155 0.447337
O O8 0.788542 0.500000 0.062377
O O9 0.709857 0.442181 0.076143
O O10 0.714419 0.445867 0.587675
O O11 0.791581 0.390354 0.067894
O O12 0.365232 0.500000 0.875944
O O13 0.074244 0.055790 0.465138
O O14 0.000000 0.000000 0.500000
O O15 0.000000 0.000000 0.000000
O O16 0.000000 0.879249 0.500000
O O17 0.000000 0.886320 0.000000
#
# Coordination Sequence:
#
# PCOD9177706 Si02
#       7
#     8   8   8   8   8   4   8
#     4   9  17  29  44  64  83 111 137 184 219 271
#     4  10  19  29  47  60  85 110 150 183 234 265
#     4   9  16  27  40  59  85 109 135 170 212 255
#     4   9  17  26  39  59  79 104 139 180 221 258
#     4   9  17  29  44  64  88 108 144 180 223 263
#     4   8  16  34  46  58  80 110 148 190 240 276
#     4  10  22  34  47  62  84 114 150 194 235 276
#
# _framework density 17.618711000000001
#
# number of rings (size 3 to 8) (size 9 to 14) (size 15 to 20)
#    0.000    2.769    1.538    0.000    3.231    0.000 
#    0.000    0.000    0.000    0.000    0.000    0.000 
#    0.000    0.000    0.000    0.000    0.000    1.538 
#
# Total GULP energy -144749.785448 kJ/mol
# GULP energy per Si atom -5567.299440 kJ/mol
# Density = 1.757861 g / cm^3
# Si number density = 17.618711 Si / 1000 Ang^3
#
#
#
# Elastic Constant Matrix: (Units=GPa)
#
#
# Indices 1 2 3 4 5 6 
#
# 1 72.0655 53.2464 15.9501 0.0000 -24.4010 0.0000
# 2 53.2464 158.9430 13.5470 0.0000 -14.1674 0.0000
# 3 15.9501 13.5470 54.4695 0.0000 -23.3111 0.0000
# 4 0.0000 0.0000 0.0000 17.6514 0.0000 -11.4195
# 5 -24.4010 -14.1674 -23.3111 0.0000 23.6750 0.0000
# 6 0.0000 0.0000 0.0000 -11.4195 0.0000 31.1269
#
#
#
# Elastic Compliance Matrix: (Units=1/GPa)
#
#
# Indices 1 2 3 4 5 6 
#
# 1 0.028593 -0.007324 0.007233 0.000000 0.032208 0.000000
# 2 -0.007324 0.008522 -0.001768 0.000000 -0.004190 0.000000
# 3 0.007233 -0.001768 0.033560 0.000000 0.039441 0.000000
# 4 0.000000 0.000000 0.000000 0.074284 0.000000 0.027252
# 5 0.032208 -0.004190 0.039441 0.000000 0.111762 0.000000
# 6 0.000000 0.000000 0.000000 0.027252 0.000000 0.042125
#
#
# Mechanical properties :
#
#
# Convention : Reuss Voigt Hill
#
# Bulk Modulus (GPa) = 14.93502 50.10720 32.52111
# Shear Modulus (GPa) = 15.39020 28.00628 21.69824
#
# Velocity S-wave (km/s) = 2.95873 3.99127 3.51315
# Velocity P-wave (km/s) = 4.49081 7.05279 5.91224
#
# Compressibility (1/GPa) = 0.06695672
#
# Stress axis : x y z
#
# Youngs Moduli (GPa) = 34.97416 117.33744 29.79745
#
# Poissons Ratio (x) = 0.85940 -0.21552
# Poissons Ratio (y) = 0.25616 0.05268
# Poissons Ratio (z) = -0.25297 0.20744
#
# Static dielectric constant tensor:
#      x y z
#    x 1.614750 0.000000 -0.065720 
#    y 0.000000 1.740160 0.000000 
#    z -0.065720 0.000000 1.732310 
# 
# From -- ./inp_files/22230.got.cif
#   From: 2010.05.17/outbox.cif.g08.bks.cpg/sg12_12_cif.got.tgz:22230.got - 2010.06.03 13:09:07.
