data_PCOD9177864
_publ_section_title
;
Structure prediction by ZEFSAII (Michael W. Deem and Ramdas Pophale) SiO2 
 PCOD9177864
Probable space group: C 2/M
;
_chemical_formula_sum "Si O2"
_cell_formula_units_Z 64
_cell_length_a 22.767881
_cell_length_b 9.224085
_cell_length_c 19.248343
_cell_angle_alpha 90.000000
_cell_angle_beta 83.439683
_cell_angle_gamma 90.000000
_cell_volume 4015.930652
_symmetry_space_group_name_H-M "C 2/M"
_symmetry_group_IT_number 12
_symmetry_cell_setting 'monoclinic'
loop_
_space_group_symop_operation_xyz
x,y,z
-x,y,-z
-x,-y,-z
x,-y,z
1/2+x,1/2+y,z
1/2-x,1/2+y,-z
1/2-x,1/2-y,-z
1/2+x,1/2-y,z
loop_
_atom_site_type_symbol
_atom_site_label
_atom_site_fract_x
_atom_site_fract_y
_atom_site_fract_z
Si Si1 0.503305 0.671078 0.292110
Si Si2 0.462968 0.832919 0.848115
Si Si3 0.460202 0.827059 0.571964
Si Si4 0.101581 0.667334 0.874768
Si Si5 0.430554 0.332386 0.986568
Si Si6 0.326738 0.828517 0.543135
Si Si7 0.866508 0.828505 0.266208
Si Si8 0.211019 0.327680 0.608004
O O1 0.515636 0.500000 0.289393
O O2 0.537674 0.750572 0.224943
O O3 0.519889 0.741156 0.362981
O O4 0.433320 0.690377 0.286488
O O5 0.532005 0.832879 0.862527
O O6 0.428318 0.749680 0.913503
O O7 0.444404 0.000000 0.844308
O O8 0.500000 0.788821 0.500000
O O9 0.391969 0.799095 0.562450
O O10 0.467347 0.000000 0.583220
O O11 0.120272 0.500000 0.877223
O O12 0.134360 0.752267 0.808842
O O13 0.103916 0.748983 0.947960
O O14 0.412714 0.500000 0.983443
O O15 0.500000 0.331520 0.000000
O O16 0.276613 0.734428 0.587134
O O17 0.322373 0.800395 0.460976
O O18 0.313752 0.000000 0.554538
O O19 0.822037 0.753530 0.325623
O O20 0.855381 0.000000 0.261677
O O21 0.211722 0.500000 0.619811
#
# Coordination Sequence:
#
# PCOD9177864 Si02
#       8
#     8   8   8   8   8   8   8   8
#     4  10  20  31  44  65  92 121 154 192 231 272
#     4   9  16  26  40  57  81 116 154 188 223 267
#     4  10  20  34  51  69  92 122 153 186 226 273
#     4   9  16  25  38  58  84 115 152 188 222 267
#     4   9  15  23  36  55  82 115 149 185 225 267
#     4   9  19  34  50  69  92 118 149 186 229 274
#     4  10  19  30  44  64  92 123 153 188 232 275
#     4  10  19  32  51  70  89 116 151 190 229 272
#
# _framework density 15.936529
#
# number of rings (size 3 to 8) (size 9 to 14) (size 15 to 20)
#    0.000    2.500    0.000    3.000    0.000    8.250 
#    0.000    0.000    0.000    0.000    0.000    0.000 
#    0.000    1.000    0.000    3.750    0.000    6.125 
#
# Total GULP energy -178448.910760 kJ/mol
# GULP energy per Si atom -5576.528461 kJ/mol
# Density = 1.590026 g / cm^3
# Si number density = 15.936529 Si / 1000 Ang^3
#
#
#
# Elastic Constant Matrix: (Units=GPa)
#
#
# Indices 1 2 3 4 5 6 
#
# 1 32.0309 48.1804 47.1112 0.0000 -12.0098 0.0000
# 2 48.1804 137.9391 109.7019 0.0000 -22.2054 0.0000
# 3 47.1112 109.7019 169.5366 0.0000 -28.3227 0.0000
# 4 0.0000 0.0000 0.0000 33.4312 0.0000 -3.4471
# 5 -12.0098 -22.2054 -28.3227 0.0000 22.0820 0.0000
# 6 0.0000 0.0000 0.0000 -3.4471 0.0000 16.2968
#
#
#
# Elastic Compliance Matrix: (Units=1/GPa)
#
#
# Indices 1 2 3 4 5 6 
#
# 1 0.073014 -0.018529 -0.006082 0.000000 0.013277 0.000000
# 2 -0.018529 0.019833 -0.007683 0.000000 0.000013 0.000000
# 3 -0.006082 -0.007683 0.013639 0.000000 0.006460 0.000000
# 4 0.000000 0.000000 0.000000 0.030579 0.000000 0.006468
# 5 0.013277 0.000013 0.006460 0.000000 0.060806 0.000000
# 6 0.000000 0.000000 0.000000 0.006468 0.000000 0.062730
#
#
# Mechanical properties :
#
#
# Convention : Reuss Voigt Hill
#
# Bulk Modulus (GPa) = 23.86635 83.27706 53.57171
# Shear Modulus (GPa) = 14.74257 23.32954 19.03606
#
# Velocity S-wave (km/s) = 3.04481 3.83025 3.45989
# Velocity P-wave (km/s) = 5.23159 8.48115 7.04626
#
# Compressibility (1/GPa) = 0.04189999
#
# Stress axis : x y z
#
# Youngs Moduli (GPa) = 13.69606 50.41989 73.31960
#
# Poissons Ratio (x) = 0.93421 0.44592
# Poissons Ratio (y) = 0.25377 0.56329
# Poissons Ratio (z) = 0.08330 0.38736
#
# Static dielectric constant tensor:
#      x y z
#    x 1.504650 0.000000 -0.002530 
#    y 0.000000 1.532080 0.000000 
#    z -0.002530 0.000000 1.516720 
# 
# From -- ./inp_files/281422.got.cif
#   From: 2010.05.17/outbox.cif.g08.bks.cpg/sg12_141_cif.got.tgz:281422.got - 2010.06.03 13:09:07.
