data_PCOD9177697
_publ_section_title
;
Structure prediction by ZEFSAII (Michael W. Deem and Ramdas Pophale) SiO2 
 PCOD9177697
Probable space group: C 2/M
;
_chemical_formula_sum "Si O2"
_cell_formula_units_Z 64
_cell_length_a 19.737385
_cell_length_b 8.765390
_cell_length_c 25.868782
_cell_angle_alpha 90.000000
_cell_angle_beta 55.955599
_cell_angle_gamma 90.000000
_cell_volume 3708.376779
_symmetry_space_group_name_H-M "C 2/M"
_symmetry_group_IT_number 12
_symmetry_cell_setting 'monoclinic'
loop_
_space_group_symop_operation_xyz
x,y,z
-x,y,-z
-x,-y,-z
x,-y,z
1/2+x,1/2+y,z
1/2-x,1/2+y,-z
1/2-x,1/2-y,-z
1/2+x,1/2-y,z
loop_
_atom_site_type_symbol
_atom_site_label
_atom_site_fract_x
_atom_site_fract_y
_atom_site_fract_z
Si Si1 0.163371 0.182118 0.053501
Si Si2 0.407021 0.184800 0.194035
Si Si3 0.068116 0.683068 0.188168
Si Si4 0.513643 0.815399 0.053553
Si Si5 0.867394 0.320382 0.564691
Si Si6 0.473940 0.819669 0.428310
Si Si7 0.422743 0.682200 0.702004
Si Si8 0.270043 0.316352 0.694793
O O1 0.134994 0.243889 0.121556
O O2 0.094105 0.240666 0.043415
O O3 0.166279 0.000000 0.052808
O O4 0.250000 0.250000 0.000000
O O5 0.479587 0.227972 0.202317
O O6 0.438551 0.228296 0.123457
O O7 0.318215 0.241307 0.248920
O O8 0.402817 0.000000 0.196243
O O9 0.074442 0.500000 0.182795
O O10 0.076190 0.740032 0.242888
O O11 0.522556 0.000000 0.052641
O O12 0.500000 0.773345 0.000000
O O13 0.849689 0.500000 0.568014
O O14 0.897042 0.265064 0.495589
O O15 0.796058 0.239239 0.626779
O O16 0.947422 0.305385 0.567309
O O17 0.499722 0.732422 0.365819
O O18 0.463708 0.000000 0.421919
O O19 0.421723 0.500000 0.707916
O O20 0.341419 0.729325 0.704596
O O21 0.268997 0.500000 0.694584
#
# Coordination Sequence:
#
# PCOD9177697 Si02
#       8
#     8   8   8   8   8   8   8   8
#     4  11  22  37  56  78 105 134 169 211 254 301
#     4   8  16  32  51  70  94 128 166 196 233 290
#     4  10  20  36  55  72  96 133 171 203 241 293
#     4   9  18  34  56  79 103 135 172 207 249 302
#     4   8  14  25  42  65  92 123 160 201 244 289
#     4   8  14  26  43  63  92 128 161 196 242 294
#     4  10  19  29  46  75 104 127 158 203 249 293
#     4   9  17  29  46  70  99 128 159 199 246 295
#
# _framework density 17.258224999999999
#
# number of rings (size 3 to 8) (size 9 to 14) (size 15 to 20)
#    0.000    2.875    0.000    3.375    0.000    2.250 
#    0.000    8.125    0.000    0.750    0.000    0.000 
#    0.000    0.000    0.000    0.000    0.000    0.000 
#
# Total GULP energy -178277.938115 kJ/mol
# GULP energy per Si atom -5571.185566 kJ/mol
# Density = 1.721894 g / cm^3
# Si number density = 17.258225 Si / 1000 Ang^3
#
#
#
# Elastic Constant Matrix: (Units=GPa)
#
#
# Indices 1 2 3 4 5 6 
#
# 1 49.2819 26.1191 84.1419 0.0001 -1.6306 0.0007
# 2 26.1191 43.0219 53.0750 0.0002 4.4472 0.0014
# 3 84.1419 53.0750 200.7018 0.0000 -6.0732 0.0000
# 4 0.0001 0.0002 0.0000 31.4140 0.0000 3.5011
# 5 -1.6306 4.4472 -6.0732 0.0000 25.1693 0.0001
# 6 0.0007 0.0014 0.0000 3.5011 0.0001 17.2506
#
#
#
# Elastic Compliance Matrix: (Units=1/GPa)
#
#
# Indices 1 2 3 4 5 6 
#
# 1 0.074131 -0.009822 -0.028491 0.000000 -0.000337 -0.000002
# 2 -0.009822 0.037639 -0.006101 0.000000 -0.008759 -0.000003
# 3 -0.028491 -0.006101 0.018653 0.000000 0.003733 0.000002
# 4 0.000000 0.000000 0.000000 0.032570 0.000000 -0.006610
# 5 -0.000337 -0.008759 0.003733 0.000000 0.042158 0.000001
# 6 -0.000002 -0.000003 0.000002 -0.006610 0.000001 0.059310
#
#
# Mechanical properties :
#
#
# Convention : Reuss Voigt Hill
#
# Bulk Modulus (GPa) = 24.04129 68.85306 46.44717
# Shear Modulus (GPa) = 13.61830 23.41144 18.51487
#
# Velocity S-wave (km/s) = 2.81212 3.68712 3.27894
# Velocity P-wave (km/s) = 4.95021 7.62292 6.42703
#
# Compressibility (1/GPa) = 0.04159511
#
# Stress axis : x y z
#
# Youngs Moduli (GPa) = 13.48969 26.56841 53.60931
#
# Poissons Ratio (x) = 0.26095 1.52740
# Poissons Ratio (y) = 0.13249 0.32706
# Poissons Ratio (z) = 0.38434 0.16209
#
# Static dielectric constant tensor:
#      x y z
#    x 1.569980 0.000000 -0.007800 
#    y 0.000000 1.580710 0.000000 
#    z -0.007800 0.000000 1.603030 
# 
# From -- ./inp_files/365197.got.cif
#   From: 2010.05.17/outbox.cif.g08.bks.cpg/sg12_183_cif.got.tgz:365197.got - 2010.06.03 13:09:07.
