data_PCOD9177999
_publ_section_title
;
Structure prediction by ZEFSAII (Michael W. Deem and Ramdas Pophale) SiO2 
 PCOD9177999
Probable space group: C 2/M
;
_chemical_formula_sum "Si O2"
_cell_formula_units_Z 48
_cell_length_a 27.503041
_cell_length_b 8.811132
_cell_length_c 11.711002
_cell_angle_alpha 90.000000
_cell_angle_beta 90.501222
_cell_angle_gamma 90.000000
_cell_volume 2837.852776
_symmetry_space_group_name_H-M "C 2/M"
_symmetry_group_IT_number 12
_symmetry_cell_setting 'monoclinic'
loop_
_space_group_symop_operation_xyz
x,y,z
-x,y,-z
-x,-y,-z
x,-y,z
1/2+x,1/2+y,z
1/2-x,1/2+y,-z
1/2-x,1/2-y,-z
1/2+x,1/2-y,z
loop_
_atom_site_type_symbol
_atom_site_label
_atom_site_fract_x
_atom_site_fract_y
_atom_site_fract_z
Si Si1 0.126115 0.678332 0.694697
Si Si2 0.943134 0.183392 0.495707
Si Si3 0.200296 0.681593 0.135140
Si Si4 0.298695 0.671063 0.464303
Si Si5 0.130710 0.829006 0.318600
Si Si6 0.189336 0.181638 0.883240
O O1 0.118535 0.500000 0.706855
O O2 0.082724 0.750146 0.617985
O O3 0.172866 0.719198 0.619226
O O4 0.143251 0.751767 0.814111
O O5 0.916113 0.234085 0.612769
O O6 0.000000 0.219383 0.500000
O O7 0.937010 0.000000 0.491560
O O8 0.198764 0.500000 0.126072
O O9 0.159191 0.736579 0.222646
O O10 0.256760 0.722970 0.167001
O O11 0.190431 0.755612 0.011848
O O12 0.292522 0.500000 0.416034
O O13 0.250000 0.750000 0.500000
O O14 0.331192 0.658017 0.577389
O O15 0.119638 0.000000 0.275777
O O16 0.186199 0.000000 0.883305
#
# Coordination Sequence:
#
# PCOD9177999 Si02
#       6
#     8   8   8   8   8   8
#     4  11  21  32  49  74 103 132 166 208 254 304
#     4   9  19  37  58  77  99 130 169 212 259 310
#     4  10  20  32  49  74 103 136 172 208 246 291
#     4  10  19  30  45  68  99 133 168 204 246 297
#     4   9  18  31  48  71  98 129 164 202 247 300
#     4  10  20  34  51  71 101 140 177 208 242 292
#
# _framework density 16.914197999999999
#
# number of rings (size 3 to 8) (size 9 to 14) (size 15 to 20)
#    0.000    2.167    0.000    5.000    0.000    8.333 
#    0.000    0.000    0.000    1.000    0.000    7.000 
#    0.000    0.000    0.000    0.000    0.000    0.000 
#
# Total GULP energy -133702.157666 kJ/mol
# GULP energy per Si atom -5570.923236 kJ/mol
# Density = 1.687570 g / cm^3
# Si number density = 16.914198 Si / 1000 Ang^3
#
#
#
# Elastic Constant Matrix: (Units=GPa)
#
#
# Indices 1 2 3 4 5 6 
#
# 1 116.4835 35.3589 48.5044 0.0000 -1.5813 0.0000
# 2 35.3589 65.7796 35.0095 0.0000 1.5756 0.0000
# 3 48.5044 35.0095 83.9505 0.0000 4.1014 0.0000
# 4 0.0000 0.0000 0.0000 29.3627 0.0000 1.2767
# 5 -1.5813 1.5756 4.1014 0.0000 24.2965 0.0000
# 6 0.0000 0.0000 0.0000 1.2767 0.0000 20.3428
#
#
#
# Elastic Compliance Matrix: (Units=1/GPa)
#
#
# Indices 1 2 3 4 5 6 
#
# 1 0.011998 -0.003542 -0.005550 0.000000 0.001947 0.000000
# 2 -0.003542 0.020585 -0.006515 0.000000 -0.000466 0.000000
# 3 -0.005550 -0.006515 0.017981 0.000000 -0.002974 0.000000
# 4 0.000000 0.000000 0.000000 0.034150 0.000000 -0.002143
# 5 0.001947 -0.000466 -0.002974 0.000000 0.041817 0.000000
# 6 0.000000 0.000000 0.000000 -0.002143 0.000000 0.049292
#
#
# Mechanical properties :
#
#
# Convention : Reuss Voigt Hill
#
# Bulk Modulus (GPa) = 51.68242 55.99545 53.83894
# Shear Modulus (GPa) = 23.42074 24.62313 24.02194
#
# Velocity S-wave (km/s) = 3.72516 3.81959 3.77267
# Velocity P-wave (km/s) = 7.00888 7.25464 7.13282
#
# Compressibility (1/GPa) = 0.01934894
#
# Stress axis : x y z
#
# Youngs Moduli (GPa) = 83.35045 48.57922 55.61524
#
# Poissons Ratio (x) = 0.17207 0.30866
# Poissons Ratio (y) = 0.29522 0.36235
# Poissons Ratio (z) = 0.46259 0.31650
#
# Static dielectric constant tensor:
#      x y z
#    x 1.612870 0.000000 -0.000410 
#    y 0.000000 1.593570 0.000000 
#    z -0.000410 0.000000 1.580690 
# 
# From -- ./inp_files/179171.got.cif
#   From: 2010.05.17/outbox.cif.g08.bks.cpg/sg12_90_cif.got.tgz:179171.got - 2010.06.03 13:09:07.
