data_PCOD9177122
_publ_section_title
;
Structure prediction by ZEFSAII (Michael W. Deem and Ramdas Pophale) SiO2 
 PCOD9177122
Probable space group: C 2/M
;
_chemical_formula_sum "Si O2"
_cell_formula_units_Z 64
_cell_length_a 16.031404
_cell_length_b 26.050807
_cell_length_c 8.848267
_cell_angle_alpha 90.000000
_cell_angle_beta 111.306787
_cell_angle_gamma 90.000000
_cell_volume 3442.729530
_symmetry_space_group_name_H-M "C 2/M"
_symmetry_group_IT_number 12
_symmetry_cell_setting 'monoclinic'
loop_
_space_group_symop_operation_xyz
x,y,z
-x,y,-z
-x,-y,-z
x,-y,z
1/2+x,1/2+y,z
1/2-x,1/2+y,-z
1/2-x,1/2-y,-z
1/2+x,1/2-y,z
loop_
_atom_site_type_symbol
_atom_site_label
_atom_site_fract_x
_atom_site_fract_y
_atom_site_fract_z
Si Si1 0.530310 0.061008 0.191196
Si Si2 0.834386 0.692047 0.485577
Si Si3 0.267259 0.903054 0.621794
Si Si4 0.894880 0.849725 0.936874
Si Si5 0.749717 0.848452 0.085675
Si Si6 0.376907 0.886621 0.270336
Si Si7 0.288490 0.442584 0.707415
Si Si8 0.178004 0.744569 0.236952
O O1 0.632520 0.075794 0.289416
O O2 0.467878 0.089982 0.269101
O O3 0.518606 0.000000 0.198293
O O4 0.500000 0.075158 0.000000
O O5 0.772474 0.649490 0.527689
O O6 0.887549 0.660108 0.395389
O O7 0.876526 0.718731 0.660119
O O8 0.772435 0.733435 0.361612
O O9 0.236873 0.888321 0.768713
O O10 0.210737 0.938982 0.474319
O O11 0.847232 0.897426 0.820098
O O12 0.873777 0.794734 0.849110
O O13 0.844673 0.843606 0.064617
O O14 0.000000 0.858630 0.000000
O O15 0.705273 0.797433 0.129658
O O16 0.680827 0.867669 0.911985
O O17 0.313570 0.928897 0.309556
O O18 0.312145 0.500000 0.772964
#
# Coordination Sequence:
#
# PCOD9177122 Si02
#       8
#     8   8   8   8   8   8   8   8
#     4  11  22  34  54  87 128 158 195 249 287 334
#     4   9  19  33  60  80 114 157 192 232 285 351
#     4  10  19  38  57  84 115 158 201 235 289 353
#     4  11  23  41  61  91 119 147 198 255 300 353
#     4  10  20  36  63  85 118 161 192 237 294 358
#     4  10  19  37  55  88 122 158 199 240 288 356
#     4  10  21  39  63  83 112 158 200 241 304 364
#     4  10  18  38  60  85 115 155 192 238 294 353
#
# _framework density 18.589901000000001
#
# number of rings (size 3 to 8) (size 9 to 14) (size 15 to 20)
#    0.000    1.875    5.000    1.125    0.000    2.250 
#    4.500    5.625    0.000    0.750    0.000    0.000 
#    0.000    0.000    0.000    0.000    0.000    0.000 
#
# Total GULP energy -178360.055430 kJ/mol
# GULP energy per Si atom -5573.751732 kJ/mol
# Density = 1.854759 g / cm^3
# Si number density = 18.589901 Si / 1000 Ang^3
#
#
#
# Elastic Constant Matrix: (Units=GPa)
#
#
# Indices 1 2 3 4 5 6 
#
# 1 75.4740 28.8486 38.1826 0.0000 -6.4770 0.0000
# 2 28.8486 96.0286 47.6565 0.0000 -12.9099 0.0000
# 3 38.1826 47.6565 102.9183 0.0000 -22.0375 0.0000
# 4 0.0000 0.0000 0.0000 24.4028 0.0000 -8.7629
# 5 -6.4770 -12.9099 -22.0375 0.0000 21.2917 0.0000
# 6 0.0000 0.0000 0.0000 -8.7629 0.0000 12.0735
#
#
#
# Elastic Compliance Matrix: (Units=1/GPa)
#
#
# Indices 1 2 3 4 5 6 
#
# 1 0.016849 -0.002623 -0.005498 0.000000 -0.002155 0.000000
# 2 -0.002623 0.014010 -0.004967 0.000000 0.002556 0.000000
# 3 -0.005498 -0.004967 0.016770 0.000000 0.012673 0.000000
# 4 0.000000 0.000000 0.000000 0.055424 0.000000 0.040227
# 5 -0.002155 0.002556 0.012673 0.000000 0.060978 0.000000
# 6 0.000000 0.000000 0.000000 0.040227 0.000000 0.112023
#
#
# Mechanical properties :
#
#
# Convention : Reuss Voigt Hill
#
# Bulk Modulus (GPa) = 46.61356 55.97736 51.29546
# Shear Modulus (GPa) = 16.16136 22.20247 19.18191
#
# Velocity S-wave (km/s) = 2.95169 3.45966 3.21572
# Velocity P-wave (km/s) = 6.06183 6.79235 6.43746
#
# Compressibility (1/GPa) = 0.02145298
#
# Stress axis : x y z
#
# Youngs Moduli (GPa) = 59.35236 71.37672 59.63130
#
# Poissons Ratio (x) = 0.18722 0.32784
# Poissons Ratio (y) = 0.15568 0.29619
# Poissons Ratio (z) = 0.32630 0.35453
#
# Static dielectric constant tensor:
#      x y z
#    x 1.621830 0.000000 -0.012780 
#    y 0.000000 1.677680 0.000000 
#    z -0.012780 0.000000 1.696680 
# 
# From -- ./inp_files/66990.got.cif
#   From: 2010.05.17/outbox.cif.g08.bks.cpg/sg12_34_cif.got.tgz:66990.got - 2010.06.03 13:09:07.
