data_PCOD9177814
_publ_section_title
;
Structure prediction by ZEFSAII (Michael W. Deem and Ramdas Pophale) SiO2 
 PCOD9177814
Probable space group: C 2/M
;
_chemical_formula_sum "Si O2"
_cell_formula_units_Z 56
_cell_length_a 29.961169
_cell_length_b 8.854109
_cell_length_c 13.736552
_cell_angle_alpha 90.000000
_cell_angle_beta 76.908225
_cell_angle_gamma 90.000000
_cell_volume 3549.311344
_symmetry_space_group_name_H-M "C 2/M"
_symmetry_group_IT_number 12
_symmetry_cell_setting 'monoclinic'
loop_
_space_group_symop_operation_xyz
x,y,z
-x,y,-z
-x,-y,-z
x,-y,z
1/2+x,1/2+y,z
1/2-x,1/2+y,-z
1/2-x,1/2-y,-z
1/2+x,1/2-y,z
loop_
_atom_site_type_symbol
_atom_site_label
_atom_site_fract_x
_atom_site_fract_y
_atom_site_fract_z
Si Si1 0.446128 0.317503 0.638067
Si Si2 0.855225 0.675798 0.752337
Si Si3 0.268789 0.319539 0.891675
Si Si4 0.717769 0.180587 0.717871
Si Si5 0.049333 0.183214 0.590677
Si Si6 0.357093 0.318926 0.365372
Si Si7 0.803108 0.323182 0.571681
O O1 0.443206 0.500000 0.643374
O O2 0.405380 0.247550 0.720384
O O3 0.441143 0.272404 0.526386
O O4 0.497638 0.270502 0.642333
O O5 0.857611 0.500000 0.777036
O O6 0.819252 0.759192 0.839766
O O7 0.833519 0.687557 0.654609
O O8 0.269847 0.500000 0.897745
O O9 0.235973 0.278390 0.816344
O O10 0.250000 0.250000 0.000000
O O11 0.668511 0.245744 0.713469
O O12 0.754611 0.250934 0.624640
O O13 0.718195 0.000000 0.708788
O O14 0.090680 0.231376 0.639715
O O15 0.049284 0.000000 0.590261
O O16 0.355683 0.500000 0.358918
O O17 0.328533 0.265235 0.473857
O O18 0.797793 0.500000 0.548825
#
# Coordination Sequence:
#
# PCOD9177814 Si02
#       7
#     8   8   8   8   8   8   8
#     4   9  15  29  47  65  92 128 168 202 234 274
#     4  10  19  30  47  72  99 126 159 197 238 283
#     4  10  21  37  56  74  94 120 152 194 241 289
#     4  10  21  34  47  66  92 123 155 189 234 285
#     4   8  16  27  44  66  92 129 168 202 233 270
#     4  11  19  29  45  66  93 128 165 197 230 271
#     4  10  19  30  43  63  93 128 162 196 229 270
#
# _framework density 15.777708000000001
#
# number of rings (size 3 to 8) (size 9 to 14) (size 15 to 20)
#    0.000    2.286    1.429    3.429    0.000    2.857 
#    0.000    2.857    0.000    0.000    0.000    1.000 
#    0.000    8.000    0.000    0.000    0.000    0.000 
#
# Total GULP energy -156167.037181 kJ/mol
# GULP energy per Si atom -5577.394185 kJ/mol
# Density = 1.574180 g / cm^3
# Si number density = 15.777708 Si / 1000 Ang^3
#
#
#
# Elastic Constant Matrix: (Units=GPa)
#
#
# Indices 1 2 3 4 5 6 
#
# 1 154.5146 40.8790 52.3395 0.0000 -7.6447 0.0000
# 2 40.8790 46.7761 27.6898 0.0000 -3.5374 0.0000
# 3 52.3395 27.6898 72.6153 0.0000 -13.1450 0.0000
# 4 0.0000 0.0000 0.0000 22.9804 0.0000 -1.2591
# 5 -7.6447 -3.5374 -13.1450 0.0000 15.6899 0.0000
# 6 0.0000 0.0000 0.0000 -1.2591 0.0000 24.0799
#
#
#
# Elastic Compliance Matrix: (Units=1/GPa)
#
#
# Indices 1 2 3 4 5 6 
#
# 1 0.009557 -0.005492 -0.004922 0.000000 -0.000705 0.000000
# 2 -0.005492 0.030892 -0.008304 0.000000 -0.002668 0.000000
# 3 -0.004922 -0.008304 0.023237 0.000000 0.015197 0.000000
# 4 0.000000 0.000000 0.000000 0.043640 0.000000 0.002282
# 5 -0.000705 -0.002668 0.015197 0.000000 0.075522 0.000000
# 6 0.000000 0.000000 0.000000 0.002282 0.000000 0.041648
#
#
# Mechanical properties :
#
#
# Convention : Reuss Voigt Hill
#
# Bulk Modulus (GPa) = 38.09667 57.30252 47.69959
# Shear Modulus (GPa) = 18.47180 22.74990 20.61085
#
# Velocity S-wave (km/s) = 3.42534 3.80136 3.61824
# Velocity P-wave (km/s) = 6.31207 7.46087 6.91038
#
# Compressibility (1/GPa) = 0.02624902
#
# Stress axis : x y z
#
# Youngs Moduli (GPa) = 104.63257 32.37066 43.03552
#
# Poissons Ratio (x) = 0.17778 0.21183
# Poissons Ratio (y) = 0.57464 0.35739
# Poissons Ratio (z) = 0.51501 0.26882
#
# Static dielectric constant tensor:
#      x y z
#    x 1.554880 0.000000 0.019690 
#    y 0.000000 1.528310 0.000000 
#    z 0.019690 0.000000 1.498440 
# 
# From -- ./inp_files/247809.got.cif
#   From: 2010.05.17/outbox.cif.g08.bks.cpg/sg12_124_cif.got.tgz:247809.got - 2010.06.03 13:09:07.
