data_PCOD9177456
_publ_section_title
;
Structure prediction by ZEFSAII (Michael W. Deem and Ramdas Pophale) SiO2 
 PCOD9177456
Probable space group: C 2/M
;
_chemical_formula_sum "Si O2"
_cell_formula_units_Z 56
_cell_length_a 29.553691
_cell_length_b 9.072750
_cell_length_c 13.651956
_cell_angle_alpha 90.000000
_cell_angle_beta 77.546572
_cell_angle_gamma 90.000000
_cell_volume 3574.416656
_symmetry_space_group_name_H-M "C 2/M"
_symmetry_group_IT_number 12
_symmetry_cell_setting 'monoclinic'
loop_
_space_group_symop_operation_xyz
x,y,z
-x,y,-z
-x,-y,-z
x,-y,z
1/2+x,1/2+y,z
1/2-x,1/2+y,-z
1/2-x,1/2-y,-z
1/2+x,1/2-y,z
loop_
_atom_site_type_symbol
_atom_site_label
_atom_site_fract_x
_atom_site_fract_y
_atom_site_fract_z
Si Si1 0.194780 0.174606 0.129259
Si Si2 0.302053 0.174503 0.084600
Si Si3 0.056270 0.670829 0.068970
Si Si4 0.976866 0.176839 0.612921
Si Si5 0.109021 0.670846 0.253230
Si Si6 0.887038 0.174913 0.129099
Si Si7 0.472777 0.324479 0.208686
O O1 0.248158 0.198233 0.135469
O O2 0.157418 0.244982 0.219103
O O3 0.186775 0.000000 0.123375
O O4 0.189843 0.249267 0.024672
O O5 0.338276 0.242847 0.143512
O O6 0.310202 0.000000 0.070214
O O7 0.053812 0.500000 0.039411
O O8 0.085270 0.678032 0.156594
O O9 0.006196 0.735393 0.120019
O O10 0.082583 0.767603 0.976723
O O11 0.010701 0.210052 0.689084
O O12 0.000000 0.221719 0.500000
O O13 0.928013 0.254007 0.657724
O O14 0.970040 0.000000 0.614575
O O15 0.116037 0.500000 0.274455
O O16 0.919491 0.206378 0.207637
O O17 0.879988 0.000000 0.124862
O O18 0.480342 0.500000 0.189166
#
# Coordination Sequence:
#
# PCOD9177456 Si02
#       7
#     8   8   8   8   8   8   8
#     4  10  19  31  47  66  91 125 161 195 231 271
#     4  10  20  31  44  65  93 125 162 198 228 266
#     4  10  19  29  42  63  91 124 159 191 224 268
#     4   9  18  34  54  72  92 120 154 194 238 284
#     4  10  19  30  47  70  97 125 154 193 234 276
#     4  11  20  29  43  63  91 128 159 189 228 270
#     4   9  19  32  45  65  91 119 156 192 229 281
#
# _framework density 15.666892000000001
#
# number of rings (size 3 to 8) (size 9 to 14) (size 15 to 20)
#    0.000    2.143    1.429    2.571    0.000    6.000 
#    0.000    0.000    0.000    0.000    0.000    1.000 
#    0.000    0.000    0.000    0.000    0.000    0.000 
#
# Total GULP energy -156208.215048 kJ/mol
# GULP energy per Si atom -5578.864823 kJ/mol
# Density = 1.563123 g / cm^3
# Si number density = 15.666892 Si / 1000 Ang^3
#
#
#
# Elastic Constant Matrix: (Units=GPa)
#
#
# Indices 1 2 3 4 5 6 
#
# 1 121.7274 67.0053 41.2329 0.0000 -17.5422 0.0000
# 2 67.0053 76.9854 40.4382 0.0000 -13.3029 0.0000
# 3 41.2329 40.4382 73.5157 0.0000 -18.2791 0.0000
# 4 0.0000 0.0000 0.0000 14.3843 0.0000 -4.4436
# 5 -17.5422 -13.3029 -18.2791 0.0000 17.8391 0.0000
# 6 0.0000 0.0000 0.0000 -4.4436 0.0000 27.6669
#
#
#
# Elastic Compliance Matrix: (Units=1/GPa)
#
#
# Indices 1 2 3 4 5 6 
#
# 1 0.016379 -0.012916 -0.000633 0.000000 0.005826 0.000000
# 2 -0.012916 0.028722 -0.008571 0.000000 -0.000065 0.000000
# 3 -0.000633 -0.008571 0.022715 0.000000 0.016262 0.000000
# 4 0.000000 0.000000 0.000000 0.073150 0.000000 0.011749
# 5 0.005826 -0.000065 0.016262 0.000000 0.078400 0.000000
# 6 0.000000 0.000000 0.000000 0.011749 0.000000 0.038031
#
#
# Mechanical properties :
#
#
# Convention : Reuss Voigt Hill
#
# Bulk Modulus (GPa) = 42.41592 63.28681 52.85136
# Shear Modulus (GPa) = 16.15525 20.21484 18.18505
#
# Velocity S-wave (km/s) = 3.21467 3.59596 3.41065
# Velocity P-wave (km/s) = 6.39618 7.59764 7.02265
#
# Compressibility (1/GPa) = 0.02357605
#
# Stress axis : x y z
#
# Youngs Moduli (GPa) = 61.05378 34.81630 44.02293
#
# Poissons Ratio (x) = 0.44970 0.02788
# Poissons Ratio (y) = 0.78860 0.37731
# Poissons Ratio (z) = 0.03866 0.29840
#
# Static dielectric constant tensor:
#      x y z
#    x 1.553410 0.000000 0.009460 
#    y 0.000000 1.523910 0.000000 
#    z 0.009460 0.000000 1.490700 
# 
# From -- ./inp_files/243028.got.cif
#   From: 2010.05.17/outbox.cif.g08.bks.cpg/sg12_122_cif.got.tgz:243028.got - 2010.06.03 13:09:07.
