data_PCOD9177444
_publ_section_title
;
Structure prediction by ZEFSAII (Michael W. Deem and Ramdas Pophale) SiO2 
 PCOD9177444
Probable space group: C 2/M
;
_chemical_formula_sum "Si O2"
_cell_formula_units_Z 56
_cell_length_a 15.673159
_cell_length_b 7.433479
_cell_length_c 17.554152
_cell_angle_alpha 90.000000
_cell_angle_beta 106.364720
_cell_angle_gamma 90.000000
_cell_volume 1962.311277
_symmetry_space_group_name_H-M "C 2/M"
_symmetry_group_IT_number 12
_symmetry_cell_setting 'monoclinic'
loop_
_space_group_symop_operation_xyz
x,y,z
-x,y,-z
-x,-y,-z
x,-y,z
1/2+x,1/2+y,z
1/2-x,1/2+y,-z
1/2-x,1/2-y,-z
1/2+x,1/2-y,z
loop_
_atom_site_type_symbol
_atom_site_label
_atom_site_fract_x
_atom_site_fract_y
_atom_site_fract_z
Si Si1 0.260952 0.712613 0.623786
Si Si2 0.536025 0.784616 0.195137
Si Si3 0.227859 0.292887 0.774606
Si Si4 0.399890 0.217745 0.946582
Si Si5 0.963997 0.207065 0.333381
Si Si6 0.610811 0.281998 0.476985
Si Si7 0.164041 0.718449 0.913341
O O1 0.277502 0.500000 0.633897
O O2 0.272550 0.791733 0.710956
O O3 0.322138 0.786210 0.572267
O O4 0.160688 0.733374 0.566939
O O5 0.601386 0.725292 0.142554
O O6 0.534609 0.710215 0.280302
O O7 0.437144 0.740308 0.138800
O O8 0.541498 0.000000 0.201625
O O9 0.253007 0.500000 0.788916
O O10 0.222731 0.208361 0.857513
O O11 0.123981 0.299017 0.720426
O O12 0.396367 0.000000 0.946309
O O13 0.500000 0.264047 0.000000
O O14 0.335494 0.284587 0.998730
O O15 0.015687 0.277722 0.420618
O O16 0.939767 0.000000 0.340952
O O17 0.607116 0.500000 0.475014
O O18 0.169985 0.500000 0.915202
#
# Coordination Sequence:
#
# PCOD9177444 Si02
#       7
#     8   8   8   8   8   8   8
#     4   9  18  33  51  67  82 105 142 182 212 243
#     4   8  13  22  37  57  81 109 142 176 205 237
#     4   9  17  29  46  67  88 109 138 178 215 246
#     4   7   9  15  31  54  78 105 135 168 205 240
#     4  10  19  29  42  62  90 118 140 167 208 258
#     4   9  19  34  48  63  85 113 142 171 208 255
#     4   7  10  18  34  57  82 105 131 168 211 244
#
# _framework density 28.537779
#
# number of rings (size 3 to 8) (size 9 to 14) (size 15 to 20)
#    0.000    3.571    0.000    3.000    0.000    2.286 
#    0.000    2.857    0.000   10.714    0.000    1.000 
#    0.000    0.000    0.000    0.000    0.000    0.000 
#
# Total GULP energy -156643.902299 kJ/mol
# GULP energy per Si atom -5594.425082 kJ/mol
# Density = 2.847283 g / cm^3
# Si number density = 28.537779 Si / 1000 Ang^3
#
#
#
# Elastic Constant Matrix: (Units=GPa)
#
#
# Indices 1 2 3 4 5 6 
#
# 1 92.2286 12.9070 17.5515 0.0000 -19.4629 0.0000
# 2 12.9070 110.7348 8.0492 0.0000 5.8456 0.0000
# 3 17.5515 8.0492 248.8603 0.0000 -3.0638 0.0000
# 4 0.0000 0.0000 0.0000 18.8343 0.0000 6.0215
# 5 -19.4629 5.8456 -3.0638 0.0000 67.7755 0.0000
# 6 0.0000 0.0000 0.0000 6.0215 0.0000 15.5535
#
#
#
# Elastic Compliance Matrix: (Units=1/GPa)
#
#
# Indices 1 2 3 4 5 6 
#
# 1 0.011943 -0.001524 -0.000750 0.000000 0.003527 0.000000
# 2 -0.001524 0.009289 -0.000208 0.000000 -0.001248 0.000000
# 3 -0.000750 -0.000208 0.004078 0.000000 -0.000013 0.000000
# 4 0.000000 0.000000 0.000000 0.060595 0.000000 -0.023459
# 5 0.003527 -0.001248 -0.000013 0.000000 0.015875 0.000000
# 6 0.000000 0.000000 0.000000 -0.023459 0.000000 0.073376
#
#
# Mechanical properties :
#
#
# Convention : Reuss Voigt Hill
#
# Bulk Modulus (GPa) = 49.14857 58.75989 53.95423
# Shear Modulus (GPa) = 26.75212 47.98705 37.36959
#
# Velocity S-wave (km/s) = 3.06507 4.10509 3.62260
# Velocity P-wave (km/s) = 5.45764 6.56536 6.03696
#
# Compressibility (1/GPa) = 0.02034647
#
# Stress axis : x y z
#
# Youngs Moduli (GPa) = 83.73214 107.65156 245.23235
#
# Poissons Ratio (x) = 0.16403 0.18382
# Poissons Ratio (y) = 0.12759 0.05110
# Poissons Ratio (z) = 0.06276 0.02243
#
# Static dielectric constant tensor:
#      x y z
#    x 2.390950 0.000000 -0.026300 
#    y 0.000000 2.013180 0.000000 
#    z -0.026300 0.000000 2.237170 
# 
# From -- ./inp_files/280400.got.cif
#   From: 2010.05.17/outbox.cif.g08.bks.cpg/sg12_141_cif.got.tgz:280400.got - 2010.06.03 13:09:07.
