data_PCOD9177439
_publ_section_title
;
Structure prediction by ZEFSAII (Michael W. Deem and Ramdas Pophale) SiO2 
 PCOD9177439
Probable space group: C 2/M
;
_chemical_formula_sum "Si O2"
_cell_formula_units_Z 64
_cell_length_a 20.228747
_cell_length_b 10.432227
_cell_length_c 14.132559
_cell_angle_alpha 90.000000
_cell_angle_beta 90.758060
_cell_angle_gamma 90.000000
_cell_volume 2982.145340
_symmetry_space_group_name_H-M "C 2/M"
_symmetry_group_IT_number 12
_symmetry_cell_setting 'monoclinic'
loop_
_space_group_symop_operation_xyz
x,y,z
-x,y,-z
-x,-y,-z
x,-y,z
1/2+x,1/2+y,z
1/2-x,1/2+y,-z
1/2-x,1/2-y,-z
1/2+x,1/2-y,z
loop_
_atom_site_type_symbol
_atom_site_label
_atom_site_fract_x
_atom_site_fract_y
_atom_site_fract_z
Si Si1 0.652242 0.143968 0.795855
Si Si2 0.443713 0.357111 0.758134
Si Si3 0.029391 0.644654 0.099681
Si Si4 0.114341 0.849362 0.439721
Si Si5 0.201652 0.216744 0.188252
Si Si6 0.672387 0.856453 0.013874
Si Si7 0.372468 0.353757 0.354033
Si Si8 0.284669 0.140972 0.631265
O O1 0.731635 0.145908 0.779227
O O2 0.647610 0.174946 0.907714
O O3 0.620262 0.249993 0.727911
O O4 0.628191 0.000000 0.778069
O O5 0.469947 0.500000 0.775399
O O6 0.479081 0.245304 0.816835
O O7 0.438020 0.331488 0.646018
O O8 0.366812 0.354408 0.792500
O O9 0.004419 0.500000 0.117534
O O10 0.106830 0.634245 0.077745
O O11 0.000000 0.691579 0.000000
O O12 0.091168 0.826339 0.546363
O O13 0.174729 0.754040 0.417236
O O14 0.134409 0.000000 0.435232
O O15 0.200856 0.340957 0.256469
O O16 0.210819 0.253947 0.078881
O O17 0.702876 0.000000 0.009505
O O18 0.386733 0.500000 0.324023
O O19 0.294191 0.350160 0.380155
O O20 0.306109 0.000000 0.599321
#
# Coordination Sequence:
#
# PCOD9177439 Si02
#       8
#     8   8   8   8   8   8   8   8
#     4  10  19  29  42  62  87 118 154 187 212 242
#     4   9  17  28  44  67  91 114 142 177 214 254
#     4   9  18  33  51  69  90 114 137 168 216 269
#     4   9  17  28  41  58  84 115 145 180 222 258
#     4   9  16  27  41  60  90 123 147 173 213 257
#     4   9  17  29  45  65  88 114 146 180 215 256
#     4   9  18  30  40  54  81 118 153 183 216 253
#     4   9  16  24  38  59  81 111 152 188 215 247
#
# _framework density 21.461058999999999
#
# number of rings (size 3 to 8) (size 9 to 14) (size 15 to 20)
#    0.000    2.875    0.000    1.500    0.000    7.250 
#    0.000    3.125    0.000    0.000    0.000    0.875 
#    0.000    7.000    0.000    0.000    0.000    0.000 
#
# Total GULP energy -178428.491706 kJ/mol
# GULP energy per Si atom -5575.890366 kJ/mol
# Density = 2.141221 g / cm^3
# Si number density = 21.461059 Si / 1000 Ang^3
#
#
#
# Elastic Constant Matrix: (Units=GPa)
#
#
# Indices 1 2 3 4 5 6 
#
# 1 43.1508 11.6783 11.3270 0.0000 -11.0110 0.0000
# 2 11.6783 130.5347 99.1264 0.0000 6.5253 0.0000
# 3 11.3270 99.1264 176.0248 0.0000 15.6013 0.0000
# 4 0.0000 0.0000 0.0000 22.5709 0.0000 9.6179
# 5 -11.0110 6.5253 15.6013 0.0000 22.8396 0.0000
# 6 0.0000 0.0000 0.0000 9.6179 0.0000 -2.2458
#
#
#
# Elastic Compliance Matrix: (Units=1/GPa)
#
#
# Indices 1 2 3 4 5 6 
#
# 1 0.028188 -0.001527 -0.002339 0.000000 0.015624 0.000000
# 2 -0.001527 0.013510 -0.007560 0.000000 0.000568 0.000000
# 3 -0.002339 -0.007560 0.010642 0.000000 -0.006237 0.000000
# 4 0.000000 0.000000 0.000000 0.015684 0.000000 0.067167
# 5 0.015624 0.000568 -0.006237 0.000000 0.055414 0.000000
# 6 0.000000 0.000000 0.000000 0.067167 0.000000 -0.157626
#
#
# Mechanical properties :
#
#
# Convention : Reuss Voigt Hill
#
# Bulk Modulus (GPa) = 33.91137 65.99708 49.95422
# Shear Modulus (GPa) = -3316.79514 23.80483 -1646.49515
#
# Velocity S-wave (km/s) = -39.35543 3.33409 -27.72845
# Velocity P-wave (km/s) = 45.26917 6.75576 31.65167
#
# Compressibility (1/GPa) = 0.02948864
#
# Stress axis : x y z
#
# Youngs Moduli (GPa) = 35.47552 74.01873 93.96977
#
# Poissons Ratio (x) = 0.11301 0.21978
# Poissons Ratio (y) = 0.05416 0.71043
# Poissons Ratio (z) = 0.08297 0.55959
#
# Static dielectric constant tensor:
#      x y z
#    x 1.857820 0.000000 0.006420 
#    y 0.000000 1.781450 0.000000 
#    z 0.006420 0.000000 1.798940 
# 
# From -- ./inp_files/248515.got.cif
#   From: 2010.05.17/outbox.cif.g08.bks.cpg/sg12_125_cif.got.tgz:248515.got - 2010.06.03 13:09:07.
