data_PCOD9177622
_publ_section_title
;
Structure prediction by ZEFSAII (Michael W. Deem and Ramdas Pophale) SiO2 
 PCOD9177622
Probable space group: C 2/M
;
_chemical_formula_sum "Si O2"
_cell_formula_units_Z 48
_cell_length_a 31.681148
_cell_length_b 8.444153
_cell_length_c 12.533738
_cell_angle_alpha 90.000000
_cell_angle_beta 61.914961
_cell_angle_gamma 90.000000
_cell_volume 2958.211340
_symmetry_space_group_name_H-M "C 2/M"
_symmetry_group_IT_number 12
_symmetry_cell_setting 'monoclinic'
loop_
_space_group_symop_operation_xyz
x,y,z
-x,y,-z
-x,-y,-z
x,-y,z
1/2+x,1/2+y,z
1/2-x,1/2+y,-z
1/2-x,1/2-y,-z
1/2+x,1/2-y,z
loop_
_atom_site_type_symbol
_atom_site_label
_atom_site_fract_x
_atom_site_fract_y
_atom_site_fract_z
Si Si1 0.484622 0.684727 0.143461
Si Si2 0.614943 0.306236 0.806032
Si Si3 0.753957 0.189263 0.824906
Si Si4 0.222037 0.189280 0.635901
Si Si5 0.414280 0.691877 0.919006
Si Si6 0.825272 0.310654 0.907449
O O1 0.480796 0.500000 0.179194
O O2 0.430972 0.751938 0.207026
O O3 0.530695 0.750782 0.150474
O O4 0.500000 0.686783 0.000000
O O5 0.613688 0.500000 0.805452
O O6 0.666794 0.253511 0.705435
O O7 0.606521 0.260891 0.939740
O O8 0.746711 0.257319 0.716338
O O9 0.801968 0.243511 0.827694
O O10 0.752743 0.000000 0.821300
O O11 0.710164 0.243391 0.954001
O O12 0.250000 0.250000 0.500000
O O13 0.220922 0.000000 0.634649
O O14 0.415048 0.500000 0.916010
O O15 0.378143 0.753220 0.873227
O O16 0.823918 0.500000 0.905370
#
# Coordination Sequence:
#
# PCOD9177622 Si02
#       6
#     8   8   8   8   8   8
#     4   7  11  20  38  64  89 114 148 186 221 263
#     4   8  14  25  42  64  90 120 153 190 225 262
#     4  10  20  33  47  65  90 122 160 194 228 271
#     4  11  21  33  49  68  93 124 160 195 230 269
#     4   9  14  24  44  68  92 119 151 184 224 273
#     4  10  19  29  45  68  96 124 150 186 233 281
#
# _framework density 16.226020999999999
#
# number of rings (size 3 to 8) (size 9 to 14) (size 15 to 20)
#    0.000    2.833    1.667    3.500    0.000    1.333 
#    0.000    0.000    0.000    6.500    0.000    1.167 
#    0.000    9.333    0.000    0.000    0.000    0.000 
#
# Total GULP energy -133638.974882 kJ/mol
# GULP energy per Si atom -5568.290620 kJ/mol
# Density = 1.618909 g / cm^3
# Si number density = 16.226021 Si / 1000 Ang^3
#
#
#
# Elastic Constant Matrix: (Units=GPa)
#
#
# Indices 1 2 3 4 5 6 
#
# 1 186.3661 23.9363 61.1921 0.0000 0.9036 0.0000
# 2 23.9363 21.5999 17.5744 0.0000 1.4976 0.0000
# 3 61.1921 17.5744 72.2675 0.0000 1.9919 0.0000
# 4 0.0000 0.0000 0.0000 17.4515 0.0000 3.5306
# 5 0.9036 1.4976 1.9919 0.0000 15.1070 0.0000
# 6 0.0000 0.0000 0.0000 3.5306 0.0000 19.6542
#
#
#
# Elastic Compliance Matrix: (Units=1/GPa)
#
#
# Indices 1 2 3 4 5 6 
#
# 1 0.007710 -0.004069 -0.005557 0.000000 0.000675 0.000000
# 2 -0.004069 0.060092 -0.011051 0.000000 -0.004256 0.000000
# 3 -0.005557 -0.011051 0.021269 0.000000 -0.001376 0.000000
# 4 0.000000 0.000000 0.000000 0.059463 0.000000 -0.010681
# 5 0.000675 -0.004256 -0.001376 0.000000 0.066757 0.000000
# 6 0.000000 0.000000 0.000000 -0.010681 0.000000 0.052799
#
#
# Mechanical properties :
#
#
# Convention : Reuss Voigt Hill
#
# Bulk Modulus (GPa) = 20.95735 53.95990 37.45862
# Shear Modulus (GPa) = 15.36814 22.27792 18.82303
#
# Velocity S-wave (km/s) = 3.08089 3.70939 3.40965
# Velocity P-wave (km/s) = 5.05962 7.18842 6.21583
#
# Compressibility (1/GPa) = 0.04771596
#
# Stress axis : x y z
#
# Youngs Moduli (GPa) = 129.70460 16.64118 47.01787
#
# Poissons Ratio (x) = 0.06771 0.26130
# Poissons Ratio (y) = 0.52775 0.51959
# Poissons Ratio (z) = 0.72082 0.18390
#
# Static dielectric constant tensor:
#      x y z
#    x 1.594060 0.000000 -0.019170 
#    y 0.000000 1.561260 0.000000 
#    z -0.019170 0.000000 1.507010 
# 
# From -- ./inp_files/185729.got.cif
#   From: 2010.05.17/outbox.cif.g08.bks.cpg/sg12_93_cif.got.tgz:185729.got - 2010.06.03 13:09:07.
