data_PCOD9177024
_publ_section_title
;
Structure prediction by ZEFSAII (Michael W. Deem and Ramdas Pophale) SiO2 
 PCOD9177024
Probable space group: C 2/M
;
_chemical_formula_sum "Si O2"
_cell_formula_units_Z 42
_cell_length_a 17.590462
_cell_length_b 24.194606
_cell_length_c 10.158441
_cell_angle_alpha 90.000000
_cell_angle_beta 149.384078
_cell_angle_gamma 90.000000
_cell_volume 2201.810742
_symmetry_space_group_name_H-M "C 2/M"
_symmetry_group_IT_number 12
_symmetry_cell_setting 'monoclinic'
loop_
_space_group_symop_operation_xyz
x,y,z
-x,y,-z
-x,-y,-z
x,-y,z
1/2+x,1/2+y,z
1/2-x,1/2+y,-z
1/2-x,1/2-y,-z
1/2+x,1/2-y,z
loop_
_atom_site_type_symbol
_atom_site_label
_atom_site_fract_x
_atom_site_fract_y
_atom_site_fract_z
Si Si1 0.324325 0.306315 0.766678
Si Si2 0.253116 0.092589 0.839437
Si Si3 0.181433 0.620152 0.777105
Si Si4 0.008326 0.500000 0.854252
Si Si5 0.155919 0.500000 0.649432
Si Si6 0.000000 0.000000 0.500000
Si Si7 0.676178 0.176906 0.270702
O O1 0.261871 0.337218 0.800780
O O2 0.300320 0.240262 0.739265
O O3 0.233128 0.327361 0.504198
O O4 0.500000 0.315413 0.000000
O O5 0.242389 0.133917 0.702046
O O6 0.122660 0.048351 0.648799
O O7 0.267063 0.125830 0.996154
O O8 0.402088 0.055217 0.050626
O O9 0.227320 0.557588 0.801192
O O10 0.000000 0.624779 0.500000
O O11 0.869822 0.500000 0.546167
O O12 0.000000 0.500000 0.000000
O O13 0.000000 0.500000 0.500000
O O14 0.500000 0.165547 0.000000
#
# Coordination Sequence:
#
# PCOD9177024 Si02
#       7
#     8   8   8   4   4   2   8
#     4  10  24  43  63  94 132 162 210 269 325 371
#     4  11  22  39  62  86 125 163 208 253 314 376
#     4  11  21  39  66  92 123 166 211 260 316 384
#     4  11  21  34  59  93 116 155 211 260 301 369
#     4  10  18  37  56  88 123 158 200 261 315 367
#     4  10  26  40  52  90 130 162 198 262 308 372
#     4  10  22  43  67  91 124 168 212 265 314 382
#
# _framework density 19.075209000000001
#
# number of rings (size 3 to 8) (size 9 to 14) (size 15 to 20)
#    0.000    1.524    3.810    2.286    5.333    0.762 
#    1.714    0.476    0.000    0.000    0.000    0.000 
#    0.000    0.000    0.000    0.000    0.000    0.000 
#
# Total GULP energy -117003.790270 kJ/mol
# GULP energy per Si atom -5571.609060 kJ/mol
# Density = 1.903179 g / cm^3
# Si number density = 19.075209 Si / 1000 Ang^3
#
#
#
# Elastic Constant Matrix: (Units=GPa)
#
#
# Indices 1 2 3 4 5 6 
#
# 1 110.1570 61.9056 35.1820 0.0000 -18.0247 0.0000
# 2 61.9056 72.9546 24.9333 0.0000 -6.6712 0.0000
# 3 35.1820 24.9333 57.0968 0.0000 -3.3637 0.0000
# 4 0.0000 0.0000 0.0000 35.2948 0.0000 -24.9918
# 5 -18.0247 -6.6712 -3.3637 0.0000 26.2249 0.0000
# 6 0.0000 0.0000 0.0000 -24.9918 0.0000 22.1514
#
#
#
# Elastic Compliance Matrix: (Units=1/GPa)
#
#
# Indices 1 2 3 4 5 6 
#
# 1 0.020876 -0.014830 -0.005808 0.000000 0.009831 0.000000
# 2 -0.014830 0.026922 -0.002837 0.000000 -0.003708 0.000000
# 3 -0.005808 -0.002837 0.022222 0.000000 -0.001863 0.000000
# 4 0.000000 0.000000 0.000000 0.140876 0.000000 0.158940
# 5 0.009831 -0.003708 -0.001863 0.000000 0.043706 0.000000
# 6 0.000000 0.000000 0.000000 0.158940 0.000000 0.224464
#
#
# Mechanical properties :
#
#
# Convention : Reuss Voigt Hill
#
# Bulk Modulus (GPa) = 43.34708 53.80558 48.57633
# Shear Modulus (GPa) = 9.36848 24.61338 16.99093
#
# Velocity S-wave (km/s) = 2.21856 3.59602 2.98775
# Velocity P-wave (km/s) = 5.41630 6.74612 6.11745
#
# Compressibility (1/GPa) = 0.02306960
#
# Stress axis : x y z
#
# Youngs Moduli (GPa) = 47.90285 37.14491 45.00077
#
# Poissons Ratio (x) = 0.55086 0.26136
# Poissons Ratio (y) = 0.71040 0.12765
# Poissons Ratio (z) = 0.27822 0.10537
#
# Static dielectric constant tensor:
#      x y z
#    x 1.638310 0.000000 0.018030 
#    y 0.000000 1.647680 0.000000 
#    z 0.018030 0.000000 1.641670 
# 
# From -- ./inp_files/67219.got.cif
#   From: 2010.05.17/outbox.cif.g08.bks.cpg/sg12_34_cif.got.tgz:67219.got - 2010.06.03 13:09:07.
