data_PCOD9177598
_publ_section_title
;
Structure prediction by ZEFSAII (Michael W. Deem and Ramdas Pophale) SiO2 
 PCOD9177598
Probable space group: C 2/M
;
_chemical_formula_sum "Si O2"
_cell_formula_units_Z 48
_cell_length_a 21.137454
_cell_length_b 7.996920
_cell_length_c 18.919816
_cell_angle_alpha 90.000000
_cell_angle_beta 35.287671
_cell_angle_gamma 90.000000
_cell_volume 1847.486041
_symmetry_space_group_name_H-M "C 2/M"
_symmetry_group_IT_number 12
_symmetry_cell_setting 'monoclinic'
loop_
_space_group_symop_operation_xyz
x,y,z
-x,y,-z
-x,-y,-z
x,-y,z
1/2+x,1/2+y,z
1/2-x,1/2+y,-z
1/2-x,1/2-y,-z
1/2+x,1/2-y,z
loop_
_atom_site_type_symbol
_atom_site_label
_atom_site_fract_x
_atom_site_fract_y
_atom_site_fract_z
Si Si1 0.072292 0.815162 0.509960
Si Si2 0.284231 0.691859 0.248134
Si Si3 0.628749 0.684471 0.620331
Si Si4 0.096842 0.309052 0.132217
Si Si5 0.492776 0.197348 0.925821
Si Si6 0.161926 0.702192 0.228114
O O1 0.168548 0.700600 0.393346
O O2 0.093370 0.836440 0.572541
O O3 0.948283 0.748280 0.626865
O O4 0.086301 0.000000 0.465016
O O5 0.316821 0.500000 0.211305
O O6 0.376907 0.783343 0.208868
O O7 0.258299 0.762600 0.192901
O O8 0.624942 0.500000 0.659310
O O9 0.750000 0.750000 0.500000
O O10 0.533438 0.806153 0.733690
O O11 0.136008 0.500000 0.090510
O O12 0.152730 0.237907 0.153777
O O13 0.087344 0.228306 0.062122
O O14 0.467983 0.000000 0.951822
O O15 0.500000 0.264938 0.000000
O O16 0.166133 0.500000 0.220639
#
# Coordination Sequence:
#
# PCOD9177598 Si02
#       6
#     8   8   8   8   8   8
#     4  10  20  32  49  77 112 146 178 213 255 307
#     4  11  22  35  54  80 110 143 178 218 263 313
#     4  10  19  29  44  71 105 139 175 212 253 305
#     4   9  18  35  56  74  99 136 174 214 260 311
#     4  10  22  40  60  80 102 133 177 227 274 317
#     4   9  19  35  54  79 111 145 178 211 255 313
#
# _framework density 25.981251
#
# number of rings (size 3 to 8) (size 9 to 14) (size 15 to 20)
#    0.000    2.167    0.000    3.000    0.000   10.333 
#    0.000    0.833    0.000    0.000    0.000    0.000 
#    0.000    0.000    0.000    0.000    0.000    0.000 
#
# Total GULP energy -133774.629497 kJ/mol
# GULP energy per Si atom -5573.942896 kJ/mol
# Density = 2.592212 g / cm^3
# Si number density = 25.981251 Si / 1000 Ang^3
#
#
#
# Elastic Constant Matrix: (Units=GPa)
#
#
# Indices 1 2 3 4 5 6 
#
# 1 176.7707 8.7471 15.7716 0.0007 8.1981 -0.0005
# 2 8.7471 76.7938 5.0382 0.0012 -4.0449 -0.0006
# 3 15.7716 5.0382 57.6095 0.0005 18.4638 -0.0003
# 4 0.0007 0.0012 0.0005 26.0032 -0.0002 -2.2445
# 5 8.1981 -4.0449 18.4638 -0.0002 30.8300 0.0002
# 6 -0.0005 -0.0006 -0.0003 -2.2445 0.0002 12.6629
#
#
#
# Elastic Compliance Matrix: (Units=1/GPa)
#
#
# Indices 1 2 3 4 5 6 
#
# 1 0.005842 -0.000629 -0.001262 0.000000 -0.000880 0.000000
# 2 -0.000629 0.013389 -0.001999 0.000000 0.003121 0.000000
# 3 -0.001262 -0.001999 0.022096 0.000000 -0.013160 0.000000
# 4 0.000000 0.000000 0.000000 0.039054 0.000000 0.006923
# 5 -0.000880 0.003121 -0.013160 0.000000 0.040961 -0.000001
# 6 0.000000 0.000000 0.000000 0.006923 -0.000001 0.080198
#
#
# Mechanical properties :
#
#
# Convention : Reuss Voigt Hill
#
# Bulk Modulus (GPa) = 29.80924 41.14308 35.47616
# Shear Modulus (GPa) = 22.67545 32.67368 27.67457
#
# Velocity S-wave (km/s) = 2.95746 3.55009 3.26724
# Velocity P-wave (km/s) = 4.81252 5.71614 5.28368
#
# Compressibility (1/GPa) = 0.03354664
#
# Stress axis : x y z
#
# Youngs Moduli (GPa) = 171.18624 74.68781 45.25627
#
# Poissons Ratio (x) = 0.04697 0.05712
# Poissons Ratio (y) = 0.10766 0.09047
# Poissons Ratio (z) = 0.21607 0.14931
#
# Static dielectric constant tensor:
#      x y z
#    x 2.182570 0.000000 -0.056460 
#    y 0.000000 2.021600 0.000000 
#    z -0.056460 0.000000 2.333590 
# 
# From -- ./inp_files/323491.got.cif
#   From: 2010.05.17/outbox.cif.g08.bks.cpg/sg12_162_cif.got.tgz:323491.got - 2010.06.03 13:09:07.
