data_PCOD9177448
_publ_section_title
;
Structure prediction by ZEFSAII (Michael W. Deem and Ramdas Pophale) SiO2 
 PCOD9177448
Probable space group: C 2/M
;
_chemical_formula_sum "Si O2"
_cell_formula_units_Z 64
_cell_length_a 18.149855
_cell_length_b 14.242311
_cell_length_c 14.752213
_cell_angle_alpha 90.000000
_cell_angle_beta 96.769632
_cell_angle_gamma 90.000000
_cell_volume 3786.799823
_symmetry_space_group_name_H-M "C 2/M"
_symmetry_group_IT_number 12
_symmetry_cell_setting 'monoclinic'
loop_
_space_group_symop_operation_xyz
x,y,z
-x,y,-z
-x,-y,-z
x,-y,z
1/2+x,1/2+y,z
1/2-x,1/2+y,-z
1/2-x,1/2-y,-z
1/2+x,1/2-y,z
loop_
_atom_site_type_symbol
_atom_site_label
_atom_site_fract_x
_atom_site_fract_y
_atom_site_fract_z
Si Si1 0.502613 0.386846 0.106421
Si Si2 0.395753 0.711845 0.728110
Si Si3 0.245670 0.258998 0.194317
Si Si4 0.133279 0.392428 0.073537
Si Si5 0.978903 0.608619 0.784368
Si Si6 0.488221 0.612434 0.600545
Si Si7 0.641655 0.889902 0.863084
Si Si8 0.383004 0.611358 0.237154
O O1 0.515168 0.500000 0.112096
O O2 0.564425 0.336015 0.177600
O O3 0.425207 0.368228 0.147878
O O4 0.500000 0.359126 0.000000
O O5 0.309424 0.721313 0.736673
O O6 0.432160 0.814922 0.723346
O O7 0.418114 0.653654 0.643404
O O8 0.191910 0.318002 0.120190
O O9 0.289718 0.174454 0.153783
O O10 0.308893 0.329983 0.236358
O O11 0.160716 0.500000 0.091074
O O12 0.057724 0.385452 0.120416
O O13 0.123130 0.377787 0.966136
O O14 0.970796 0.500000 0.754328
O O15 0.065583 0.633359 0.799417
O O16 0.500000 0.646392 0.500000
O O17 0.481317 0.500000 0.597371
O O18 0.558292 0.634253 0.675318
O O19 0.657914 0.000000 0.850487
O O20 0.368414 0.500000 0.237561
#
# Coordination Sequence:
#
# PCOD9177448 Si02
#       8
#     8   8   8   8   8   8   8   8
#     4   9  18  32  50  71  97 133 175 216 253 287
#     4  10  20  32  50  74 100 128 158 198 243 291
#     4  11  21  30  43  68 101 131 153 189 248 300
#     4   9  18  31  45  62  87 125 174 214 236 263
#     4   9  18  32  48  64  87 126 173 211 234 260
#     4   9  18  36  62  83  95 115 153 200 245 289
#     4  10  19  29  42  62  91 130 171 205 235 271
#     4   9  18  33  52  73  98 127 163 204 241 287
#
# _framework density 16.900815000000001
#
# number of rings (size 3 to 8) (size 9 to 14) (size 15 to 20)
#    0.000    2.500    0.000    3.750    0.000    8.000 
#    0.000    3.125    0.000    0.375    0.000    0.000 
#    0.000    0.000    0.000    0.000    0.000    0.000 
#
# Total GULP energy -178447.758956 kJ/mol
# GULP energy per Si atom -5576.492467 kJ/mol
# Density = 1.686235 g / cm^3
# Si number density = 16.900815 Si / 1000 Ang^3
#
#
#
# Elastic Constant Matrix: (Units=GPa)
#
#
# Indices 1 2 3 4 5 6 
#
# 1 99.3830 31.0785 27.5332 0.0000 -14.1908 0.0000
# 2 31.0785 45.0690 17.9102 0.0000 -3.6737 0.0000
# 3 27.5332 17.9102 81.1535 0.0000 -15.5066 0.0000
# 4 0.0000 0.0000 0.0000 15.0207 0.0000 -5.4603
# 5 -14.1908 -3.6737 -15.5066 0.0000 10.0512 0.0000
# 6 0.0000 0.0000 0.0000 -5.4603 0.0000 33.8975
#
#
#
# Elastic Compliance Matrix: (Units=1/GPa)
#
#
# Indices 1 2 3 4 5 6 
#
# 1 0.015633 -0.009388 0.000468 0.000000 0.019361 0.000000
# 2 -0.009388 0.029964 -0.005485 0.000000 -0.010764 0.000000
# 3 0.000468 -0.005485 0.018600 0.000000 0.027352 0.000000
# 4 0.000000 0.000000 0.000000 0.070716 0.000000 0.011391
# 5 0.019361 -0.010764 0.027352 0.000000 0.165089 0.000000
# 6 0.000000 0.000000 0.000000 0.011391 0.000000 0.031336
#
#
# Mechanical properties :
#
#
# Convention : Reuss Voigt Hill
#
# Bulk Modulus (GPa) = 28.25840 42.07214 35.16527
# Shear Modulus (GPa) = 13.44293 21.73279 17.58786
#
# Velocity S-wave (km/s) = 2.82335 3.58984 3.22941
# Velocity P-wave (km/s) = 5.23305 6.49078 5.89555
#
# Compressibility (1/GPa) = 0.03538771
#
# Stress axis : x y z
#
# Youngs Moduli (GPa) = 63.96820 33.37362 53.76233
#
# Poissons Ratio (x) = 0.31330 -0.02514
# Poissons Ratio (y) = 0.60051 0.29486
# Poissons Ratio (z) = -0.02991 0.18304
#
# Static dielectric constant tensor:
#      x y z
#    x 1.560460 0.000000 -0.007400 
#    y 0.000000 1.610530 0.000000 
#    z -0.007400 0.000000 1.551620 
# 
# From -- ./inp_files/224783.got.cif
#   From: 2010.05.17/outbox.cif.g08.bks.cpg/sg12_113_cif.got.tgz:224783.got - 2010.06.03 13:09:07.
