data_PCOD9177564
_publ_section_title
;
Structure prediction by ZEFSAII (Michael W. Deem and Ramdas Pophale) SiO2 
 PCOD9177564
Probable space group: C 2/M
;
_chemical_formula_sum "Si O2"
_cell_formula_units_Z 64
_cell_length_a 35.061020
_cell_length_b 13.532216
_cell_length_c 8.190669
_cell_angle_alpha 90.000000
_cell_angle_beta 97.027711
_cell_angle_gamma 90.000000
_cell_volume 3856.894073
_symmetry_space_group_name_H-M "C 2/M"
_symmetry_group_IT_number 12
_symmetry_cell_setting 'monoclinic'
loop_
_space_group_symop_operation_xyz
x,y,z
-x,y,-z
-x,-y,-z
x,-y,z
1/2+x,1/2+y,z
1/2-x,1/2+y,-z
1/2-x,1/2-y,-z
1/2+x,1/2-y,z
loop_
_atom_site_type_symbol
_atom_site_label
_atom_site_fract_x
_atom_site_fract_y
_atom_site_fract_z
Si Si1 0.589179 0.112309 0.860049
Si Si2 0.744415 0.881142 0.778003
Si Si3 0.647191 0.879526 0.423116
Si Si4 0.211264 0.118417 0.874760
Si Si5 0.837730 0.291717 0.217862
Si Si6 0.011086 0.385991 0.693646
Si Si7 0.567468 0.886790 0.222383
Si Si8 0.733245 0.119699 0.397592
O O1 0.628393 0.172263 0.879441
O O2 0.553835 0.155973 0.737557
O O3 0.598216 0.000000 0.807868
O O4 0.573130 0.108775 0.033457
O O5 0.702832 0.847913 0.822574
O O6 0.747847 0.848733 0.588176
O O7 0.744843 0.000000 0.772555
O O8 0.774443 0.852789 0.935652
O O9 0.648636 0.825149 0.596469
O O10 0.607555 0.849055 0.316490
O O11 0.688018 0.854115 0.359365
O O12 0.647277 0.000000 0.442015
O O13 0.172948 0.177869 0.810893
O O14 0.241680 0.148397 0.747325
O O15 0.207240 0.000000 0.867669
O O16 0.015301 0.500000 0.757227
O O17 0.973883 0.339619 0.761061
O O18 0.000000 0.388417 0.500000
O O19 0.564351 0.000000 0.285739
O O20 0.734826 0.000000 0.400689
#
# Coordination Sequence:
#
# PCOD9177564 Si02
#       8
#     8   8   8   8   8   8   8   8
#     4  10  19  29  44  67  97 125 154 191 224 269
#     4   9  18  32  49  68  92 119 154 199 239 283
#     4   9  17  29  45  67  95 122 151 187 229 277
#     4  10  21  35  49  65  90 123 164 204 242 281
#     4  11  20  31  45  68  91 121 160 194 236 278
#     4   9  16  27  44  63  91 130 159 177 211 268
#     4   9  17  28  43  67  97 128 154 180 220 271
#     4   8  16  31  48  65  87 120 156 193 236 275
#
# _framework density 16.593662999999999
#
# number of rings (size 3 to 8) (size 9 to 14) (size 15 to 20)
#    0.000    2.625    0.000    3.375    1.750    5.500 
#    2.250    0.000    0.000    0.000    0.000    0.000 
#    0.000    6.500    0.000    0.000    0.000    0.250 
#
# Total GULP energy -178175.400162 kJ/mol
# GULP energy per Si atom -5567.981255 kJ/mol
# Density = 1.655590 g / cm^3
# Si number density = 16.593663 Si / 1000 Ang^3
#
#
#
# Elastic Constant Matrix: (Units=GPa)
#
#
# Indices 1 2 3 4 5 6 
#
# 1 69.2095 19.5183 25.1135 0.0000 -10.0586 0.0000
# 2 19.5183 33.8199 19.3470 0.0000 1.1098 0.0000
# 3 25.1135 19.3470 51.5760 0.0000 0.6338 0.0000
# 4 0.0000 0.0000 0.0000 14.6416 0.0000 -1.4081
# 5 -10.0586 1.1098 0.6338 0.0000 30.2424 0.0000
# 6 0.0000 0.0000 0.0000 -1.4081 0.0000 11.9631
#
#
#
# Elastic Compliance Matrix: (Units=1/GPa)
#
#
# Indices 1 2 3 4 5 6 
#
# 1 0.020262 -0.007938 -0.006976 0.000000 0.007177 0.000000
# 2 -0.007938 0.040793 -0.011389 0.000000 -0.003899 0.000000
# 3 -0.006976 -0.011389 0.027088 0.000000 -0.002470 0.000000
# 4 0.000000 0.000000 0.000000 0.069081 0.000000 0.008131
# 5 0.007177 -0.003899 -0.002470 0.000000 0.035648 0.000000
# 6 0.000000 0.000000 0.000000 0.008131 0.000000 0.084547
#
#
# Mechanical properties :
#
#
# Convention : Reuss Voigt Hill
#
# Bulk Modulus (GPa) = 28.14040 31.39589 29.76815
# Shear Modulus (GPa) = 14.62536 17.41118 16.01827
#
# Velocity S-wave (km/s) = 2.97203 3.24275 3.11034
# Velocity P-wave (km/s) = 5.36401 5.74300 5.55674
#
# Compressibility (1/GPa) = 0.03553609
#
# Stress axis : x y z
#
# Youngs Moduli (GPa) = 49.35300 24.51411 36.91628
#
# Poissons Ratio (x) = 0.19460 0.25755
# Poissons Ratio (y) = 0.39178 0.42043
# Poissons Ratio (z) = 0.34431 0.27919
#
# Static dielectric constant tensor:
#      x y z
#    x 1.599760 0.000000 -0.003700 
#    y 0.000000 1.565820 0.000000 
#    z -0.003700 0.000000 1.596830 
# 
# From -- ./inp_files/111228.got.cif
#   From: 2010.05.17/outbox.cif.g08.bks.cpg/sg12_56_cif.got.tgz:111228.got - 2010.06.03 13:09:07.
