data_PCOD9177144
_publ_section_title
;
Structure prediction by ZEFSAII (Michael W. Deem and Ramdas Pophale) SiO2 
 PCOD9177144
Probable space group: C 2/M
;
_chemical_formula_sum "Si O2"
_cell_formula_units_Z 44
_cell_length_a 5.302171
_cell_length_b 33.889466
_cell_length_c 14.331998
_cell_angle_alpha 90.000000
_cell_angle_beta 58.086241
_cell_angle_gamma 90.000000
_cell_volume 2186.016666
_symmetry_space_group_name_H-M "C 2/M"
_symmetry_group_IT_number 12
_symmetry_cell_setting 'monoclinic'
loop_
_space_group_symop_operation_xyz
x,y,z
-x,y,-z
-x,-y,-z
x,-y,z
1/2+x,1/2+y,z
1/2-x,1/2+y,-z
1/2-x,1/2-y,-z
1/2+x,1/2-y,z
loop_
_atom_site_type_symbol
_atom_site_label
_atom_site_fract_x
_atom_site_fract_y
_atom_site_fract_z
Si Si1 0.199507 0.725800 0.869568
Si Si2 0.917347 0.153347 0.715916
Si Si3 0.550021 0.089796 0.387725
Si Si4 0.557859 0.092111 0.886397
Si Si5 0.000000 0.851555 0.500000
Si Si6 0.346754 0.453591 0.170182
O O1 0.450520 0.758060 0.846652
O O2 0.380047 0.688465 0.795847
O O3 0.000000 0.716601 0.000000
O O4 0.634117 0.125764 0.795832
O O5 0.179347 0.121097 0.672197
O O6 0.978057 0.171356 0.601413
O O7 0.500000 0.071502 0.500000
O O8 0.271210 0.118458 0.434314
O O9 0.608307 0.057594 0.297719
O O10 0.290124 0.067147 0.894785
O O11 0.841007 0.064003 0.853498
O O12 0.500000 0.110223 0.000000
O O13 0.372564 0.500000 0.151203
#
# Coordination Sequence:
#
# PCOD9177144 Si02
#       6
#     8   8   8   8   4   8
#     4  10  23  41  63  93 127 158 190 238 295 349
#     4  10  21  38  64  88 118 156 202 244 291 355
#     4   9  20  37  60  86 116 159 205 249 297 350
#     4  11  23  39  61  87 117 160 205 244 293 359
#     4  10  18  38  63  84 116 152 202 252 294 340
#     4  11  23  39  57  87 123 156 198 251 306 358
#
# _framework density 20.127935000000001
#
# number of rings (size 3 to 8) (size 9 to 14) (size 15 to 20)
#    0.000    1.818    1.818    1.636    2.545    2.545 
#    0.000    5.000    0.000    0.000    0.000    0.000 
#    0.000    0.000    0.000    0.000    0.000    0.000 
#
# Total GULP energy -122508.754200 kJ/mol
# GULP energy per Si atom -5568.579736 kJ/mol
# Density = 2.008212 g / cm^3
# Si number density = 20.127935 Si / 1000 Ang^3
#
#
#
# Elastic Constant Matrix: (Units=GPa)
#
#
# Indices 1 2 3 4 5 6 
#
# 1 67.6810 3.1417 18.9484 0.0000 0.1405 0.0000
# 2 3.1417 54.6382 23.9310 0.0000 1.5429 0.0000
# 3 18.9484 23.9310 113.7372 0.0000 2.6411 0.0000
# 4 0.0000 0.0000 0.0000 19.4379 0.0000 7.2837
# 5 0.1405 1.5429 2.6411 0.0000 27.6797 0.0000
# 6 0.0000 0.0000 0.0000 7.2837 0.0000 2.8690
#
#
#
# Elastic Compliance Matrix: (Units=1/GPa)
#
#
# Indices 1 2 3 4 5 6 
#
# 1 0.015502 0.000261 -0.002641 0.000000 0.000159 0.000000
# 2 0.000261 0.020179 -0.004273 0.000000 -0.000718 0.000000
# 3 -0.002641 -0.004273 0.010148 0.000000 -0.000717 0.000000
# 4 0.000000 0.000000 0.000000 1.056937 0.000000 -2.683329
# 5 0.000159 -0.000718 -0.000717 0.000000 0.036235 0.000000
# 6 0.000000 0.000000 0.000000 -2.683329 0.000000 7.160937
#
#
# Mechanical properties :
#
#
# Convention : Reuss Voigt Hill
#
# Bulk Modulus (GPa) = 30.74723 36.45541 33.60132
# Shear Modulus (GPa) = 0.60067 22.66634 11.63350
#
# Velocity S-wave (km/s) = 0.54687 3.35940 2.40673
# Velocity P-wave (km/s) = 3.96331 5.76182 4.94502
#
# Compressibility (1/GPa) = 0.03252325
#
# Stress axis : x y z
#
# Youngs Moduli (GPa) = 64.50693 49.55691 98.54318
#
# Poissons Ratio (x) = -0.01293 0.26028
# Poissons Ratio (y) = -0.01683 0.42103
# Poissons Ratio (z) = 0.17038 0.21173
#
# Static dielectric constant tensor:
#      x y z
#    x 1.779450 0.000000 0.028400 
#    y 0.000000 1.657640 0.000000 
#    z 0.028400 0.000000 1.888470 
# 
# From -- ./inp_files/192526.got.cif
#   From: 2010.05.17/outbox.cif.g08.bks.cpg/sg12_97_cif.got.tgz:192526.got - 2010.06.03 13:09:07.
