data_PCOD9177366
_publ_section_title
;
Structure prediction by ZEFSAII (Michael W. Deem and Ramdas Pophale) SiO2 
 PCOD9177366
Probable space group: C 2/M
;
_chemical_formula_sum "Si O2"
_cell_formula_units_Z 52
_cell_length_a 8.957132
_cell_length_b 27.268877
_cell_length_c 12.048985
_cell_angle_alpha 90.000000
_cell_angle_beta 97.120811
_cell_angle_gamma 90.000000
_cell_volume 2920.276564
_symmetry_space_group_name_H-M "C 2/M"
_symmetry_group_IT_number 12
_symmetry_cell_setting 'monoclinic'
loop_
_space_group_symop_operation_xyz
x,y,z
-x,y,-z
-x,-y,-z
x,-y,z
1/2+x,1/2+y,z
1/2-x,1/2+y,-z
1/2-x,1/2-y,-z
1/2+x,1/2-y,z
loop_
_atom_site_type_symbol
_atom_site_label
_atom_site_fract_x
_atom_site_fract_y
_atom_site_fract_z
Si Si1 0.000000 0.081140 0.000000
Si Si2 0.237906 0.256262 0.744006
Si Si3 0.973175 0.500000 0.811475
Si Si4 0.515983 0.109004 0.237643
Si Si5 0.808239 0.146859 0.855772
Si Si6 0.943609 0.299647 0.619476
Si Si7 0.154421 0.320910 0.067508
Si Si8 0.248786 0.500000 0.000899
O O1 0.953348 0.113966 0.890361
O O2 0.143106 0.046965 0.990818
O O3 0.329547 0.305580 0.782038
O O4 0.294211 0.229591 0.637996
O O5 0.265241 0.217915 0.845369
O O6 0.069083 0.275303 0.712002
O O7 0.954574 0.551559 0.747396
O O8 0.853952 0.500000 0.900478
O O9 0.136745 0.500000 0.885883
O O10 0.337098 0.117608 0.203034
O O11 0.566718 0.143953 0.342847
O O12 0.598739 0.132681 0.136772
O O13 0.757700 0.164441 0.974007
O O14 0.000000 0.295689 0.500000
O O15 0.000000 0.299856 0.000000
#
# Coordination Sequence:
#
# PCOD9177366 Si02
#       8
#     4   8   4   8   8   8   8   4
#     4  11  20  30  42  76 108 138 172 195 240 286
#     4  10  21  33  52  77 101 141 171 204 260 302
#     4  11  18  36  51  70  99 138 173 206 251 306
#     4   9  19  33  52  74  97 137 176 207 254 300
#     4  10  19  28  46  74 114 137 163 199 243 302
#     4  10  21  39  55  74 100 129 177 228 262 300
#     4   9  18  31  47  74 111 143 171 199 235 307
#     4  10  22  30  50  68 105 146 169 200 242 302
#
# _framework density 17.806532000000001
#
# number of rings (size 3 to 8) (size 9 to 14) (size 15 to 20)
#    0.000    2.154    1.538    2.769    7.538    0.000 
#    0.000    0.385    0.000    0.000    0.000    0.000 
#    0.000    2.769    0.000    0.000    0.000    0.000 
#
# Total GULP energy -145066.998548 kJ/mol
# GULP energy per Si atom -5579.499944 kJ/mol
# Density = 1.776600 g / cm^3
# Si number density = 17.806532 Si / 1000 Ang^3
#
#
#
# Elastic Constant Matrix: (Units=GPa)
#
#
# Indices 1 2 3 4 5 6 
#
# 1 39.4432 18.5617 -2.6874 0.0000 4.1585 0.0000
# 2 18.5617 120.8105 12.8315 0.0000 1.7646 0.0000
# 3 -2.6874 12.8315 40.3425 0.0000 -10.1919 0.0000
# 4 0.0000 0.0000 0.0000 11.0054 0.0000 4.7423
# 5 4.1585 1.7646 -10.1919 0.0000 20.5100 0.0000
# 6 0.0000 0.0000 0.0000 4.7423 0.0000 18.5630
#
#
#
# Elastic Compliance Matrix: (Units=1/GPa)
#
#
# Indices 1 2 3 4 5 6 
#
# 1 0.028059 -0.004488 0.002238 0.000000 -0.004191 0.000000
# 2 -0.004488 0.009388 -0.003727 0.000000 -0.001750 0.000000
# 3 0.002238 -0.003727 0.029834 0.000000 0.014692 0.000000
# 4 0.000000 0.000000 0.000000 0.102105 0.000000 -0.026085
# 5 -0.004191 -0.001750 0.014692 0.000000 0.057058 0.000000
# 6 0.000000 0.000000 0.000000 -0.026085 0.000000 0.060535
#
#
# Mechanical properties :
#
#
# Convention : Reuss Voigt Hill
#
# Bulk Modulus (GPa) = 18.07425 28.66755 23.37090
# Shear Modulus (GPa) = 15.75422 21.47503 18.61463
#
# Velocity S-wave (km/s) = 2.97769 3.47655 3.23674
# Velocity P-wave (km/s) = 4.68984 5.67887 5.20789
#
# Compressibility (1/GPa) = 0.05532734
#
# Stress axis : x y z
#
# Youngs Moduli (GPa) = 35.63911 106.51521 33.51878
#
# Poissons Ratio (x) = 0.47799 -0.07500
# Poissons Ratio (y) = 0.15993 0.12493
# Poissons Ratio (z) = -0.07975 0.39700
#
# Static dielectric constant tensor:
#      x y z
#    x 1.625580 0.000000 0.008920 
#    y 0.000000 1.642730 0.000000 
#    z 0.008920 0.000000 1.594960 
# 
# From -- ./inp_files/123799.got.cif
#   From: 2010.05.17/outbox.cif.g08.bks.cpg/sg12_62_cif.got.tgz:123799.got - 2010.06.03 13:09:07.
