data_PCOD9177512
_publ_section_title
;
Structure prediction by ZEFSAII (Michael W. Deem and Ramdas Pophale) SiO2 
 PCOD9177512
Probable space group: C 2/M
;
_chemical_formula_sum "Si O2"
_cell_formula_units_Z 64
_cell_length_a 28.470239
_cell_length_b 9.258600
_cell_length_c 14.826945
_cell_angle_alpha 90.000000
_cell_angle_beta 92.071220
_cell_angle_gamma 90.000000
_cell_volume 3905.748571
_symmetry_space_group_name_H-M "C 2/M"
_symmetry_group_IT_number 12
_symmetry_cell_setting 'monoclinic'
loop_
_space_group_symop_operation_xyz
x,y,z
-x,y,-z
-x,-y,-z
x,-y,z
1/2+x,1/2+y,z
1/2-x,1/2+y,-z
1/2-x,1/2-y,-z
1/2+x,1/2-y,z
loop_
_atom_site_type_symbol
_atom_site_label
_atom_site_fract_x
_atom_site_fract_y
_atom_site_fract_z
Si Si1 0.586461 0.327896 0.825885
Si Si2 0.890967 0.332645 0.837920
Si Si3 0.485888 0.671903 0.895679
Si Si4 0.268884 0.665725 0.124148
Si Si5 0.736558 0.170518 0.590656
Si Si6 0.694147 0.328880 0.236603
Si Si7 0.654434 0.833367 0.967595
Si Si8 0.661896 0.336019 0.696442
O O1 0.594694 0.500000 0.842339
O O2 0.531455 0.302742 0.836404
O O3 0.614393 0.237427 0.902431
O O4 0.610731 0.294229 0.731552
O O5 0.895669 0.500000 0.811890
O O6 0.941117 0.258626 0.857564
O O7 0.856641 0.245704 0.769021
O O8 0.864632 0.327808 0.932773
O O9 0.475367 0.500000 0.895777
O O10 0.500000 0.711143 0.000000
O O11 0.255922 0.500000 0.101287
O O12 0.225747 0.755498 0.160923
O O13 0.298225 0.744118 0.048145
O O14 0.305607 0.661731 0.211127
O O15 0.750000 0.250000 0.500000
O O16 0.777003 0.195069 0.668967
O O17 0.688288 0.233075 0.629001
O O18 0.732539 0.000000 0.575951
O O19 0.690215 0.500000 0.220803
O O20 0.662141 0.000000 0.941920
O O21 0.660459 0.500000 0.660909
#
# Coordination Sequence:
#
# PCOD9177512 Si02
#       8
#     8   8   8   8   8   8   8   8
#     4   9  17  30  48  70  96 131 171 212 256 291
#     4  11  23  34  46  67  97 133 172 212 255 294
#     4  10  19  32  51  71  95 131 177 222 258 293
#     4   9  17  30  48  67  92 127 165 203 245 290
#     4  10  20  34  55  81 104 127 156 191 239 298
#     4  10  21  36  52  71  97 128 163 201 242 295
#     4  10  19  29  43  65  93 128 170 211 248 288
#     4   8  15  28  47  72 101 128 158 197 240 290
#
# _framework density 16.386105000000001
#
# number of rings (size 3 to 8) (size 9 to 14) (size 15 to 20)
#    0.000    2.375    1.250    2.625    0.000    7.250 
#    0.000    0.000    0.000    0.000    0.000    0.875 
#    0.000    7.000    0.000    0.000    0.000    0.000 
#
# Total GULP energy -178511.303242 kJ/mol
# GULP energy per Si atom -5578.478226 kJ/mol
# Density = 1.634881 g / cm^3
# Si number density = 16.386105 Si / 1000 Ang^3
#
#
#
# Elastic Constant Matrix: (Units=GPa)
#
#
# Indices 1 2 3 4 5 6 
#
# 1 131.1463 74.2892 41.2511 0.0000 -4.4395 0.0000
# 2 74.2892 109.4466 51.9741 0.0000 -2.6534 0.0000
# 3 41.2511 51.9741 54.7931 0.0000 -14.7412 0.0000
# 4 0.0000 0.0000 0.0000 20.9308 0.0000 -3.4061
# 5 -4.4395 -2.6534 -14.7412 0.0000 18.7593 0.0000
# 6 0.0000 0.0000 0.0000 -3.4061 0.0000 29.5914
#
#
#
# Elastic Compliance Matrix: (Units=1/GPa)
#
#
# Indices 1 2 3 4 5 6 
#
# 1 0.012573 -0.007343 -0.002510 0.000000 -0.000035 0.000000
# 2 -0.007343 0.023718 -0.020967 0.000000 -0.014859 0.000000
# 3 -0.002510 -0.020967 0.049544 0.000000 0.035373 0.000000
# 4 0.000000 0.000000 0.000000 0.048688 0.000000 0.005604
# 5 -0.000035 -0.014859 0.035373 0.000000 0.078993 0.000000
# 6 0.000000 0.000000 0.000000 0.005604 0.000000 0.034439
#
#
# Mechanical properties :
#
#
# Convention : Reuss Voigt Hill
#
# Bulk Modulus (GPa) = 41.32931 70.04611 55.68771
# Shear Modulus (GPa) = 15.74017 22.38109 19.06063
#
# Velocity S-wave (km/s) = 3.10269 3.69976 3.41430
# Velocity P-wave (km/s) = 6.17353 7.81608 7.04285
#
# Compressibility (1/GPa) = 0.02419590
#
# Stress axis : x y z
#
# Youngs Moduli (GPa) = 79.53618 42.16274 20.18403
#
# Poissons Ratio (x) = 0.30961 0.05065
# Poissons Ratio (y) = 0.58405 0.42319
# Poissons Ratio (z) = 0.19960 0.88401
#
# Static dielectric constant tensor:
#      x y z
#    x 1.565600 0.000000 0.002350 
#    y 0.000000 1.556950 0.000000 
#    z 0.002350 0.000000 1.538890 
# 
# From -- ./inp_files/244068.got.cif
#   From: 2010.05.17/outbox.cif.g08.bks.cpg/sg12_123_cif.got.tgz:244068.got - 2010.06.03 13:09:07.
