data_PCOD9177708
_publ_section_title
;
Structure prediction by ZEFSAII (Michael W. Deem and Ramdas Pophale) SiO2 
 PCOD9177708
Probable space group: C 2/M
;
_chemical_formula_sum "Si O2"
_cell_formula_units_Z 56
_cell_length_a 21.958901
_cell_length_b 27.944182
_cell_length_c 18.825728
_cell_angle_alpha 90.000000
_cell_angle_beta 18.574675
_cell_angle_gamma 90.000000
_cell_volume 3679.749443
_symmetry_space_group_name_H-M "C 2/M"
_symmetry_group_IT_number 12
_symmetry_cell_setting 'monoclinic'
loop_
_space_group_symop_operation_xyz
x,y,z
-x,y,-z
-x,-y,-z
x,-y,z
1/2+x,1/2+y,z
1/2-x,1/2+y,-z
1/2-x,1/2-y,-z
1/2+x,1/2-y,z
loop_
_atom_site_type_symbol
_atom_site_label
_atom_site_fract_x
_atom_site_fract_y
_atom_site_fract_z
Si Si1 0.033201 0.904462 0.546771
Si Si2 0.757369 0.192313 0.005088
Si Si3 0.109721 0.278430 0.308366
Si Si4 0.092504 0.445407 0.821632
Si Si5 0.547519 0.210746 0.029687
Si Si6 0.876937 0.195070 0.484373
Si Si7 0.633632 0.875761 0.020205
O O1 0.183122 0.941377 0.412429
O O2 0.119583 0.852055 0.470190
O O3 0.000000 0.910934 0.500000
O O4 0.826404 0.906126 0.811452
O O5 0.633234 0.159894 0.088100
O O6 0.979278 0.182849 0.739575
O O7 0.750000 0.250000 0.000000
O O8 0.673583 0.185221 0.176102
O O9 0.000000 0.295891 0.500000
O O10 0.972344 0.238265 0.423805
O O11 0.308096 0.252545 0.109818
O O12 0.032053 0.500000 0.875428
O O13 0.000000 0.429975 0.000000
O O14 0.031299 0.410769 0.824879
O O15 0.339011 0.208666 0.297550
O O16 0.500000 0.212857 0.000000
O O17 0.654359 0.162192 0.933025
#
# Coordination Sequence:
#
# PCOD9177708 Si02
#       7
#     8   8   8   8   8   8   8
#     4  11  18  29  47  66  89 123 162 199 240 279
#     4   9  19  35  47  71  95 130 164 206 252 282
#     4  11  20  34  45  67 102 124 163 207 241 292
#     4  11  23  34  47  70  96 127 168 209 247 285
#     4  12  19  27  48  71  89 130 169 201 241 279
#     4  10  19  29  47  68  90 124 165 203 239 283
#     4  11  20  33  50  66  96 126 166 207 242 288
#
# _framework density 15.218427
#
# number of rings (size 3 to 8) (size 9 to 14) (size 15 to 20)
#    0.000    1.286    8.571    1.714    0.000    1.429 
#    0.000    0.000    0.000    0.000    0.000    0.000 
#    0.000    0.571    0.000    5.143    0.000    0.000 
#
# Total GULP energy -155902.093576 kJ/mol
# GULP energy per Si atom -5567.931913 kJ/mol
# Density = 1.518379 g / cm^3
# Si number density = 15.218427 Si / 1000 Ang^3
#
#
#
# Elastic Constant Matrix: (Units=GPa)
#
#
# Indices 1 2 3 4 5 6 
#
# 1 74.4000 31.7776 44.6239 -0.0558 3.5074 0.0364
# 2 31.7776 41.6979 11.1311 -0.0638 3.5180 0.0429
# 3 44.6239 11.1311 78.7161 -0.0428 -3.6973 0.0233
# 4 -0.0558 -0.0638 -0.0428 10.2848 0.0416 -3.2616
# 5 3.5074 3.5180 -3.6973 0.0416 30.0806 -0.0128
# 6 0.0364 0.0429 0.0233 -3.2616 -0.0128 15.5037
#
#
#
# Elastic Compliance Matrix: (Units=1/GPa)
#
#
# Indices 1 2 3 4 5 6 
#
# 1 0.030651 -0.019137 -0.014818 -0.000001 -0.003157 0.000000
# 2 -0.019137 0.037215 0.005519 0.000144 -0.001443 -0.000037
# 3 -0.014818 0.005519 0.020493 0.000024 0.003601 -0.000003
# 4 -0.000001 0.000144 0.000024 0.104183 -0.000149 0.021917
# 5 -0.003157 -0.001443 0.003601 -0.000149 0.034224 0.000003
# 6 0.000000 -0.000037 -0.000003 0.021917 0.000003 0.069112
#
#
# Mechanical properties :
#
#
# Convention : Reuss Voigt Hill
#
# Bulk Modulus (GPa) = 31.76028 41.09770 36.42899
# Shear Modulus (GPa) = 13.76476 18.32592 16.04534
#
# Velocity S-wave (km/s) = 3.01072 3.47391 3.25058
# Velocity P-wave (km/s) = 5.74464 6.56922 6.17071
#
# Compressibility (1/GPa) = 0.03148587
#
# Stress axis : x y z
#
# Youngs Moduli (GPa) = 32.62519 26.87093 48.79690
#
# Poissons Ratio (x) = 0.51423 0.72308
# Poissons Ratio (y) = 0.62435 -0.26929
# Poissons Ratio (z) = 0.48345 -0.14829
#
# Static dielectric constant tensor:
#      x y z
#    x 1.528690 -0.000070 -0.001340 
#    y -0.000070 1.504690 0.000030 
#    z -0.001340 0.000030 1.579050 
# 
# From -- ./inp_files/286609.got.cif
#   From: 2010.05.17/outbox.cif.g08.bks.cpg/sg12_144_cif.got.tgz:286609.got - 2010.06.03 13:09:07.
