data_PCOD9177614
_publ_section_title
;
Structure prediction by ZEFSAII (Michael W. Deem and Ramdas Pophale) SiO2 
 PCOD9177614
Probable space group: C 2/M
;
_chemical_formula_sum "Si O2"
_cell_formula_units_Z 64
_cell_length_a 23.442821
_cell_length_b 7.425185
_cell_length_c 23.378622
_cell_angle_alpha 90.000000
_cell_angle_beta 49.357818
_cell_angle_gamma 90.000000
_cell_volume 3087.868506
_symmetry_space_group_name_H-M "C 2/M"
_symmetry_group_IT_number 12
_symmetry_cell_setting 'monoclinic'
loop_
_space_group_symop_operation_xyz
x,y,z
-x,y,-z
-x,-y,-z
x,-y,z
1/2+x,1/2+y,z
1/2-x,1/2+y,-z
1/2-x,1/2-y,-z
1/2+x,1/2-y,z
loop_
_atom_site_type_symbol
_atom_site_label
_atom_site_fract_x
_atom_site_fract_y
_atom_site_fract_z
Si Si1 0.429017 0.282859 0.709769
Si Si2 0.974288 0.780622 0.926611
Si Si3 0.344929 0.719209 0.371761
Si Si4 0.915797 0.215686 0.442722
Si Si5 0.380961 0.719632 0.093914
Si Si6 0.704798 0.785754 0.390886
Si Si7 0.772831 0.712424 0.751622
Si Si8 0.496340 0.719167 0.784670
O O1 0.431024 0.500000 0.708921
O O2 0.499534 0.220399 0.624839
O O3 0.348972 0.230391 0.737561
O O4 0.446599 0.222363 0.763042
O O5 0.053474 0.729966 0.904215
O O6 0.971002 0.718248 0.863512
O O7 0.973049 0.000000 0.926358
O O8 0.909001 0.722225 0.012862
O O9 0.342213 0.500000 0.375402
O O10 0.363536 0.780967 0.423994
O O11 0.268730 0.785134 0.392411
O O12 0.417489 0.768089 0.286133
O O13 0.876379 0.258191 0.527943
O O14 0.918148 0.000000 0.436842
O O15 0.380032 0.500000 0.093027
O O16 0.300275 0.784918 0.167915
O O17 0.714965 0.713354 0.320292
O O18 0.716020 0.000000 0.380721
O O19 0.758107 0.500000 0.754384
O O20 0.494656 0.500000 0.786368
#
# Coordination Sequence:
#
# PCOD9177614 Si02
#       8
#     8   8   8   8   8   8   8   8
#     4   9  19  34  48  62  84 118 156 187 215 252
#     4   8  12  21  42  70  95 115 139 176 219 262
#     4   8  14  26  44  66  91 114 138 176 225 269
#     4   9  18  32  48  65  86 113 146 185 224 259
#     4   8  14  24  40  67  98 119 137 172 223 266
#     4  10  19  29  45  68  90 114 144 179 223 272
#     4  10  20  32  45  64  92 121 147 179 220 261
#     4   8  13  24  44  66  86 113 150 184 213 253
#
# _framework density 20.726271000000001
#
# number of rings (size 3 to 8) (size 9 to 14) (size 15 to 20)
#    0.000    3.250    0.000    3.375    0.000    4.500 
#    0.000    3.125    0.000    0.750    0.000    2.625 
#    0.000    0.000    0.000    0.000    0.000    0.000 
#
# Total GULP energy -178524.765456 kJ/mol
# GULP energy per Si atom -5578.898921 kJ/mol
# Density = 2.067910 g / cm^3
# Si number density = 20.726271 Si / 1000 Ang^3
#
#
#
# Elastic Constant Matrix: (Units=GPa)
#
#
# Indices 1 2 3 4 5 6 
#
# 1 78.4185 -4.3545 95.1674 0.0030 -19.7905 -0.0028
# 2 -4.3545 63.5642 0.9530 -0.0032 -0.5616 -0.0117
# 3 95.1674 0.9530 207.5726 0.0001 -3.4231 0.0001
# 4 0.0030 -0.0032 0.0001 3.3502 0.0010 -2.2803
# 5 -19.7905 -0.5616 -3.4231 0.0010 18.8144 0.0005
# 6 -0.0028 -0.0117 0.0001 -2.2803 0.0005 10.0374
#
#
#
# Elastic Compliance Matrix: (Units=1/GPa)
#
#
# Indices 1 2 3 4 5 6 
#
# 1 0.060092 0.005033 -0.026609 -0.000061 0.058519 0.000006
# 2 0.005033 0.016159 -0.002293 0.000027 0.005359 0.000026
# 3 -0.026609 -0.002293 0.016615 0.000026 -0.025035 -0.000003
# 4 -0.000061 0.000027 0.000026 0.353083 -0.000080 0.080212
# 5 0.058519 0.005359 -0.025035 -0.000080 0.110311 -0.000001
# 6 0.000006 0.000026 -0.000003 0.080212 -0.000001 0.117849
#
#
# Mechanical properties :
#
#
# Convention : Reuss Voigt Hill
#
# Bulk Modulus (GPa) = 22.15984 59.23192 40.69588
# Shear Modulus (GPa) = 6.78526 23.62636 15.20581
#
# Velocity S-wave (km/s) = 1.81131 3.37994 2.71153
# Velocity P-wave (km/s) = 3.88450 6.62361 5.42962
#
# Compressibility (1/GPa) = 0.04512668
#
# Stress axis : x y z
#
# Youngs Moduli (GPa) = 16.64102 61.88653 60.18677
#
# Poissons Ratio (x) = -0.31145 1.60152
# Poissons Ratio (y) = -0.08375 0.13802
# Poissons Ratio (z) = 0.44280 0.14191
#
# Static dielectric constant tensor:
#      x y z
#    x 1.701710 0.000000 0.010610 
#    y 0.000000 1.789770 -0.000010 
#    z 0.010610 -0.000010 1.744080 
# 
# From -- ./inp_files/320975.got.cif
#   From: 2010.05.17/outbox.cif.g08.bks.cpg/sg12_161_cif.got.tgz:320975.got - 2010.06.03 13:09:07.
