data_PCOD9177252
_publ_section_title
;
Structure prediction by ZEFSAII (Michael W. Deem and Ramdas Pophale) SiO2 
 PCOD9177252
Probable space group: C 2/M
;
_chemical_formula_sum "Si O2"
_cell_formula_units_Z 64
_cell_length_a 27.744522
_cell_length_b 8.835256
_cell_length_c 17.789009
_cell_angle_alpha 90.000000
_cell_angle_beta 100.355305
_cell_angle_gamma 90.000000
_cell_volume 4289.593161
_symmetry_space_group_name_H-M "C 2/M"
_symmetry_group_IT_number 12
_symmetry_cell_setting 'monoclinic'
loop_
_space_group_symop_operation_xyz
x,y,z
-x,y,-z
-x,-y,-z
x,-y,z
1/2+x,1/2+y,z
1/2-x,1/2+y,-z
1/2-x,1/2-y,-z
1/2+x,1/2-y,z
loop_
_atom_site_type_symbol
_atom_site_label
_atom_site_fract_x
_atom_site_fract_y
_atom_site_fract_z
Si Si1 0.537048 0.322387 0.908173
Si Si2 0.803290 0.816027 0.028779
Si Si3 0.871057 0.821644 0.179135
Si Si4 0.442042 0.674848 0.504801
Si Si5 0.033696 0.319154 0.337646
Si Si6 0.890285 0.818152 0.941720
Si Si7 0.926193 0.815536 0.336532
Si Si8 0.561432 0.820275 0.180680
O O1 0.522995 0.500000 0.910430
O O2 0.579964 0.311568 0.858045
O O3 0.490775 0.228348 0.868924
O O4 0.563148 0.274285 0.992874
O O5 0.827438 0.761662 0.114458
O O6 0.801772 0.000000 0.029793
O O7 0.750000 0.750000 0.000000
O O8 0.841558 0.772575 0.973465
O O9 0.886042 0.761193 0.265002
O O10 0.860793 0.000000 0.186564
O O11 0.500000 0.677585 0.500000
O O12 0.428879 0.500000 0.515376
O O13 0.437491 0.768927 0.579523
O O14 0.416841 0.728697 0.420577
O O15 0.027913 0.500000 0.335305
O O16 0.059517 0.271303 0.267281
O O17 0.979602 0.245233 0.327301
O O18 0.897831 0.752539 0.861445
O O19 0.890644 0.000000 0.939018
O O20 0.928730 0.000000 0.335564
O O21 0.566441 0.000000 0.179870
#
# Coordination Sequence:
#
# PCOD9177252 Si02
#       8
#     8   8   8   8   8   8   8   8
#     4   9  16  28  44  58  77 110 145 173 204 241
#     4   9  18  33  50  67  85 107 136 170 212 257
#     4   8  14  26  45  64  82 108 141 173 205 245
#     4   8  15  25  38  56  75 103 145 180 205 237
#     4  10  19  27  35  53  83 116 144 171 208 248
#     4   9  19  32  45  61  79 106 144 174 203 250
#     4   9  15  26  43  59  77 106 145 181 205 235
#     4  11  21  28  37  58  86 113 143 176 207 242
#
# _framework density 14.919829999999999
#
# number of rings (size 3 to 8) (size 9 to 14) (size 15 to 20)
#    0.000    2.875    1.250    3.375    0.000    6.250 
#    0.000    2.500    0.000    0.000    0.000    0.000 
#    0.000    1.000    0.000    2.250    0.000    3.500 
#
# Total GULP energy -178155.793844 kJ/mol
# GULP energy per Si atom -5567.368558 kJ/mol
# Density = 1.488587 g / cm^3
# Si number density = 14.919830 Si / 1000 Ang^3
#
#
#
# Elastic Constant Matrix: (Units=GPa)
#
#
# Indices 1 2 3 4 5 6 
#
# 1 52.3369 12.1332 50.7877 0.0000 7.8630 0.0000
# 2 12.1332 12.7149 29.0790 0.0000 -2.1944 0.0000
# 3 50.7877 29.0790 153.1060 0.0000 3.0701 0.0000
# 4 0.0000 0.0000 0.0000 18.2277 0.0000 -0.0123
# 5 7.8630 -2.1944 3.0701 0.0000 15.4283 0.0000
# 6 0.0000 0.0000 0.0000 -0.0123 0.0000 17.9121
#
#
#
# Elastic Compliance Matrix: (Units=1/GPa)
#
#
# Indices 1 2 3 4 5 6 
#
# 1 0.032930 -0.018332 -0.007081 0.000000 -0.017981 0.000000
# 2 -0.018332 0.159682 -0.024989 0.000000 0.037027 0.000000
# 3 -0.007081 -0.024989 0.013680 0.000000 -0.002668 0.000000
# 4 0.000000 0.000000 0.000000 0.054861 0.000000 0.000038
# 5 -0.017981 0.037027 -0.002668 0.000000 0.079777 0.000000
# 6 0.000000 0.000000 0.000000 0.000038 0.000000 0.055828
#
#
# Mechanical properties :
#
#
# Convention : Reuss Voigt Hill
#
# Bulk Modulus (GPa) = 9.47986 44.68418 27.08202
# Shear Modulus (GPa) = 9.38569 18.72416 14.05492
#
# Velocity S-wave (km/s) = 2.51086 3.54642 3.07258
# Velocity P-wave (km/s) = 3.84364 6.83988 5.54786
#
# Compressibility (1/GPa) = 0.10548678
#
# Stress axis : x y z
#
# Youngs Moduli (GPa) = 30.36777 6.26244 73.09960
#
# Poissons Ratio (x) = 0.11480 0.51762
# Poissons Ratio (y) = 0.55671 1.82672
# Poissons Ratio (z) = 0.21503 0.15649
#
# Static dielectric constant tensor:
#      x y z
#    x 1.463520 0.000000 0.004920 
#    y 0.000000 1.500410 0.000000 
#    z 0.004920 0.000000 1.547900 
# 
# From -- ./inp_files/291571.got.cif
#   From: 2010.05.17/outbox.cif.g08.bks.cpg/sg12_146_cif.got.tgz:291571.got - 2010.06.03 13:09:07.
