data_PCOD9177914
_publ_section_title
;
Structure prediction by ZEFSAII (Michael W. Deem and Ramdas Pophale) SiO2 
 PCOD9177914
Probable space group: C 2/M
;
_chemical_formula_sum "Si O2"
_cell_formula_units_Z 56
_cell_length_a 13.845096
_cell_length_b 7.402388
_cell_length_c 19.723522
_cell_angle_alpha 90.000000
_cell_angle_beta 90.410896
_cell_angle_gamma 90.000000
_cell_volume 2021.348132
_symmetry_space_group_name_H-M "C 2/M"
_symmetry_group_IT_number 12
_symmetry_cell_setting 'monoclinic'
loop_
_space_group_symop_operation_xyz
x,y,z
-x,y,-z
-x,-y,-z
x,-y,z
1/2+x,1/2+y,z
1/2-x,1/2+y,-z
1/2-x,1/2-y,-z
1/2+x,1/2-y,z
loop_
_atom_site_type_symbol
_atom_site_label
_atom_site_fract_x
_atom_site_fract_y
_atom_site_fract_z
Si Si1 0.471269 0.718253 0.575023
Si Si2 0.172914 0.706533 0.127306
Si Si3 0.110768 0.715925 0.989545
Si Si4 0.815801 0.278748 0.722890
Si Si5 0.949427 0.784364 0.151451
Si Si6 0.455524 0.707245 0.295122
Si Si7 0.255846 0.804657 0.580801
O O1 0.500000 0.759718 0.500000
O O2 0.458462 0.500000 0.580531
O O3 0.550918 0.780907 0.628980
O O4 0.371199 0.813162 0.586363
O O5 0.207929 0.500000 0.124375
O O6 0.208070 0.780610 0.200008
O O7 0.054884 0.703086 0.136174
O O8 0.176323 0.789990 0.051290
O O9 0.109872 0.500000 0.997744
O O10 0.124545 0.751420 0.909976
O O11 0.000000 0.783749 0.000000
O O12 0.816631 0.500000 0.723360
O O13 0.926443 0.211648 0.713096
O O14 0.747512 0.222611 0.658664
O O15 0.919027 0.713303 0.224984
O O16 0.963096 0.000000 0.156555
O O17 0.422392 0.500000 0.296063
O O18 0.250000 0.750000 0.500000
O O19 0.206671 0.000000 0.581356
#
# Coordination Sequence:
#
# PCOD9177914 Si02
#       7
#     8   8   8   8   8   8   8
#     4   9  17  30  47  64  83 109 141 176 213 251
#     4   8  13  21  30  40  58  85 118 153 186 221
#     4   8  13  19  26  37  56  84 116 149 183 219
#     4   8  14  24  37  51  67  93 128 161 193 231
#     4   9  14  18  26  41  62  87 116 150 184 222
#     4   8  14  23  34  50  71  95 124 158 196 235
#     4  10  19  30  45  64  86 111 140 174 210 250
#
# _framework density 27.704281000000002
#
# number of rings (size 3 to 8) (size 9 to 14) (size 15 to 20)
#    0.000    3.429    0.000    1.714    0.000    4.000 
#    0.000    0.000    0.000    0.000    0.000    0.000 
#    0.000    0.000    0.000    1.286    0.000   13.429 
#
# Total GULP energy -156088.680427 kJ/mol
# GULP energy per Si atom -5574.595730 kJ/mol
# Density = 2.764123 g / cm^3
# Si number density = 27.704281 Si / 1000 Ang^3
#
#
#
# Elastic Constant Matrix: (Units=GPa)
#
#
# Indices 1 2 3 4 5 6 
#
# 1 95.8525 6.6828 27.7563 0.0000 38.4927 0.0000
# 2 6.6828 106.6074 13.6201 0.0000 -0.4749 0.0000
# 3 27.7563 13.6201 365.4904 0.0000 28.4100 0.0000
# 4 0.0000 0.0000 0.0000 23.9595 0.0000 0.0936
# 5 38.4927 -0.4749 28.4100 0.0000 43.5502 0.0000
# 6 0.0000 0.0000 0.0000 0.0936 0.0000 12.0711
#
#
#
# Elastic Compliance Matrix: (Units=1/GPa)
#
#
# Indices 1 2 3 4 5 6 
#
# 1 0.016300 -0.001075 -0.000081 0.000000 -0.014366 0.000000
# 2 -0.001075 0.009501 -0.000373 0.000000 0.001298 0.000000
# 3 -0.000081 -0.000373 0.002898 0.000000 -0.001823 0.000000
# 4 0.000000 0.000000 0.000000 0.041738 0.000000 -0.000324
# 5 -0.014366 0.001298 -0.001823 0.000000 0.036863 0.000000
# 6 0.000000 0.000000 0.000000 -0.000324 0.000000 0.082845
#
#
# Mechanical properties :
#
#
# Convention : Reuss Voigt Hill
#
# Bulk Modulus (GPa) = 39.00206 73.78540 56.39373
# Shear Modulus (GPa) = 24.78290 50.57557 37.67923
#
# Velocity S-wave (km/s) = 2.99415 4.27728 3.69189
# Velocity P-wave (km/s) = 5.10508 7.14735 6.21073
#
# Compressibility (1/GPa) = 0.02563967
#
# Stress axis : x y z
#
# Youngs Moduli (GPa) = 61.34813 105.25099 345.08883
#
# Poissons Ratio (x) = 0.11319 0.02799
# Poissons Ratio (y) = 0.06598 0.12881
# Poissons Ratio (z) = 0.00498 0.03929
#
# Static dielectric constant tensor:
#      x y z
#    x 2.280220 0.000000 -0.145930 
#    y 0.000000 2.062650 0.000000 
#    z -0.145930 0.000000 2.400600 
# 
# From -- ./inp_files/287088.got.cif
#   From: 2010.05.17/outbox.cif.g08.bks.cpg/sg12_144_cif.got.tgz:287088.got - 2010.06.03 13:09:07.
