data_PCOD9177301
_publ_section_title
;
Structure prediction by ZEFSAII (Michael W. Deem and Ramdas Pophale) SiO2 
 PCOD9177301
Probable space group: C 2/M
;
_chemical_formula_sum "Si O2"
_cell_formula_units_Z 64
_cell_length_a 30.766553
_cell_length_b 7.757510
_cell_length_c 14.558831
_cell_angle_alpha 90.000000
_cell_angle_beta 93.982972
_cell_angle_gamma 90.000000
_cell_volume 3466.390507
_symmetry_space_group_name_H-M "C 2/M"
_symmetry_group_IT_number 12
_symmetry_cell_setting 'monoclinic'
loop_
_space_group_symop_operation_xyz
x,y,z
-x,y,-z
-x,-y,-z
x,-y,z
1/2+x,1/2+y,z
1/2-x,1/2+y,-z
1/2-x,1/2-y,-z
1/2+x,1/2-y,z
loop_
_atom_site_type_symbol
_atom_site_label
_atom_site_fract_x
_atom_site_fract_y
_atom_site_fract_z
Si Si1 0.450473 0.203119 0.994734
Si Si2 0.596324 0.800484 0.835826
Si Si3 0.379711 0.792077 0.611848
Si Si4 0.798699 0.707560 0.478529
Si Si5 0.561514 0.203090 0.537410
Si Si6 0.427456 0.295437 0.789869
Si Si7 0.647434 0.206026 0.678298
Si Si8 0.485122 0.296510 0.296356
O O1 0.429385 0.220344 0.891758
O O2 0.455237 0.000000 0.017663
O O3 0.500000 0.275526 0.000000
O O4 0.419917 0.278188 0.070639
O O5 0.634039 0.722205 0.776110
O O6 0.553425 0.795479 0.765097
O O7 0.608535 0.000000 0.854722
O O8 0.334963 0.732243 0.557746
O O9 0.420625 0.724512 0.556339
O O10 0.386950 0.744387 0.718171
O O11 0.380652 0.000000 0.604965
O O12 0.802428 0.500000 0.475988
O O13 0.750000 0.750000 0.500000
O O14 0.813405 0.772659 0.379587
O O15 0.604782 0.225328 0.607391
O O16 0.522892 0.271482 0.596153
O O17 0.553290 0.000000 0.524963
O O18 0.431042 0.500000 0.800049
O O19 0.469834 0.231685 0.739534
O O20 0.653613 0.000000 0.691186
O O21 0.481346 0.500000 0.277579
#
# Coordination Sequence:
#
# PCOD9177301 Si02
#       8
#     8   8   8   8   8   8   8   8
#     4  10  19  31  49  70  88 118 168 214 242 270
#     4   9  16  29  48  66  88 121 162 204 236 268
#     4   9  19  35  51  67  91 123 160 196 229 276
#     4   9  17  31  52  77 100 122 147 181 228 283
#     4   8  15  29  47  63  83 118 160 197 228 265
#     4  11  23  33  43  63  95 130 160 196 244 285
#     4   7  12  25  45  68  93 118 147 183 226 275
#     4  10  19  28  40  62  91 124 158 195 237 278
#
# _framework density 18.463009
#
# number of rings (size 3 to 8) (size 9 to 14) (size 15 to 20)
#    0.000    2.875    1.250    3.000    0.000    3.750 
#    0.000    7.500    0.000    0.000    0.000    0.875 
#    0.000    0.000    0.000    0.000    0.000    0.000 
#
# Total GULP energy -178249.218297 kJ/mol
# GULP energy per Si atom -5570.288072 kJ/mol
# Density = 1.842099 g / cm^3
# Si number density = 18.463009 Si / 1000 Ang^3
#
#
#
# Elastic Constant Matrix: (Units=GPa)
#
#
# Indices 1 2 3 4 5 6 
#
# 1 100.7212 -4.3445 58.7006 0.0000 -29.4736 0.0000
# 2 -4.3445 23.5648 -4.5783 0.0000 -5.5402 0.0000
# 3 58.7006 -4.5783 140.2154 0.0000 -30.4515 0.0000
# 4 0.0000 0.0000 0.0000 -174.7656 0.0000 -112.6325
# 5 -29.4736 -5.5402 -30.4515 0.0000 26.1225 0.0000
# 6 0.0000 0.0000 0.0000 -112.6325 0.0000 -51.6168
#
#
#
# Elastic Compliance Matrix: (Units=1/GPa)
#
#
# Indices 1 2 3 4 5 6 
#
# 1 0.017015 0.006437 -0.003277 0.000000 0.016743 0.000000
# 2 0.006437 0.049546 0.003726 0.000000 0.022113 0.000000
# 3 -0.003277 0.003726 0.010704 0.000000 0.009571 0.000000
# 4 0.000000 0.000000 0.000000 0.014083 0.000000 -0.030730
# 5 0.016743 0.022113 0.009571 0.000000 0.073019 0.000000
# 6 0.000000 0.000000 0.000000 -0.030730 0.000000 0.047682
#
#
# Mechanical properties :
#
#
# Convention : Reuss Voigt Hill
#
# Bulk Modulus (GPa) = 10.98471 40.45081 25.71776
# Shear Modulus (GPa) = 21.87004 -25.73709 -1.93352
#
# Velocity S-wave (km/s) = 3.44544 -3.73766 -1.02446
# Velocity P-wave (km/s) = 4.66804 1.82480 3.54404
#
# Compressibility (1/GPa) = 0.09103561
#
# Stress axis : x y z
#
# Youngs Moduli (GPa) = 58.77024 20.18341 93.42369
#
# Poissons Ratio (x) = -0.12992 0.30615
# Poissons Ratio (y) = -0.37829 -0.34805
# Poissons Ratio (z) = 0.19259 -0.07519
#
# Static dielectric constant tensor:
#      x y z
#    x 1.653890 0.000000 -0.039150 
#    y 0.000000 1.686220 0.000000 
#    z -0.039150 0.000000 1.680500 
# 
# From -- ./inp_files/244084.got.cif
#   From: 2010.05.17/outbox.cif.g08.bks.cpg/sg12_123_cif.got.tgz:244084.got - 2010.06.03 13:09:07.
