data_PCOD9177888
_publ_section_title
;
Structure prediction by ZEFSAII (Michael W. Deem and Ramdas Pophale) SiO2 
 PCOD9177888
Probable space group: C 2/M
;
_chemical_formula_sum "Si O2"
_cell_formula_units_Z 40
_cell_length_a 12.844375
_cell_length_b 18.187947
_cell_length_c 7.090776
_cell_angle_alpha 90.000000
_cell_angle_beta 69.812544
_cell_angle_gamma 90.000000
_cell_volume 1554.735240
_symmetry_space_group_name_H-M "C 2/M"
_symmetry_group_IT_number 12
_symmetry_cell_setting 'monoclinic'
loop_
_space_group_symop_operation_xyz
x,y,z
-x,y,-z
-x,-y,-z
x,-y,z
1/2+x,1/2+y,z
1/2-x,1/2+y,-z
1/2-x,1/2-y,-z
1/2+x,1/2-y,z
loop_
_atom_site_type_symbol
_atom_site_label
_atom_site_fract_x
_atom_site_fract_y
_atom_site_fract_z
Si Si1 0.439694 0.920174 0.334855
Si Si2 0.738023 0.634019 0.667006
Si Si3 0.614822 0.803210 0.124717
Si Si4 0.225795 0.918615 0.094083
Si Si5 0.010408 0.855454 0.196713
O O1 0.500000 0.924473 0.500000
O O2 0.312108 0.904185 0.462373
O O3 0.505897 0.853156 0.204943
O O4 0.457952 0.000000 0.234728
O O5 0.816265 0.695678 0.719236
O O6 0.725647 0.583043 0.862030
O O7 0.616987 0.656469 0.667338
O O8 0.693734 0.847987 0.930841
O O9 0.575067 0.721083 0.115730
O O10 0.262243 0.000000 0.125749
O O11 0.102422 0.902311 0.247777
O O12 0.000000 0.893376 0.000000
#
# Coordination Sequence:
#
# PCOD9177888 Si02
#       5
#     8   8   8   8   8
#     4   9  15  27  46  68  92 113 141 183 227 267
#     4   8  18  27  46  69  89 115 142 182 225 265
#     4   9  18  29  44  67  92 118 147 178 225 259
#     4   9  17  28  45  66  91 115 143 182 226 260
#     4  10  19  30  44  66  93 121 148 179 217 263
#
# _framework density 25.727853
#
# number of rings (size 3 to 8) (size 9 to 14) (size 15 to 20)
#    1.200    1.800    0.000    1.800    0.000    5.200 
#    0.000    0.000    0.000    2.400    0.000    0.000 
#    0.000    8.800    0.000    0.000    0.000    0.000 
#
# Total GULP energy -111443.342129 kJ/mol
# GULP energy per Si atom -5572.167106 kJ/mol
# Density = 2.566929 g / cm^3
# Si number density = 25.727853 Si / 1000 Ang^3
#
#
#
# Elastic Constant Matrix: (Units=GPa)
#
#
# Indices 1 2 3 4 5 6 
#
# 1 136.1744 37.2728 53.3029 0.0000 -43.2752 0.0000
# 2 37.2728 84.1948 6.3508 0.0000 -13.0768 0.0000
# 3 53.3029 6.3508 72.2419 0.0000 -21.1052 0.0000
# 4 0.0000 0.0000 0.0000 -16.1474 0.0000 18.7614
# 5 -43.2752 -13.0768 -21.1052 0.0000 59.3608 0.0000
# 6 0.0000 0.0000 0.0000 18.7614 0.0000 -14.8925
#
#
#
# Elastic Compliance Matrix: (Units=1/GPa)
#
#
# Indices 1 2 3 4 5 6 
#
# 1 0.013584 -0.004470 -0.007838 0.000000 0.006131 0.000000
# 2 -0.004470 0.013776 0.002256 0.000000 0.000578 0.000000
# 3 -0.007838 0.002256 0.019978 0.000000 0.001886 0.000000
# 4 0.000000 0.000000 0.000000 0.133548 0.000000 0.168243
# 5 0.006131 0.000578 0.001886 0.000000 0.022114 0.000000
# 6 0.000000 0.000000 0.000000 0.168243 0.000000 0.144802
#
#
# Mechanical properties :
#
#
# Convention : Reuss Voigt Hill
#
# Bulk Modulus (GPa) = 36.72006 54.05155 45.38580
# Shear Modulus (GPa) = 13.26315 18.70983 15.98649
#
# Velocity S-wave (km/s) = 2.27296 2.69963 2.49543
# Velocity P-wave (km/s) = 4.60347 5.54724 5.09725
#
# Compressibility (1/GPa) = 0.02723307
#
# Stress axis : x y z
#
# Youngs Moduli (GPa) = 73.61805 72.59176 50.05392
#
# Poissons Ratio (x) = 0.32448 0.39234
# Poissons Ratio (y) = 0.32907 -0.11292
# Poissons Ratio (z) = 0.57705 -0.16376
#
# Static dielectric constant tensor:
#      x y z
#    x 2.151710 0.000000 0.007910 
#    y 0.000000 1.961010 0.000000 
#    z 0.007910 0.000000 2.040730 
# 
# From -- ./inp_files/130877.got.cif
#   From: 2010.05.17/outbox.cif.g08.bks.cpg/sg12_66_cif.got.tgz:130877.got - 2010.06.03 13:09:07.
