data_PCOD9177608
_publ_section_title
;
Structure prediction by ZEFSAII (Michael W. Deem and Ramdas Pophale) SiO2 
 PCOD9177608
Probable space group: C 2/M
;
_chemical_formula_sum "Si O2"
_cell_formula_units_Z 64
_cell_length_a 24.620828
_cell_length_b 9.409863
_cell_length_c 18.702740
_cell_angle_alpha 90.000000
_cell_angle_beta 80.786202
_cell_angle_gamma 90.000000
_cell_volume 4277.119122
_symmetry_space_group_name_H-M "C 2/M"
_symmetry_group_IT_number 12
_symmetry_cell_setting 'monoclinic'
loop_
_space_group_symop_operation_xyz
x,y,z
-x,y,-z
-x,-y,-z
x,-y,z
1/2+x,1/2+y,z
1/2-x,1/2+y,-z
1/2-x,1/2-y,-z
1/2+x,1/2-y,z
loop_
_atom_site_type_symbol
_atom_site_label
_atom_site_fract_x
_atom_site_fract_y
_atom_site_fract_z
Si Si1 0.054818 0.169129 0.533527
Si Si2 0.008100 0.663676 0.163067
Si Si3 0.059265 0.835990 0.028390
Si Si4 0.956465 0.166428 0.297516
Si Si5 0.389649 0.836324 0.106380
Si Si6 0.726603 0.668606 0.610042
Si Si7 0.835444 0.331564 0.503067
Si Si8 0.160444 0.833835 0.758744
O O1 0.045261 0.205109 0.618956
O O2 0.106778 0.256895 0.494755
O O3 0.000000 0.196413 0.500000
O O4 0.066925 0.000000 0.527725
O O5 0.025017 0.500000 0.166663
O O6 0.048835 0.752713 0.104132
O O7 0.996457 0.738722 0.240892
O O8 0.948976 0.664847 0.134474
O O9 0.074651 0.000000 0.036117
O O10 0.100713 0.753783 0.967317
O O11 0.000000 0.836074 0.000000
O O12 0.895215 0.180518 0.277166
O O13 0.971640 0.000000 0.287896
O O14 0.347831 0.762314 0.170108
O O15 0.375895 0.000000 0.094573
O O16 0.713908 0.500000 0.602587
O O17 0.789814 0.690514 0.574475
O O18 0.690365 0.759078 0.562295
O O19 0.709741 0.703756 0.694487
O O20 0.841891 0.500000 0.490874
O O21 0.164521 0.000000 0.778300
#
# Coordination Sequence:
#
# PCOD9177608 Si02
#       8
#     8   8   8   8   8   8   8   8
#     4  10  20  34  49  62  82 114 147 180 220 265
#     4   9  16  24  35  51  72  98 128 168 209 240
#     4   9  15  23  34  48  68  99 136 165 194 237
#     4   9  16  27  41  56  74 101 138 174 206 249
#     4   9  16  23  32  50  76 101 130 166 203 240
#     4   9  17  30  45  62  85 113 141 174 215 261
#     4  10  19  29  45  66  86 107 138 180 222 259
#     4   9  15  25  40  55  76 106 138 170 203 245
#
# _framework density 14.963342000000001
#
# number of rings (size 3 to 8) (size 9 to 14) (size 15 to 20)
#    0.000    2.750    1.250    1.500    0.000    6.250 
#    0.000    0.000    0.000    0.000    0.000    0.000 
#    0.000    0.000    0.000    1.125    0.000   13.625 
#
# Total GULP energy -178248.406257 kJ/mol
# GULP energy per Si atom -5570.262696 kJ/mol
# Density = 1.492929 g / cm^3
# Si number density = 14.963342 Si / 1000 Ang^3
#
#
#
# Elastic Constant Matrix: (Units=GPa)
#
#
# Indices 1 2 3 4 5 6 
#
# 1 49.2201 41.0844 36.4205 0.0000 -16.1494 0.0000
# 2 41.0844 101.3539 69.8854 0.0000 -27.7970 0.0000
# 3 36.4205 69.8854 96.5062 0.0000 -37.5097 0.0000
# 4 0.0000 0.0000 0.0000 21.9021 0.0000 -7.6696
# 5 -16.1494 -27.7970 -37.5097 0.0000 22.2612 0.0000
# 6 0.0000 0.0000 0.0000 -7.6696 0.0000 15.4418
#
#
#
# Elastic Compliance Matrix: (Units=1/GPa)
#
#
# Indices 1 2 3 4 5 6 
#
# 1 0.032484 -0.009321 -0.002532 0.000000 0.007661 0.000000
# 2 -0.009321 0.022401 -0.012926 0.000000 -0.000570 0.000000
# 3 -0.002532 -0.012926 0.039673 0.000000 0.048872 0.000000
# 4 0.000000 0.000000 0.000000 0.055271 0.000000 0.027452
# 5 0.007661 -0.000570 0.048872 0.000000 0.132115 0.000000
# 6 0.000000 0.000000 0.000000 0.027452 0.000000 0.078394
#
#
# Mechanical properties :
#
#
# Convention : Reuss Voigt Hill
#
# Bulk Modulus (GPa) = 22.22159 60.20675 41.21417
# Shear Modulus (GPa) = 11.76762 18.56699 15.16730
#
# Velocity S-wave (km/s) = 2.80738 3.52637 3.18721
# Velocity P-wave (km/s) = 5.03899 7.54346 6.41464
#
# Compressibility (1/GPa) = 0.04500129
#
# Stress axis : x y z
#
# Youngs Moduli (GPa) = 30.78429 44.64123 25.20613
#
# Poissons Ratio (x) = 0.41609 0.06382
# Poissons Ratio (y) = 0.28694 0.32580
# Poissons Ratio (z) = 0.07794 0.57701
#
# Static dielectric constant tensor:
#      x y z
#    x 1.467900 0.000000 -0.024290 
#    y 0.000000 1.502030 0.000000 
#    z -0.024290 0.000000 1.493380 
# 
# From -- ./inp_files/287513.got.cif
#   From: 2010.05.17/outbox.cif.g08.bks.cpg/sg12_144_cif.got.tgz:287513.got - 2010.06.03 13:09:07.
