data_PCOD9177016
_publ_section_title
;
Structure prediction by ZEFSAII (Michael W. Deem and Ramdas Pophale) SiO2 
 PCOD9177016
Probable space group: C 2/M
;
_chemical_formula_sum "Si O2"
_cell_formula_units_Z 56
_cell_length_a 24.697841
_cell_length_b 17.877877
_cell_length_c 20.460255
_cell_angle_alpha 90.000000
_cell_angle_beta 21.409251
_cell_angle_gamma 90.000000
_cell_volume 3297.699629
_symmetry_space_group_name_H-M "C 2/M"
_symmetry_group_IT_number 12
_symmetry_cell_setting 'monoclinic'
loop_
_space_group_symop_operation_xyz
x,y,z
-x,y,-z
-x,-y,-z
x,-y,z
1/2+x,1/2+y,z
1/2-x,1/2+y,-z
1/2-x,1/2-y,-z
1/2+x,1/2-y,z
loop_
_atom_site_type_symbol
_atom_site_label
_atom_site_fract_x
_atom_site_fract_y
_atom_site_fract_z
Si Si1 0.569681 0.083783 0.765115
Si Si2 0.703441 0.165501 0.972319
Si Si3 0.689680 0.772421 0.495007
Si Si4 0.323206 0.588278 0.706831
Si Si5 0.334922 0.586386 0.373763
Si Si6 0.861509 0.677584 0.193105
Si Si7 0.911445 0.186506 0.854081
O O1 0.737018 0.085506 0.550416
O O2 0.565699 0.114813 0.842180
O O3 0.515236 0.000000 0.822826
O O4 0.462638 0.132880 0.840830
O O5 0.777629 0.127639 0.826078
O O6 0.799144 0.149224 0.929195
O O7 0.678303 0.255120 0.999744
O O8 0.750000 0.750000 0.500000
O O9 0.735410 0.859761 0.439432
O O10 0.776802 0.730946 0.339038
O O11 0.524067 0.738721 0.684348
O O12 0.500000 0.591362 0.500000
O O13 0.280498 0.500000 0.753230
O O14 0.246777 0.635986 0.735236
O O15 0.351608 0.500000 0.334207
O O16 0.488412 0.628231 0.218246
O O17 0.000000 0.714753 0.000000
#
# Coordination Sequence:
#
# PCOD9177016 Si02
#       7
#     8   8   8   8   8   8   8
#     4  11  20  33  52  80 114 147 180 220 269 325
#     4  11  21  35  53  79 110 153 188 227 260 316
#     4  10  18  37  56  78 108 142 183 229 270 328
#     4  11  25  38  50  79 122 154 179 215 273 342
#     4  10  20  34  59  83 106 140 182 232 283 327
#     4  12  22  34  56  82 108 152 187 219 269 330
#     4  10  20  35  57  78 108 146 193 230 272 317
#
# _framework density 16.981534
#
# number of rings (size 3 to 8) (size 9 to 14) (size 15 to 20)
#    0.000    1.286    5.714    2.571    0.000    1.714 
#    0.000    0.000    0.000    0.429    0.000    0.000 
#    0.000    2.286    0.000    0.000    0.000    0.000 
#
# Total GULP energy -156005.920000 kJ/mol
# GULP energy per Si atom -5571.640000 kJ/mol
# Density = 1.694288 g / cm^3
# Si number density = 16.981534 Si / 1000 Ang^3
#
#
#
# Elastic Constant Matrix: (Units=GPa)
#
#
# Indices 1 2 3 4 5 6 
#
# 1 57.3103 37.9101 20.0600 -0.0033 -0.0484 0.0011
# 2 37.9101 103.2299 16.2770 -0.0051 7.0492 0.0031
# 3 20.0600 16.2770 65.0039 -0.0077 5.8193 0.0050
# 4 -0.0033 -0.0051 -0.0077 28.9203 0.0031 3.2177
# 5 -0.0484 7.0492 5.8193 0.0031 33.7860 -0.0016
# 6 0.0011 0.0031 0.0050 3.2177 -0.0016 12.8711
#
#
#
# Elastic Compliance Matrix: (Units=1/GPa)
#
#
# Indices 1 2 3 4 5 6 
#
# 1 0.025128 -0.008493 -0.005880 -0.000001 0.002821 0.000003
# 2 -0.008493 0.013053 -0.000409 0.000002 -0.002665 -0.000003
# 3 -0.005880 -0.000409 0.017565 0.000005 -0.002948 -0.000008
# 4 -0.000001 0.000002 0.000005 0.035567 -0.000005 -0.008891
# 5 0.002821 -0.002665 -0.002948 -0.000005 0.030666 0.000006
# 6 0.000003 -0.000003 -0.000008 -0.008891 0.000006 0.079916
#
#
# Mechanical properties :
#
#
# Convention : Reuss Voigt Hill
#
# Bulk Modulus (GPa) = 38.19646 41.55981 39.87813
# Shear Modulus (GPa) = 20.81724 25.20195 23.00959
#
# Velocity S-wave (km/s) = 3.50505 3.85655 3.68500
# Velocity P-wave (km/s) = 6.23877 6.66013 6.45289
#
# Compressibility (1/GPa) = 0.02618044
#
# Stress axis : x y z
#
# Youngs Moduli (GPa) = 39.79676 76.61277 56.93270
#
# Poissons Ratio (x) = 0.65070 0.33477
# Poissons Ratio (y) = 0.33801 0.02327
# Poissons Ratio (z) = 0.23401 0.03132
#
# Static dielectric constant tensor:
#      x y z
#    x 1.554520 0.000000 -0.007650 
#    y 0.000000 1.615870 0.000000 
#    z -0.007650 0.000000 1.628250 
# 
# From -- ./inp_files/325972.got.cif
#   From: 2010.05.17/outbox.cif.g08.bks.cpg/sg12_163_cif.got.tgz:325972.got - 2010.06.03 13:09:07.
