data_PCOD9177572
_publ_section_title
;
Structure prediction by ZEFSAII (Michael W. Deem and Ramdas Pophale) SiO2 
 PCOD9177572
Probable space group: C 2/M
;
_chemical_formula_sum "Si O2"
_cell_formula_units_Z 64
_cell_length_a 30.427058
_cell_length_b 7.682884
_cell_length_c 16.064442
_cell_angle_alpha 90.000000
_cell_angle_beta 118.763852
_cell_angle_gamma 90.000000
_cell_volume 3291.974968
_symmetry_space_group_name_H-M "C 2/M"
_symmetry_group_IT_number 12
_symmetry_cell_setting 'monoclinic'
loop_
_space_group_symop_operation_xyz
x,y,z
-x,y,-z
-x,-y,-z
x,-y,z
1/2+x,1/2+y,z
1/2-x,1/2+y,-z
1/2-x,1/2-y,-z
1/2+x,1/2-y,z
loop_
_atom_site_type_symbol
_atom_site_label
_atom_site_fract_x
_atom_site_fract_y
_atom_site_fract_z
Si Si1 0.887658 0.711487 0.349675
Si Si2 0.346623 0.289797 0.568165
Si Si3 0.553144 0.293651 0.431156
Si Si4 0.322171 0.286052 0.732985
Si Si5 0.211003 0.706483 0.650233
Si Si6 0.548929 0.799857 0.739700
Si Si7 0.489960 0.799414 0.123074
Si Si8 0.921848 0.798584 0.910629
O O1 0.886671 0.500000 0.346418
O O2 0.926634 0.761695 0.457731
O O3 0.833290 0.775746 0.330911
O O4 0.907656 0.776300 0.279142
O O5 0.346999 0.500000 0.568126
O O6 0.401865 0.232771 0.588607
O O7 0.332417 0.230844 0.647234
O O8 0.307912 0.232709 0.461617
O O9 0.545989 0.500000 0.413212
O O10 0.501338 0.204107 0.361540
O O11 0.322652 0.500000 0.733230
O O12 0.267253 0.225580 0.710702
O O13 0.368215 0.229837 0.832692
O O14 0.213343 0.500000 0.667244
O O15 0.533103 0.721079 0.813836
O O16 0.563295 0.000000 0.770523
O O17 0.539608 0.710452 0.131929
O O18 0.503805 0.000000 0.152115
O O19 0.449133 0.793495 0.012123
O O20 0.916634 0.000000 0.929972
#
# Coordination Sequence:
#
# PCOD9177572 Si02
#       8
#     8   8   8   8   8   8   8   8
#     4   9  18  32  47  64  90 124 158 190 224 263
#     4   9  17  29  43  64  96 124 147 180 223 267
#     4  10  19  29  44  68  96 124 153 188 228 269
#     4   9  17  29  47  69  91 118 151 185 221 267
#     4   9  17  30  47  66  89 119 156 190 218 256
#     4  10  20  32  47  66  90 122 156 189 226 268
#     4  10  20  34  50  70  95 119 148 186 226 271
#     4  10  19  33  52  72  95 120 145 179 229 280
#
# _framework density 19.441217000000002
#
# number of rings (size 3 to 8) (size 9 to 14) (size 15 to 20)
#    0.000    2.500    0.000    3.375    0.000    4.500 
#    0.000    2.500    0.000    0.750    0.000    0.000 
#    0.000    0.000    0.000    0.000    0.000    1.000 
#
# Total GULP energy -178581.594251 kJ/mol
# GULP energy per Si atom -5580.674820 kJ/mol
# Density = 1.939697 g / cm^3
# Si number density = 19.441217 Si / 1000 Ang^3
#
#
#
# Elastic Constant Matrix: (Units=GPa)
#
#
# Indices 1 2 3 4 5 6 
#
# 1 108.9675 -3.6132 59.1692 0.0000 -0.4527 0.0000
# 2 -3.6132 38.6557 -5.4840 0.0000 -1.3624 0.0000
# 3 59.1692 -5.4840 49.1622 0.0000 1.8356 0.0000
# 4 0.0000 0.0000 0.0000 -61.8899 0.0000 -6.9135
# 5 -0.4527 -1.3624 1.8356 0.0000 35.6283 0.0000
# 6 0.0000 0.0000 0.0000 -6.9135 0.0000 9.9064
#
#
#
# Elastic Compliance Matrix: (Units=1/GPa)
#
#
# Indices 1 2 3 4 5 6 
#
# 1 0.026785 -0.002044 -0.032538 0.000000 0.001939 0.000000
# 2 -0.002044 0.026467 0.005386 0.000000 0.000709 0.000000
# 3 -0.032538 0.005386 0.060226 0.000000 -0.003310 0.000000
# 4 0.000000 0.000000 0.000000 -0.014989 0.000000 -0.010461
# 5 0.001939 0.000709 -0.003310 0.000000 0.028290 0.000000
# 6 0.000000 0.000000 0.000000 -0.010461 0.000000 0.093645
#
#
# Mechanical properties :
#
#
# Convention : Reuss Voigt Hill
#
# Bulk Modulus (GPa) = 18.15299 32.99216 25.57257
# Shear Modulus (GPa) = 16.82487 6.50986 11.66736
#
# Velocity S-wave (km/s) = 2.94500 1.83187 2.45242
# Velocity P-wave (km/s) = 4.57402 4.63480 4.60451
#
# Compressibility (1/GPa) = 0.05508734
#
# Stress axis : x y z
#
# Youngs Moduli (GPa) = 37.33375 37.78223 16.60402
#
# Poissons Ratio (x) = 0.07723 0.54026
# Poissons Ratio (y) = 0.07631 -0.08943
# Poissons Ratio (z) = 1.21477 -0.20350
#
# Static dielectric constant tensor:
#      x y z
#    x 1.713620 0.000000 -0.016500 
#    y 0.000000 1.713600 0.000000 
#    z -0.016500 0.000000 1.651340 
# 
# From -- ./inp_files/249175.got.cif
#   From: 2010.05.17/outbox.cif.g08.bks.cpg/sg12_125_cif.got.tgz:249175.got - 2010.06.03 13:09:07.
