data_PCOD9177210
_publ_section_title
;
Structure prediction by ZEFSAII (Michael W. Deem and Ramdas Pophale) SiO2 
 PCOD9177210
Probable space group: C 2/M
;
_chemical_formula_sum "Si O2"
_cell_formula_units_Z 40
_cell_length_a 11.357179
_cell_length_b 28.935589
_cell_length_c 12.144273
_cell_angle_alpha 90.000000
_cell_angle_beta 151.384175
_cell_angle_gamma 90.000000
_cell_volume 1911.394333
_symmetry_space_group_name_H-M "C 2/M"
_symmetry_group_IT_number 12
_symmetry_cell_setting 'monoclinic'
loop_
_space_group_symop_operation_xyz
x,y,z
-x,y,-z
-x,-y,-z
x,-y,z
1/2+x,1/2+y,z
1/2-x,1/2+y,-z
1/2-x,1/2-y,-z
1/2+x,1/2-y,z
loop_
_atom_site_type_symbol
_atom_site_label
_atom_site_fract_x
_atom_site_fract_y
_atom_site_fract_z
Si Si1 0.722045 0.806540 0.098087
Si Si2 0.201550 0.000000 0.768983
Si Si3 0.288665 0.871600 0.417434
Si Si4 0.986635 0.097581 0.355503
Si Si5 0.045108 0.714270 0.707923
Si Si6 0.500000 0.342149 0.000000
O O1 0.828570 0.857820 0.191621
O O2 0.935265 0.768571 0.297671
O O3 0.500000 0.801495 0.000000
O O4 0.602874 0.794641 0.882678
O O5 0.136639 0.048517 0.772843
O O6 0.000000 0.000000 0.500000
O O7 0.500000 0.000000 0.000000
O O8 0.500000 0.884610 0.500000
O O9 0.327826 0.818138 0.486698
O O10 0.238681 0.898376 0.490292
O O11 0.044915 0.872935 0.143485
O O12 0.000000 0.100508 0.500000
O O13 0.272598 0.690864 0.832388
#
# Coordination Sequence:
#
# PCOD9177210 Si02
#       6
#     8   4   8   8   8   4
#     4  11  21  35  57  91 127 167 220 273 321 397
#     4  10  24  48  73 101 138 178 219 285 365 409
#     4  10  22  38  63  90 127 175 212 261 326 401
#     4  11  23  41  67 100 126 170 225 284 339 400
#     4  10  21  35  56  85 131 169 210 256 328 388
#     4  10  18  40  52  81 124 169 204 242 322 380
#
# _framework density 20.927132
#
# number of rings (size 3 to 8) (size 9 to 14) (size 15 to 20)
#    0.000    1.600    3.000    1.800    0.000    4.800 
#    0.000    0.500    0.000    0.600    0.000    0.000 
#    0.000    0.000    0.000    0.000    0.000    0.000 
#
# Total GULP energy -111433.292261 kJ/mol
# GULP energy per Si atom -5571.664613 kJ/mol
# Density = 2.087950 g / cm^3
# Si number density = 20.927132 Si / 1000 Ang^3
#
#
#
# Elastic Constant Matrix: (Units=GPa)
#
#
# Indices 1 2 3 4 5 6 
#
# 1 167.9992 50.2349 24.7032 0.0000 -5.8320 0.0000
# 2 50.2349 138.8203 22.5070 0.0000 6.8608 0.0000
# 3 24.7032 22.5070 52.8375 0.0000 -6.9511 0.0000
# 4 0.0000 0.0000 0.0000 31.8419 0.0000 16.2590
# 5 -5.8320 6.8608 -6.9511 0.0000 31.8745 0.0000
# 6 0.0000 0.0000 0.0000 16.2590 0.0000 35.1125
#
#
#
# Elastic Compliance Matrix: (Units=1/GPa)
#
#
# Indices 1 2 3 4 5 6 
#
# 1 0.006983 -0.002244 -0.002138 0.000000 0.001294 0.000000
# 2 -0.002244 0.008650 -0.003021 0.000000 -0.002931 0.000000
# 3 -0.002138 -0.003021 0.021874 0.000000 0.005029 0.000000
# 4 0.000000 0.000000 0.000000 0.041130 0.000000 -0.019045
# 5 0.001294 -0.002931 0.005029 0.000000 0.033338 0.000000
# 6 0.000000 0.000000 0.000000 -0.019045 0.000000 0.037299
#
#
# Mechanical properties :
#
#
# Convention : Reuss Voigt Hill
#
# Bulk Modulus (GPa) = 44.05314 61.61637 52.83476
# Shear Modulus (GPa) = 29.12931 37.24659 33.18795
#
# Velocity S-wave (km/s) = 3.73492 4.22337 3.98663
# Velocity P-wave (km/s) = 6.30047 7.29998 6.81856
#
# Compressibility (1/GPa) = 0.02269986
#
# Stress axis : x y z
#
# Youngs Moduli (GPa) = 143.20847 115.60234 45.71569
#
# Poissons Ratio (x) = 0.25943 0.09776
# Poissons Ratio (y) = 0.32138 0.13812
# Poissons Ratio (z) = 0.30625 0.34926
#
# Static dielectric constant tensor:
#      x y z
#    x 1.835560 0.000000 0.004560 
#    y 0.000000 1.733170 0.000000 
#    z 0.004560 0.000000 1.870880 
# 
# From -- ./inp_files/137673.got.cif
#   From: 2010.05.17/outbox.cif.g08.bks.cpg/sg12_69_cif.got.tgz:137673.got - 2010.06.03 13:09:07.
