data_PCOD9177604
_publ_section_title
;
Structure prediction by ZEFSAII (Michael W. Deem and Ramdas Pophale) SiO2 
 PCOD9177604
Probable space group: C 2/M
;
_chemical_formula_sum "Si O2"
_cell_formula_units_Z 56
_cell_length_a 25.080514
_cell_length_b 7.255842
_cell_length_c 14.354837
_cell_angle_alpha 90.000000
_cell_angle_beta 125.574618
_cell_angle_gamma 90.000000
_cell_volume 2124.733952
_symmetry_space_group_name_H-M "C 2/M"
_symmetry_group_IT_number 12
_symmetry_cell_setting 'monoclinic'
loop_
_space_group_symop_operation_xyz
x,y,z
-x,y,-z
-x,-y,-z
x,-y,z
1/2+x,1/2+y,z
1/2-x,1/2+y,-z
1/2-x,1/2-y,-z
1/2+x,1/2-y,z
loop_
_atom_site_type_symbol
_atom_site_label
_atom_site_fract_x
_atom_site_fract_y
_atom_site_fract_z
Si Si1 0.311989 0.707653 0.945958
Si Si2 0.237459 0.723766 0.687030
Si Si3 0.075007 0.722302 0.073423
Si Si4 0.407560 0.288152 0.412077
Si Si5 0.460654 0.274806 0.653272
Si Si6 0.155251 0.792072 0.338984
Si Si7 0.395066 0.274760 0.189998
O O1 0.288096 0.500000 0.935943
O O2 0.332441 0.789850 0.066441
O O3 0.268232 0.789068 0.817654
O O4 0.384032 0.704980 0.971644
O O5 0.242270 0.500000 0.691891
O O6 0.162921 0.781511 0.609691
O O7 0.278092 0.787946 0.637519
O O8 0.079135 0.500000 0.077161
O O9 0.110977 0.795606 0.200953
O O10 0.000000 0.776906 0.000000
O O11 0.426244 0.500000 0.414576
O O12 0.456627 0.216197 0.540980
O O13 0.394394 0.210702 0.296370
O O14 0.458588 0.500000 0.653443
O O15 0.395582 0.206707 0.639595
O O16 0.531082 0.222089 0.767353
O O17 0.169594 0.000000 0.384738
O O18 0.391182 0.500000 0.183876
#
# Coordination Sequence:
#
# PCOD9177604 Si02
#       7
#     8   8   8   8   8   8   8
#     4   9  18  33  53  73  96 132 174 209 244 295
#     4   9  19  34  49  71 102 133 170 211 249 295
#     4  10  19  29  44  72 107 134 159 202 258 306
#     4  10  20  33  52  77 103 133 169 209 253 300
#     4   9  17  31  53  79 102 127 167 216 256 292
#     4   9  18  33  53  73  96 132 174 209 244 295
#     4   9  17  31  53  79 102 127 167 216 256 292
#
# _framework density 26.356241000000001
#
# number of rings (size 3 to 8) (size 9 to 14) (size 15 to 20)
#    0.000    2.714    0.000    2.571    0.000    7.429 
#    0.000    1.429    0.000    3.429    0.000    0.000 
#    0.000    0.000    0.000    0.000    0.000    0.000 
#
# Total GULP energy -156437.983669 kJ/mol
# GULP energy per Si atom -5587.070845 kJ/mol
# Density = 2.629625 g / cm^3
# Si number density = 26.356241 Si / 1000 Ang^3
#
#
#
# Elastic Constant Matrix: (Units=GPa)
#
#
# Indices 1 2 3 4 5 6 
#
# 1 96.9514 2.8119 9.3450 0.0000 3.5942 0.0000
# 2 2.8119 134.8272 6.0095 0.0000 -0.3909 0.0000
# 3 9.3450 6.0095 133.1889 0.0000 -8.0501 0.0000
# 4 0.0000 0.0000 0.0000 32.6545 0.0000 -33.2344
# 5 3.5942 -0.3909 -8.0501 0.0000 45.6119 0.0000
# 6 0.0000 0.0000 0.0000 -33.2344 0.0000 45.8678
#
#
#
# Elastic Compliance Matrix: (Units=1/GPa)
#
#
# Indices 1 2 3 4 5 6 
#
# 1 0.010431 -0.000185 -0.000782 0.000000 -0.000961 0.000000
# 2 -0.000185 0.007435 -0.000321 0.000000 0.000022 0.000000
# 3 -0.000782 -0.000321 0.007663 0.000000 0.001411 0.000000
# 4 0.000000 0.000000 0.000000 0.116634 0.000000 0.084509
# 5 -0.000961 0.000022 0.001411 0.000000 0.022249 0.000000
# 6 0.000000 0.000000 0.000000 0.084509 0.000000 0.083035
#
#
# Mechanical properties :
#
#
# Convention : Reuss Voigt Hill
#
# Bulk Modulus (GPa) = 43.56876 44.58891 44.07884
# Shear Modulus (GPa) = 19.40440 47.94691 33.67565
#
# Velocity S-wave (km/s) = 2.71631 4.26982 3.57839
# Velocity P-wave (km/s) = 5.13852 6.42363 5.81667
#
# Compressibility (1/GPa) = 0.02295222
#
# Stress axis : x y z
#
# Youngs Moduli (GPa) = 95.86988 134.49633 130.50130
#
# Poissons Ratio (x) = 0.02495 0.10200
# Poissons Ratio (y) = 0.01778 0.04191
# Poissons Ratio (z) = 0.07493 0.04319
#
# Static dielectric constant tensor:
#      x y z
#    x 2.140890 0.000000 -0.055450 
#    y 0.000000 1.991480 0.000000 
#    z -0.055450 0.000000 2.036500 
# 
# From -- ./inp_files/238264.got.cif
#   From: 2010.05.17/outbox.cif.g08.bks.cpg/sg12_120_cif.got.tgz:238264.got - 2010.06.03 13:09:07.
