data_PCOD9177398
_publ_section_title
;
Structure prediction by ZEFSAII (Michael W. Deem and Ramdas Pophale) SiO2 
 PCOD9177398
Probable space group: C 2/M
;
_chemical_formula_sum "Si O2"
_cell_formula_units_Z 56
_cell_length_a 27.693169
_cell_length_b 7.721900
_cell_length_c 15.121287
_cell_angle_alpha 90.000000
_cell_angle_beta 101.226691
_cell_angle_gamma 90.000000
_cell_volume 3171.718469
_symmetry_space_group_name_H-M "C 2/M"
_symmetry_group_IT_number 12
_symmetry_cell_setting 'monoclinic'
loop_
_space_group_symop_operation_xyz
x,y,z
-x,y,-z
-x,-y,-z
x,-y,z
1/2+x,1/2+y,z
1/2-x,1/2+y,-z
1/2-x,1/2-y,-z
1/2+x,1/2-y,z
loop_
_atom_site_type_symbol
_atom_site_label
_atom_site_fract_x
_atom_site_fract_y
_atom_site_fract_z
Si Si1 0.123112 0.705117 0.215006
Si Si2 0.555473 0.787572 0.037869
Si Si3 0.642631 0.787742 0.938655
Si Si4 0.681358 0.801900 0.773602
Si Si5 0.182944 0.296213 0.393848
Si Si6 0.284992 0.204840 0.886349
Si Si7 0.793505 0.201494 0.410397
O O1 0.112353 0.500000 0.221526
O O2 0.140189 0.777178 0.315819
O O3 0.171667 0.721197 0.170757
O O4 0.078553 0.774354 0.139293
O O5 0.593886 0.736459 0.974611
O O6 0.555853 0.000000 0.039127
O O7 0.500000 0.731434 0.000000
O O8 0.647481 0.727316 0.839771
O O9 0.643973 0.000000 0.938773
O O10 0.690072 0.733030 0.013773
O O11 0.736133 0.795169 0.835003
O O12 0.683890 0.718173 0.678411
O O13 0.666931 0.000000 0.753816
O O14 0.185364 0.500000 0.372303
O O15 0.177102 0.280116 0.496797
O O16 0.237583 0.224086 0.390892
O O17 0.273884 0.000000 0.889678
O O18 0.789202 0.000000 0.430698
#
# Coordination Sequence:
#
# PCOD9177398 Si02
#       7
#     8   8   8   8   8   8   8
#     4   8  13  23  40  60  83 110 137 167 209 248
#     4   8  13  23  41  64  87 110 136 167 206 256
#     4   8  16  26  38  57  84 113 140 171 209 247
#     4  11  19  26  37  58  86 116 144 172 204 241
#     4   9  16  28  42  58  81 111 141 174 212 245
#     4   9  15  27  41  55  81 116 145 170 200 241
#     4  10  19  29  41  57  80 114 147 177 206 242
#
# _framework density 17.656044999999999
#
# number of rings (size 3 to 8) (size 9 to 14) (size 15 to 20)
#    0.000    3.000    1.429    3.000    0.000    0.571 
#    0.000    0.714    0.000    0.000    0.000    1.000 
#    0.000   36.000    0.000    0.000    0.000    0.000 
#
# Total GULP energy -155961.795133 kJ/mol
# GULP energy per Si atom -5570.064112 kJ/mol
# Density = 1.761586 g / cm^3
# Si number density = 17.656045 Si / 1000 Ang^3
#
#
#
# Elastic Constant Matrix: (Units=GPa)
#
#
# Indices 1 2 3 4 5 6 
#
# 1 63.6458 0.7704 56.3302 0.0000 12.5758 0.0000
# 2 0.7704 25.0866 3.9671 0.0000 2.3411 0.0000
# 3 56.3302 3.9671 158.0585 0.0000 3.5996 0.0000
# 4 0.0000 0.0000 0.0000 13.2429 0.0000 0.6164
# 5 12.5758 2.3411 3.5996 0.0000 22.8306 0.0000
# 6 0.0000 0.0000 0.0000 0.6164 0.0000 5.6426
#
#
#
# Elastic Compliance Matrix: (Units=1/GPa)
#
#
# Indices 1 2 3 4 5 6 
#
# 1 0.026428 0.001879 -0.009163 0.000000 -0.013305 0.000000
# 2 0.001879 0.040514 -0.001574 0.000000 -0.004941 0.000000
# 3 -0.009163 -0.001574 0.009547 0.000000 0.003703 0.000000
# 4 0.000000 0.000000 0.000000 0.075898 0.000000 -0.008291
# 5 -0.013305 -0.004941 0.003703 0.000000 0.051053 0.000000
# 6 0.000000 0.000000 0.000000 -0.008291 0.000000 0.178130
#
#
# Mechanical properties :
#
#
# Convention : Reuss Voigt Hill
#
# Bulk Modulus (GPa) = 17.01433 40.99180 29.00306
# Shear Modulus (GPa) = 11.93669 20.72477 16.33073
#
# Velocity S-wave (km/s) = 2.60295 3.42980 3.04458
# Velocity P-wave (km/s) = 4.32334 6.24115 5.36858
#
# Compressibility (1/GPa) = 0.05877400
#
# Stress axis : x y z
#
# Youngs Moduli (GPa) = 37.83910 24.68270 104.74054
#
# Poissons Ratio (x) = -0.04638 0.95970
# Poissons Ratio (y) = -0.07110 0.16486
# Poissons Ratio (z) = 0.34671 0.03885
#
# Static dielectric constant tensor:
#      x y z
#    x 1.579900 0.000000 -0.004820 
#    y 0.000000 1.656070 0.000000 
#    z -0.004820 0.000000 1.645650 
# 
# From -- ./inp_files/243017.got.cif
#   From: 2010.05.17/outbox.cif.g08.bks.cpg/sg12_122_cif.got.tgz:243017.got - 2010.06.03 13:09:07.
