data_PCOD9177530
_publ_section_title
;
Structure prediction by ZEFSAII (Michael W. Deem and Ramdas Pophale) SiO2 
 PCOD9177530
Probable space group: C 2/M
;
_chemical_formula_sum "Si O2"
_cell_formula_units_Z 48
_cell_length_a 33.676899
_cell_length_b 7.467628
_cell_length_c 6.995931
_cell_angle_alpha 90.000000
_cell_angle_beta 94.283193
_cell_angle_gamma 90.000000
_cell_volume 1754.468772
_symmetry_space_group_name_H-M "C 2/M"
_symmetry_group_IT_number 12
_symmetry_cell_setting 'monoclinic'
loop_
_space_group_symop_operation_xyz
x,y,z
-x,y,-z
-x,-y,-z
x,-y,z
1/2+x,1/2+y,z
1/2-x,1/2+y,-z
1/2-x,1/2-y,-z
1/2+x,1/2-y,z
loop_
_atom_site_type_symbol
_atom_site_label
_atom_site_fract_x
_atom_site_fract_y
_atom_site_fract_z
Si Si1 0.969098 0.785955 0.251840
Si Si2 0.446426 0.719114 0.803693
Si Si3 0.778078 0.798105 0.805336
Si Si4 0.298901 0.217645 0.387186
Si Si5 0.884642 0.288677 0.288281
Si Si6 0.636478 0.296149 0.138074
O O1 0.930294 0.742330 0.363936
O O2 0.014370 0.720762 0.298361
O O3 0.972080 0.000000 0.259011
O O4 0.957882 0.734517 0.028706
O O5 0.444115 0.500000 0.791214
O O6 0.400871 0.785022 0.758793
O O7 0.732184 0.730341 0.794088
O O8 0.784430 0.802063 0.578030
O O9 0.820161 0.706134 0.869872
O O10 0.777605 0.000000 0.878725
O O11 0.344974 0.269962 0.383488
O O12 0.297325 0.000000 0.398780
O O13 0.880530 0.500000 0.257809
O O14 0.879726 0.195709 0.082172
O O15 0.642919 0.500000 0.208224
#
# Coordination Sequence:
#
# PCOD9177530 Si02
#       6
#     8   8   8   8   8   8
#     4   8  13  24  42  62  86 117 150 181 217 259
#     4   7  11  22  41  63  87 114 142 180 225 258
#     4   9  18  33  52  69  85 114 155 189 220 266
#     4   9  19  34  48  65  92 121 148 183 225 266
#     4  10  19  29  43  67  97 123 147 179 222 266
#     4   9  17  30  48  70  93 115 146 188 227 262
#
# _framework density 27.358709000000001
#
# number of rings (size 3 to 8) (size 9 to 14) (size 15 to 20)
#    0.000    3.333    0.000    2.500    0.000    2.667 
#    0.000    6.667    0.000    1.000    0.000    7.000 
#    0.000    0.000    0.000    0.000    0.000    0.000 
#
# Total GULP energy -133863.896155 kJ/mol
# GULP energy per Si atom -5577.662340 kJ/mol
# Density = 2.729644 g / cm^3
# Si number density = 27.358709 Si / 1000 Ang^3
#
#
#
# Elastic Constant Matrix: (Units=GPa)
#
#
# Indices 1 2 3 4 5 6 
#
# 1 321.5551 24.0678 52.0799 0.0000 -2.3393 0.0000
# 2 24.0678 97.7335 17.6377 0.0000 -6.8045 0.0000
# 3 52.0799 17.6377 34.9208 0.0000 -1.1189 0.0000
# 4 0.0000 0.0000 0.0000 8.9505 0.0000 -6.6507
# 5 -2.3393 -6.8045 -1.1189 0.0000 62.6239 0.0000
# 6 0.0000 0.0000 0.0000 -6.6507 0.0000 70.2190
#
#
#
# Elastic Compliance Matrix: (Units=1/GPa)
#
#
# Indices 1 2 3 4 5 6 
#
# 1 0.004101 0.000107 -0.006169 0.000000 0.000055 0.000000
# 2 0.000107 0.011340 -0.005851 0.000000 0.001132 0.000000
# 3 -0.006169 -0.005851 0.040788 0.000000 -0.000137 0.000000
# 4 0.000000 0.000000 0.000000 0.120185 0.000000 0.011383
# 5 0.000055 0.001132 -0.000137 0.000000 0.016091 0.000000
# 6 0.000000 0.000000 0.000000 0.011383 0.000000 0.015319
#
#
# Mechanical properties :
#
#
# Convention : Reuss Voigt Hill
#
# Bulk Modulus (GPa) = 30.86149 71.30893 51.08521
# Shear Modulus (GPa) = 20.62270 52.38695 36.50483
#
# Velocity S-wave (km/s) = 2.74850 4.38061 3.65677
# Velocity P-wave (km/s) = 4.62354 7.19078 6.04502
#
# Compressibility (1/GPa) = 0.03240284
#
# Stress axis : x y z
#
# Youngs Moduli (GPa) = 243.81726 88.18132 24.51729
#
# Poissons Ratio (x) = -0.00945 0.15125
# Poissons Ratio (y) = -0.02612 0.14346
# Poissons Ratio (z) = 1.50413 0.51597
#
# Static dielectric constant tensor:
#      x y z
#    x 2.368960 0.000000 0.007820 
#    y 0.000000 1.963990 0.000000 
#    z 0.007820 0.000000 2.185170 
# 
# From -- ./inp_files/179274.got.cif
#   From: 2010.05.17/outbox.cif.g08.bks.cpg/sg12_90_cif.got.tgz:179274.got - 2010.06.03 13:09:07.
