data_PCOD9177126
_publ_section_title
;
Structure prediction by ZEFSAII (Michael W. Deem and Ramdas Pophale) SiO2 
 PCOD9177126
Probable space group: C 2/M
;
_chemical_formula_sum "Si O2"
_cell_formula_units_Z 38
_cell_length_a 16.545120
_cell_length_b 9.606448
_cell_length_c 9.825836
_cell_angle_alpha 90.000000
_cell_angle_beta 92.473032
_cell_angle_gamma 90.000000
_cell_volume 1560.262234
_symmetry_space_group_name_H-M "C 2/M"
_symmetry_group_IT_number 12
_symmetry_cell_setting 'monoclinic'
loop_
_space_group_symop_operation_xyz
x,y,z
-x,y,-z
-x,-y,-z
x,-y,z
1/2+x,1/2+y,z
1/2-x,1/2+y,-z
1/2-x,1/2-y,-z
1/2+x,1/2-y,z
loop_
_atom_site_type_symbol
_atom_site_label
_atom_site_fract_x
_atom_site_fract_y
_atom_site_fract_z
Si Si1 0.181621 0.500000 0.116012
Si Si2 0.169716 0.000000 0.674761
Si Si3 0.932397 0.500000 0.116994
Si Si4 0.402907 0.000000 0.500771
Si Si5 0.759012 0.000000 0.622605
Si Si6 0.454346 0.698622 0.222207
Si Si7 0.500000 0.500000 0.000000
Si Si8 0.870260 0.748422 0.704175
O O1 0.269581 0.500000 0.192186
O O2 0.142975 0.642585 0.171822
O O3 0.156856 0.500000 0.957217
O O4 0.111246 0.132820 0.683105
O O5 0.216820 0.000000 0.536626
O O6 0.947713 0.361415 0.202225
O O7 0.000000 0.500000 0.000000
O O8 0.500000 0.000000 0.500000
O O9 0.379919 0.140416 0.581338
O O10 0.337356 0.000000 0.375431
O O11 0.799270 0.860339 0.685130
O O12 0.448318 0.620512 0.078068
O O13 0.545925 0.668735 0.275742
#
# Coordination Sequence:
#
# PCOD9177126 Si02
#       8
#     4   4   4   4   4   8   2   8
#     4  11  23  44  69  97 131 178 220 284 342 396
#     4  11  27  42  61  98 146 175 224 271 332 406
#     4  12  20  42  73  95 133 172 225 291 336 381
#     4  11  26  42  67  94 128 175 232 268 323 397
#     4  12  25  45  65  95 146 182 210 284 336 387
#     4  11  23  40  68 101 129 178 228 273 334 406
#     4  10  18  38  60  94 132 162 212 280 326 384
#     4  11  23  42  68  97 130 180 223 265 338 399
#
# _framework density 24.354879
#
# number of rings (size 3 to 8) (size 9 to 14) (size 15 to 20)
#    0.000    0.842    5.263    2.526    2.947    1.684 
#    0.000    1.053    0.000    0.000    0.000    0.000 
#    0.000    0.000    0.000    0.000    0.000    0.000 
#
# Total GULP energy -106132.698040 kJ/mol
# GULP energy per Si atom -5585.931476 kJ/mol
# Density = 2.429945 g / cm^3
# Si number density = 24.354879 Si / 1000 Ang^3
#
#
#
# Elastic Constant Matrix: (Units=GPa)
#
#
# Indices 1 2 3 4 5 6 
#
# 1 122.1841 45.5014 18.2179 0.0000 19.3117 0.0000
# 2 45.5014 183.7249 24.5254 0.0000 -3.6226 0.0000
# 3 18.2179 24.5254 42.4343 0.0000 1.6844 0.0000
# 4 0.0000 0.0000 0.0000 233.8661 0.0000 53.5904
# 5 19.3117 -3.6226 1.6844 0.0000 47.6368 0.0000
# 6 0.0000 0.0000 0.0000 53.5904 0.0000 46.8706
#
#
#
# Elastic Compliance Matrix: (Units=1/GPa)
#
#
# Indices 1 2 3 4 5 6 
#
# 1 0.010090 -0.002194 -0.002899 0.000000 -0.004155 0.000000
# 2 -0.002194 0.006390 -0.002810 0.000000 0.001475 0.000000
# 3 -0.002899 -0.002810 0.026434 0.000000 0.000027 0.000000
# 4 0.000000 0.000000 0.000000 0.005794 0.000000 -0.006625
# 5 -0.004155 0.001475 0.000027 0.000000 0.022788 0.000000
# 6 0.000000 0.000000 0.000000 -0.006625 0.000000 0.028910
#
#
# Mechanical properties :
#
#
# Convention : Reuss Voigt Hill
#
# Bulk Modulus (GPa) = 36.88922 58.31474 47.60198
# Shear Modulus (GPa) = 39.92078 83.01461 61.46770
#
# Velocity S-wave (km/s) = 4.05301 5.84461 5.02923
# Velocity P-wave (km/s) = 6.08949 8.33916 7.30149
#
# Compressibility (1/GPa) = 0.02710819
#
# Stress axis : x y z
#
# Youngs Moduli (GPa) = 99.10474 156.48322 37.83077
#
# Poissons Ratio (x) = 0.34331 0.10967
# Poissons Ratio (y) = 0.21743 0.10631
# Poissons Ratio (z) = 0.28731 0.43973
#
# Static dielectric constant tensor:
#      x y z
#    x 1.956110 0.000000 0.017780 
#    y 0.000000 1.872970 0.000000 
#    z 0.017780 0.000000 2.012390 
# 
# From -- ./inp_files/151833.got.cif
#   From: 2010.05.17/outbox.cif.g08.bks.cpg/sg12_76_cif.got.tgz:151833.got - 2010.06.03 13:09:07.
