data_PCOD9177148
_publ_section_title
;
Structure prediction by ZEFSAII (Michael W. Deem and Ramdas Pophale) SiO2 
 PCOD9177148
Probable space group: C 2/M
;
_chemical_formula_sum "Si O2"
_cell_formula_units_Z 48
_cell_length_a 9.880742
_cell_length_b 31.259107
_cell_length_c 19.134592
_cell_angle_alpha 90.000000
_cell_angle_beta 24.644538
_cell_angle_gamma 90.000000
_cell_volume 2464.383624
_symmetry_space_group_name_H-M "C 2/M"
_symmetry_group_IT_number 12
_symmetry_cell_setting 'monoclinic'
loop_
_space_group_symop_operation_xyz
x,y,z
-x,y,-z
-x,-y,-z
x,-y,z
1/2+x,1/2+y,z
1/2-x,1/2+y,-z
1/2-x,1/2-y,-z
1/2+x,1/2-y,z
loop_
_atom_site_type_symbol
_atom_site_label
_atom_site_fract_x
_atom_site_fract_y
_atom_site_fract_z
Si Si1 0.189374 0.832188 0.840978
Si Si2 0.233388 0.500000 0.565151
Si Si3 0.224485 0.594538 0.569932
Si Si4 0.385287 0.407103 0.335777
Si Si5 0.320765 0.243918 0.384863
Si Si6 0.368430 0.679160 0.843508
Si Si7 0.614176 0.500000 0.665381
O O1 0.450629 0.869232 0.701365
O O2 0.386728 0.788747 0.761599
O O3 0.959950 0.822859 0.882157
O O4 0.000000 0.844015 0.000000
O O5 0.500000 0.500000 0.500000
O O6 0.067396 0.546573 0.648194
O O7 0.406540 0.500000 0.408664
O O8 0.500000 0.599399 0.500000
O O9 0.400901 0.596555 0.412124
O O10 0.567515 0.368159 0.215482
O O11 0.507314 0.453810 0.253238
O O12 0.000000 0.404114 0.500000
O O13 0.250000 0.250000 0.500000
O O14 0.403232 0.287784 0.305747
O O15 0.000000 0.224991 0.500000
O O16 0.000000 0.691658 0.000000
O O17 0.000000 0.500000 0.500000
#
# Coordination Sequence:
#
# PCOD9177148 Si02
#       7
#     8   4   8   8   8   8   4
#     4  12  27  43  61  91 128 161 199 247 305 367
#     4   8  16  32  57  90 122 152 201 258 300 341
#     4  10  20  37  64  93 121 161 208 254 299 354
#     4  10  18  38  63  88 121 157 209 254 296 350
#     4  12  25  45  71  92 114 153 205 253 301 359
#     4  12  27  43  61  90 129 163 194 249 310 360
#     4   8  16  28  59  92 110 152 205 256 296 338
#
# _framework density 19.477487
#
# number of rings (size 3 to 8) (size 9 to 14) (size 15 to 20)
#    0.000    1.333    3.333    2.500    4.667    1.333 
#    0.000    0.833    0.000    0.000    0.000    0.000 
#    0.000    0.000    0.000    0.000    0.000    0.000 
#
# Total GULP energy -133958.483636 kJ/mol
# GULP energy per Si atom -5581.603485 kJ/mol
# Density = 1.943316 g / cm^3
# Si number density = 19.477487 Si / 1000 Ang^3
#
#
#
# Elastic Constant Matrix: (Units=GPa)
#
#
# Indices 1 2 3 4 5 6 
#
# 1 142.1984 5.1458 19.7011 0.0000 -1.6943 0.0000
# 2 5.1458 114.0423 13.6430 0.0001 5.5464 0.0000
# 3 19.7011 13.6430 44.4392 0.0000 -0.0801 -0.0001
# 4 0.0000 0.0001 0.0000 4.1623 0.0001 1.3018
# 5 -1.6943 5.5464 -0.0801 0.0001 28.2202 0.0001
# 6 0.0000 0.0000 -0.0001 1.3018 0.0001 22.0396
#
#
#
# Elastic Compliance Matrix: (Units=1/GPa)
#
#
# Indices 1 2 3 4 5 6 
#
# 1 0.007498 0.000040 -0.003336 0.000000 0.000433 0.000000
# 2 0.000040 0.009195 -0.002844 0.000000 -0.001813 0.000000
# 3 -0.003336 -0.002844 0.024855 0.000000 0.000429 0.000000
# 4 0.000000 0.000000 0.000000 0.244776 -0.000001 -0.014458
# 5 0.000433 -0.001813 0.000429 -0.000001 0.035819 0.000000
# 6 0.000000 0.000000 0.000000 -0.014458 0.000000 0.046227
#
#
# Mechanical properties :
#
#
# Convention : Reuss Voigt Hill
#
# Bulk Modulus (GPa) = 34.16554 41.96220 38.06387
# Shear Modulus (GPa) = 12.80717 28.36375 20.58546
#
# Velocity S-wave (km/s) = 2.56703 3.82020 3.25450
# Velocity P-wave (km/s) = 5.13472 6.40697 5.80580
#
# Compressibility (1/GPa) = 0.02926926
#
# Stress axis : x y z
#
# Youngs Moduli (GPa) = 133.36383 108.75161 40.23299
#
# Poissons Ratio (x) = -0.00431 0.13420
# Poissons Ratio (y) = -0.00529 0.11442
# Poissons Ratio (z) = 0.44485 0.30927
#
# Static dielectric constant tensor:
#      x y z
#    x 1.641340 0.000000 0.075000 
#    y 0.000000 1.722080 0.000000 
#    z 0.075000 0.000000 1.597470 
# 
# From -- ./inp_files/260260.got.cif
#   From: 2010.05.17/outbox.cif.g08.bks.cpg/sg12_131_cif.got.tgz:260260.got - 2010.06.03 13:09:07.
