data_PCOD9177741
_publ_section_title
;
Structure prediction by ZEFSAII (Michael W. Deem and Ramdas Pophale) SiO2 
 PCOD9177741
Probable space group: C 2/M
;
_chemical_formula_sum "Si O2"
_cell_formula_units_Z 40
_cell_length_a 13.218015
_cell_length_b 22.000233
_cell_length_c 8.398311
_cell_angle_alpha 90.000000
_cell_angle_beta 76.663054
_cell_angle_gamma 90.000000
_cell_volume 2376.357904
_symmetry_space_group_name_H-M "C 2/M"
_symmetry_group_IT_number 12
_symmetry_cell_setting 'monoclinic'
loop_
_space_group_symop_operation_xyz
x,y,z
-x,y,-z
-x,-y,-z
x,-y,z
1/2+x,1/2+y,z
1/2-x,1/2+y,-z
1/2-x,1/2-y,-z
1/2+x,1/2-y,z
loop_
_atom_site_type_symbol
_atom_site_label
_atom_site_fract_x
_atom_site_fract_y
_atom_site_fract_z
Si Si1 0.727697 0.837661 0.123696
Si Si2 0.297058 0.787119 0.226183
Si Si3 0.984106 0.295775 0.694879
Si Si4 0.086735 0.165776 0.335353
Si Si5 0.610351 0.570606 0.048666
O O1 0.782964 0.785231 0.209001
O O2 0.609294 0.840899 0.227068
O O3 0.716955 0.813764 0.946116
O O4 0.799521 0.896681 0.086839
O O5 0.407296 0.805160 0.257182
O O6 0.199938 0.814321 0.360437
O O7 0.946555 0.226841 0.749348
O O8 0.000000 0.296476 0.500000
O O9 0.098935 0.108855 0.215312
O O10 0.000000 0.155397 0.500000
O O11 0.634009 0.500000 0.068151
O O12 0.500000 0.575067 0.000000
#
# Coordination Sequence:
#
# PCOD9177741 Si02
#       5
#     8   8   8   8   8
#     4   9  18  31  49  68  95 128 157 196 232 277
#     4   9  17  30  48  72  98 126 156 187 237 289
#     4  10  19  29  48  76 100 124 152 189 241 290
#     4   9  19  31  47  72 100 125 151 191 235 282
#     4  10  20  33  50  70  92 124 163 196 229 272
#
# _framework density 16.832481999999999
#
# number of rings (size 3 to 8) (size 9 to 14) (size 15 to 20)
#    0.000    2.600    0.000    3.000    0.000    9.200 
#    0.000    0.000    0.000   10.200    0.000    0.000 
#    0.000    0.000    0.000    0.000    0.000    0.000 
#
# Total GULP energy -111473.550376 kJ/mol
# GULP energy per Si atom -5573.677519 kJ/mol
# Density = 1.679417 g / cm^3
# Si number density = 16.832482 Si / 1000 Ang^3
#
#
#
# Elastic Constant Matrix: (Units=GPa)
#
#
# Indices 1 2 3 4 5 6 
#
# 1 137.6455 53.7882 39.8233 0.0000 -24.1342 0.0000
# 2 53.7882 111.0748 37.9822 0.0000 -17.6271 0.0000
# 3 39.8233 37.9822 58.5934 0.0000 -20.6589 0.0000
# 4 0.0000 0.0000 0.0000 12.3901 0.0000 -5.1350
# 5 -24.1342 -17.6271 -20.6589 0.0000 30.0493 0.0000
# 6 0.0000 0.0000 0.0000 -5.1350 0.0000 19.4833
#
#
#
# Elastic Compliance Matrix: (Units=1/GPa)
#
#
# Indices 1 2 3 4 5 6 
#
# 1 0.010188 -0.003103 -0.003524 0.000000 0.003940 0.000000
# 2 -0.003103 0.012619 -0.005728 0.000000 0.000972 0.000000
# 3 -0.003524 -0.005728 0.027709 0.000000 0.012860 0.000000
# 4 0.000000 0.000000 0.000000 0.090606 0.000000 0.023880
# 5 0.003940 0.000972 0.012860 0.000000 0.045854 0.000000
# 6 0.000000 0.000000 0.000000 0.023880 0.000000 0.057620
#
#
# Mechanical properties :
#
#
# Convention : Reuss Voigt Hill
#
# Bulk Modulus (GPa) = 38.75148 63.38902 51.07025
# Shear Modulus (GPa) = 17.99166 24.09922 21.04544
#
# Velocity S-wave (km/s) = 3.27290 3.78790 3.53978
# Velocity P-wave (km/s) = 6.11182 7.54131 6.86388
#
# Compressibility (1/GPa) = 0.02580546
#
# Stress axis : x y z
#
# Youngs Moduli (GPa) = 98.15510 79.24743 36.08966
#
# Poissons Ratio (x) = 0.24594 0.12716
# Poissons Ratio (y) = 0.30462 0.20672
# Poissons Ratio (z) = 0.34585 0.45393
#
# Static dielectric constant tensor:
#      x y z
#    x 1.601240 0.000000 -0.031380 
#    y 0.000000 1.549650 0.000000 
#    z -0.031380 0.000000 1.602900 
# 
# From -- ./inp_files/48492.got.cif
#   From: 2010.05.17/outbox.cif.g08.bks.cpg/sg12_25_cif.got.tgz:48492.got - 2010.06.03 13:09:07.
