data_PCOD9177063
_publ_section_title
;
Structure prediction by ZEFSAII (Michael W. Deem and Ramdas Pophale) SiO2 
 PCOD9177063
Probable space group: C 2/M
;
_chemical_formula_sum "Si O2"
_cell_formula_units_Z 32
_cell_length_a 12.657218
_cell_length_b 14.118747
_cell_length_c 20.778886
_cell_angle_alpha 90.000000
_cell_angle_beta 154.388700
_cell_angle_gamma 90.000000
_cell_volume 1605.112010
_symmetry_space_group_name_H-M "C 2/M"
_symmetry_group_IT_number 12
_symmetry_cell_setting 'monoclinic'
loop_
_space_group_symop_operation_xyz
x,y,z
-x,y,-z
-x,-y,-z
x,-y,z
1/2+x,1/2+y,z
1/2-x,1/2+y,-z
1/2-x,1/2-y,-z
1/2+x,1/2-y,z
loop_
_atom_site_type_symbol
_atom_site_label
_atom_site_fract_x
_atom_site_fract_y
_atom_site_fract_z
Si Si1 0.702987 0.500000 0.912794
Si Si2 0.888425 0.163158 0.043668
Si Si3 0.215019 0.000000 0.768439
Si Si4 0.345058 0.112670 0.219905
Si Si5 0.381105 0.390713 0.497406
O O1 0.593537 0.588906 0.889070
O O2 0.662639 0.500000 0.814905
O O3 0.996639 0.500000 0.084383
O O4 0.155437 0.172909 0.158325
O O5 0.750000 0.250000 0.000000
O O6 0.729836 0.124369 0.896113
O O7 0.084927 0.089616 0.662960
O O8 0.623494 0.146755 0.380454
O O9 0.316732 0.000000 0.220888
O O10 0.500000 0.343969 0.500000
O O11 0.309748 0.500000 0.437270
#
# Coordination Sequence:
#
# PCOD9177063 Si02
#       5
#     4   8   4   8   8
#     4  11  20  36  57  81 120 154 186 243 321 344
#     4  11  22  35  58  88 117 150 200 248 293 350
#     4   9  19  29  55  90 112 146 194 243 302 359
#     4  10  18  37  63  82 110 158 209 235 285 352
#     4   8  15  30  56  87 105 149 206 235 272 357
#
# _framework density 19.936302999999999
#
# number of rings (size 3 to 8) (size 9 to 14) (size 15 to 20)
#    0.750    1.500    2.500    2.250    0.000    4.000 
#    0.000    2.500    0.000   16.500    0.000    0.000 
#    0.000    0.000    0.000    0.250    0.000    0.000 
#
# Total GULP energy -89143.968442 kJ/mol
# GULP energy per Si atom -5571.498028 kJ/mol
# Density = 1.989093 g / cm^3
# Si number density = 19.936303 Si / 1000 Ang^3
#
#
#
# Elastic Constant Matrix: (Units=GPa)
#
#
# Indices 1 2 3 4 5 6 
#
# 1 145.7248 24.6324 56.9639 0.0019 6.8999 -0.0005
# 2 24.6324 48.6464 -6.0939 0.0073 8.5067 -0.0002
# 3 56.9639 -6.0939 105.5416 0.0161 0.7067 0.0004
# 4 0.0019 0.0073 0.0161 0.1303 0.0018 10.6526
# 5 6.8999 8.5067 0.7067 0.0018 23.7754 -0.0011
# 6 -0.0005 -0.0002 0.0004 10.6526 -0.0011 24.6227
#
#
#
# Elastic Compliance Matrix: (Units=1/GPa)
#
#
# Indices 1 2 3 4 5 6 
#
# 1 0.010129 -0.005729 -0.005793 -0.000026 -0.000718 0.000011
# 2 -0.005729 0.025354 0.004607 0.000052 -0.007546 -0.000023
# 3 -0.005793 0.004607 0.012870 0.000051 -0.000350 -0.000022
# 4 -0.000026 0.000052 0.000051 -0.223293 0.000009 0.096604
# 5 -0.000718 -0.007546 -0.000350 0.000009 0.044979 -0.000002
# 6 0.000011 -0.000023 -0.000022 0.096604 -0.000002 -0.001181
#
#
# Mechanical properties :
#
#
# Convention : Reuss Voigt Hill
#
# Bulk Modulus (GPa) = 28.96693 50.10194 39.53444
# Shear Modulus (GPa) = -47.25706 24.66637 -11.29535
#
# Velocity S-wave (km/s) = -4.87396 3.52128 -2.38286
# Velocity P-wave (km/s) = 4.13675 6.45896 3.50753
#
# Compressibility (1/GPa) = 0.03452212
#
# Stress axis : x y z
#
# Youngs Moduli (GPa) = 98.72520 39.44142 77.70065
#
# Poissons Ratio (x) = 0.22597 0.45012
# Poissons Ratio (y) = 0.56561 -0.35794
# Poissons Ratio (z) = 0.57191 -0.18169
#
# Static dielectric constant tensor:
#      x y z
#    x 1.705360 0.000000 0.032100 
#    y 0.000000 1.715910 0.000000 
#    z 0.032100 0.000000 1.726220 
# 
# From -- ./inp_files/305247.got.cif
#   From: 2010.05.17/outbox.cif.g08.bks.cpg/sg12_153_cif.got.tgz:305247.got - 2010.06.03 13:09:07.
