data_PCOD9177373
_publ_section_title
;
Structure prediction by ZEFSAII (Michael W. Deem and Ramdas Pophale) SiO2 
 PCOD9177373
Probable space group: C 2/M
;
_chemical_formula_sum "Si O2"
_cell_formula_units_Z 56
_cell_length_a 19.210339
_cell_length_b 20.805753
_cell_length_c 8.377124
_cell_angle_alpha 90.000000
_cell_angle_beta 136.793812
_cell_angle_gamma 90.000000
_cell_volume 2292.274865
_symmetry_space_group_name_H-M "C 2/M"
_symmetry_group_IT_number 12
_symmetry_cell_setting 'monoclinic'
loop_
_space_group_symop_operation_xyz
x,y,z
-x,y,-z
-x,-y,-z
x,-y,z
1/2+x,1/2+y,z
1/2-x,1/2+y,-z
1/2-x,1/2-y,-z
1/2+x,1/2-y,z
loop_
_atom_site_type_symbol
_atom_site_label
_atom_site_fract_x
_atom_site_fract_y
_atom_site_fract_z
Si Si1 0.822488 0.426745 0.493576
Si Si2 0.605644 0.405327 0.713923
Si Si3 0.129538 0.226115 0.626434
Si Si4 0.626724 0.206269 0.945174
Si Si5 0.090336 0.075635 0.038359
Si Si6 0.139843 0.712436 0.318778
Si Si7 0.159699 0.429571 0.860178
O O1 0.854227 0.500000 0.590632
O O2 0.857210 0.364923 0.650561
O O3 0.699739 0.423760 0.303418
O O4 0.845661 0.418451 0.341364
O O5 0.500000 0.439576 0.500000
O O6 0.600751 0.347690 0.581313
O O7 0.600968 0.385936 0.892464
O O8 0.719603 0.432641 0.894889
O O9 0.252428 0.223030 0.841838
O O10 0.096255 0.261758 0.412251
O O11 0.093782 0.256642 0.732361
O O12 0.592271 0.223127 0.065481
O O13 0.615424 0.130661 0.881998
O O14 0.071260 0.000000 0.963149
O O15 0.000000 0.097802 0.000000
O O16 0.250000 0.750000 0.500000
O O17 0.114679 0.500000 0.819167
#
# Coordination Sequence:
#
# PCOD9177373 Si02
#       7
#     8   8   8   8   8   8   8
#     4   9  17  31  47  66  99 134 163 207 252 293
#     4  10  20  32  46  66  93 135 173 204 244 284
#     4   9  18  33  45  64  97 119 158 208 246 291
#     4   9  17  29  48  69  89 124 154 198 250 289
#     4   9  19  32  46  64  94 136 173 207 242 279
#     4  10  19  28  48  73  91 122 166 201 252 309
#     4   9  17  30  49  69  98 133 164 200 247 293
#
# _framework density 24.429880000000001
#
# number of rings (size 3 to 8) (size 9 to 14) (size 15 to 20)
#    0.000    2.714    1.429    1.286    6.000    5.143 
#    0.000    1.429    0.000    0.000    0.000    0.000 
#    0.000    2.286    0.000    2.571    0.000    0.000 
#
# Total GULP energy -156296.967742 kJ/mol
# GULP energy per Si atom -5582.034562 kJ/mol
# Density = 2.437428 g / cm^3
# Si number density = 24.429880 Si / 1000 Ang^3
#
#
#
# Elastic Constant Matrix: (Units=GPa)
#
#
# Indices 1 2 3 4 5 6 
#
# 1 90.0051 19.2919 6.7479 0.0000 -26.2674 0.0000
# 2 19.2919 117.3108 49.5858 0.0000 -29.4467 0.0000
# 3 6.7479 49.5858 93.0363 0.0000 -10.8466 0.0000
# 4 0.0000 0.0000 0.0000 -0.7325 0.0000 -23.8341
# 5 -26.2674 -29.4467 -10.8466 0.0000 30.6670 0.0000
# 6 0.0000 0.0000 0.0000 -23.8341 0.0000 18.0478
#
#
#
# Elastic Compliance Matrix: (Units=1/GPa)
#
#
# Indices 1 2 3 4 5 6 
#
# 1 0.014901 0.000999 -0.000014 0.000000 0.013717 0.000000
# 2 0.000999 0.013988 -0.006114 0.000000 0.012124 0.000000
# 3 -0.000014 -0.006114 0.013895 0.000000 -0.000968 0.000000
# 4 0.000000 0.000000 0.000000 -0.031048 0.000000 -0.041002
# 5 0.013717 0.012124 -0.000968 0.000000 0.055657 0.000000
# 6 0.000000 0.000000 0.000000 -0.041002 0.000000 0.001260
#
#
# Mechanical properties :
#
#
# Convention : Reuss Voigt Hill
#
# Bulk Modulus (GPa) = 30.74546 50.17815 40.46181
# Shear Modulus (GPa) = 55.70869 24.57823 40.14346
#
# Velocity S-wave (km/s) = 4.78048 3.17531 4.05805
# Velocity P-wave (km/s) = 6.56378 5.83332 6.20930
#
# Compressibility (1/GPa) = 0.03252512
#
# Stress axis : x y z
#
# Youngs Moduli (GPa) = 67.11111 71.49091 71.96697
#
# Poissons Ratio (x) = -0.07138 0.00099
# Poissons Ratio (y) = -0.06701 0.44001
# Poissons Ratio (z) = 0.00092 0.43710
#
# Static dielectric constant tensor:
#      x y z
#    x 1.996210 0.000000 0.044570 
#    y 0.000000 1.952140 0.000000 
#    z 0.044570 0.000000 1.910100 
# 
# From -- ./inp_files/98909.got.cif
#   From: 2010.05.17/outbox.cif.g08.bks.cpg/sg12_50_cif.got.tgz:98909.got - 2010.06.03 13:09:07.
