data_PCOD9177850
_publ_section_title
;
Structure prediction by ZEFSAII (Michael W. Deem and Ramdas Pophale) SiO2 
 PCOD9177850
Probable space group: C 2/M
;
_chemical_formula_sum "Si O2"
_cell_formula_units_Z 48
_cell_length_a 22.017912
_cell_length_b 13.439752
_cell_length_c 14.075437
_cell_angle_alpha 90.000000
_cell_angle_beta 46.380489
_cell_angle_gamma 90.000000
_cell_volume 3015.296593
_symmetry_space_group_name_H-M "C 2/M"
_symmetry_group_IT_number 12
_symmetry_cell_setting 'monoclinic'
loop_
_space_group_symop_operation_xyz
x,y,z
-x,y,-z
-x,-y,-z
x,-y,z
1/2+x,1/2+y,z
1/2-x,1/2+y,-z
1/2-x,1/2-y,-z
1/2+x,1/2-y,z
loop_
_atom_site_type_symbol
_atom_site_label
_atom_site_fract_x
_atom_site_fract_y
_atom_site_fract_z
Si Si1 0.799724 0.611478 0.910290
Si Si2 0.362728 0.676865 0.810329
Si Si3 0.039437 0.885037 0.678958
Si Si4 0.578502 0.621262 0.850870
Si Si5 0.910339 0.758379 0.557647
Si Si6 0.257301 0.885291 0.736995
O O1 0.835189 0.500000 0.883300
O O2 0.726501 0.632036 0.064737
O O3 0.861277 0.706262 0.842808
O O4 0.757161 0.616294 0.851880
O O5 0.438604 0.622851 0.780807
O O6 0.378662 0.674458 0.680334
O O7 0.067364 0.850265 0.753007
O O8 0.073451 0.819742 0.555231
O O9 0.064485 0.000000 0.639975
O O10 0.577693 0.500000 0.855088
O O11 0.668658 0.653603 0.793902
O O12 0.500000 0.654915 0.000000
O O13 0.838661 0.676911 0.619410
O O14 0.000000 0.717476 0.500000
O O15 0.266440 0.000000 0.697076
#
# Coordination Sequence:
#
# PCOD9177850 Si02
#       6
#     8   8   8   8   8   8
#     4   9  16  27  45  67  91 116 144 185 229 264
#     4   9  17  28  43  65  91 117 150 182 219 268
#     4  10  19  30  44  63  90 119 147 183 221 259
#     4   9  17  29  47  69  88 110 144 184 227 268
#     4   9  19  31  43  65  92 119 152 181 212 264
#     4   9  17  30  47  67  91 116 145 185 227 264
#
# _framework density 15.918832
#
# number of rings (size 3 to 8) (size 9 to 14) (size 15 to 20)
#    0.000    2.833    0.000    1.500    0.000    7.333 
#    0.000    2.500    0.000    0.000    0.000    1.167 
#    0.000   14.000    0.000    0.000    0.000    0.000 
#
# Total GULP energy -133625.269371 kJ/mol
# GULP energy per Si atom -5567.719557 kJ/mol
# Density = 1.588260 g / cm^3
# Si number density = 15.918832 Si / 1000 Ang^3
#
#
#
# Elastic Constant Matrix: (Units=GPa)
#
#
# Indices 1 2 3 4 5 6 
#
# 1 76.5581 27.3034 44.1713 0.0000 -11.1840 0.0000
# 2 27.3034 51.6280 23.0033 0.0000 -2.3903 0.0000
# 3 44.1713 23.0033 99.8943 0.0000 -1.9301 0.0000
# 4 0.0000 0.0000 0.0000 11.3763 0.0000 -3.6477
# 5 -11.1840 -2.3903 -1.9301 0.0000 17.1094 0.0000
# 6 0.0000 0.0000 0.0000 -3.6477 0.0000 16.6372
#
#
#
# Elastic Compliance Matrix: (Units=1/GPa)
#
#
# Indices 1 2 3 4 5 6 
#
# 1 0.022097 -0.007646 -0.007769 0.000000 0.012500 0.000000
# 2 -0.007646 0.024333 -0.002258 0.000000 -0.001853 0.000000
# 3 -0.007769 -0.002258 0.013892 0.000000 -0.003827 0.000000
# 4 0.000000 0.000000 0.000000 0.094549 0.000000 0.020730
# 5 0.012500 -0.001853 -0.003827 0.000000 0.065928 0.000000
# 6 0.000000 0.000000 0.000000 0.020730 0.000000 0.064651
#
#
# Mechanical properties :
#
#
# Convention : Reuss Voigt Hill
#
# Bulk Modulus (GPa) = 40.03788 46.33739 43.18763
# Shear Modulus (GPa) = 15.19198 17.93141 16.56169
#
# Velocity S-wave (km/s) = 3.09259 3.35987 3.22900
# Velocity P-wave (km/s) = 6.16101 6.65006 6.41020
#
# Compressibility (1/GPa) = 0.02497635
#
# Stress axis : x y z
#
# Youngs Moduli (GPa) = 45.25484 41.09601 71.98462
#
# Poissons Ratio (x) = 0.31422 0.55923
# Poissons Ratio (y) = 0.34601 0.16257
# Poissons Ratio (z) = 0.35157 0.09281
#
# Static dielectric constant tensor:
#      x y z
#    x 1.522890 0.000000 0.002240 
#    y 0.000000 1.542900 0.000000 
#    z 0.002240 0.000000 1.539670 
# 
# From -- ./inp_files/233347.got.cif
#   From: 2010.05.17/outbox.cif.g08.bks.cpg/sg12_117_cif.got.tgz:233347.got - 2010.06.03 13:09:07.
