data_PCOD9177963
_publ_section_title
;
Structure prediction by ZEFSAII (Michael W. Deem and Ramdas Pophale) SiO2 
 PCOD9177963
Probable space group: C 2/M
;
_chemical_formula_sum "Si O2"
_cell_formula_units_Z 60
_cell_length_a 24.677372
_cell_length_b 13.695351
_cell_length_c 28.288364
_cell_angle_alpha 90.000000
_cell_angle_beta 162.320365
_cell_angle_gamma 90.000000
_cell_volume 2903.465937
_symmetry_space_group_name_H-M "C 2/M"
_symmetry_group_IT_number 12
_symmetry_cell_setting 'monoclinic'
loop_
_space_group_symop_operation_xyz
x,y,z
-x,y,-z
-x,-y,-z
x,-y,z
1/2+x,1/2+y,z
1/2-x,1/2+y,-z
1/2-x,1/2-y,-z
1/2+x,1/2-y,z
loop_
_atom_site_type_symbol
_atom_site_label
_atom_site_fract_x
_atom_site_fract_y
_atom_site_fract_z
Si Si1 0.500000 0.217817 0.500000
Si Si2 0.535092 0.888366 0.691171
Si Si3 0.620258 0.272334 0.824575
Si Si4 0.171105 0.609076 0.936441
Si Si5 0.799392 0.111579 0.514553
Si Si6 0.329729 0.246094 0.451797
Si Si7 0.969609 0.104713 0.827177
Si Si8 0.634624 0.387688 0.154522
O O1 0.421025 0.276905 0.478691
O O2 0.674485 0.160253 0.668382
O O3 0.660733 0.802278 0.815724
O O4 0.376812 0.889860 0.599146
O O5 0.449409 0.841395 0.573674
O O6 0.600434 0.000000 0.741479
O O7 0.770557 0.349540 0.964455
O O8 0.447186 0.334216 0.668617
O O9 0.582002 0.200143 0.836516
O O10 0.089598 0.500000 0.869123
O O11 0.349293 0.601626 0.052135
O O12 0.802553 0.171034 0.468270
O O13 0.848218 0.000000 0.546207
O O14 0.147180 0.193824 0.286811
O O15 0.979860 0.110325 0.892173
O O16 0.877073 0.000000 0.739823
O O17 0.678232 0.500000 0.177574
O O18 0.500000 0.350738 0.000000
#
# Coordination Sequence:
#
# PCOD9177963 Si02
#       8
#     4   8   8   8   8   8   8   8
#     4  10  21  34  51  76 106 138 176 220 266 318
#     4  10  19  31  50  75 100 127 162 206 256 309
#     4  10  19  30  45  68  98 128 164 208 254 304
#     4  10  19  30  45  66  96 133 168 203 248 307
#     4  10  20  34  52  72  96 129 171 217 261 306
#     4  10  19  33  52  75 101 132 169 210 258 312
#     4   9  17  30  48  70  97 130 164 198 247 311
#     4   9  18  31  47  70 101 136 171 208 255 314
#
# _framework density 20.664957999999999
#
# number of rings (size 3 to 8) (size 9 to 14) (size 15 to 20)
#    0.000    2.267    0.000    4.600    0.000    5.867 
#    0.000    1.667    0.000    0.800    0.000    0.000 
#    0.000    4.800    0.000    0.000    0.000    0.000 
#
# Total GULP energy -167118.894028 kJ/mol
# GULP energy per Si atom -5570.629801 kJ/mol
# Density = 2.061792 g / cm^3
# Si number density = 20.664958 Si / 1000 Ang^3
#
#
#
# Elastic Constant Matrix: (Units=GPa)
#
#
# Indices 1 2 3 4 5 6 
#
# 1 105.5294 39.8513 27.0994 -0.0050 -7.7999 0.0001
# 2 39.8513 124.5631 31.0583 -0.0102 -11.1032 -0.0058
# 3 27.0994 31.0583 74.2189 -0.0155 -13.7949 0.0024
# 4 -0.0050 -0.0102 -0.0155 19.8449 -0.0007 -3.3292
# 5 -7.7999 -11.1032 -13.7949 -0.0007 32.4532 0.0012
# 6 0.0001 -0.0058 0.0024 -3.3292 0.0012 11.6239
#
#
#
# Elastic Compliance Matrix: (Units=1/GPa)
#
#
# Indices 1 2 3 4 5 6 
#
# 1 0.011327 -0.002869 -0.002836 -0.000001 0.000535 -0.000001
# 2 -0.002869 0.009767 -0.002765 0.000003 0.001477 0.000006
# 3 -0.002836 -0.002765 0.016682 0.000011 0.005463 -0.000002
# 4 -0.000001 0.000003 0.000011 0.052934 0.000006 0.015161
# 5 0.000535 0.001477 0.005463 0.000006 0.033770 -0.000002
# 6 -0.000001 0.000006 -0.000002 0.015161 -0.000002 0.090372
#
#
# Mechanical properties :
#
#
# Convention : Reuss Voigt Hill
#
# Bulk Modulus (GPa) = 47.99400 55.59216 51.79308
# Shear Modulus (GPa) = 20.94352 26.53790 23.74071
#
# Velocity S-wave (km/s) = 3.18697 3.58746 3.39313
# Velocity P-wave (km/s) = 6.06775 6.64228 6.36151
#
# Compressibility (1/GPa) = 0.02083594
#
# Stress axis : x y z
#
# Youngs Moduli (GPa) = 88.28241 102.38494 59.94609
#
# Poissons Ratio (x) = 0.29376 0.16999
# Poissons Ratio (y) = 0.25329 0.16576
# Poissons Ratio (z) = 0.25035 0.28311
#
# Static dielectric constant tensor:
#      x y z
#    x 1.742970 0.000000 -0.030370 
#    y 0.000000 1.743860 -0.000010 
#    z -0.030370 -0.000010 1.900390 
# 
# From -- ./inp_files/368161.got.cif
#   From: 2010.05.17/outbox.cif.g08.bks.cpg/sg12_185_cif.got.tgz:368161.got - 2010.06.03 13:09:07.
