data_PCOD9177049
_publ_section_title
;
Structure prediction by ZEFSAII (Michael W. Deem and Ramdas Pophale) SiO2 
 PCOD9177049
Probable space group: C 2/M
;
_chemical_formula_sum "Si O2"
_cell_formula_units_Z 48
_cell_length_a 9.320630
_cell_length_b 27.395751
_cell_length_c 14.759248
_cell_angle_alpha 90.000000
_cell_angle_beta 42.435661
_cell_angle_gamma 90.000000
_cell_volume 2542.981752
_symmetry_space_group_name_H-M "C 2/M"
_symmetry_group_IT_number 12
_symmetry_cell_setting 'monoclinic'
loop_
_space_group_symop_operation_xyz
x,y,z
-x,y,-z
-x,-y,-z
x,-y,z
1/2+x,1/2+y,z
1/2-x,1/2+y,-z
1/2-x,1/2-y,-z
1/2+x,1/2-y,z
loop_
_atom_site_type_symbol
_atom_site_label
_atom_site_fract_x
_atom_site_fract_y
_atom_site_fract_z
Si Si1 0.280973 0.946432 0.544768
Si Si2 0.016928 0.597415 0.270289
Si Si3 0.581077 0.384792 0.789812
Si Si4 0.279521 0.685533 0.575843
Si Si5 0.850141 0.557548 0.981856
Si Si6 0.744992 0.795938 0.382118
O O1 0.500000 0.948320 0.500000
O O2 0.352267 0.930242 0.412745
O O3 0.139334 0.908938 0.665838
O O4 0.182359 0.000000 0.591081
O O5 0.243909 0.599223 0.216808
O O6 0.034411 0.571648 0.165645
O O7 0.921032 0.651849 0.310284
O O8 0.618501 0.327581 0.751563
O O9 0.352713 0.406389 0.920239
O O10 0.500000 0.660479 0.500000
O O11 0.258291 0.738118 0.634459
O O12 0.311114 0.696690 0.454982
O O13 0.786760 0.500000 0.009212
O O14 0.000000 0.564477 0.000000
O O15 0.500000 0.814320 0.500000
#
# Coordination Sequence:
#
# PCOD9177049 Si02
#       6
#     8   8   8   8   8   8
#     4   9  17  30  55  87 112 137 188 252 295 339
#     4  11  21  38  61  90 117 157 206 244 293 356
#     4  11  20  38  62  87 118 155 204 248 293 354
#     4  10  21  33  60  94 128 158 191 240 306 358
#     4  11  27  45  59  82 122 163 199 248 309 362
#     4  10  18  37  60  93 126 156 194 244 298 357
#
# _framework density 18.87548
#
# number of rings (size 3 to 8) (size 9 to 14) (size 15 to 20)
#    0.000    1.667    3.333    2.000    2.333    2.667 
#    0.000    0.833    0.000    4.000    0.000    0.000 
#    0.000    0.000    0.000    0.000    0.000    0.000 
#
# Total GULP energy -133847.953115 kJ/mol
# GULP energy per Si atom -5576.998046 kJ/mol
# Density = 1.883252 g / cm^3
# Si number density = 18.875480 Si / 1000 Ang^3
#
#
#
# Elastic Constant Matrix: (Units=GPa)
#
#
# Indices 1 2 3 4 5 6 
#
# 1 86.3624 16.1253 31.2260 0.0000 6.3624 0.0000
# 2 16.1253 90.4527 24.0783 0.0000 1.4378 0.0000
# 3 31.2260 24.0783 75.4889 0.0000 14.0969 0.0000
# 4 0.0000 0.0000 0.0000 12.4276 0.0000 1.4264
# 5 6.3624 1.4378 14.0969 0.0000 32.3168 0.0000
# 6 0.0000 0.0000 0.0000 1.4264 0.0000 17.7600
#
#
#
# Elastic Compliance Matrix: (Units=1/GPa)
#
#
# Indices 1 2 3 4 5 6 
#
# 1 0.013705 -0.001034 -0.005274 0.000000 -0.000352 0.000000
# 2 -0.001034 0.012205 -0.003704 0.000000 0.001276 0.000000
# 3 -0.005274 -0.003704 0.017838 0.000000 -0.006578 0.000000
# 4 0.000000 0.000000 0.000000 0.081215 0.000000 -0.006523
# 5 -0.000352 0.001276 -0.006578 0.000000 0.033826 0.000000
# 6 0.000000 0.000000 0.000000 -0.006523 0.000000 0.056830
#
#
# Mechanical properties :
#
#
# Convention : Reuss Voigt Hill
#
# Bulk Modulus (GPa) = 42.14757 43.90702 43.02730
# Shear Modulus (GPa) = 20.52964 24.55916 22.54440
#
# Velocity S-wave (km/s) = 3.30151 3.61101 3.45972
# Velocity P-wave (km/s) = 6.07545 6.37948 6.22932
#
# Compressibility (1/GPa) = 0.02372616
#
# Stress axis : x y z
#
# Youngs Moduli (GPa) = 72.96705 81.93054 56.05953
#
# Poissons Ratio (x) = 0.08470 0.29563
# Poissons Ratio (y) = 0.07543 0.20763
# Poissons Ratio (z) = 0.38480 0.30345
#
# Static dielectric constant tensor:
#      x y z
#    x 1.712120 0.000000 -0.006820 
#    y 0.000000 1.707950 0.000000 
#    z -0.006820 0.000000 1.638000 
# 
# From -- ./inp_files/200767.got.cif
#   From: 2010.05.17/outbox.cif.g08.bks.cpg/sg12_101_cif.got.tgz:200767.got - 2010.06.03 13:09:07.
