data_PCOD9177177
_publ_section_title
;
Structure prediction by ZEFSAII (Michael W. Deem and Ramdas Pophale) SiO2 
 PCOD9177177
Probable space group: C 2/M
;
_chemical_formula_sum "Si O2"
_cell_formula_units_Z 44
_cell_length_a 20.124341
_cell_length_b 10.062120
_cell_length_c 11.489980
_cell_angle_alpha 90.000000
_cell_angle_beta 116.296980
_cell_angle_gamma 90.000000
_cell_volume 2085.861489
_symmetry_space_group_name_H-M "C 2/M"
_symmetry_group_IT_number 12
_symmetry_cell_setting 'monoclinic'
loop_
_space_group_symop_operation_xyz
x,y,z
-x,y,-z
-x,-y,-z
x,-y,z
1/2+x,1/2+y,z
1/2-x,1/2+y,-z
1/2-x,1/2-y,-z
1/2+x,1/2-y,z
loop_
_atom_site_type_symbol
_atom_site_label
_atom_site_fract_x
_atom_site_fract_y
_atom_site_fract_z
Si Si1 0.109467 0.500000 0.572374
Si Si2 0.178726 0.000000 0.573691
Si Si3 0.718856 0.500000 0.336534
Si Si4 0.468081 0.710424 0.160081
Si Si5 0.345871 0.000000 0.790068
Si Si6 0.382379 0.295470 0.863218
Si Si7 0.016762 0.500000 0.268966
Si Si8 0.578598 0.289439 0.624287
O O1 0.192538 0.500000 0.584124
O O2 0.043848 0.500000 0.424190
O O3 0.103013 0.635616 0.639858
O O4 0.136134 0.126175 0.593666
O O5 0.183361 0.000000 0.437710
O O6 0.262031 0.000000 0.684456
O O7 0.687831 0.374329 0.239893
O O8 0.551413 0.678971 0.179427
O O9 0.436835 0.658613 0.257757
O O10 0.475243 0.869106 0.191173
O O11 0.415377 0.666834 0.013928
O O12 0.364180 0.860324 0.864082
O O13 0.402948 0.000000 0.728357
O O14 0.500000 0.298462 0.500000
#
# Coordination Sequence:
#
# PCOD9177177 Si02
#       8
#     4   4   4   8   4   8   4   8
#     4  12  24  40  69  99 124 168 210 265 319 372
#     4  12  27  40  62  91 134 171 203 266 327 379
#     4  12  26  43  61  97 132 169 215 257 322 384
#     4  10  21  40  67  96 125 167 217 261 316 370
#     4  10  21  41  64  95 120 166 220 257 313 371
#     4  10  23  42  68  93 127 171 214 263 308 380
#     4  10  18  38  69  97 124 158 216 273 300 365
#     4  12  24  41  63  98 129 162 212 266 325 371
#
# _framework density 21.094401999999999
#
# number of rings (size 3 to 8) (size 9 to 14) (size 15 to 20)
#    0.000    1.091    2.727    3.818    2.545    6.545 
#    0.000    5.455    0.000    0.000    0.000    0.000 
#    0.000    0.000    0.000    0.000    0.000    0.000 
#
# Total GULP energy -122877.396083 kJ/mol
# GULP energy per Si atom -5585.336186 kJ/mol
# Density = 2.104639 g / cm^3
# Si number density = 21.094402 Si / 1000 Ang^3
#
#
#
# Elastic Constant Matrix: (Units=GPa)
#
#
# Indices 1 2 3 4 5 6 
#
# 1 104.3209 40.6906 57.8297 0.0000 -9.2679 0.0000
# 2 40.6906 103.6416 31.3799 0.0000 -3.4510 0.0000
# 3 57.8297 31.3799 110.9533 0.0000 -10.0462 0.0000
# 4 0.0000 0.0000 0.0000 -36.5145 0.0000 14.6666
# 5 -9.2679 -3.4510 -10.0462 0.0000 35.9891 0.0000
# 6 0.0000 0.0000 0.0000 14.6666 0.0000 22.1551
#
#
#
# Elastic Compliance Matrix: (Units=1/GPa)
#
#
# Indices 1 2 3 4 5 6 
#
# 1 0.014814 -0.003794 -0.006500 0.000000 0.001637 0.000000
# 2 -0.003794 0.011525 -0.001304 0.000000 -0.000236 0.000000
# 3 -0.006500 -0.001304 0.012933 0.000000 0.001811 0.000000
# 4 0.000000 0.000000 0.000000 -0.021634 0.000000 0.014322
# 5 0.001637 -0.000236 0.001811 0.000000 0.028691 0.000000
# 6 0.000000 0.000000 0.000000 0.014322 0.000000 0.035655
#
#
# Mechanical properties :
#
#
# Convention : Reuss Voigt Hill
#
# Bulk Modulus (GPa) = 62.19745 64.30179 63.24962
# Shear Modulus (GPa) = 45.23295 16.92699 31.07997
#
# Velocity S-wave (km/s) = 4.63569 2.83581 3.84262
# Velocity P-wave (km/s) = 7.62904 6.42429 7.05243
#
# Compressibility (1/GPa) = 0.01607783
#
# Stress axis : x y z
#
# Youngs Moduli (GPa) = 67.50248 86.76886 77.31896
#
# Poissons Ratio (x) = 0.32917 0.50259
# Poissons Ratio (y) = 0.25608 0.10079
# Poissons Ratio (z) = 0.43878 0.11311
#
# Static dielectric constant tensor:
#      x y z
#    x 1.745260 0.000000 -0.031360 
#    y 0.000000 1.833800 0.000000 
#    z -0.031360 0.000000 1.714190 
# 
# From -- ./inp_files/154461.got.cif
#   From: 2010.05.17/outbox.cif.g08.bks.cpg/sg12_78_cif.got.tgz:154461.got - 2010.06.03 13:09:07.
