data_PCOD9177860
_publ_section_title
;
Structure prediction by ZEFSAII (Michael W. Deem and Ramdas Pophale) SiO2 
 PCOD9177860
Probable space group: C 2/M
;
_chemical_formula_sum "Si O2"
_cell_formula_units_Z 64
_cell_length_a 28.315761
_cell_length_b 14.236334
_cell_length_c 22.946133
_cell_angle_alpha 90.000000
_cell_angle_beta 162.096238
_cell_angle_gamma 90.000000
_cell_volume 2843.588552
_symmetry_space_group_name_H-M "C 2/M"
_symmetry_group_IT_number 12
_symmetry_cell_setting 'monoclinic'
loop_
_space_group_symop_operation_xyz
x,y,z
-x,y,-z
-x,-y,-z
x,-y,z
1/2+x,1/2+y,z
1/2-x,1/2+y,-z
1/2-x,1/2-y,-z
1/2+x,1/2-y,z
loop_
_atom_site_type_symbol
_atom_site_label
_atom_site_fract_x
_atom_site_fract_y
_atom_site_fract_z
Si Si1 0.965289 0.356803 0.590504
Si Si2 0.985832 0.132041 0.623958
Si Si3 0.593924 0.864284 0.347583
Si Si4 0.731999 0.897419 0.232045
Si Si5 0.214931 0.856803 0.089791
Si Si6 0.837757 0.824829 0.837714
Si Si7 0.586516 0.364285 0.332790
Si Si8 0.209530 0.367962 0.071470
O O1 0.986463 0.244862 0.623125
O O2 0.944764 0.393152 0.631966
O O3 0.807124 0.363448 0.368900
O O4 0.118008 0.390655 0.736022
O O5 0.885254 0.102630 0.450712
O O6 0.914284 0.103733 0.601295
O O7 0.160842 0.101693 0.821608
O O8 0.591077 0.749999 0.341045
O O9 0.762051 0.893362 0.524101
O O10 0.459806 0.896258 0.146723
O O11 0.664959 0.791466 0.165009
O O12 0.754345 0.897383 0.188956
O O13 0.656221 0.000000 0.156285
O O14 0.183796 0.863456 0.122134
O O15 0.213150 0.744858 0.076566
O O16 0.070377 0.893149 0.883276
O O17 0.000000 0.852108 0.000000
#
# Coordination Sequence:
#
# PCOD9177860 Si02
#       8
#     8   8   8   8   8   8   8   8
#     4   9  16  27  43  62  84 109 138 173 214 261
#     4   9  17  28  42  59  78 104 142 185 224 261
#     4   9  16  26  41  60  81 105 134 171 217 266
#     4  10  21  33  45  61  83 115 157 200 233 259
#     4   9  16  27  43  62  84 109 138 173 214 261
#     4  10  19  30  44  64  90 118 149 183 221 266
#     4   9  16  26  41  60  81 105 134 171 217 266
#     4   9  17  28  42  59  78 104 142 185 224 261
#
# _framework density 22.506772000000002
#
# number of rings (size 3 to 8) (size 9 to 14) (size 15 to 20)
#    0.000    2.750    0.000    2.250    0.000   13.250 
#    0.000    0.000    0.000    0.000    0.000    0.000 
#    0.000    0.000    0.000    1.125    0.000   19.500 
#
# Total GULP energy -178554.266101 kJ/mol
# GULP energy per Si atom -5579.820816 kJ/mol
# Density = 2.245555 g / cm^3
# Si number density = 22.506772 Si / 1000 Ang^3
#
#
#
# Elastic Constant Matrix: (Units=GPa)
#
#
# Indices 1 2 3 4 5 6 
#
# 1 173.7594 9.2490 138.8464 0.0028 16.2494 -0.0021
# 2 9.2490 97.3180 9.9052 0.0140 -4.0584 0.0095
# 3 138.8464 9.9052 171.0534 0.0155 12.2446 0.0098
# 4 0.0028 0.0140 0.0155 -35.9433 0.0070 10.4044
# 5 16.2494 -4.0584 12.2446 0.0070 45.7151 0.0040
# 6 -0.0021 0.0095 0.0098 10.4044 0.0040 -34.4501
#
#
#
# Elastic Compliance Matrix: (Units=1/GPa)
#
#
# Indices 1 2 3 4 5 6 
#
# 1 0.016630 -0.000325 -0.013310 -0.000007 -0.002375 -0.000007
# 2 -0.000325 0.010397 -0.000421 0.000005 0.001151 0.000005
# 3 -0.013310 -0.000421 0.016658 0.000008 0.000232 0.000008
# 4 -0.000007 0.000005 0.000008 -0.030487 0.000006 -0.009207
# 5 -0.002375 0.001151 0.000232 0.000006 0.022759 0.000005
# 6 -0.000007 0.000005 0.000008 -0.009207 0.000005 -0.031808
#
#
# Mechanical properties :
#
#
# Convention : Reuss Voigt Hill
#
# Bulk Modulus (GPa) = 64.21025 84.23690 74.22357
# Shear Modulus (GPa) = 133.50283 14.00635 73.75459
#
# Velocity S-wave (km/s) = 7.71009 2.49733 5.73072
# Velocity P-wave (km/s) = 10.38518 6.76936 8.76573
#
# Compressibility (1/GPa) = 0.01557384
#
# Stress axis : x y z
#
# Youngs Moduli (GPa) = 60.13112 96.17886 60.03125
#
# Poissons Ratio (x) = 0.03124 0.79903
# Poissons Ratio (y) = 0.01953 0.02526
# Poissons Ratio (z) = 0.80036 0.04047
#
# Static dielectric constant tensor:
#      x y z
#    x 1.772920 0.000000 0.008180 
#    y 0.000000 1.873240 0.000000 
#    z 0.008180 0.000000 1.771750 
# 
# From -- ./inp_files/328665.got.cif
#   From: 2010.05.17/outbox.cif.g08.bks.cpg/sg12_165_cif.got.tgz:328665.got - 2010.06.03 13:09:07.
