data_PCOD9177794
_publ_section_title
;
Structure prediction by ZEFSAII (Michael W. Deem and Ramdas Pophale) SiO2 
 PCOD9177794
Probable space group: C 2/M
;
_chemical_formula_sum "Si O2"
_cell_formula_units_Z 56
_cell_length_a 23.241630
_cell_length_b 11.834108
_cell_length_c 14.027871
_cell_angle_alpha 90.000000
_cell_angle_beta 137.022562
_cell_angle_gamma 90.000000
_cell_volume 2630.230077
_symmetry_space_group_name_H-M "C 2/M"
_symmetry_group_IT_number 12
_symmetry_cell_setting 'monoclinic'
loop_
_space_group_symop_operation_xyz
x,y,z
-x,y,-z
-x,-y,-z
x,-y,z
1/2+x,1/2+y,z
1/2-x,1/2+y,-z
1/2-x,1/2-y,-z
1/2+x,1/2-y,z
loop_
_atom_site_type_symbol
_atom_site_label
_atom_site_fract_x
_atom_site_fract_y
_atom_site_fract_z
Si Si1 0.343544 0.370833 0.052177
Si Si2 0.860951 0.631909 0.174250
Si Si3 0.690359 0.668392 0.204156
Si Si4 0.713772 0.128160 0.355964
Si Si5 0.539642 0.625841 0.140992
Si Si6 0.112585 0.239771 0.394071
Si Si7 0.111972 0.374802 0.573596
O O1 0.372724 0.500000 0.115965
O O2 0.375714 0.251972 0.137362
O O3 0.241654 0.372360 0.944748
O O4 0.351543 0.358141 0.947304
O O5 0.884951 0.500000 0.172871
O O6 0.897778 0.648190 0.326141
O O7 0.692290 0.799176 0.236251
O O8 0.637405 0.618000 0.226891
O O9 0.786202 0.627299 0.318031
O O10 0.812817 0.150770 0.494362
O O11 0.660559 0.170474 0.383258
O O12 0.695360 0.000000 0.317179
O O13 0.505844 0.500000 0.107540
O O14 0.540161 0.687282 0.241222
O O15 0.500000 0.684770 0.000000
O O16 0.080737 0.290724 0.454333
O O17 0.080023 0.500000 0.514758
#
# Coordination Sequence:
#
# PCOD9177794 Si02
#       7
#     8   8   8   8   8   8   8
#     4   9  15  25  40  58  86 118 142 168 207 255
#     4   8  15  25  38  61  88 113 140 169 206 255
#     4   9  17  27  42  62  85 114 144 173 206 253
#     4   9  16  25  39  61  85 108 138 175 213 252
#     4  10  19  30  43  59  82 111 142 176 210 247
#     4   9  17  26  40  60  82 108 138 172 210 253
#     4   9  15  26  44  63  86 113 139 168 208 256
#
# _framework density 21.290913
#
# number of rings (size 3 to 8) (size 9 to 14) (size 15 to 20)
#    0.000    3.000    0.000    3.857    0.000    0.571 
#    0.000    7.857    0.000   10.714    0.000    1.000 
#    0.000    5.714    0.000    0.000    0.000    0.000 
#
# Total GULP energy -155977.260988 kJ/mol
# GULP energy per Si atom -5570.616464 kJ/mol
# Density = 2.124245 g / cm^3
# Si number density = 21.290913 Si / 1000 Ang^3
#
#
#
# Elastic Constant Matrix: (Units=GPa)
#
#
# Indices 1 2 3 4 5 6 
#
# 1 73.7988 26.4322 11.1840 0.0000 -4.1593 0.0000
# 2 26.4322 156.6102 54.4133 0.0000 -22.2954 0.0000
# 3 11.1840 54.4133 108.1871 0.0000 -22.6216 0.0000
# 4 0.0000 0.0000 0.0000 -1.1517 0.0000 -5.6387
# 5 -4.1593 -22.2954 -22.6216 0.0000 25.4930 0.0000
# 6 0.0000 0.0000 0.0000 -5.6387 0.0000 11.3241
#
#
#
# Elastic Compliance Matrix: (Units=1/GPa)
#
#
# Indices 1 2 3 4 5 6 
#
# 1 0.014432 -0.002319 -0.000316 0.000000 0.000046 0.000000
# 2 -0.002319 0.008470 -0.003131 0.000000 0.004250 0.000000
# 3 -0.000316 -0.003131 0.012607 0.000000 0.008396 0.000000
# 4 0.000000 0.000000 0.000000 -0.252563 0.000000 -0.125761
# 5 0.000046 0.004250 0.008396 0.000000 0.050402 0.000000
# 6 0.000000 0.000000 0.000000 -0.125761 0.000000 0.025685
#
#
# Mechanical properties :
#
#
# Convention : Reuss Voigt Hill
#
# Bulk Modulus (GPa) = 41.71070 58.07281 49.89176
# Shear Modulus (GPa) = -41.17170 23.57086 -8.80042
#
# Velocity S-wave (km/s) = -4.40223 3.33090 -2.03529
# Velocity P-wave (km/s) = 2.49122 6.49063 4.23805
#
# Compressibility (1/GPa) = 0.02397466
#
# Stress axis : x y z
#
# Youngs Moduli (GPa) = 69.29268 118.06597 79.32395
#
# Poissons Ratio (x) = 0.27385 0.02504
# Poissons Ratio (y) = 0.16072 0.24840
# Poissons Ratio (z) = 0.02187 0.36972
#
# Static dielectric constant tensor:
#      x y z
#    x 1.817060 0.000000 0.057830 
#    y 0.000000 1.803510 0.000000 
#    z 0.057830 0.000000 1.814330 
# 
# From -- ./inp_files/250576.got.cif
#   From: 2010.05.17/outbox.cif.g08.bks.cpg/sg12_126_cif.got.tgz:250576.got - 2010.06.03 13:09:07.
