data_PCOD9177750
_publ_section_title
;
Structure prediction by ZEFSAII (Michael W. Deem and Ramdas Pophale) SiO2 
 PCOD9177750
Probable space group: C 2/M
;
_chemical_formula_sum "Si O2"
_cell_formula_units_Z 64
_cell_length_a 20.194906
_cell_length_b 20.498018
_cell_length_c 13.062858
_cell_angle_alpha 90.000000
_cell_angle_beta 47.354132
_cell_angle_gamma 90.000000
_cell_volume 3977.471277
_symmetry_space_group_name_H-M "C 2/M"
_symmetry_group_IT_number 12
_symmetry_cell_setting 'monoclinic'
loop_
_space_group_symop_operation_xyz
x,y,z
-x,y,-z
-x,-y,-z
x,-y,z
1/2+x,1/2+y,z
1/2-x,1/2+y,-z
1/2-x,1/2-y,-z
1/2+x,1/2-y,z
loop_
_atom_site_type_symbol
_atom_site_label
_atom_site_fract_x
_atom_site_fract_y
_atom_site_fract_z
Si Si1 0.824270 0.843130 0.879572
Si Si2 0.395239 0.804667 0.116694
Si Si3 0.806271 0.925362 0.521022
Si Si4 0.745328 0.284247 0.849108
Si Si5 0.022666 0.143333 0.587937
Si Si6 0.588416 0.210056 0.470810
Si Si7 0.711727 0.925076 0.842742
Si Si8 0.684717 0.186616 0.574295
O O1 0.790959 0.775965 0.862169
O O2 0.774399 0.900446 0.869743
O O3 0.930728 0.846536 0.746677
O O4 0.791847 0.836343 0.030507
O O5 0.336831 0.747642 0.126486
O O6 0.367368 0.872216 0.089355
O O7 0.366159 0.809863 0.264732
O O8 0.500000 0.792396 0.000000
O O9 0.907780 0.900105 0.422724
O O10 0.768062 0.920621 0.677669
O O11 0.747931 0.876789 0.513365
O O12 0.799929 0.000000 0.495016
O O13 0.823933 0.304576 0.689356
O O14 0.071451 0.212273 0.508895
O O15 0.000000 0.113651 0.500000
O O16 0.500000 0.188062 0.500000
O O17 0.613608 0.183729 0.556357
O O18 0.682990 0.000000 0.885981
O O19 0.750000 0.250000 0.500000
#
# Coordination Sequence:
#
# PCOD9177750 Si02
#       8
#     8   8   8   8   8   8   8   8
#     4  10  19  29  49  74 111 140 169 211 265 323
#     4  10  21  32  49  79 107 137 177 218 266 318
#     4  10  20  33  52  78 109 143 183 228 272 322
#     4  10  19  32  46  75 109 138 170 217 264 308
#     4  11  17  29  49  81 111 139 175 216 266 332
#     4  11  20  33  55  80 106 137 177 225 275 318
#     4   9  18  34  50  70 104 142 176 217 266 319
#     4  11  20  35  57  77 108 145 182 219 272 326
#
# _framework density 16.090626
#
# number of rings (size 3 to 8) (size 9 to 14) (size 15 to 20)
#    0.000    1.750    6.250    0.750    1.750    2.000 
#    0.000    0.000    0.000    1.125    0.000    0.875 
#    0.000    0.000    0.000    0.000    0.000    0.000 
#
# Total GULP energy -178351.373695 kJ/mol
# GULP energy per Si atom -5573.480428 kJ/mol
# Density = 1.605400 g / cm^3
# Si number density = 16.090626 Si / 1000 Ang^3
#
#
#
# Elastic Constant Matrix: (Units=GPa)
#
#
# Indices 1 2 3 4 5 6 
#
# 1 111.7124 51.0767 32.5236 0.0000 -6.2471 0.0000
# 2 51.0767 65.9566 28.4414 0.0000 0.2416 0.0000
# 3 32.5236 28.4414 74.9587 0.0000 -10.7301 0.0000
# 4 0.0000 0.0000 0.0000 12.4037 0.0000 7.4426
# 5 -6.2471 0.2416 -10.7301 0.0000 32.2705 0.0000
# 6 0.0000 0.0000 0.0000 7.4426 0.0000 13.8098
#
#
#
# Elastic Compliance Matrix: (Units=1/GPa)
#
#
# Indices 1 2 3 4 5 6 
#
# 1 0.014348 -0.010245 -0.002026 0.000000 0.002181 0.000000
# 2 -0.010245 0.025644 -0.005876 0.000000 -0.004129 0.000000
# 3 -0.002026 -0.005876 0.017219 0.000000 0.005377 0.000000
# 4 0.000000 0.000000 0.000000 0.119151 0.000000 -0.064214
# 5 0.002181 -0.004129 0.005377 0.000000 0.033229 0.000000
# 6 0.000000 0.000000 0.000000 -0.064214 0.000000 0.107019
#
#
# Mechanical properties :
#
#
# Convention : Reuss Voigt Hill
#
# Bulk Modulus (GPa) = 47.80830 52.96790 50.38810
# Shear Modulus (GPa) = 13.89365 21.06921 17.48143
#
# Velocity S-wave (km/s) = 2.94166 3.62250 3.29969
# Velocity P-wave (km/s) = 6.42761 7.10539 6.77499
#
# Compressibility (1/GPa) = 0.02091687
#
# Stress axis : x y z
#
# Youngs Moduli (GPa) = 69.69843 38.99510 58.07580
#
# Poissons Ratio (x) = 0.39951 0.11765
# Poissons Ratio (y) = 0.71407 0.34125
# Poissons Ratio (z) = 0.14119 0.22913
#
# Static dielectric constant tensor:
#      x y z
#    x 1.547180 0.000000 0.004810 
#    y 0.000000 1.530160 0.000000 
#    z 0.004810 0.000000 1.555770 
# 
# From -- ./inp_files/159556.got.cif
#   From: 2010.05.17/outbox.cif.g08.bks.cpg/sg12_80_cif.got.tgz:159556.got - 2010.06.03 13:09:07.
