data_PCOD9177580
_publ_section_title
;
Structure prediction by ZEFSAII (Michael W. Deem and Ramdas Pophale) SiO2 
 PCOD9177580
Probable space group: C 2/M
;
_chemical_formula_sum "Si O2"
_cell_formula_units_Z 48
_cell_length_a 27.442186
_cell_length_b 8.913166
_cell_length_c 12.358660
_cell_angle_alpha 90.000000
_cell_angle_beta 73.536797
_cell_angle_gamma 90.000000
_cell_volume 2898.955633
_symmetry_space_group_name_H-M "C 2/M"
_symmetry_group_IT_number 12
_symmetry_cell_setting 'monoclinic'
loop_
_space_group_symop_operation_xyz
x,y,z
-x,y,-z
-x,-y,-z
x,-y,z
1/2+x,1/2+y,z
1/2-x,1/2+y,-z
1/2-x,1/2-y,-z
1/2+x,1/2-y,z
loop_
_atom_site_type_symbol
_atom_site_label
_atom_site_fract_x
_atom_site_fract_y
_atom_site_fract_z
Si Si1 0.618961 0.673696 0.256119
Si Si2 0.069588 0.680157 0.727181
Si Si3 0.111597 0.680631 0.918409
Si Si4 0.467032 0.326853 0.874905
Si Si5 0.441089 0.181496 0.511299
Si Si6 0.805479 0.679946 0.956145
O O1 0.632437 0.500000 0.266363
O O2 0.572900 0.678271 0.198755
O O3 0.596992 0.749571 0.377325
O O4 0.664854 0.759038 0.167847
O O5 0.068701 0.500000 0.723317
O O6 0.110962 0.723595 0.792249
O O7 0.073615 0.731926 0.600808
O O8 0.016140 0.736758 0.807258
O O9 0.106618 0.500000 0.928677
O O10 0.062722 0.754343 0.006214
O O11 0.160149 0.722873 0.960563
O O12 0.479769 0.500000 0.888194
O O13 0.500000 0.223632 0.500000
O O14 0.438725 0.000000 0.519030
O O15 0.802748 0.500000 0.953758
O O16 0.750000 0.750000 0.000000
#
# Coordination Sequence:
#
# PCOD9177580 Si02
#       6
#     8   8   8   8   8   8
#     4  10  20  33  50  74 104 135 170 208 248 292
#     4  10  19  31  47  68  99 137 171 200 238 291
#     4   9  19  33  49  70  97 130 164 201 248 302
#     4  10  19  29  44  69 101 134 167 205 243 285
#     4  10  19  31  49  72 101 139 177 208 239 283
#     4  10  20  36  58  79  99 124 161 209 261 306
#
# _framework density 16.557686
#
# number of rings (size 3 to 8) (size 9 to 14) (size 15 to 20)
#    0.000    2.167    1.667    2.000    0.000    5.667 
#    0.000    0.000    0.000    1.000    0.000    0.000 
#    0.000    0.000    0.000    0.000    0.000    0.000 
#
# Total GULP energy -133841.313393 kJ/mol
# GULP energy per Si atom -5576.721391 kJ/mol
# Density = 1.652000 g / cm^3
# Si number density = 16.557686 Si / 1000 Ang^3
#
#
#
# Elastic Constant Matrix: (Units=GPa)
#
#
# Indices 1 2 3 4 5 6 
#
# 1 77.2980 29.4194 75.0007 0.0000 -8.6117 0.0000
# 2 29.4194 25.1158 42.9356 0.0000 1.1552 0.0000
# 3 75.0007 42.9356 163.4036 0.0000 13.0079 0.0000
# 4 0.0000 0.0000 0.0000 22.3421 0.0000 -6.8228
# 5 -8.6117 1.1552 13.0079 0.0000 22.1954 0.0000
# 6 0.0000 0.0000 0.0000 -6.8228 0.0000 21.8788
#
#
#
# Elastic Compliance Matrix: (Units=1/GPa)
#
#
# Indices 1 2 3 4 5 6 
#
# 1 0.035799 -0.021473 -0.012570 0.000000 0.022374 0.000000
# 2 -0.021473 0.086452 -0.012418 0.000000 -0.005553 0.000000
# 3 -0.012570 -0.012418 0.016247 0.000000 -0.013753 0.000000
# 4 0.000000 0.000000 0.000000 0.049470 0.000000 0.015427
# 5 0.022374 -0.005553 -0.013753 0.000000 0.062085 0.000000
# 6 0.000000 0.000000 0.000000 0.015427 0.000000 0.050517
#
#
# Mechanical properties :
#
#
# Convention : Reuss Voigt Hill
#
# Bulk Modulus (GPa) = 21.94170 62.28098 42.11134
# Shear Modulus (GPa) = 12.23439 21.18072 16.70756
#
# Velocity S-wave (km/s) = 2.72121 3.58048 3.18000
# Velocity P-wave (km/s) = 4.81184 7.40198 6.24272
#
# Compressibility (1/GPa) = 0.04557531
#
# Stress axis : x y z
#
# Youngs Moduli (GPa) = 27.93370 11.56712 61.54933
#
# Poissons Ratio (x) = 0.24838 0.77369
# Poissons Ratio (y) = 0.59983 0.76431
# Poissons Ratio (z) = 0.35113 0.14364
#
# Static dielectric constant tensor:
#      x y z
#    x 1.551940 0.000000 0.048560 
#    y 0.000000 1.553420 0.000000 
#    z 0.048560 0.000000 1.561860 
# 
# From -- ./inp_files/172088.got.cif
#   From: 2010.05.17/outbox.cif.g08.bks.cpg/sg12_87_cif.got.tgz:172088.got - 2010.06.03 13:09:07.
