data_PCOD9178089
_publ_section_title
;
Structure prediction by ZEFSAII (Michael W. Deem and Ramdas Pophale) SiO2 
 PCOD9178089
Probable space group: C 2/M
;
_chemical_formula_sum "Si O2"
_cell_formula_units_Z 48
_cell_length_a 15.810017
_cell_length_b 7.552539
_cell_length_c 15.218452
_cell_angle_alpha 90.000000
_cell_angle_beta 72.188315
_cell_angle_gamma 90.000000
_cell_volume 1730.068575
_symmetry_space_group_name_H-M "C 2/M"
_symmetry_group_IT_number 12
_symmetry_cell_setting 'monoclinic'
loop_
_space_group_symop_operation_xyz
x,y,z
-x,y,-z
-x,-y,-z
x,-y,z
1/2+x,1/2+y,z
1/2-x,1/2+y,-z
1/2-x,1/2-y,-z
1/2+x,1/2-y,z
loop_
_atom_site_type_symbol
_atom_site_label
_atom_site_fract_x
_atom_site_fract_y
_atom_site_fract_z
Si Si1 0.765121 0.709624 0.354399
Si Si2 0.545822 0.796186 0.318571
Si Si3 0.612355 0.786566 0.521988
Si Si4 0.822384 0.710321 0.857552
Si Si5 0.372252 0.714574 0.029117
Si Si6 0.424886 0.295488 0.195529
O O1 0.775502 0.500000 0.344134
O O2 0.663259 0.744516 0.415237
O O3 0.821445 0.776459 0.421504
O O4 0.819726 0.791120 0.256394
O O5 0.484020 0.719852 0.415366
O O6 0.631265 0.712381 0.243777
O O7 0.477192 0.800774 0.256515
O O8 0.566002 0.000000 0.334826
O O9 0.606926 0.000000 0.527774
O O10 0.813792 0.500000 0.847136
O O11 0.726792 0.782197 0.914853
O O12 0.883372 0.735940 0.924384
O O13 0.374269 0.500000 0.031333
O O14 0.430313 0.772622 0.093999
O O15 0.453611 0.500000 0.188564
#
# Coordination Sequence:
#
# PCOD9178089 Si02
#       6
#     8   8   8   8   8   8
#     4   9  16  26  42  65  92 121 154 188 223 268
#     4   9  18  31  48  71  95 120 153 192 230 269
#     4   8  14  25  41  63  91 119 148 185 228 270
#     4   9  18  34  53  69  89 120 157 193 228 271
#     4   9  19  34  50  69  92 121 156 190 228 275
#     4  10  19  30  46  69  97 124 151 188 231 273
#
# _framework density 27.744564
#
# number of rings (size 3 to 8) (size 9 to 14) (size 15 to 20)
#    0.000    3.000    0.000    2.000    0.000    6.667 
#    0.000    3.333    0.000    1.000    0.000    7.000 
#    0.000    0.000    0.000    0.000    0.000    0.000 
#
# Total GULP energy -134237.919667 kJ/mol
# GULP energy per Si atom -5593.246653 kJ/mol
# Density = 2.768142 g / cm^3
# Si number density = 27.744564 Si / 1000 Ang^3
#
#
#
# Elastic Constant Matrix: (Units=GPa)
#
#
# Indices 1 2 3 4 5 6 
#
# 1 90.0685 -4.9457 21.8078 0.0000 -8.4343 0.0000
# 2 -4.9457 94.5831 -1.6498 0.0000 3.1723 0.0000
# 3 21.8078 -1.6498 229.4689 0.0000 7.8344 0.0000
# 4 0.0000 0.0000 0.0000 23.7547 0.0000 1.5172
# 5 -8.4343 3.1723 7.8344 0.0000 63.4422 0.0000
# 6 0.0000 0.0000 0.0000 1.5172 0.0000 13.4854
#
#
#
# Elastic Compliance Matrix: (Units=1/GPa)
#
#
# Indices 1 2 3 4 5 6 
#
# 1 0.011565 0.000529 -0.001152 0.000000 0.001653 0.000000
# 2 0.000529 0.010617 0.000042 0.000000 -0.000466 0.000000
# 3 -0.001152 0.000042 0.004492 0.000000 -0.000710 0.000000
# 4 0.000000 0.000000 0.000000 0.042402 0.000000 -0.004771
# 5 0.001653 -0.000466 -0.000710 0.000000 0.016093 0.000000
# 6 0.000000 0.000000 0.000000 -0.004771 0.000000 0.074691
#
#
# Mechanical properties :
#
#
# Convention : Reuss Voigt Hill
#
# Bulk Modulus (GPa) = 39.19603 49.39390 44.29497
# Shear Modulus (GPa) = 29.49408 46.73034 38.11221
#
# Velocity S-wave (km/s) = 3.26399 4.10848 3.71034
# Velocity P-wave (km/s) = 5.32569 6.35200 5.86135
#
# Compressibility (1/GPa) = 0.02551279
#
# Stress axis : x y z
#
# Youngs Moduli (GPa) = 86.46464 94.19094 222.62357
#
# Poissons Ratio (x) = -0.04985 0.25641
# Poissons Ratio (y) = -0.04576 -0.00934
# Poissons Ratio (z) = 0.09959 -0.00395
#
# Static dielectric constant tensor:
#      x y z
#    x 2.323290 0.000000 -0.023460 
#    y 0.000000 2.006820 0.000000 
#    z -0.023460 0.000000 2.171490 
# 
# From -- ./inp_files/280039.got.cif
#   From: 2010.05.17/outbox.cif.g08.bks.cpg/sg12_141_cif.got.tgz:280039.got - 2010.06.03 13:09:07.
