data_PCOD9178435
_publ_section_title
;
Structure prediction by ZEFSAII (Michael W. Deem and Ramdas Pophale) SiO2 
 PCOD9178435
Probable space group: C 2/M
;
_chemical_formula_sum "Si O2"
_cell_formula_units_Z 64
_cell_length_a 5.189594
_cell_length_b 24.365099
_cell_length_c 29.549897
_cell_angle_alpha 90.000000
_cell_angle_beta 79.882141
_cell_angle_gamma 90.000000
_cell_volume 3678.328594
_symmetry_space_group_name_H-M "C 2/M"
_symmetry_group_IT_number 12
_symmetry_cell_setting 'monoclinic'
loop_
_space_group_symop_operation_xyz
x,y,z
-x,y,-z
-x,-y,-z
x,-y,z
1/2+x,1/2+y,z
1/2-x,1/2+y,-z
1/2-x,1/2-y,-z
1/2+x,1/2-y,z
loop_
_atom_site_type_symbol
_atom_site_label
_atom_site_fract_x
_atom_site_fract_y
_atom_site_fract_z
Si Si1 0.610408 0.066119 0.448962
Si Si2 0.164167 0.062956 0.848921
Si Si3 0.331091 0.566498 0.608574
Si Si4 0.139303 0.117284 0.294335
Si Si5 0.152654 0.365990 0.863223
Si Si6 0.592120 0.786596 0.949141
Si Si7 0.284488 0.787485 0.226336
Si Si8 0.326986 0.938406 0.739795
O O1 0.500000 0.087848 0.500000
O O2 0.423854 0.080768 0.412835
O O3 0.911073 0.078487 0.429089
O O4 0.595197 0.000000 0.452060
O O5 0.416067 0.092592 0.861488
O O6 0.207271 0.062315 0.793432
O O7 0.910486 0.099162 0.865726
O O8 0.137916 0.000000 0.864776
O O9 0.329246 0.500000 0.618684
O O10 0.345151 0.602246 0.653477
O O11 0.206845 0.177294 0.273065
O O12 0.372344 0.079770 0.266414
O O13 0.854041 0.100368 0.284954
O O14 0.088398 0.327161 0.907271
O O15 0.199135 0.328859 0.816928
O O16 0.381347 0.738509 0.946028
O O17 0.500000 0.811516 0.000000
O O18 0.561704 0.757598 0.223813
O O19 0.313084 0.000000 0.721337
#
# Coordination Sequence:
#
# PCOD9178435 Si02
#       8
#     8   8   8   8   8   8   8   8
#     4   9  17  30  47  70 104 140 172 210 257 314
#     4  11  22  36  56  83 112 144 188 225 261 321
#     4  10  19  30  48  75 103 138 176 211 260 319
#     4  12  22  36  51  76 110 143 181 228 265 321
#     4  12  21  39  60  83 111 147 186 226 277 330
#     4  10  21  38  61  90 116 142 183 238 293 336
#     4  12  24  38  54  76 106 142 185 225 270 325
#     4  11  20  34  52  75 106 143 179 219 264 306
#
# _framework density 17.399208000000002
#
# number of rings (size 3 to 8) (size 9 to 14) (size 15 to 20)
#    0.000    1.125    2.500    5.625    0.000    4.500 
#    0.000    0.000    0.000    2.250    0.000    0.000 
#    0.000   10.000    0.000    0.000    0.000    0.000 
#
# Total GULP energy -178711.981190 kJ/mol
# GULP energy per Si atom -5584.749412 kJ/mol
# Density = 1.735961 g / cm^3
# Si number density = 17.399208 Si / 1000 Ang^3
#
#
#
# Elastic Constant Matrix: (Units=GPa)
#
#
# Indices 1 2 3 4 5 6 
#
# 1 77.8784 12.5682 3.7472 0.0000 11.3978 0.0000
# 2 12.5682 55.3762 32.0068 0.0000 0.5590 0.0000
# 3 3.7472 32.0068 74.9373 0.0000 1.2779 0.0000
# 4 0.0000 0.0000 0.0000 26.4451 0.0000 -0.1573
# 5 11.3978 0.5590 1.2779 0.0000 25.7531 0.0000
# 6 0.0000 0.0000 0.0000 -0.1573 0.0000 40.0215
#
#
#
# Elastic Compliance Matrix: (Units=1/GPa)
#
#
# Indices 1 2 3 4 5 6 
#
# 1 0.014323 -0.003765 0.000999 0.000000 -0.006307 0.000000
# 2 -0.003765 0.024967 -0.010504 0.000000 0.001645 0.000000
# 3 0.000999 -0.010504 0.017799 0.000000 -0.001097 0.000000
# 4 0.000000 0.000000 0.000000 0.037815 0.000000 0.000149
# 5 -0.006307 0.001645 -0.001097 0.000000 0.041640 0.000000
# 6 0.000000 0.000000 0.000000 0.000149 0.000000 0.024987
#
#
# Mechanical properties :
#
#
# Convention : Reuss Voigt Hill
#
# Bulk Modulus (GPa) = 32.73148 33.87070 33.30109
# Shear Modulus (GPa) = 25.22017 29.10193 27.16105
#
# Velocity S-wave (km/s) = 3.81136 4.09418 3.95530
# Velocity P-wave (km/s) = 6.18236 6.46984 6.32773
#
# Compressibility (1/GPa) = 0.03055162
#
# Stress axis : x y z
#
# Youngs Moduli (GPa) = 69.81754 40.05270 56.18143
#
# Poissons Ratio (x) = 0.15079 -0.05614
# Poissons Ratio (y) = 0.26284 0.59011
# Poissons Ratio (z) = -0.06977 0.42070
#
# Static dielectric constant tensor:
#      x y z
#    x 1.583810 0.000000 -0.001450 
#    y 0.000000 1.579510 0.000000 
#    z -0.001450 0.000000 1.591090 
# 
# From -- ./inp_files/355063.got.cif
#   From: 2010.05.17/outbox.cif.g08.bks.cpg/sg12_178_cif.got.tgz:355063.got - 2010.06.03 13:09:07.
