data_PCOD9178119
_publ_section_title
;
Structure prediction by ZEFSAII (Michael W. Deem and Ramdas Pophale) SiO2 
 PCOD9178119
Probable space group: C 2/M
;
_chemical_formula_sum "Si O2"
_cell_formula_units_Z 56
_cell_length_a 21.952943
_cell_length_b 9.204151
_cell_length_c 21.435759
_cell_angle_alpha 90.000000
_cell_angle_beta 50.926527
_cell_angle_gamma 90.000000
_cell_volume 3362.531580
_symmetry_space_group_name_H-M "C 2/M"
_symmetry_group_IT_number 12
_symmetry_cell_setting 'monoclinic'
loop_
_space_group_symop_operation_xyz
x,y,z
-x,y,-z
-x,-y,-z
x,-y,z
1/2+x,1/2+y,z
1/2-x,1/2+y,-z
1/2-x,1/2-y,-z
1/2+x,1/2-y,z
loop_
_atom_site_type_symbol
_atom_site_label
_atom_site_fract_x
_atom_site_fract_y
_atom_site_fract_z
Si Si1 0.262493 0.328140 0.403431
Si Si2 0.876049 0.328651 0.427047
Si Si3 0.998798 0.171193 0.728395
Si Si4 0.411967 0.829313 0.082238
Si Si5 0.886123 0.168719 0.226426
Si Si6 0.324994 0.329722 0.029424
Si Si7 0.641076 0.829580 0.118785
O O1 0.278177 0.500000 0.408951
O O2 0.171173 0.303060 0.477834
O O3 0.313019 0.225236 0.416067
O O4 0.299291 0.306807 0.311538
O O5 0.890887 0.500000 0.411069
O O6 0.953679 0.239756 0.360091
O O7 0.054152 0.189986 0.754187
O O8 0.918704 0.252981 0.795760
O O9 0.986935 0.000000 0.727314
O O10 0.405057 0.770696 0.156718
O O11 0.355028 0.741015 0.073379
O O12 0.393927 0.000000 0.091136
O O13 0.500000 0.807750 0.000000
O O14 0.892388 0.000000 0.202987
O O15 0.345014 0.500000 0.013748
O O16 0.231095 0.315233 0.082883
O O17 0.363243 0.247766 0.945763
O O18 0.622651 0.000000 0.124473
#
# Coordination Sequence:
#
# PCOD9178119 Si02
#       7
#     8   8   8   8   8   8   8
#     4   8  15  27  41  61  91 125 158 192 234 283
#     4   9  15  24  41  64  92 124 156 193 234 277
#     4  10  19  30  46  70  99 129 159 192 234 281
#     4  11  23  35  48  69  96 125 159 197 232 271
#     4   9  18  31  46  66  94 127 161 193 230 280
#     4  10  21  36  53  71  93 124 157 191 235 281
#     4  10  20  34  52  73  95 120 155 196 234 276
#
# _framework density 16.654118
#
# number of rings (size 3 to 8) (size 9 to 14) (size 15 to 20)
#    0.000    2.429    0.000    3.857    0.000    8.571 
#    0.000    0.000    0.000    0.000    0.000    1.000 
#    0.000    8.000    0.000    0.000    0.000    0.000 
#
# Total GULP energy -156076.169837 kJ/mol
# GULP energy per Si atom -5574.148923 kJ/mol
# Density = 1.661621 g / cm^3
# Si number density = 16.654118 Si / 1000 Ang^3
#
#
#
# Elastic Constant Matrix: (Units=GPa)
#
#
# Indices 1 2 3 4 5 6 
#
# 1 17.0449 26.7436 5.9537 0.0000 2.4113 0.0000
# 2 26.7436 101.9550 64.9165 -0.0001 -8.4283 0.0004
# 3 5.9537 64.9165 107.1793 0.0000 -16.5199 -0.0001
# 4 0.0000 -0.0001 0.0000 28.7919 0.0000 -0.9142
# 5 2.4113 -8.4283 -16.5199 0.0000 17.2223 0.0000
# 6 0.0000 0.0004 -0.0001 -0.9142 0.0000 19.2378
#
#
#
# Elastic Compliance Matrix: (Units=1/GPa)
#
#
# Indices 1 2 3 4 5 6 
#
# 1 0.130686 -0.047657 0.017826 0.000000 -0.024520 0.000001
# 2 -0.047657 0.033388 -0.016462 0.000000 0.007221 -0.000001
# 3 0.017826 -0.016462 0.019579 0.000000 0.008228 0.000000
# 4 0.000000 0.000000 0.000000 0.034784 0.000000 0.001653
# 5 -0.024520 0.007221 0.008228 0.000000 0.072924 0.000000
# 6 0.000001 -0.000001 0.000000 0.001653 0.000000 0.052060
#
#
# Mechanical properties :
#
#
# Convention : Reuss Voigt Hill
#
# Bulk Modulus (GPa) = 10.98101 46.82300 28.90201
# Shear Modulus (GPa) = 10.72130 21.62142 16.17136
#
# Velocity S-wave (km/s) = 2.54000 3.60705 3.11949
# Velocity P-wave (km/s) = 3.90000 6.74713 5.51062
#
# Compressibility (1/GPa) = 0.09106627
#
# Stress axis : x y z
#
# Youngs Moduli (GPa) = 7.65195 29.95122 51.07540
#
# Poissons Ratio (x) = 1.42739 -0.91048
# Poissons Ratio (y) = 0.36467 0.84080
# Poissons Ratio (z) = -0.13640 0.49306
#
# Static dielectric constant tensor:
#      x y z
#    x 1.543110 0.000000 -0.020830 
#    y 0.000000 1.556040 0.000000 
#    z -0.020830 0.000000 1.593900 
# 
# From -- ./inp_files/287870.got.cif
#   From: 2010.05.17/outbox.cif.g08.bks.cpg/sg12_144_cif.got.tgz:287870.got - 2010.06.03 13:09:07.
