data_PCOD9178341
_publ_section_title
;
Structure prediction by ZEFSAII (Michael W. Deem and Ramdas Pophale) SiO2 
 PCOD9178341
Probable space group: C 2/M
;
_chemical_formula_sum "Si O2"
_cell_formula_units_Z 64
_cell_length_a 14.824409
_cell_length_b 31.223961
_cell_length_c 7.481108
_cell_angle_alpha 90.000000
_cell_angle_beta 52.072880
_cell_angle_gamma 90.000000
_cell_volume 2731.457741
_symmetry_space_group_name_H-M "C 2/M"
_symmetry_group_IT_number 12
_symmetry_cell_setting 'monoclinic'
loop_
_space_group_symop_operation_xyz
x,y,z
-x,y,-z
-x,-y,-z
x,-y,z
1/2+x,1/2+y,z
1/2-x,1/2+y,-z
1/2-x,1/2-y,-z
1/2+x,1/2-y,z
loop_
_atom_site_type_symbol
_atom_site_label
_atom_site_fract_x
_atom_site_fract_y
_atom_site_fract_z
Si Si1 0.406915 0.345081 0.463913
Si Si2 0.828224 0.639942 0.387892
Si Si3 0.704576 0.954319 0.556492
Si Si4 0.252470 0.642214 0.098703
Si Si5 0.945620 0.214555 0.874387
Si Si6 0.039231 0.692416 0.247866
Si Si7 0.199614 0.953952 0.958814
Si Si8 0.959216 0.934630 0.342795
O O1 0.500000 0.355699 0.500000
O O2 0.271074 0.347659 0.631020
O O3 0.443073 0.297037 0.377947
O O4 0.439931 0.385547 0.298159
O O5 0.858321 0.590002 0.321041
O O6 0.772431 0.641685 0.656598
O O7 0.933071 0.672637 0.268365
O O8 0.732235 0.953878 0.310561
O O9 0.831762 0.952732 0.485995
O O10 0.649323 0.000000 0.668567
O O11 0.136851 0.657270 0.146847
O O12 0.281466 0.594500 0.992033
O O13 0.348575 0.679076 0.954361
O O14 0.912430 0.263322 0.888023
O O15 0.000000 0.207364 0.000000
O O16 0.000000 0.700922 0.500000
O O17 0.229341 0.000000 0.012785
O O18 0.062546 0.954037 0.104921
O O19 0.000000 0.940004 0.500000
#
# Coordination Sequence:
#
# PCOD9178341 Si02
#       8
#     8   8   8   8   8   8   8   8
#     4  10  20  35  56  84 113 148 183 229 285 340
#     4   9  19  38  59  80 115 151 187 232 288 336
#     4   9  18  31  52  79 107 146 190 228 276 338
#     4  10  20  39  61  82 116 150 190 235 284 333
#     4  12  22  38  60  86 113 147 188 239 286 336
#     4  10  23  42  59  81 111 156 192 235 283 337
#     4  10  19  32  54  81 112 149 187 227 276 338
#     4  10  19  30  47  78 116 147 180 226 282 335
#
# _framework density 23.430713000000001
#
# number of rings (size 3 to 8) (size 9 to 14) (size 15 to 20)
#    0.000    2.000    2.500    1.500    0.000    2.500 
#    4.500    0.625    0.000    3.750    0.000    0.000 
#    0.000    5.500    0.000    0.000    0.000    0.000 
#
# Total GULP energy -178328.915396 kJ/mol
# GULP energy per Si atom -5572.778606 kJ/mol
# Density = 2.337738 g / cm^3
# Si number density = 23.430713 Si / 1000 Ang^3
#
#
#
# Elastic Constant Matrix: (Units=GPa)
#
#
# Indices 1 2 3 4 5 6 
#
# 1 106.5614 57.6182 7.0835 0.0000 -18.0346 0.0000
# 2 57.6182 183.1887 14.8427 0.0000 -21.3719 0.0000
# 3 7.0835 14.8427 36.6546 0.0000 -3.8873 0.0000
# 4 0.0000 0.0000 0.0000 -4.2074 0.0000 5.0836
# 5 -18.0346 -21.3719 -3.8873 0.0000 12.2944 0.0000
# 6 0.0000 0.0000 0.0000 5.0836 0.0000 14.4824
#
#
#
# Elastic Compliance Matrix: (Units=1/GPa)
#
#
# Indices 1 2 3 4 5 6 
#
# 1 0.013266 -0.002388 0.000028 0.000000 0.015318 0.000000
# 2 -0.002388 0.007365 -0.001588 0.000000 0.008798 0.000000
# 3 0.000028 -0.001588 0.028590 0.000000 0.006320 0.000000
# 4 0.000000 0.000000 0.000000 -0.166893 0.000000 0.058583
# 5 0.015318 0.008798 0.006320 0.000000 0.121100 0.000000
# 6 0.000000 0.000000 0.000000 0.058583 0.000000 0.048486
#
#
# Mechanical properties :
#
#
# Convention : Reuss Voigt Hill
#
# Bulk Modulus (GPa) = 24.19849 53.94370 39.07110
# Shear Modulus (GPa) = 67.94989 20.97123 44.46056
#
# Velocity S-wave (km/s) = 5.39104 2.99495 4.36079
# Velocity P-wave (km/s) = 7.00722 5.91881 6.48589
#
# Compressibility (1/GPa) = 0.04132489
#
# Stress axis : x y z
#
# Youngs Moduli (GPa) = 75.38163 135.77782 34.97776
#
# Poissons Ratio (x) = 0.32419 -0.00097
# Poissons Ratio (y) = 0.17999 0.05554
# Poissons Ratio (z) = -0.00209 0.21559
#
# Static dielectric constant tensor:
#      x y z
#    x 1.883820 0.000000 0.097600 
#    y 0.000000 1.921340 0.000000 
#    z 0.097600 0.000000 1.983850 
# 
# From -- ./inp_files/68575.got.cif
#   From: 2010.05.17/outbox.cif.g08.bks.cpg/sg12_35_cif.got.tgz:68575.got - 2010.06.03 13:09:07.
