data_PCOD9178769
_publ_section_title
;
Structure prediction by ZEFSAII (Michael W. Deem and Ramdas Pophale) SiO2 
 PCOD9178769
Probable space group: C 2/M
;
_chemical_formula_sum "Si O2"
_cell_formula_units_Z 56
_cell_length_a 24.868916
_cell_length_b 8.734437
_cell_length_c 16.602797
_cell_angle_alpha 90.000000
_cell_angle_beta 76.648760
_cell_angle_gamma 90.000000
_cell_volume 3508.921937
_symmetry_space_group_name_H-M "C 2/M"
_symmetry_group_IT_number 12
_symmetry_cell_setting 'monoclinic'
loop_
_space_group_symop_operation_xyz
x,y,z
-x,y,-z
-x,-y,-z
x,-y,z
1/2+x,1/2+y,z
1/2-x,1/2+y,-z
1/2-x,1/2-y,-z
1/2+x,1/2-y,z
loop_
_atom_site_type_symbol
_atom_site_label
_atom_site_fract_x
_atom_site_fract_y
_atom_site_fract_z
Si Si1 0.581872 0.317050 0.510159
Si Si2 0.599590 0.680464 0.223834
Si Si3 0.727200 0.319864 0.880699
Si Si4 0.285844 0.679817 0.717351
Si Si5 0.328783 0.316054 0.944564
Si Si6 0.521373 0.181434 0.374582
Si Si7 0.202212 0.318361 0.460965
O O1 0.580928 0.500000 0.505915
O O2 0.559483 0.249732 0.433125
O O3 0.538252 0.257585 0.591211
O O4 0.643302 0.256760 0.502504
O O5 0.586650 0.500000 0.235029
O O6 0.656026 0.706270 0.255838
O O7 0.616194 0.715262 0.125771
O O8 0.551115 0.775636 0.281257
O O9 0.726755 0.500000 0.862729
O O10 0.737321 0.226917 0.795735
O O11 0.780640 0.278666 0.916935
O O12 0.676339 0.284000 0.958603
O O13 0.282994 0.500000 0.699337
O O14 0.285573 0.775416 0.635997
O O15 0.317415 0.500000 0.938084
O O16 0.517252 0.000000 0.386195
O O17 0.198891 0.500000 0.471557
O O18 0.250000 0.250000 0.500000
#
# Coordination Sequence:
#
# PCOD9178769 Si02
#       7
#     8   8   8   8   8   8   8
#     4  11  21  35  51  68  92 124 158 196 241 285
#     4   9  16  27  43  63  92 126 159 192 233 282
#     4   9  15  24  39  59  84 117 155 193 230 274
#     4  10  19  31  46  64  90 123 158 194 235 282
#     4   8  15  25  37  56  86 121 155 189 229 276
#     4  11  20  30  47  71  96 124 160 200 236 282
#     4  12  24  38  54  72  94 122 159 201 241 284
#
# _framework density 15.959318
#
# number of rings (size 3 to 8) (size 9 to 14) (size 15 to 20)
#    0.000    2.000    1.429    6.429    0.000    2.857 
#    0.000    0.000    0.000    0.000    0.000    0.000 
#    0.000    1.143    0.000   12.286    0.000    5.714 
#
# Total GULP energy -156090.598895 kJ/mol
# GULP energy per Si atom -5574.664246 kJ/mol
# Density = 1.592299 g / cm^3
# Si number density = 15.959318 Si / 1000 Ang^3
#
#
#
# Elastic Constant Matrix: (Units=GPa)
#
#
# Indices 1 2 3 4 5 6 
#
# 1 69.8852 35.2938 38.5414 0.0000 -14.2086 0.0000
# 2 35.2938 96.6923 36.8617 0.0000 -10.8695 0.0000
# 3 38.5414 36.8617 79.3595 0.0000 -32.3504 0.0000
# 4 0.0000 0.0000 0.0000 26.2825 0.0000 -5.1432
# 5 -14.2086 -10.8695 -32.3504 0.0000 20.6805 0.0000
# 6 0.0000 0.0000 0.0000 -5.1432 0.0000 19.0392
#
#
#
# Elastic Compliance Matrix: (Units=1/GPa)
#
#
# Indices 1 2 3 4 5 6 
#
# 1 0.021134 -0.004529 -0.008863 0.000000 -0.001725 0.000000
# 2 -0.004529 0.013913 -0.007039 0.000000 -0.006810 0.000000
# 3 -0.008863 -0.007039 0.044669 0.000000 0.060086 0.000000
# 4 0.000000 0.000000 0.000000 0.040172 0.000000 0.010852
# 5 -0.001725 -0.006810 0.060086 0.000000 0.137582 0.000000
# 6 0.000000 0.000000 0.000000 0.010852 0.000000 0.055455
#
#
# Mechanical properties :
#
#
# Convention : Reuss Voigt Hill
#
# Bulk Modulus (GPa) = 25.73845 51.92564 38.83204
# Shear Modulus (GPa) = 13.63370 22.21646 17.92508
#
# Velocity S-wave (km/s) = 2.92598 3.73509 3.35501
# Velocity P-wave (km/s) = 5.25144 7.15598 6.27637
#
# Compressibility (1/GPa) = 0.03885238
#
# Stress axis : x y z
#
# Youngs Moduli (GPa) = 47.31753 71.87417 22.38703
#
# Poissons Ratio (x) = 0.32552 0.19842
# Poissons Ratio (y) = 0.21431 0.15759
# Poissons Ratio (z) = 0.41939 0.50594
#
# Static dielectric constant tensor:
#      x y z
#    x 1.507710 0.000000 -0.036780 
#    y 0.000000 1.535250 0.000000 
#    z -0.036780 0.000000 1.578960 
# 
# From -- ./inp_files/280178.got.cif
#   From: 2010.05.17/outbox.cif.g08.bks.cpg/sg12_141_cif.got.tgz:280178.got - 2010.06.03 13:09:07.
