data_PCOD9178740
_publ_section_title
;
Structure prediction by ZEFSAII (Michael W. Deem and Ramdas Pophale) SiO2 
 PCOD9178740
Probable space group: C 2/M
;
_chemical_formula_sum "Si O2"
_cell_formula_units_Z 48
_cell_length_a 7.562332
_cell_length_b 18.576914
_cell_length_c 19.817737
_cell_angle_alpha 90.000000
_cell_angle_beta 67.570122
_cell_angle_gamma 90.000000
_cell_volume 2573.466368
_symmetry_space_group_name_H-M "C 2/M"
_symmetry_group_IT_number 12
_symmetry_cell_setting 'monoclinic'
loop_
_space_group_symop_operation_xyz
x,y,z
-x,y,-z
-x,-y,-z
x,-y,z
1/2+x,1/2+y,z
1/2-x,1/2+y,-z
1/2-x,1/2-y,-z
1/2+x,1/2-y,z
loop_
_atom_site_type_symbol
_atom_site_label
_atom_site_fract_x
_atom_site_fract_y
_atom_site_fract_z
Si Si1 0.083527 0.912107 0.916417
Si Si2 0.641078 0.083115 0.642871
Si Si3 0.211842 0.833911 0.500011
Si Si4 0.992934 0.412194 0.804199
Si Si5 0.573079 0.416885 0.642894
Si Si6 0.101516 0.912194 0.195778
O O1 0.300826 0.889582 0.869518
O O2 0.959934 0.889582 0.869549
O O3 0.082248 0.000000 0.917698
O O4 0.000000 0.887634 0.000000
O O5 0.647693 0.129001 0.574149
O O6 0.507779 0.109671 0.723471
O O7 0.855887 0.083519 0.644074
O O8 0.595911 0.000000 0.633819
O O9 0.250000 0.750000 0.500000
O O10 0.203932 0.870991 0.574184
O O11 0.000000 0.844355 0.500000
O O12 0.995042 0.500000 0.802263
O O13 0.185459 0.389195 0.814459
O O14 0.636353 0.500000 0.633842
O O15 0.545131 0.390333 0.723502
O O16 0.099757 0.000000 0.197713
#
# Coordination Sequence:
#
# PCOD9178740 Si02
#       6
#     8   8   8   8   8   8
#     4   9  16  24  36  59  91 121 145 178 230 281
#     4   8  14  27  48  66  82 118 165 196 221 263
#     4  10  19  31  45  65  95 122 146 192 236 278
#     4   8  14  25  40  59  83 114 153 190 222 265
#     4   8  14  27  48  66  82 118 165 196 221 263
#     4   8  14  25  40  59  83 114 153 190 222 265
#
# _framework density 18.651886000000001
#
# number of rings (size 3 to 8) (size 9 to 14) (size 15 to 20)
#    0.000    3.500    0.000    2.500    0.000    2.667 
#    3.000    3.333    0.000    1.000    0.000    0.000 
#    0.000    1.333    0.667    0.000    0.000    0.000 
#
# Total GULP energy -133718.645874 kJ/mol
# GULP energy per Si atom -5571.610245 kJ/mol
# Density = 1.860943 g / cm^3
# Si number density = 18.651886 Si / 1000 Ang^3
#
#
#
# Elastic Constant Matrix: (Units=GPa)
#
#
# Indices 1 2 3 4 5 6 
#
# 1 76.5150 11.0517 72.7697 0.0000 0.3089 0.0000
# 2 11.0517 32.8884 53.0133 0.0000 0.1358 0.0000
# 3 72.7697 53.0133 238.1946 0.0000 0.5286 0.0000
# 4 0.0000 0.0000 0.0000 -3.2430 0.0000 -0.0027
# 5 0.3089 0.1358 0.5286 0.0000 100.2227 0.0000
# 6 0.0000 0.0000 0.0000 -0.0027 0.0000 9.9057
#
#
#
# Elastic Compliance Matrix: (Units=1/GPa)
#
#
# Indices 1 2 3 4 5 6 
#
# 1 0.018858 0.004600 -0.006785 0.000000 -0.000029 0.000000
# 2 0.004600 0.048539 -0.012208 0.000000 -0.000016 0.000000
# 3 -0.006785 -0.012208 0.008988 0.000000 -0.000010 0.000000
# 4 0.000000 0.000000 0.000000 -0.308356 0.000000 -0.000084
# 5 -0.000029 -0.000016 -0.000010 0.000000 0.009978 0.000000
# 6 0.000000 0.000000 0.000000 -0.000084 0.000000 0.100952
#
#
# Mechanical properties :
#
#
# Convention : Reuss Voigt Hill
#
# Bulk Modulus (GPa) = 21.00922 69.02970 45.01946
# Shear Modulus (GPa) = -65.45425 35.42799 -15.01313
#
# Velocity S-wave (km/s) = -5.93032 4.36298 -2.84018
# Velocity P-wave (km/s) = 5.96685 7.90383 3.66519
#
# Compressibility (1/GPa) = 0.04759816
#
# Stress axis : x y z
#
# Youngs Moduli (GPa) = 53.02850 20.60217 111.25780
#
# Poissons Ratio (x) = -0.09476 0.75486
# Poissons Ratio (y) = -0.24392 1.35825
# Poissons Ratio (z) = 0.35979 0.25151
#
# Static dielectric constant tensor:
#      x y z
#    x 1.695580 0.000000 0.000010 
#    y 0.000000 1.593850 0.000000 
#    z 0.000010 0.000000 1.654760 
# 
# From -- ./inp_files/257526.got.cif
#   From: 2010.05.17/outbox.cif.g08.bks.cpg/sg12_129_cif.got.tgz:257526.got - 2010.06.03 13:09:07.
