data_PCOD9178034
_publ_section_title
;
Structure prediction by ZEFSAII (Michael W. Deem and Ramdas Pophale) SiO2 
 PCOD9178034
Probable space group: C 2/M
;
_chemical_formula_sum "Si O2"
_cell_formula_units_Z 56
_cell_length_a 13.662420
_cell_length_b 8.549976
_cell_length_c 20.490854
_cell_angle_alpha 90.000000
_cell_angle_beta 72.476430
_cell_angle_gamma 90.000000
_cell_volume 2282.525916
_symmetry_space_group_name_H-M "C 2/M"
_symmetry_group_IT_number 12
_symmetry_cell_setting 'monoclinic'
loop_
_space_group_symop_operation_xyz
x,y,z
-x,y,-z
-x,-y,-z
x,-y,z
1/2+x,1/2+y,z
1/2-x,1/2+y,-z
1/2-x,1/2-y,-z
1/2+x,1/2-y,z
loop_
_atom_site_type_symbol
_atom_site_label
_atom_site_fract_x
_atom_site_fract_y
_atom_site_fract_z
Si Si1 0.527127 0.322233 0.303984
Si Si2 0.885659 0.673549 0.842096
Si Si3 0.696875 0.812229 0.411826
Si Si4 0.633197 0.312085 0.019178
Si Si5 0.313701 0.319916 0.268948
Si Si6 0.089489 0.812603 0.553964
Si Si7 0.859108 0.178157 0.122133
O O1 0.564371 0.500000 0.304850
O O2 0.589571 0.240712 0.234063
O O3 0.413919 0.331509 0.293593
O O4 0.499485 0.247671 0.379965
O O5 0.928534 0.500000 0.838085
O O6 0.918109 0.764276 0.901504
O O7 0.762643 0.666540 0.868210
O O8 0.723374 0.752680 0.333013
O O9 0.802960 0.779373 0.430179
O O10 0.609772 0.744135 0.476500
O O11 0.685501 0.000000 0.410526
O O12 0.633437 0.500000 0.015715
O O13 0.750000 0.250000 0.000000
O O14 0.597443 0.255141 0.954301
O O15 0.282411 0.500000 0.258897
O O16 0.353867 0.242453 0.194226
O O17 0.076224 0.000000 0.555238
O O18 0.900063 0.000000 0.121626
#
# Coordination Sequence:
#
# PCOD9178034 Si02
#       7
#     8   8   8   8   8   8   8
#     4   9  17  29  46  66  88 116 146 179 219 258
#     4  10  19  30  46  67  90 116 146 181 219 259
#     4   8  13  22  40  63  83 107 139 176 214 249
#     4   9  16  28  47  68  88 113 147 183 217 255
#     4   8  14  27  46  67  89 111 143 184 219 254
#     4   8  14  24  38  59  86 112 139 172 211 255
#     4   8  15  28  47  68  86 109 144 183 217 252
#
# _framework density 24.534222
#
# number of rings (size 3 to 8) (size 9 to 14) (size 15 to 20)
#    0.000    3.429    0.000    3.429    0.000    0.571 
#    0.000    2.857    0.000   15.429    0.000    6.000 
#    0.000    0.000    0.000    0.000    0.000    0.000 
#
# Total GULP energy -156087.690266 kJ/mol
# GULP energy per Si atom -5574.560367 kJ/mol
# Density = 2.447838 g / cm^3
# Si number density = 24.534222 Si / 1000 Ang^3
#
#
#
# Elastic Constant Matrix: (Units=GPa)
#
#
# Indices 1 2 3 4 5 6 
#
# 1 47.9036 2.3946 44.2983 0.0000 -5.5310 0.0000
# 2 2.3946 30.7495 54.6627 0.0000 -4.9438 0.0000
# 3 44.2983 54.6627 322.5845 0.0000 -1.7209 0.0000
# 4 0.0000 0.0000 0.0000 35.3144 0.0000 -0.9350
# 5 -5.5310 -4.9438 -1.7209 0.0000 63.6081 0.0000
# 6 0.0000 0.0000 0.0000 -0.9350 0.0000 9.0218
#
#
#
# Elastic Compliance Matrix: (Units=1/GPa)
#
#
# Indices 1 2 3 4 5 6 
#
# 1 0.025032 0.006509 -0.004527 0.000000 0.002560 0.000000
# 2 0.006509 0.048982 -0.009172 0.000000 0.004125 0.000000
# 3 -0.004527 -0.009172 0.005271 0.000000 -0.000964 0.000000
# 4 0.000000 0.000000 0.000000 0.028395 0.000000 0.002943
# 5 0.002560 0.004125 -0.000964 0.000000 0.016238 0.000000
# 6 0.000000 0.000000 0.000000 0.002943 0.000000 0.111147
#
#
# Mechanical properties :
#
#
# Convention : Reuss Voigt Hill
#
# Bulk Modulus (GPa) = 15.40704 67.10542 41.25623
# Shear Modulus (GPa) = 18.44483 41.58100 30.01291
#
# Velocity S-wave (km/s) = 2.74487 4.12128 3.50138
# Velocity P-wave (km/s) = 4.04218 7.07515 5.76181
#
# Compressibility (1/GPa) = 0.06490539
#
# Stress axis : x y z
#
# Youngs Moduli (GPa) = 39.94957 20.41571 189.72947
#
# Poissons Ratio (x) = -0.13289 0.85886
# Poissons Ratio (y) = -0.26005 1.74019
# Poissons Ratio (z) = 0.18084 0.18725
#
# Static dielectric constant tensor:
#      x y z
#    x 2.090580 0.000000 -0.010360 
#    y 0.000000 2.049110 0.000000 
#    z -0.010360 0.000000 2.084950 
# 
# From -- ./inp_files/313661.got.cif
#   From: 2010.05.17/outbox.cif.g08.bks.cpg/sg12_157_cif.got.tgz:313661.got - 2010.06.03 13:09:07.
