data_PCOD9178830
_publ_section_title
;
Structure prediction by ZEFSAII (Michael W. Deem and Ramdas Pophale) SiO2 
 PCOD9178830
Probable space group: C 2/M
;
_chemical_formula_sum "Si O2"
_cell_formula_units_Z 48
_cell_length_a 15.678324
_cell_length_b 7.516408
_cell_length_c 17.280469
_cell_angle_alpha 90.000000
_cell_angle_beta 57.543368
_cell_angle_gamma 90.000000
_cell_volume 1718.319599
_symmetry_space_group_name_H-M "C 2/M"
_symmetry_group_IT_number 12
_symmetry_cell_setting 'monoclinic'
loop_
_space_group_symop_operation_xyz
x,y,z
-x,y,-z
-x,-y,-z
x,-y,z
1/2+x,1/2+y,z
1/2-x,1/2+y,-z
1/2-x,1/2-y,-z
1/2+x,1/2-y,z
loop_
_atom_site_type_symbol
_atom_site_label
_atom_site_fract_x
_atom_site_fract_y
_atom_site_fract_z
Si Si1 0.297370 0.287057 0.561968
Si Si2 0.694239 0.208187 0.232600
Si Si3 0.390002 0.781470 0.890039
Si Si4 0.488656 0.290630 0.389522
Si Si5 0.101484 0.294802 0.732762
Si Si6 0.615666 0.213750 0.940857
O O1 0.297552 0.500000 0.574142
O O2 0.250000 0.250000 0.500000
O O3 0.412522 0.223858 0.493231
O O4 0.212670 0.212407 0.662547
O O5 0.659600 0.283280 0.165187
O O6 0.610541 0.279198 0.333062
O O7 0.814119 0.234899 0.165334
O O8 0.676520 0.000000 0.242360
O O9 0.507674 0.723245 0.827691
O O10 0.389278 0.000000 0.889208
O O11 0.345292 0.721955 0.993882
O O12 0.466945 0.500000 0.393479
O O13 0.450772 0.203938 0.327930
O O14 0.116316 0.500000 0.749240
O O15 0.614700 0.000000 0.941523
O O16 0.500000 0.272852 0.000000
#
# Coordination Sequence:
#
# PCOD9178830 Si02
#       6
#     8   8   8   8   8   8
#     4   8  13  20  33  55  84 115 140 168 207 249
#     4  10  19  31  47  65  87 116 148 180 214 255
#     4   8  15  28  46  67  89 115 145 176 213 255
#     4   9  15  23  37  60  88 114 142 175 212 252
#     4   8  13  23  38  58  86 116 144 172 207 253
#     4  10  20  33  48  66  88 113 142 179 222 263
#
# _framework density 27.934267999999999
#
# number of rings (size 3 to 8) (size 9 to 14) (size 15 to 20)
#    0.000    3.167    0.000    2.500    0.000    1.000 
#    0.000    3.333    0.000    0.000    0.000    1.167 
#    0.000    9.333    0.000    0.000    0.000    0.000 
#
# Total GULP energy -134110.154496 kJ/mol
# GULP energy per Si atom -5587.923104 kJ/mol
# Density = 2.787069 g / cm^3
# Si number density = 27.934268 Si / 1000 Ang^3
#
#
#
# Elastic Constant Matrix: (Units=GPa)
#
#
# Indices 1 2 3 4 5 6 
#
# 1 88.4138 -4.0403 30.6011 0.0000 -28.3947 0.0003
# 2 -4.0403 98.0134 2.3465 0.0000 1.8897 0.0009
# 3 30.6011 2.3465 284.1732 0.0000 -12.3530 0.0000
# 4 0.0000 0.0000 0.0000 13.1932 0.0000 -3.8903
# 5 -28.3947 1.8897 -12.3530 0.0000 63.3788 0.0000
# 6 0.0003 0.0009 0.0000 -3.8903 0.0000 14.5274
#
#
#
# Elastic Compliance Matrix: (Units=1/GPa)
#
#
# Indices 1 2 3 4 5 6 
#
# 1 0.013635 0.000478 -0.001218 0.000000 0.005857 0.000000
# 2 0.000478 0.010228 -0.000141 0.000000 -0.000118 -0.000001
# 3 -0.001218 -0.000141 0.003659 0.000000 0.000172 0.000000
# 4 0.000000 0.000000 0.000000 0.082295 0.000000 0.022038
# 5 0.005857 -0.000118 0.000172 0.000000 0.018439 0.000000
# 6 0.000000 -0.000001 0.000000 0.022038 0.000000 0.074737
#
#
# Mechanical properties :
#
#
# Convention : Reuss Voigt Hill
#
# Bulk Modulus (GPa) = 38.81886 58.71278 48.76582
# Shear Modulus (GPa) = 23.43679 47.66612 35.55145
#
# Velocity S-wave (km/s) = 2.89969 4.13530 3.57134
# Velocity P-wave (km/s) = 5.01374 6.62305 5.87377
#
# Compressibility (1/GPa) = 0.02576068
#
# Stress axis : x y z
#
# Youngs Moduli (GPa) = 73.34211 97.77031 273.31884
#
# Poissons Ratio (x) = -0.04676 0.33279
# Poissons Ratio (y) = -0.03508 0.03856
# Poissons Ratio (z) = 0.08930 0.01379
#
# Static dielectric constant tensor:
#      x y z
#    x 2.382290 0.000000 -0.039700 
#    y 0.000000 2.003520 0.000000 
#    z -0.039700 0.000000 2.172500 
# 
# From -- ./inp_files/313627.got.cif
#   From: 2010.05.17/outbox.cif.g08.bks.cpg/sg12_157_cif.got.tgz:313627.got - 2010.06.03 13:09:07.
