data_PCOD9178568
_publ_section_title
;
Structure prediction by ZEFSAII (Michael W. Deem and Ramdas Pophale) SiO2 
 PCOD9178568
Probable space group: C 2/M
;
_chemical_formula_sum "Si O2"
_cell_formula_units_Z 64
_cell_length_a 23.836428
_cell_length_b 17.647198
_cell_length_c 13.180352
_cell_angle_alpha 90.000000
_cell_angle_beta 136.599640
_cell_angle_gamma 90.000000
_cell_volume 3809.420216
_symmetry_space_group_name_H-M "C 2/M"
_symmetry_group_IT_number 12
_symmetry_cell_setting 'monoclinic'
loop_
_space_group_symop_operation_xyz
x,y,z
-x,y,-z
-x,-y,-z
x,-y,z
1/2+x,1/2+y,z
1/2-x,1/2+y,-z
1/2-x,1/2-y,-z
1/2+x,1/2-y,z
loop_
_atom_site_type_symbol
_atom_site_label
_atom_site_fract_x
_atom_site_fract_y
_atom_site_fract_z
Si Si1 0.664422 0.591643 0.091287
Si Si2 0.489712 0.659128 0.802084
Si Si3 0.675861 0.408822 0.333483
Si Si4 0.278980 0.591638 0.049607
Si Si5 0.464671 0.408973 0.345253
Si Si6 0.817546 0.591512 0.674472
Si Si7 0.655838 0.091339 0.059537
Si Si8 0.513151 0.172753 0.136016
O O1 0.654140 0.500000 0.072008
O O2 0.698702 0.610398 0.247295
O O3 0.575099 0.628539 0.960302
O O4 0.719103 0.615229 0.066152
O O5 0.411991 0.626270 0.758448
O O6 0.488586 0.629185 0.685890
O O7 0.486675 0.749278 0.803479
O O8 0.668949 0.500000 0.330840
O O9 0.742634 0.384707 0.504409
O O10 0.272271 0.500000 0.040784
O O11 0.369055 0.610119 0.209845
O O12 0.210597 0.619853 0.037677
O O13 0.500000 0.387455 0.500000
O O14 0.471918 0.500000 0.343408
O O15 0.824102 0.500000 0.678065
O O16 0.901807 0.628065 0.746798
O O17 0.808548 0.611899 0.782065
O O18 0.564218 0.122467 0.934202
O O19 0.653833 0.000000 0.053630
O O20 0.500000 0.192287 0.000000
#
# Coordination Sequence:
#
# PCOD9178568 Si02
#       8
#     8   8   8   8   8   8   8   8
#     4   9  17  31  48  71 102 131 160 195 238 290
#     4  11  20  31  49  72 103 134 167 194 238 304
#     4  10  19  30  50  75 101 130 162 202 245 297
#     4   8  15  28  49  74  95 122 164 207 243 286
#     4   9  18  31  50  74 105 135 162 204 250 287
#     4   9  19  33  51  76  99 122 164 217 262 294
#     4   9  17  32  55  75  94 124 171 217 251 295
#     4  10  20  34  51  71  98 133 166 208 256 295
#
# _framework density 16.800457000000002
#
# number of rings (size 3 to 8) (size 9 to 14) (size 15 to 20)
#    0.000    2.625    0.000    3.375    1.750    3.000 
#    0.000    2.500    2.750    0.000    0.000    4.375 
#    0.000    0.000    0.000    0.000    0.000    0.000 
#
# Total GULP energy -178346.058502 kJ/mol
# GULP energy per Si atom -5573.314328 kJ/mol
# Density = 1.676222 g / cm^3
# Si number density = 16.800457 Si / 1000 Ang^3
#
#
#
# Elastic Constant Matrix: (Units=GPa)
#
#
# Indices 1 2 3 4 5 6 
#
# 1 140.1935 25.2284 55.7351 0.0000 -14.3496 0.0000
# 2 25.2284 16.1906 18.1294 0.0000 -6.1477 0.0000
# 3 55.7351 18.1294 77.3589 0.0000 -12.4967 0.0000
# 4 0.0000 0.0000 0.0000 10.0982 0.0000 -4.3848
# 5 -14.3496 -6.1477 -12.4967 0.0000 14.6669 0.0000
# 6 0.0000 0.0000 0.0000 -4.3848 0.0000 -2.4675
#
#
#
# Elastic Compliance Matrix: (Units=1/GPa)
#
#
# Indices 1 2 3 4 5 6 
#
# 1 0.011457 -0.011131 -0.005321 0.000000 0.002010 0.000000
# 2 -0.011131 0.100721 -0.012204 0.000000 0.020929 0.000000
# 3 -0.005321 -0.012204 0.020819 0.000000 0.007417 0.000000
# 4 0.000000 0.000000 0.000000 0.055898 0.000000 -0.099330
# 5 0.002010 0.020929 0.007417 0.000000 0.085239 0.000000
# 6 0.000000 0.000000 0.000000 -0.099330 0.000000 -0.228758
#
#
# Mechanical properties :
#
#
# Convention : Reuss Voigt Hill
#
# Bulk Modulus (GPa) = 13.21279 47.99209 30.60244
# Shear Modulus (GPa) = 39.08813 13.43619 26.26216
#
# Velocity S-wave (km/s) = 4.82873 2.83106 3.95800
# Velocity P-wave (km/s) = 6.24263 6.27012 6.25639
#
# Compressibility (1/GPa) = 0.07568422
#
# Stress axis : x y z
#
# Youngs Moduli (GPa) = 87.27974 9.92843 48.03333
#
# Poissons Ratio (x) = 0.11052 0.25561
# Poissons Ratio (y) = 0.97153 0.58619
# Poissons Ratio (z) = 0.46445 0.12116
#
# Static dielectric constant tensor:
#      x y z
#    x 1.569400 0.000000 -0.022370 
#    y 0.000000 1.554150 0.000000 
#    z -0.022370 0.000000 1.561330 
# 
# From -- ./inp_files/168760.got.cif
#   From: 2010.05.17/outbox.cif.g08.bks.cpg/sg12_85_cif.got.tgz:168760.got - 2010.06.03 13:09:07.
