data_PCOD9178046
_publ_section_title
;
Structure prediction by ZEFSAII (Michael W. Deem and Ramdas Pophale) SiO2 
 PCOD9178046
Probable space group: C 2/M
;
_chemical_formula_sum "Si O2"
_cell_formula_units_Z 64
_cell_length_a 20.973600
_cell_length_b 17.925418
_cell_length_c 21.944416
_cell_angle_alpha 90.000000
_cell_angle_beta 29.239905
_cell_angle_gamma 90.000000
_cell_volume 4029.971556
_symmetry_space_group_name_H-M "C 2/M"
_symmetry_group_IT_number 12
_symmetry_cell_setting 'monoclinic'
loop_
_space_group_symop_operation_xyz
x,y,z
-x,y,-z
-x,-y,-z
x,-y,z
1/2+x,1/2+y,z
1/2-x,1/2+y,-z
1/2-x,1/2-y,-z
1/2+x,1/2-y,z
loop_
_atom_site_type_symbol
_atom_site_label
_atom_site_fract_x
_atom_site_fract_y
_atom_site_fract_z
Si Si1 0.075929 0.086244 0.087500
Si Si2 0.550356 0.272041 0.026727
Si Si3 0.060639 0.915110 0.386599
Si Si4 0.800561 0.170167 0.829943
Si Si5 0.666664 0.085574 0.049703
Si Si6 0.420046 0.813014 0.244202
Si Si7 0.561724 0.671184 0.689354
Si Si8 0.297573 0.415333 0.528274
O O1 0.053816 0.145164 0.052260
O O2 0.988553 0.113013 0.217636
O O3 0.051147 0.000000 0.092871
O O4 0.223529 0.093122 0.989994
O O5 0.456260 0.222551 0.148805
O O6 0.500000 0.270926 0.000000
O O7 0.694674 0.235661 0.912419
O O8 0.164555 0.864806 0.264641
O O9 0.000000 0.885550 0.500000
O O10 0.937742 0.920193 0.443783
O O11 0.109446 0.000000 0.357043
O O12 0.935953 0.190522 0.751535
O O13 0.735138 0.108370 0.928811
O O14 0.548653 0.142057 0.157788
O O15 0.622765 0.000000 0.083924
O O16 0.395469 0.744931 0.310782
O O17 0.301688 0.870673 0.346150
O O18 0.673410 0.632398 0.556386
O O19 0.252911 0.500000 0.553274
#
# Coordination Sequence:
#
# PCOD9178046 Si02
#       8
#     8   8   8   8   8   8   8   8
#     4   9  17  31  51  71  91 115 151 193 231 273
#     4  10  21  32  45  67  94 126 155 185 227 271
#     4   9  18  30  45  63  85 120 158 186 211 250
#     4   9  17  30  48  64  91 119 153 188 221 264
#     4   9  16  28  48  71  93 119 148 183 231 275
#     4  10  19  30  46  67  99 121 148 185 230 274
#     4   9  17  31  49  71  89 118 150 190 232 273
#     4  10  19  30  46  68  93 119 150 187 227 270
#
# _framework density 15.881005
#
# number of rings (size 3 to 8) (size 9 to 14) (size 15 to 20)
#    0.000    2.625    0.000    2.250    1.750    6.250 
#    0.000    0.000    0.000    2.250    0.000    0.000 
#    0.000    0.500    0.000    1.625    0.000    0.000 
#
# Total GULP energy -178270.704250 kJ/mol
# GULP energy per Si atom -5570.959508 kJ/mol
# Density = 1.584486 g / cm^3
# Si number density = 15.881005 Si / 1000 Ang^3
#
#
#
# Elastic Constant Matrix: (Units=GPa)
#
#
# Indices 1 2 3 4 5 6 
#
# 1 52.1699 33.6321 17.5313 0.0000 17.2465 0.0000
# 2 33.6321 105.3821 43.9184 -0.0006 9.7075 0.0005
# 3 17.5313 43.9184 68.7438 -0.0006 11.9097 0.0005
# 4 0.0000 -0.0006 -0.0006 13.1457 0.0004 -0.0459
# 5 17.2465 9.7075 11.9097 0.0004 20.6454 -0.0003
# 6 0.0000 0.0005 0.0005 -0.0459 -0.0003 13.9212
#
#
#
# Elastic Compliance Matrix: (Units=1/GPa)
#
#
# Indices 1 2 3 4 5 6 
#
# 1 0.032044 -0.008658 0.001435 0.000000 -0.023526 0.000000
# 2 -0.008658 0.015311 -0.008421 0.000000 0.004891 0.000000
# 3 0.001435 -0.008421 0.021202 0.000001 -0.009469 -0.000001
# 4 0.000000 0.000000 0.000001 0.076072 -0.000002 0.000251
# 5 -0.023526 0.004891 -0.009469 -0.000002 0.071252 0.000002
# 6 0.000000 0.000000 -0.000001 0.000251 0.000002 0.071834
#
#
# Mechanical properties :
#
#
# Convention : Reuss Voigt Hill
#
# Bulk Modulus (GPa) = 26.83206 46.27326 36.55266
# Shear Modulus (GPa) = 15.08628 18.29004 16.68816
#
# Velocity S-wave (km/s) = 3.08548 3.39734 3.24516
# Velocity P-wave (km/s) = 5.44297 6.67757 6.09163
#
# Compressibility (1/GPa) = 0.03726885
#
# Stress axis : x y z
#
# Youngs Moduli (GPa) = 31.20663 65.31054 47.16615
#
# Poissons Ratio (x) = 0.56543 -0.06767
# Poissons Ratio (y) = 0.27018 0.39721
# Poissons Ratio (z) = -0.04477 0.55001
#
# Static dielectric constant tensor:
#      x y z
#    x 1.518140 0.000000 0.002310 
#    y 0.000000 1.529620 0.000000 
#    z 0.002310 0.000000 1.533310 
# 
# From -- ./inp_files/167275.got.cif
#   From: 2010.05.17/outbox.cif.g08.bks.cpg/sg12_84_cif.got.tgz:167275.got - 2010.06.03 13:09:07.
