data_PCOD9178524
_publ_section_title
;
Structure prediction by ZEFSAII (Michael W. Deem and Ramdas Pophale) SiO2 
 PCOD9178524
Probable space group: C 2/M
;
_chemical_formula_sum "Si O2"
_cell_formula_units_Z 64
_cell_length_a 22.928180
_cell_length_b 13.267561
_cell_length_c 33.475368
_cell_angle_alpha 90.000000
_cell_angle_beta 17.815907
_cell_angle_gamma 90.000000
_cell_volume 3115.660770
_symmetry_space_group_name_H-M "C 2/M"
_symmetry_group_IT_number 12
_symmetry_cell_setting 'monoclinic'
loop_
_space_group_symop_operation_xyz
x,y,z
-x,y,-z
-x,-y,-z
x,-y,z
1/2+x,1/2+y,z
1/2-x,1/2+y,-z
1/2-x,1/2-y,-z
1/2+x,1/2-y,z
loop_
_atom_site_type_symbol
_atom_site_label
_atom_site_fract_x
_atom_site_fract_y
_atom_site_fract_z
Si Si1 0.662707 0.608810 0.660631
Si Si2 0.798944 0.117154 0.239533
Si Si3 0.723073 0.386216 0.990833
Si Si4 0.586787 0.779082 0.900514
Si Si5 0.849966 0.607238 0.451129
Si Si6 0.543527 0.739047 0.512932
Si Si7 0.999035 0.177892 0.630891
Si Si8 0.751787 0.677944 0.061412
O O1 0.695668 0.500000 0.659082
O O2 0.768831 0.607442 0.548980
O O3 0.756272 0.703258 0.621353
O O4 0.439813 0.624858 0.799377
O O5 0.851045 0.180386 0.165640
O O6 0.618307 0.174198 0.375938
O O7 0.756003 0.000000 0.259967
O O8 0.991413 0.121764 0.140679
O O9 0.772732 0.500000 0.946455
O O10 0.789714 0.297179 0.918319
O O11 0.793454 0.363724 0.989740
O O12 0.777660 0.845432 0.781533
O O13 0.500000 0.753965 0.000000
O O14 0.426824 0.831640 0.977323
O O15 0.948779 0.500000 0.379306
O O16 0.665334 0.616221 0.543442
O O17 0.971962 0.708888 0.369545
O O18 0.500000 0.683373 0.500000
O O19 0.536283 0.679420 0.559049
#
# Coordination Sequence:
#
# PCOD9178524 Si02
#       8
#     8   8   8   8   8   8   8   8
#     4  10  19  30  49  77 104 131 168 213 259 306
#     4   9  18  32  50  76 104 130 168 214 261 311
#     4   9  18  33  51  71 100 138 176 214 255 299
#     4  10  20  33  50  73 104 140 171 204 250 301
#     4   9  18  35  58  79 100 129 165 210 262 306
#     4  10  19  30  50  78 106 135 165 207 265 311
#     4   9  19  35  54  77 104 133 167 209 253 305
#     4  10  19  31  50  73 102 137 174 212 252 301
#
# _framework density 20.54139
#
# number of rings (size 3 to 8) (size 9 to 14) (size 15 to 20)
#    0.000    2.500    0.000    2.250    0.000    6.250 
#    0.000    1.250    0.000   18.000    0.000    0.000 
#    0.000    0.000    0.000    0.000    0.000    0.000 
#
# Total GULP energy -178504.729982 kJ/mol
# GULP energy per Si atom -5578.272812 kJ/mol
# Density = 2.049464 g / cm^3
# Si number density = 20.541390 Si / 1000 Ang^3
#
#
#
# Elastic Constant Matrix: (Units=GPa)
#
#
# Indices 1 2 3 4 5 6 
#
# 1 112.9470 -5.8578 14.5091 -0.0271 -19.1623 -0.0042
# 2 -5.8578 37.6370 -7.3548 -0.0129 -2.1542 -0.0029
# 3 14.5091 -7.3548 54.7428 -0.0359 -10.7311 -0.0221
# 4 -0.0271 -0.0129 -0.0359 8.9902 0.0111 -0.6725
# 5 -19.1623 -2.1542 -10.7311 0.0111 22.4322 -0.0322
# 6 -0.0042 -0.0029 -0.0221 -0.6725 -0.0322 7.8609
#
#
#
# Elastic Compliance Matrix: (Units=1/GPa)
#
#
# Indices 1 2 3 4 5 6 
#
# 1 0.010557 0.001992 -0.000800 0.000024 0.008827 0.000042
# 2 0.001992 0.028144 0.004543 0.000061 0.006578 0.000056
# 3 -0.000800 0.004543 0.021012 0.000084 0.009804 0.000108
# 4 0.000024 0.000061 0.000084 0.111949 0.000025 0.009577
# 5 0.008827 0.006578 0.009804 0.000025 0.057441 0.000272
# 6 0.000042 0.000056 0.000108 0.009577 0.000272 0.128033
#
#
# Mechanical properties :
#
#
# Convention : Reuss Voigt Hill
#
# Bulk Modulus (GPa) = 14.04848 23.10219 18.57533
# Shear Modulus (GPa) = 13.53567 21.45867 17.49717
#
# Velocity S-wave (km/s) = 2.56978 3.23562 2.92173
# Velocity P-wave (km/s) = 3.95714 5.02295 4.52156
#
# Compressibility (1/GPa) = 0.07118207
#
# Stress axis : x y z
#
# Youngs Moduli (GPa) = 94.72036 35.53173 47.59264
#
# Poissons Ratio (x) = -0.07078 0.03808
# Poissons Ratio (y) = -0.18869 -0.21620
# Poissons Ratio (z) = 0.07579 -0.16141
#
# Static dielectric constant tensor:
#      x y z
#    x 1.767200 0.000020 -0.017960 
#    y 0.000020 1.762920 0.000060 
#    z -0.017960 0.000060 1.724510 
# 
# From -- ./inp_files/381449.got.cif
#   From: 2010.05.17/outbox.cif.g08.bks.cpg/sg12_191_cif.got.tgz:381449.got - 2010.06.03 13:09:07.
