data_PCOD9178590
_publ_section_title
;
Structure prediction by ZEFSAII (Michael W. Deem and Ramdas Pophale) SiO2 
 PCOD9178590
Probable space group: C 2/M
;
_chemical_formula_sum "Si O2"
_cell_formula_units_Z 56
_cell_length_a 29.213174
_cell_length_b 8.551266
_cell_length_c 16.794145
_cell_angle_alpha 90.000000
_cell_angle_beta 139.035392
_cell_angle_gamma 90.000000
_cell_volume 2750.433688
_symmetry_space_group_name_H-M "C 2/M"
_symmetry_group_IT_number 12
_symmetry_cell_setting 'monoclinic'
loop_
_space_group_symop_operation_xyz
x,y,z
-x,y,-z
-x,-y,-z
x,-y,z
1/2+x,1/2+y,z
1/2-x,1/2+y,-z
1/2-x,1/2-y,-z
1/2+x,1/2-y,z
loop_
_atom_site_type_symbol
_atom_site_label
_atom_site_fract_x
_atom_site_fract_y
_atom_site_fract_z
Si Si1 0.152674 0.312898 0.539476
Si Si2 0.043994 0.188128 0.981793
Si Si3 0.786604 0.811548 0.628187
Si Si4 0.920002 0.188794 0.714092
Si Si5 0.827201 0.687724 0.928454
Si Si6 0.329360 0.187015 0.106137
Si Si7 0.665395 0.686526 0.721446
O O1 0.152581 0.500000 0.543663
O O2 0.232641 0.256606 0.624982
O O3 0.106469 0.260620 0.403294
O O4 0.129720 0.244666 0.593885
O O5 0.996727 0.233387 0.843661
O O6 0.046975 0.000000 0.990510
O O7 0.122169 0.247001 0.072338
O O8 0.000000 0.243775 0.000000
O O9 0.750000 0.750000 0.500000
O O10 0.866505 0.766392 0.715952
O O11 0.785616 0.000000 0.630205
O O12 0.916641 0.000000 0.702402
O O13 0.826518 0.500000 0.922477
O O14 0.746693 0.741554 0.821294
O O15 0.857165 0.732800 0.055408
O O16 0.362559 0.251602 0.230753
O O17 0.328084 0.000000 0.108480
O O18 0.250000 0.250000 0.000000
O O19 0.665278 0.500000 0.723939
#
# Coordination Sequence:
#
# PCOD9178590 Si02
#       7
#     8   8   8   8   8   8   8
#     4  10  19  30  50  78 102 134 173 214 266 315
#     4  10  22  36  54  77 103 141 184 219 254 300
#     4   8  15  27  44  65  92 126 165 206 250 298
#     4   9  18  34  50  68 101 139 175 217 259 305
#     4   9  20  36  53  76 107 140 173 212 262 310
#     4   9  17  32  53  78 107 137 171 213 264 317
#     4  10  20  33  52  81 111 138 170 213 267 320
#
# _framework density 20.360423999999998
#
# number of rings (size 3 to 8) (size 9 to 14) (size 15 to 20)
#    0.000    2.714    0.000    2.143    2.000    4.857 
#    0.000    0.000    0.000    0.857    0.000    6.000 
#    0.000    0.000    0.000    0.000    0.000    0.000 
#
# Total GULP energy -156025.082882 kJ/mol
# GULP energy per Si atom -5572.324389 kJ/mol
# Density = 2.031408 g / cm^3
# Si number density = 20.360424 Si / 1000 Ang^3
#
#
#
# Elastic Constant Matrix: (Units=GPa)
#
#
# Indices 1 2 3 4 5 6 
#
# 1 67.5386 10.5947 13.9796 0.0000 -24.9211 0.0000
# 2 10.5947 18.0297 11.3369 0.0000 -8.9470 0.0000
# 3 13.9796 11.3369 53.3534 0.0000 -16.7604 0.0000
# 4 0.0000 0.0000 0.0000 11.5092 0.0000 -2.9321
# 5 -24.9211 -8.9470 -16.7604 0.0000 40.3376 0.0000
# 6 0.0000 0.0000 0.0000 -2.9321 0.0000 23.2716
#
#
#
# Elastic Compliance Matrix: (Units=1/GPa)
#
#
# Indices 1 2 3 4 5 6 
#
# 1 0.019799 -0.005985 -0.000564 0.000000 0.010670 0.000000
# 2 -0.005985 0.069405 -0.010932 0.000000 0.007155 0.000000
# 3 -0.000564 -0.010932 0.023396 0.000000 0.006948 0.000000
# 4 0.000000 0.000000 0.000000 0.089768 0.000000 0.011310
# 5 0.010670 0.007155 0.006948 0.000000 0.035857 0.000000
# 6 0.000000 0.000000 0.000000 0.011310 0.000000 0.044396
#
#
# Mechanical properties :
#
#
# Convention : Reuss Voigt Hill
#
# Bulk Modulus (GPa) = 12.88013 23.41601 18.14807
# Shear Modulus (GPa) = 14.55760 21.89105 18.22433
#
# Velocity S-wave (km/s) = 2.67684 3.28255 2.99504
# Velocity P-wave (km/s) = 3.98670 5.08847 4.57090
#
# Compressibility (1/GPa) = 0.07763896
#
# Stress axis : x y z
#
# Youngs Moduli (GPa) = 50.50717 14.40811 42.74173
#
# Poissons Ratio (x) = 0.08623 0.02411
# Poissons Ratio (y) = 0.30227 0.46726
# Poissons Ratio (z) = 0.02849 0.15751
#
# Static dielectric constant tensor:
#      x y z
#    x 1.752950 0.000000 -0.008760 
#    y 0.000000 1.685780 0.000000 
#    z -0.008760 0.000000 1.742780 
# 
# From -- ./inp_files/295187.got.cif
#   From: 2010.05.17/outbox.cif.g08.bks.cpg/sg12_148_cif.got.tgz:295187.got - 2010.06.03 13:09:07.
