data_PCOD9178941
_publ_section_title
;
Structure prediction by ZEFSAII (Michael W. Deem and Ramdas Pophale) SiO2 
 PCOD9178941
Probable space group: C 2/M
;
_chemical_formula_sum "Si O2"
_cell_formula_units_Z 64
_cell_length_a 23.058771
_cell_length_b 7.923561
_cell_length_c 19.712480
_cell_angle_alpha 90.000000
_cell_angle_beta 64.754515
_cell_angle_gamma 90.000000
_cell_volume 3257.624335
_symmetry_space_group_name_H-M "C 2/M"
_symmetry_group_IT_number 12
_symmetry_cell_setting 'monoclinic'
loop_
_space_group_symop_operation_xyz
x,y,z
-x,y,-z
-x,-y,-z
x,-y,z
1/2+x,1/2+y,z
1/2-x,1/2+y,-z
1/2-x,1/2-y,-z
1/2+x,1/2-y,z
loop_
_atom_site_type_symbol
_atom_site_label
_atom_site_fract_x
_atom_site_fract_y
_atom_site_fract_z
Si Si1 0.341064 0.690276 0.595063
Si Si2 0.957513 0.692174 0.460463
Si Si3 0.452399 0.705553 0.805372
Si Si4 0.246759 0.705830 0.102057
Si Si5 0.350564 0.200448 0.740140
Si Si6 0.643500 0.696963 0.040214
Si Si7 0.073960 0.801141 0.670747
Si Si8 0.781695 0.201965 0.412365
O O1 0.352847 0.500000 0.565671
O O2 0.385742 0.804956 0.525854
O O3 0.359319 0.711373 0.664100
O O4 0.267159 0.734094 0.620168
O O5 0.980025 0.500000 0.438676
O O6 0.956964 0.779777 0.388340
O O7 0.000000 0.768865 0.500000
O O8 0.452604 0.500000 0.807410
O O9 0.405570 0.756911 0.766991
O O10 0.419806 0.768459 0.891673
O O11 0.523282 0.767011 0.750733
O O12 0.243575 0.500000 0.096675
O O13 0.216795 0.747223 0.189831
O O14 0.197260 0.784323 0.072489
O O15 0.318046 0.762851 0.044778
O O16 0.350827 0.000000 0.727937
O O17 0.630873 0.500000 0.033392
O O18 0.145982 0.730122 0.631861
O O19 0.080113 0.000000 0.681193
O O20 0.750000 0.250000 0.500000
O O21 0.784186 0.000000 0.408652
#
# Coordination Sequence:
#
# PCOD9178941 Si02
#       8
#     8   8   8   8   8   8   8   8
#     4  12  24  37  53  72  95 127 164 205 250 292
#     4  11  23  36  52  74  99 128 160 195 238 291
#     4   9  17  30  48  73 104 134 162 195 238 291
#     4   8  14  24  40  64  95 130 163 194 231 276
#     4  10  19  31  47  71 103 134 164 201 242 287
#     4   8  13  23  41  65  95 130 163 192 227 278
#     4  10  21  35  52  73  97 127 160 198 244 290
#     4  11  22  38  57  75  94 122 163 208 251 292
#
# _framework density 19.64622
#
# number of rings (size 3 to 8) (size 9 to 14) (size 15 to 20)
#    0.000    2.125    1.250    3.000    0.000    4.500 
#    0.000    0.000    0.000    0.000    0.000    0.875 
#    0.000    7.000    0.000    0.000    0.000    0.000 
#
# Total GULP energy -178402.156867 kJ/mol
# GULP energy per Si atom -5575.067402 kJ/mol
# Density = 1.960150 g / cm^3
# Si number density = 19.646220 Si / 1000 Ang^3
#
#
#
# Elastic Constant Matrix: (Units=GPa)
#
#
# Indices 1 2 3 4 5 6 
#
# 1 55.0393 -1.3161 11.1852 0.0003 -27.2505 0.0003
# 2 -1.3161 34.2453 -1.9088 0.0002 -1.2419 -0.0001
# 3 11.1852 -1.9088 92.6599 0.0001 -42.6948 0.0003
# 4 0.0003 0.0002 0.0001 12.7340 0.0001 1.7761
# 5 -27.2505 -1.2419 -42.6948 0.0001 33.3510 0.0002
# 6 0.0003 -0.0001 0.0003 1.7761 0.0002 15.8484
#
#
#
# Elastic Compliance Matrix: (Units=1/GPa)
#
#
# Indices 1 2 3 4 5 6 
#
# 1 0.057496 0.007659 0.036561 -0.000002 0.094067 -0.000003
# 2 0.007659 0.030539 0.007588 -0.000001 0.017109 0.000000
# 3 0.036561 0.007588 0.049812 -0.000002 0.093923 -0.000003
# 4 -0.000002 -0.000001 -0.000002 0.079777 -0.000004 -0.008941
# 5 0.094067 0.017109 0.093923 -0.000004 0.227719 -0.000007
# 6 -0.000003 0.000000 -0.000003 -0.008941 -0.000007 0.064100
#
#
# Mechanical properties :
#
#
# Convention : Reuss Voigt Hill
#
# Bulk Modulus (GPa) = 4.14145 21.98501 13.06323
# Shear Modulus (GPa) = 10.28142 23.98563 17.13353
#
# Velocity S-wave (km/s) = 2.29012 3.49790 2.95634
# Velocity P-wave (km/s) = 3.01752 5.24676 4.27983
#
# Compressibility (1/GPa) = 0.24146142
#
# Stress axis : x y z
#
# Youngs Moduli (GPa) = 17.39261 32.74519 20.07552
#
# Poissons Ratio (x) = -0.25080 -0.73397
# Poissons Ratio (y) = -0.13321 -0.15233
# Poissons Ratio (z) = -0.63589 -0.24847
#
# Static dielectric constant tensor:
#      x y z
#    x 1.699230 0.000000 -0.059750 
#    y 0.000000 1.718990 0.000000 
#    z -0.059750 0.000000 1.725130 
# 
# From -- ./inp_files/323600.got.cif
#   From: 2010.05.17/outbox.cif.g08.bks.cpg/sg12_162_cif.got.tgz:323600.got - 2010.06.03 13:09:07.
