data_PCOD9178366
_publ_section_title
;
Structure prediction by ZEFSAII (Michael W. Deem and Ramdas Pophale) SiO2 
 PCOD9178366
Probable space group: C 2/M
;
_chemical_formula_sum "Si O2"
_cell_formula_units_Z 50
_cell_length_a 23.099735
_cell_length_b 8.097920
_cell_length_c 14.096031
_cell_angle_alpha 90.000000
_cell_angle_beta 126.806445
_cell_angle_gamma 90.000000
_cell_volume 2111.191453
_symmetry_space_group_name_H-M "C 2/M"
_symmetry_group_IT_number 12
_symmetry_cell_setting 'monoclinic'
loop_
_space_group_symop_operation_xyz
x,y,z
-x,y,-z
-x,-y,-z
x,-y,z
1/2+x,1/2+y,z
1/2-x,1/2+y,-z
1/2-x,1/2-y,-z
1/2+x,1/2-y,z
loop_
_atom_site_type_symbol
_atom_site_label
_atom_site_fract_x
_atom_site_fract_y
_atom_site_fract_z
Si Si1 0.349976 0.305611 0.363261
Si Si2 0.034889 0.306013 0.665231
Si Si3 0.000000 0.000000 0.000000
Si Si4 0.561896 0.184881 0.162703
Si Si5 0.256879 0.686571 0.898354
Si Si6 0.602185 0.185227 0.922723
Si Si7 0.383677 0.308845 0.592961
O O1 0.364447 0.500000 0.383609
O O2 0.421975 0.224106 0.388992
O O3 0.285204 0.278891 0.226042
O O4 0.335961 0.246472 0.457260
O O5 0.016927 0.500000 0.656582
O O6 0.093612 0.264650 0.804660
O O7 0.964376 0.204529 0.625490
O O8 0.054919 0.851351 0.094837
O O9 0.479583 0.180102 0.122041
O O10 0.612308 0.211398 0.304505
O O11 0.576318 0.000000 0.134762
O O12 0.269252 0.000000 0.131670
O O13 0.250000 0.750000 0.000000
O O14 0.343051 0.699005 0.969108
O O15 0.631932 0.000000 0.958177
O O16 0.367736 0.500000 0.597964
#
# Coordination Sequence:
#
# PCOD9178366 Si02
#       7
#     8   8   2   8   8   8   8
#     4  11  22  33  48  72 107 152 201 236 272 322
#     4  10  19  30  48  72 104 151 193 236 274 324
#     4  12  22  40  68  94 122 136 182 228 302 368
#     4  10  22  39  63  92 120 147 177 229 294 359
#     4  12  23  33  50  73 107 153 202 243 276 312
#     4   9  19  35  53  77 113 148 187 233 282 326
#     4  10  20  35  52  76 111 149 188 229 285 339
#
# _framework density 23.683308
#
# number of rings (size 3 to 8) (size 9 to 14) (size 15 to 20)
#    0.000    1.600    2.400    4.560    1.120    5.120 
#    0.000    0.000    0.000    0.000    0.000    1.120 
#    0.000    0.000    0.000    0.000    0.000    0.000 
#
# Total GULP energy -139318.360739 kJ/mol
# GULP energy per Si atom -5572.734430 kJ/mol
# Density = 2.362940 g / cm^3
# Si number density = 23.683308 Si / 1000 Ang^3
#
#
#
# Elastic Constant Matrix: (Units=GPa)
#
#
# Indices 1 2 3 4 5 6 
#
# 1 16.6078 6.0155 4.3340 0.0000 -8.9292 0.0000
# 2 6.0155 108.1573 40.0390 0.0000 -11.9691 0.0000
# 3 4.3340 40.0390 151.9790 0.0000 -19.4002 0.0000
# 4 0.0000 0.0000 0.0000 34.3984 0.0000 -2.7850
# 5 -8.9292 -11.9691 -19.4002 0.0000 26.7833 0.0000
# 6 0.0000 0.0000 0.0000 -2.7850 0.0000 10.8138
#
#
#
# Elastic Compliance Matrix: (Units=1/GPa)
#
#
# Indices 1 2 3 4 5 6 
#
# 1 0.073899 -0.001939 0.001584 0.000000 0.024918 0.000000
# 2 -0.001939 0.010503 -0.002419 0.000000 0.002295 0.000000
# 3 0.001584 -0.002419 0.007825 0.000000 0.005115 0.000000
# 4 0.000000 0.000000 0.000000 0.029690 0.000000 0.007646
# 5 0.024918 0.002295 0.005115 0.000000 0.050375 0.000000
# 6 0.000000 0.000000 0.000000 0.007646 0.000000 0.094444
#
#
# Mechanical properties :
#
#
# Convention : Reuss Voigt Hill
#
# Bulk Modulus (GPa) = 11.53676 41.94680 26.74178
# Shear Modulus (GPa) = 16.60160 29.48946 23.04553
#
# Velocity S-wave (km/s) = 2.65048 3.53251 3.12279
# Velocity P-wave (km/s) = 3.77473 5.86414 4.93136
#
# Compressibility (1/GPa) = 0.08667947
#
# Stress axis : x y z
#
# Youngs Moduli (GPa) = 13.53204 95.21054 127.79796
#
# Poissons Ratio (x) = 0.18462 -0.20247
# Poissons Ratio (y) = 0.02624 0.30911
# Poissons Ratio (z) = -0.02144 0.23029
#
# Static dielectric constant tensor:
#      x y z
#    x 1.954010 0.000000 -0.023020 
#    y 0.000000 1.960490 0.000000 
#    z -0.023020 0.000000 1.997550 
# 
# From -- ./inp_files/244403.got.cif
#   From: 2010.05.17/outbox.cif.g08.bks.cpg/sg12_123_cif.got.tgz:244403.got - 2010.06.03 13:09:07.
