data_PCOD9178433
_publ_section_title
;
Structure prediction by ZEFSAII (Michael W. Deem and Ramdas Pophale) SiO2 
 PCOD9178433
Probable space group: C 2/M
;
_chemical_formula_sum "Si O2"
_cell_formula_units_Z 64
_cell_length_a 21.029924
_cell_length_b 7.615097
_cell_length_c 24.716501
_cell_angle_alpha 90.000000
_cell_angle_beta 129.974489
_cell_angle_gamma 90.000000
_cell_volume 3033.306408
_symmetry_space_group_name_H-M "C 2/M"
_symmetry_group_IT_number 12
_symmetry_cell_setting 'monoclinic'
loop_
_space_group_symop_operation_xyz
x,y,z
-x,y,-z
-x,-y,-z
x,-y,z
1/2+x,1/2+y,z
1/2-x,1/2+y,-z
1/2-x,1/2-y,-z
1/2+x,1/2-y,z
loop_
_atom_site_type_symbol
_atom_site_label
_atom_site_fract_x
_atom_site_fract_y
_atom_site_fract_z
Si Si1 0.768747 0.210824 0.595297
Si Si2 0.040920 0.796795 0.884229
Si Si3 0.627815 0.793741 0.160073
Si Si4 0.200029 0.789952 0.917556
Si Si5 0.964849 0.215623 0.421977
Si Si6 0.362436 0.786292 0.953444
Si Si7 0.222382 0.206284 0.690125
Si Si8 0.385361 0.290876 0.567093
O O1 0.760576 0.279738 0.651117
O O2 0.686021 0.260702 0.516795
O O3 0.846426 0.276841 0.601900
O O4 0.772565 0.000000 0.599809
O O5 0.107353 0.719822 0.877574
O O6 0.950270 0.719777 0.842888
O O7 0.028789 0.000000 0.864176
O O8 0.085973 0.783110 0.967438
O O9 0.607755 0.725634 0.089029
O O10 0.710738 0.716656 0.231801
O O11 0.643093 0.000000 0.159955
O O12 0.265367 0.734001 0.907652
O O13 0.192136 0.000000 0.908189
O O14 0.250000 0.750000 0.000000
O O15 0.870958 0.278387 0.362158
O O16 0.000000 0.268095 0.500000
O O17 0.028637 0.275739 0.410492
O O18 0.964504 0.000000 0.422016
O O19 0.368718 0.000000 0.961171
O O20 0.213389 0.000000 0.697988
O O21 0.394938 0.500000 0.578838
#
# Coordination Sequence:
#
# PCOD9178433 Si02
#       8
#     8   8   8   8   8   8   8   8
#     4  10  19  30  48  75 103 127 154 195 245 293
#     4  10  19  31  50  76 102 129 162 200 248 298
#     4  10  21  34  49  70  96 131 169 204 246 292
#     4   8  15  28  47  71  96 122 154 196 242 284
#     4   9  15  28  53  76  92 120 164 206 238 277
#     4   9  17  32  52  73  98 127 166 210 243 281
#     4  10  20  35  52  69  95 131 168 205 247 295
#     4   9  17  31  51  75  99 125 160 198 238 285
#
# _framework density 21.099088999999999
#
# number of rings (size 3 to 8) (size 9 to 14) (size 15 to 20)
#    0.000    2.625    1.250    1.125    0.000    3.500 
#    0.000    2.500    0.000    4.500    0.000    0.000 
#    0.000    0.000    0.000    0.000    0.000    0.000 
#
# Total GULP energy -178384.481538 kJ/mol
# GULP energy per Si atom -5574.515048 kJ/mol
# Density = 2.105107 g / cm^3
# Si number density = 21.099089 Si / 1000 Ang^3
#
#
#
# Elastic Constant Matrix: (Units=GPa)
#
#
# Indices 1 2 3 4 5 6 
#
# 1 133.0008 -8.1148 18.9652 0.0000 17.4327 0.0000
# 2 -8.1148 45.4418 -5.5690 0.0000 6.4427 0.0000
# 3 18.9652 -5.5690 37.2345 0.0000 21.7249 0.0000
# 4 0.0000 0.0000 0.0000 0.2666 0.0000 -2.5887
# 5 17.4327 6.4427 21.7249 0.0000 23.9713 0.0000
# 6 0.0000 0.0000 0.0000 -2.5887 0.0000 15.7613
#
#
#
# Elastic Compliance Matrix: (Units=1/GPa)
#
#
# Indices 1 2 3 4 5 6 
#
# 1 0.008578 0.002539 0.000103 0.000000 -0.007014 0.000000
# 2 0.002539 0.028305 0.017946 0.000002 -0.025718 0.000000
# 3 0.000103 0.017946 0.068645 0.000000 -0.067110 0.000000
# 4 0.000000 0.000002 0.000000 -6.307464 0.000000 -1.035947
# 5 -0.007014 -0.025718 -0.067110 0.000000 0.114550 0.000000
# 6 0.000000 0.000000 0.000000 -1.035947 0.000000 -0.106699
#
#
# Mechanical properties :
#
#
# Convention : Reuss Voigt Hill
#
# Bulk Modulus (GPa) = 6.81649 25.13775 15.97712
# Shear Modulus (GPa) = -0.80823 22.02622 10.60900
#
# Velocity S-wave (km/s) = -0.61959 3.23451 2.24479
# Velocity P-wave (km/s) = 1.65102 5.08817 3.78255
#
# Compressibility (1/GPa) = 0.14670315
#
# Stress axis : x y z
#
# Youngs Moduli (GPa) = 116.57262 35.32926 14.56778
#
# Poissons Ratio (x) = -0.08970 -0.00150
# Poissons Ratio (y) = -0.29597 -0.26143
# Poissons Ratio (z) = -0.01199 -0.63401
#
# Static dielectric constant tensor:
#      x y z
#    x 1.810560 0.000000 0.013190 
#    y 0.000000 1.763740 0.000000 
#    z 0.013190 0.000000 1.729560 
# 
# From -- ./inp_files/346103.got.cif
#   From: 2010.05.17/outbox.cif.g08.bks.cpg/sg12_174_cif.got.tgz:346103.got - 2010.06.03 13:09:07.
