data_PCOD9178308
_publ_section_title
;
Structure prediction by ZEFSAII (Michael W. Deem and Ramdas Pophale) SiO2 
 PCOD9178308
Probable space group: C 2/M
;
_chemical_formula_sum "Si O2"
_cell_formula_units_Z 48
_cell_length_a 21.597154
_cell_length_b 17.858893
_cell_length_c 15.257406
_cell_angle_alpha 90.000000
_cell_angle_beta 155.470455
_cell_angle_gamma 90.000000
_cell_volume 2443.148098
_symmetry_space_group_name_H-M "C 2/M"
_symmetry_group_IT_number 12
_symmetry_cell_setting 'monoclinic'
loop_
_space_group_symop_operation_xyz
x,y,z
-x,y,-z
-x,-y,-z
x,-y,z
1/2+x,1/2+y,z
1/2-x,1/2+y,-z
1/2-x,1/2-y,-z
1/2+x,1/2-y,z
loop_
_atom_site_type_symbol
_atom_site_label
_atom_site_fract_x
_atom_site_fract_y
_atom_site_fract_z
Si Si1 0.560488 0.580426 0.930667
Si Si2 0.631449 0.248435 0.525017
Si Si3 0.296983 0.786933 0.919310
Si Si4 0.076525 0.234228 0.194228
Si Si5 0.887277 0.416019 0.437591
Si Si6 0.655159 0.344824 0.891067
O O1 0.492840 0.500000 0.863915
O O2 0.452299 0.649437 0.811087
O O3 0.610802 0.586015 0.894039
O O4 0.714243 0.588226 0.183355
O O5 0.703720 0.275608 0.710509
O O6 0.754400 0.255482 0.606762
O O7 0.589490 0.160670 0.479265
O O8 0.493419 0.301335 0.328874
O O9 0.249910 0.852447 0.924800
O O10 0.471167 0.785651 0.118676
O O11 0.268539 0.711968 0.940738
O O12 0.000000 0.236918 0.000000
O O13 0.908470 0.500000 0.503961
O O14 0.000000 0.412602 0.500000
#
# Coordination Sequence:
#
# PCOD9178308 Si02
#       6
#     8   8   8   8   8   8
#     4  10  20  34  50  73 106 138 173 208 253 309
#     4  11  19  31  52  74 108 130 171 211 253 312
#     4   9  18  31  46  74  98 126 171 204 253 299
#     4   9  17  31  47  77 102 132 163 203 265 307
#     4  10  19  30  47  73 106 136 166 206 253 307
#     4  10  19  31  52  73  99 139 170 213 255 289
#
# _framework density 19.646782999999999
#
# number of rings (size 3 to 8) (size 9 to 14) (size 15 to 20)
#    0.000    2.167    5.000    1.500    2.333    3.667 
#    0.000    0.000    0.000    2.000    0.000    0.000 
#    0.000    5.333    0.000    0.000    0.000    0.000 
#
# Total GULP energy -133847.234459 kJ/mol
# GULP energy per Si atom -5576.968102 kJ/mol
# Density = 1.960207 g / cm^3
# Si number density = 19.646783 Si / 1000 Ang^3
#
#
#
# Elastic Constant Matrix: (Units=GPa)
#
#
# Indices 1 2 3 4 5 6 
#
# 1 111.2344 5.4673 16.1778 0.0000 12.1443 0.0000
# 2 5.4673 35.2963 11.0540 0.0000 4.5457 0.0000
# 3 16.1778 11.0540 69.1432 0.0000 4.1599 0.0000
# 4 0.0000 0.0000 0.0000 8.6808 0.0000 4.4366
# 5 12.1443 4.5457 4.1599 0.0000 32.9897 0.0000
# 6 0.0000 0.0000 0.0000 4.4366 0.0000 16.1944
#
#
#
# Elastic Compliance Matrix: (Units=1/GPa)
#
#
# Indices 1 2 3 4 5 6 
#
# 1 0.009656 -0.000455 -0.001992 0.000000 -0.003241 0.000000
# 2 -0.000455 0.030261 -0.004525 0.000000 -0.003432 0.000000
# 3 -0.001992 -0.004525 0.015690 0.000000 -0.000622 0.000000
# 4 0.000000 0.000000 0.000000 0.133952 0.000000 -0.036697
# 5 -0.003241 -0.003432 -0.000622 0.000000 0.032057 0.000000
# 6 0.000000 0.000000 0.000000 -0.036697 0.000000 0.071803
#
#
# Mechanical properties :
#
#
# Convention : Reuss Voigt Hill
#
# Bulk Modulus (GPa) = 24.00150 31.23024 27.61587
# Shear Modulus (GPa) = 15.56427 23.77132 19.66779
#
# Velocity S-wave (km/s) = 2.81767 3.48218 3.16740
# Velocity P-wave (km/s) = 4.77794 5.66550 5.24054
#
# Compressibility (1/GPa) = 0.04166405
#
# Stress axis : x y z
#
# Youngs Moduli (GPa) = 103.56422 33.04574 63.73670
#
# Poissons Ratio (x) = 0.01502 0.12694
# Poissons Ratio (y) = 0.04708 0.28841
# Poissons Ratio (z) = 0.20626 0.14953
#
# Static dielectric constant tensor:
#      x y z
#    x 1.777760 0.000000 0.005590 
#    y 0.000000 1.675990 0.000000 
#    z 0.005590 0.000000 1.726410 
# 
# From -- ./inp_files/234355.got.cif
#   From: 2010.05.17/outbox.cif.g08.bks.cpg/sg12_118_cif.got.tgz:234355.got - 2010.06.03 13:09:07.
