data_PCOD9178549
_publ_section_title
;
Structure prediction by ZEFSAII (Michael W. Deem and Ramdas Pophale) SiO2 
 PCOD9178549
Probable space group: C 2/M
;
_chemical_formula_sum "Si O2"
_cell_formula_units_Z 64
_cell_length_a 25.189364
_cell_length_b 8.803902
_cell_length_c 16.539852
_cell_angle_alpha 90.000000
_cell_angle_beta 89.129717
_cell_angle_gamma 90.000000
_cell_volume 3667.532068
_symmetry_space_group_name_H-M "C 2/M"
_symmetry_group_IT_number 12
_symmetry_cell_setting 'monoclinic'
loop_
_space_group_symop_operation_xyz
x,y,z
-x,y,-z
-x,-y,-z
x,-y,z
1/2+x,1/2+y,z
1/2-x,1/2+y,-z
1/2-x,1/2-y,-z
1/2+x,1/2-y,z
loop_
_atom_site_type_symbol
_atom_site_label
_atom_site_fract_x
_atom_site_fract_y
_atom_site_fract_z
Si Si1 0.389982 0.683155 0.309061
Si Si2 0.685008 0.315666 0.839190
Si Si3 0.908132 0.816930 0.045528
Si Si4 0.288618 0.681425 0.613897
Si Si5 0.484789 0.682454 0.193414
Si Si6 0.171853 0.318878 0.547277
Si Si7 0.589412 0.818546 0.130739
Si Si8 0.300822 0.183850 0.790584
O O1 0.387962 0.500000 0.316367
O O2 0.346294 0.727888 0.242000
O O3 0.446773 0.724702 0.269171
O O4 0.374112 0.757905 0.393504
O O5 0.684769 0.500000 0.840623
O O6 0.648571 0.267367 0.915281
O O7 0.745693 0.264442 0.833469
O O8 0.951961 0.778755 0.112434
O O9 0.908226 0.000000 0.037514
O O10 0.918619 0.744616 0.959137
O O11 0.292563 0.500000 0.618513
O O12 0.228034 0.720970 0.589495
O O13 0.325260 0.743724 0.540839
O O14 0.301181 0.754817 0.699501
O O15 0.490578 0.500000 0.194078
O O16 0.541702 0.758913 0.187425
O O17 0.169373 0.500000 0.539549
O O18 0.646639 0.767834 0.163032
O O19 0.588514 0.000000 0.128898
O O20 0.300001 0.000000 0.788024
#
# Coordination Sequence:
#
# PCOD9178549 Si02
#       8
#     8   8   8   8   8   8   8   8
#     4   9  16  30  54  78  99 129 169 210 252 296
#     4   8  15  30  52  73  96 130 167 206 252 298
#     4   9  18  34  55  75  95 127 172 217 257 300
#     4  10  20  32  49  76 106 137 171 202 239 294
#     4   9  19  35  55  76  97 130 175 216 253 297
#     4  10  19  30  49  79 110 135 161 199 252 301
#     4  11  23  34  48  74 103 136 171 208 260 306
#     4  10  20  35  52  70 102 140 171 205 251 306
#
# _framework density 17.450426
#
# number of rings (size 3 to 8) (size 9 to 14) (size 15 to 20)
#    0.000    2.500    1.250    3.000    0.000    5.000 
#    0.000    2.500    0.000    0.750    0.000    5.250 
#    0.000    0.000    0.000    0.000    0.000    0.000 
#
# Total GULP energy -178489.167658 kJ/mol
# GULP energy per Si atom -5577.786489 kJ/mol
# Density = 1.741071 g / cm^3
# Si number density = 17.450426 Si / 1000 Ang^3
#
#
#
# Elastic Constant Matrix: (Units=GPa)
#
#
# Indices 1 2 3 4 5 6 
#
# 1 99.4350 16.5067 15.1425 0.0000 -24.5917 0.0000
# 2 16.5067 8.3630 6.2807 0.0000 -4.3506 0.0000
# 3 15.1425 6.2807 35.0581 0.0000 -23.1890 0.0000
# 4 0.0000 0.0000 0.0000 25.6492 0.0000 -3.8824
# 5 -24.5917 -4.3506 -23.1890 0.0000 24.5807 0.0000
# 6 0.0000 0.0000 0.0000 -3.8824 0.0000 23.3193
#
#
#
# Elastic Compliance Matrix: (Units=1/GPa)
#
#
# Indices 1 2 3 4 5 6 
#
# 1 0.022336 -0.041636 0.020526 0.000000 0.034340 0.000000
# 2 -0.041636 0.215857 -0.061086 0.000000 -0.061077 0.000000
# 3 0.020526 -0.061086 0.098492 0.000000 0.102640 0.000000
# 4 0.000000 0.000000 0.000000 0.039995 0.000000 0.006659
# 5 0.034340 -0.061077 0.102640 0.000000 0.161056 0.000000
# 6 0.000000 0.000000 0.000000 0.006659 0.000000 0.043991
#
#
# Mechanical properties :
#
#
# Convention : Reuss Voigt Hill
#
# Bulk Modulus (GPa) = 5.80410 24.30178 15.05294
# Shear Modulus (GPa) = 6.22238 21.70493 13.96366
#
# Velocity S-wave (km/s) = 1.89037 3.53059 2.83183
# Velocity P-wave (km/s) = 2.84568 5.52960 4.39741
#
# Compressibility (1/GPa) = 0.17229212
#
# Stress axis : x y z
#
# Youngs Moduli (GPa) = 44.77158 4.63270 10.15306
#
# Poissons Ratio (x) = 0.19289 -0.20840
# Poissons Ratio (y) = 1.86411 0.62021
# Poissons Ratio (z) = -0.91897 0.28299
#
# Static dielectric constant tensor:
#      x y z
#    x 1.608930 0.000000 -0.015710 
#    y 0.000000 1.583640 0.000000 
#    z -0.015710 0.000000 1.568450 
# 
# From -- ./inp_files/238663.got.cif
#   From: 2010.05.17/outbox.cif.g08.bks.cpg/sg12_120_cif.got.tgz:238663.got - 2010.06.03 13:09:07.
