data_PCOD9178873
_publ_section_title
;
Structure prediction by ZEFSAII (Michael W. Deem and Ramdas Pophale) SiO2 
 PCOD9178873
Probable space group: C 2/M
;
_chemical_formula_sum "Si O2"
_cell_formula_units_Z 56
_cell_length_a 23.379978
_cell_length_b 8.654650
_cell_length_c 22.002935
_cell_angle_alpha 90.000000
_cell_angle_beta 129.792287
_cell_angle_gamma 90.000000
_cell_volume 3420.932037
_symmetry_space_group_name_H-M "C 2/M"
_symmetry_group_IT_number 12
_symmetry_cell_setting 'monoclinic'
loop_
_space_group_symop_operation_xyz
x,y,z
-x,y,-z
-x,-y,-z
x,-y,z
1/2+x,1/2+y,z
1/2-x,1/2+y,-z
1/2-x,1/2-y,-z
1/2+x,1/2-y,z
loop_
_atom_site_type_symbol
_atom_site_label
_atom_site_fract_x
_atom_site_fract_y
_atom_site_fract_z
Si Si1 0.139477 0.187031 0.933567
Si Si2 0.847444 0.813300 0.619828
Si Si3 0.416860 0.815039 0.425533
Si Si4 0.876665 0.184527 0.266875
Si Si5 0.809785 0.815489 0.455815
Si Si6 0.989295 0.812713 0.235718
Si Si7 0.257225 0.183290 0.103676
O O1 0.055739 0.227304 0.856391
O O2 0.190172 0.269446 0.917299
O O3 0.147918 0.000000 0.932059
O O4 0.174718 0.225933 0.023014
O O5 0.841959 0.773135 0.544446
O O6 0.775119 0.742770 0.602427
O O7 0.926311 0.758528 0.699998
O O8 0.843363 0.000000 0.621468
O O9 0.500000 0.761854 0.500000
O O10 0.395163 0.753689 0.344554
O O11 0.359176 0.756701 0.436663
O O12 0.416380 0.000000 0.424203
O O13 0.938182 0.236065 0.258414
O O14 0.795804 0.234486 0.186679
O O15 0.879793 0.000000 0.271903
O O16 0.811545 0.000000 0.451990
O O17 0.991961 0.000000 0.240053
O O18 0.259860 0.000000 0.115098
#
# Coordination Sequence:
#
# PCOD9178873 Si02
#       7
#     8   8   8   8   8   8   8
#     4   8  14  24  39  61  90 123 156 190 230 277
#     4   9  17  31  50  69  91 120 155 194 230 266
#     4  11  23  36  50  70  95 121 152 191 231 271
#     4  10  19  31  47  67  94 127 160 190 226 277
#     4  10  20  33  49  69  93 123 157 189 227 273
#     4   8  14  26  45  68  92 121 156 190 227 271
#     4   9  15  24  39  61  91 123 155 191 230 273
#
# _framework density 16.369809
#
# number of rings (size 3 to 8) (size 9 to 14) (size 15 to 20)
#    0.000    2.714    0.000    3.429    0.000    3.429 
#    0.000    3.571    0.000    0.000    0.000    1.000 
#    0.000    8.000    0.000    0.000    0.000    0.000 
#
# Total GULP energy -155933.957493 kJ/mol
# GULP energy per Si atom -5569.069910 kJ/mol
# Density = 1.633255 g / cm^3
# Si number density = 16.369809 Si / 1000 Ang^3
#
#
#
# Elastic Constant Matrix: (Units=GPa)
#
#
# Indices 1 2 3 4 5 6 
#
# 1 76.6587 24.9031 75.3993 0.0000 12.9480 0.0000
# 2 24.9031 26.6099 33.8574 0.0000 2.6964 0.0000
# 3 75.3993 33.8574 163.5643 0.0000 25.2467 0.0000
# 4 0.0000 0.0000 0.0000 22.5428 0.0000 -0.5331
# 5 12.9480 2.6964 25.2467 0.0000 25.1441 0.0000
# 6 0.0000 0.0000 0.0000 -0.5331 0.0000 13.2550
#
#
#
# Elastic Compliance Matrix: (Units=1/GPa)
#
#
# Indices 1 2 3 4 5 6 
#
# 1 0.026887 -0.013167 -0.009171 0.000000 -0.003225 0.000000
# 2 -0.013167 0.058261 -0.007186 0.000000 0.007748 0.000000
# 3 -0.009171 -0.007186 0.012995 0.000000 -0.007555 0.000000
# 4 0.000000 0.000000 0.000000 0.044402 0.000000 0.001786
# 5 -0.003225 0.007748 -0.007555 0.000000 0.048186 0.000000
# 6 0.000000 0.000000 0.000000 0.001786 0.000000 0.075515
#
#
# Mechanical properties :
#
#
# Convention : Reuss Voigt Hill
#
# Bulk Modulus (GPa) = 25.57887 59.46138 42.52012
# Shear Modulus (GPa) = 14.77862 21.03325 17.90594
#
# Velocity S-wave (km/s) = 3.00792 3.58841 3.31091
# Velocity P-wave (km/s) = 5.26526 7.31926 6.37552
#
# Compressibility (1/GPa) = 0.03909477
#
# Stress axis : x y z
#
# Youngs Moduli (GPa) = 37.19215 17.16423 76.95225
#
# Poissons Ratio (x) = 0.22600 0.70574
# Poissons Ratio (y) = 0.48971 0.55299
# Poissons Ratio (z) = 0.34109 0.12334
#
# Static dielectric constant tensor:
#      x y z
#    x 1.519880 0.000000 0.027630 
#    y 0.000000 1.547760 0.000000 
#    z 0.027630 0.000000 1.594030 
# 
# From -- ./inp_files/323805.got.cif
#   From: 2010.05.17/outbox.cif.g08.bks.cpg/sg12_162_cif.got.tgz:323805.got - 2010.06.03 13:09:07.
