data_PCOD9178208
_publ_section_title
;
Structure prediction by ZEFSAII (Michael W. Deem and Ramdas Pophale) SiO2 
 PCOD9178208
Probable space group: C 2/M
;
_chemical_formula_sum "Si O2"
_cell_formula_units_Z 60
_cell_length_a 24.691873
_cell_length_b 8.549949
_cell_length_c 18.249846
_cell_angle_alpha 90.000000
_cell_angle_beta 121.854796
_cell_angle_gamma 90.000000
_cell_volume 3272.525636
_symmetry_space_group_name_H-M "C 2/M"
_symmetry_group_IT_number 12
_symmetry_cell_setting 'monoclinic'
loop_
_space_group_symop_operation_xyz
x,y,z
-x,y,-z
-x,-y,-z
x,-y,z
1/2+x,1/2+y,z
1/2-x,1/2+y,-z
1/2-x,1/2-y,-z
1/2+x,1/2-y,z
loop_
_atom_site_type_symbol
_atom_site_label
_atom_site_fract_x
_atom_site_fract_y
_atom_site_fract_z
Si Si1 0.500000 0.735453 0.000000
Si Si2 0.138270 0.173482 0.033979
Si Si3 0.924283 0.817661 0.813741
Si Si4 0.831319 0.188633 0.255161
Si Si5 0.198278 0.681883 0.213474
Si Si6 0.026474 0.811099 0.597621
Si Si7 0.636935 0.181462 0.875595
Si Si8 0.011314 0.318560 0.277822
O O1 0.436603 0.669956 0.996063
O O2 0.537166 0.792205 0.100292
O O3 0.146942 0.220789 0.956286
O O4 0.164184 0.000000 0.066226
O O5 0.172115 0.294688 0.112075
O O6 0.850197 0.781728 0.772615
O O7 0.947267 0.780623 0.749149
O O8 0.937805 0.000000 0.842479
O O9 0.771422 0.234290 0.262097
O O10 0.899514 0.234379 0.337629
O O11 0.826663 0.258416 0.170235
O O12 0.830195 0.000000 0.247716
O O13 0.194697 0.500000 0.231675
O O14 0.000000 0.761632 0.500000
O O15 0.988130 0.741498 0.638755
O O16 0.023193 0.000000 0.599361
O O17 0.562028 0.195006 0.801567
O O18 0.651561 0.000000 0.899809
O O19 0.029732 0.500000 0.287032
#
# Coordination Sequence:
#
# PCOD9178208 Si02
#       8
#     4   8   8   8   8   8   8   8
#     4  10  19  30  47  70  97 134 179 224 259 294
#     4  11  20  32  48  69  98 136 182 222 260 301
#     4  11  20  33  52  75 104 141 183 221 261 305
#     4   9  19  36  55  74 102 137 167 206 259 315
#     4  10  21  35  49  71 102 138 178 214 256 306
#     4   9  18  35  61  88 107 130 167 210 261 322
#     4  10  20  32  49  74 101 133 174 220 263 304
#     4  10  20  33  51  80 112 139 169 214 270 314
#
# _framework density 18.334463
#
# number of rings (size 3 to 8) (size 9 to 14) (size 15 to 20)
#    0.000    2.000    1.333    4.000    0.000    2.933 
#    0.000    2.000    0.000    0.800    0.000    0.000 
#    0.000    0.000    0.000    0.000    0.000    0.000 
#
# Total GULP energy -167167.106587 kJ/mol
# GULP energy per Si atom -5572.236886 kJ/mol
# Density = 1.829273 g / cm^3
# Si number density = 18.334463 Si / 1000 Ang^3
#
#
#
# Elastic Constant Matrix: (Units=GPa)
#
#
# Indices 1 2 3 4 5 6 
#
# 1 111.1082 25.9600 34.9104 0.0000 -8.3881 0.0000
# 2 25.9600 32.3123 10.4857 0.0000 -3.8311 0.0000
# 3 34.9104 10.4857 59.9436 0.0000 -16.7434 0.0000
# 4 0.0000 0.0000 0.0000 15.1337 0.0000 -4.6198
# 5 -8.3881 -3.8311 -16.7434 0.0000 20.8973 0.0000
# 6 0.0000 0.0000 0.0000 -4.6198 0.0000 22.2314
#
#
#
# Elastic Compliance Matrix: (Units=1/GPa)
#
#
# Indices 1 2 3 4 5 6 
#
# 1 0.012885 -0.008439 -0.006461 0.000000 -0.001552 0.000000
# 2 -0.008439 0.038392 -0.001006 0.000000 0.002845 0.000000
# 3 -0.006461 -0.001006 0.025567 0.000000 0.017707 0.000000
# 4 0.000000 0.000000 0.000000 0.070553 0.000000 0.014661
# 5 -0.001552 0.002845 0.017707 0.000000 0.061939 0.000000
# 6 0.000000 0.000000 0.000000 0.014661 0.000000 0.048028
#
#
# Mechanical properties :
#
#
# Convention : Reuss Voigt Hill
#
# Bulk Modulus (GPa) = 22.20712 38.45291 30.33001
# Shear Modulus (GPa) = 16.43718 20.45302 18.44510
#
# Velocity S-wave (km/s) = 2.99744 3.34361 3.17525
# Velocity P-wave (km/s) = 4.91101 5.99373 5.47918
#
# Compressibility (1/GPa) = 0.04503060
#
# Stress axis : x y z
#
# Youngs Moduli (GPa) = 77.60944 26.04713 39.11241
#
# Poissons Ratio (x) = 0.21982 0.25272
# Poissons Ratio (y) = 0.65496 0.03936
# Poissons Ratio (z) = 0.50147 0.02621
#
# Static dielectric constant tensor:
#      x y z
#    x 1.648510 0.000000 0.017160 
#    y 0.000000 1.642400 0.000000 
#    z 0.017160 0.000000 1.606960 
# 
# From -- ./inp_files/288359.got.cif
#   From: 2010.05.17/outbox.cif.g08.bks.cpg/sg12_145_cif.got.tgz:288359.got - 2010.06.03 13:09:07.
