data_PCOD9178255
_publ_section_title
;
Structure prediction by ZEFSAII (Michael W. Deem and Ramdas Pophale) SiO2 
 PCOD9178255
Probable space group: C 2/M
;
_chemical_formula_sum "Si O2"
_cell_formula_units_Z 48
_cell_length_a 15.890968
_cell_length_b 15.030151
_cell_length_c 8.013314
_cell_angle_alpha 90.000000
_cell_angle_beta 65.332920
_cell_angle_gamma 90.000000
_cell_volume 1739.279516
_symmetry_space_group_name_H-M "C 2/M"
_symmetry_group_IT_number 12
_symmetry_cell_setting 'monoclinic'
loop_
_space_group_symop_operation_xyz
x,y,z
-x,y,-z
-x,-y,-z
x,-y,z
1/2+x,1/2+y,z
1/2-x,1/2+y,-z
1/2-x,1/2-y,-z
1/2+x,1/2-y,z
loop_
_atom_site_type_symbol
_atom_site_label
_atom_site_fract_x
_atom_site_fract_y
_atom_site_fract_z
Si Si1 0.399435 0.102676 0.190835
Si Si2 0.702398 0.849253 0.391689
Si Si3 0.952674 0.108598 0.865498
Si Si4 0.945933 0.393460 0.711444
Si Si5 0.368381 0.652776 0.460756
Si Si6 0.271915 0.601015 0.863592
O O1 0.347785 0.099775 0.414086
O O2 0.499420 0.139604 0.169841
O O3 0.323731 0.143422 0.127077
O O4 0.409057 0.000000 0.130202
O O5 0.660049 0.873401 0.247692
O O6 0.669607 0.749026 0.453614
O O7 0.809371 0.867173 0.341345
O O8 0.024461 0.144879 0.668481
O O9 0.848632 0.143415 0.921047
O O10 0.950682 0.000000 0.857544
O O11 0.000000 0.133528 0.000000
O O12 0.954865 0.500000 0.708814
O O13 0.000000 0.361227 0.500000
O O14 0.333479 0.594055 0.642077
O O15 0.252231 0.500000 0.935218
#
# Coordination Sequence:
#
# PCOD9178255 Si02
#       6
#     8   8   8   8   8   8
#     4   8  14  25  42  66  96 125 151 187 239 294
#     4   9  17  27  43  71 103 128 157 199 248 292
#     4  10  21  35  50  70  97 131 169 205 246 298
#     4   8  13  22  38  64  97 126 150 185 237 291
#     4  10  19  30  47  72 100 128 160 203 250 292
#     4   9  17  30  48  70  95 124 160 202 248 294
#
# _framework density 27.597632999999998
#
# number of rings (size 3 to 8) (size 9 to 14) (size 15 to 20)
#    0.000    3.000    0.000    2.500    0.000    7.333 
#    0.000    0.000    0.000    9.000    0.000    1.167 
#    0.000    9.333    0.000    0.000    0.000    0.000 
#
# Total GULP energy -134136.180809 kJ/mol
# GULP energy per Si atom -5589.007534 kJ/mol
# Density = 2.753482 g / cm^3
# Si number density = 27.597633 Si / 1000 Ang^3
#
#
#
# Elastic Constant Matrix: (Units=GPa)
#
#
# Indices 1 2 3 4 5 6 
#
# 1 294.2714 -2.0408 63.6366 0.0000 46.2076 0.0000
# 2 -2.0408 63.0190 6.8155 0.0000 0.2328 0.0000
# 3 63.6366 6.8155 116.5579 0.0000 37.1668 0.0000
# 4 0.0000 0.0000 0.0000 -0.2851 0.0000 7.6467
# 5 46.2076 0.2328 37.1668 0.0000 80.4196 0.0000
# 6 0.0000 0.0000 0.0000 7.6467 0.0000 22.5575
#
#
#
# Elastic Compliance Matrix: (Units=1/GPa)
#
#
# Indices 1 2 3 4 5 6 
#
# 1 0.004011 0.000322 -0.001728 0.000000 -0.001507 0.000000
# 2 0.000322 0.016009 -0.001218 0.000000 0.000331 0.000000
# 3 -0.001728 -0.001218 0.010880 0.000000 -0.004032 0.000000
# 4 0.000000 0.000000 0.000000 -0.347560 0.000000 0.117818
# 5 -0.001507 0.000331 -0.004032 0.000000 0.015163 0.000000
# 6 0.000000 0.000000 0.000000 0.117818 0.000000 0.004392
#
#
# Mechanical properties :
#
#
# Convention : Reuss Voigt Hill
#
# Bulk Modulus (GPa) = 38.98234 67.85233 53.41733
# Shear Modulus (GPa) = -17.64869 47.56756 14.95943
#
# Velocity S-wave (km/s) = -2.53158 4.15614 2.33073
# Velocity P-wave (km/s) = 2.36870 6.90442 5.16148
#
# Compressibility (1/GPa) = 0.02565264
#
# Stress axis : x y z
#
# Youngs Moduli (GPa) = 249.32888 62.46436 91.91422
#
# Poissons Ratio (x) = -0.02013 0.15884
# Poissons Ratio (y) = -0.08037 0.11192
# Poissons Ratio (z) = 0.43087 0.07606
#
# Static dielectric constant tensor:
#      x y z
#    x 2.244880 0.000000 -0.004950 
#    y 0.000000 2.072140 0.000000 
#    z -0.004950 0.000000 2.229950 
# 
# From -- ./inp_files/61742.got.cif
#   From: 2010.05.17/outbox.cif.g08.bks.cpg/sg12_31_cif.got.tgz:61742.got - 2010.06.03 13:09:07.
