data_PCOD9178799
_publ_section_title
;
Structure prediction by ZEFSAII (Michael W. Deem and Ramdas Pophale) SiO2 
 PCOD9178799
Probable space group: C 2/M
;
_chemical_formula_sum "Si O2"
_cell_formula_units_Z 56
_cell_length_a 8.072042
_cell_length_b 30.218019
_cell_length_c 20.923143
_cell_angle_alpha 90.000000
_cell_angle_beta 29.621656
_cell_angle_gamma 90.000000
_cell_volume 2522.557028
_symmetry_space_group_name_H-M "C 2/M"
_symmetry_group_IT_number 12
_symmetry_cell_setting 'monoclinic'
loop_
_space_group_symop_operation_xyz
x,y,z
-x,y,-z
-x,-y,-z
x,-y,z
1/2+x,1/2+y,z
1/2-x,1/2+y,-z
1/2-x,1/2-y,-z
1/2+x,1/2-y,z
loop_
_atom_site_type_symbol
_atom_site_label
_atom_site_fract_x
_atom_site_fract_y
_atom_site_fract_z
Si Si1 0.701700 0.050519 0.546429
Si Si2 0.322037 0.110649 0.767210
Si Si3 0.395912 0.889787 0.960068
Si Si4 0.644114 0.802882 0.640587
Si Si5 0.040169 0.790836 0.334862
Si Si6 0.908503 0.890850 0.677400
Si Si7 0.959134 0.706624 0.939677
O O1 0.421942 0.080403 0.673942
O O2 0.000000 0.050133 0.500000
O O3 0.838763 0.073439 0.436326
O O4 0.599249 0.000000 0.570101
O O5 0.343627 0.161949 0.734520
O O6 0.610537 0.111039 0.724334
O O7 0.981294 0.091881 0.912318
O O8 0.500000 0.891581 0.000000
O O9 0.707584 0.902842 0.810087
O O10 0.318755 0.839607 0.962095
O O11 0.685464 0.790918 0.700986
O O12 0.632387 0.757402 0.604177
O O13 0.000000 0.824789 0.500000
O O14 0.914759 0.841956 0.379677
O O15 0.198068 0.788268 0.212268
O O16 0.750000 0.750000 0.000000
O O17 0.000000 0.701084 0.000000
#
# Coordination Sequence:
#
# PCOD9178799 Si02
#       7
#     8   8   8   8   8   8   8
#     4   9  18  36  63  89 109 134 177 230 279 329
#     4  10  19  35  58  82 111 144 181 227 276 323
#     4  10  21  35  53  79 110 146 185 224 268 323
#     4  11  21  33  50  77 112 148 185 223 268 320
#     4  10  20  32  48  73 108 145 183 220 261 313
#     4   9  19  36  56  83 112 144 181 225 275 323
#     4  10  19  31  46  68  99 138 184 224 260 303
#
# _framework density 22.199695999999999
#
# number of rings (size 3 to 8) (size 9 to 14) (size 15 to 20)
#    0.000    2.143    0.000    4.714    0.000    4.571 
#    0.000    1.429    0.000    6.000    0.000    0.000 
#    0.000    0.000    0.000    0.000    0.000    0.000 
#
# Total GULP energy -155976.925360 kJ/mol
# GULP energy per Si atom -5570.604477 kJ/mol
# Density = 2.214917 g / cm^3
# Si number density = 22.199696 Si / 1000 Ang^3
#
#
#
# Elastic Constant Matrix: (Units=GPa)
#
#
# Indices 1 2 3 4 5 6 
#
# 1 39.6139 27.3675 23.4721 0.0002 16.2087 0.0000
# 2 27.3675 103.7275 44.3585 0.0028 14.1303 0.0003
# 3 23.4721 44.3585 104.9646 -0.0023 36.2786 -0.0006
# 4 0.0002 0.0028 -0.0023 8.3431 0.0006 5.1112
# 5 16.2087 14.1303 36.2786 0.0006 37.0706 0.0002
# 6 0.0000 0.0003 -0.0006 5.1112 0.0002 15.3194
#
#
#
# Elastic Compliance Matrix: (Units=1/GPa)
#
#
# Indices 1 2 3 4 5 6 
#
# 1 0.035786 -0.007520 -0.000615 0.000003 -0.012179 -0.000001
# 2 -0.007520 0.013356 -0.005046 -0.000007 0.003136 0.000002
# 3 -0.000615 -0.005046 0.016682 0.000008 -0.014133 -0.000002
# 4 0.000003 -0.000007 0.000008 0.150652 -0.000009 -0.050264
# 5 -0.012179 0.003136 -0.014133 -0.000009 0.044936 0.000002
# 6 -0.000001 0.000002 -0.000002 -0.050264 0.000002 0.082047
#
#
# Mechanical properties :
#
#
# Convention : Reuss Voigt Hill
#
# Bulk Modulus (GPa) = 25.34143 48.74468 37.04306
# Shear Modulus (GPa) = 13.05564 22.35382 17.70473
#
# Velocity S-wave (km/s) = 2.42771 3.17668 2.82711
# Velocity P-wave (km/s) = 4.39299 5.95484 5.23252
#
# Compressibility (1/GPa) = 0.03946107
#
# Stress axis : x y z
#
# Youngs Moduli (GPa) = 27.94358 74.87539 59.94488
#
# Poissons Ratio (x) = 0.56304 0.03689
# Poissons Ratio (y) = 0.21013 0.30250
# Poissons Ratio (z) = 0.01720 0.37785
#
# Static dielectric constant tensor:
#      x y z
#    x 1.850320 0.000000 -0.024210 
#    y 0.000000 1.915280 0.000000 
#    z -0.024210 0.000000 1.884110 
# 
# From -- ./inp_files/303011.got.cif
#   From: 2010.05.17/outbox.cif.g08.bks.cpg/sg12_152_cif.got.tgz:303011.got - 2010.06.03 13:09:07.
