data_PCOD9178679
_publ_section_title
;
Structure prediction by ZEFSAII (Michael W. Deem and Ramdas Pophale) SiO2 
 PCOD9178679
Probable space group: C 2/M
;
_chemical_formula_sum "Si O2"
_cell_formula_units_Z 64
_cell_length_a 20.819094
_cell_length_b 8.074994
_cell_length_c 21.786664
_cell_angle_alpha 90.000000
_cell_angle_beta 63.561106
_cell_angle_gamma 90.000000
_cell_volume 3279.567515
_symmetry_space_group_name_H-M "C 2/M"
_symmetry_group_IT_number 12
_symmetry_cell_setting 'monoclinic'
loop_
_space_group_symop_operation_xyz
x,y,z
-x,y,-z
-x,-y,-z
x,-y,z
1/2+x,1/2+y,z
1/2-x,1/2+y,-z
1/2-x,1/2-y,-z
1/2+x,1/2-y,z
loop_
_atom_site_type_symbol
_atom_site_label
_atom_site_fract_x
_atom_site_fract_y
_atom_site_fract_z
Si Si1 0.171611 0.695127 0.554554
Si Si2 0.272754 0.700317 0.085611
Si Si3 0.748959 0.202911 0.232438
Si Si4 0.351800 0.305139 0.296279
Si Si5 0.865237 0.802205 0.933390
Si Si6 0.973008 0.703029 0.444935
Si Si7 0.490876 0.803699 0.799868
Si Si8 0.084947 0.701862 0.292848
O O1 0.169545 0.500000 0.546950
O O2 0.250000 0.750000 0.500000
O O3 0.156419 0.730655 0.632517
O O4 0.105653 0.763600 0.541876
O O5 0.272667 0.500000 0.085285
O O6 0.279314 0.755074 0.153088
O O7 0.196670 0.754289 0.089174
O O8 0.334265 0.756827 0.012188
O O9 0.795063 0.261087 0.270607
O O10 0.666105 0.255805 0.270151
O O11 0.750263 0.000000 0.232665
O O12 0.338788 0.500000 0.308939
O O13 0.431358 0.277500 0.236040
O O14 0.940906 0.731310 0.879418
O O15 0.870937 0.000000 0.932583
O O16 0.971840 0.500000 0.445963
O O17 0.000000 0.757039 0.500000
O O18 0.030135 0.753145 0.368979
O O19 0.445744 0.744143 0.759718
O O20 0.501619 0.000000 0.789085
O O21 0.086269 0.500000 0.291252
#
# Coordination Sequence:
#
# PCOD9178679 Si02
#       8
#     8   8   8   8   8   8   8   8
#     4  11  23  40  60  84 115 151 187 225 280 339
#     4   9  17  33  54  79 112 149 188 232 282 340
#     4   9  18  33  56  83 109 145 192 234 276 332
#     4  11  23  38  59  85 114 146 188 236 279 333
#     4  10  19  30  52  85 115 142 183 238 290 334
#     4   9  18  32  55  84 109 137 184 232 264 315
#     4  11  20  36  59  80 110 152 190 228 278 340
#     4   9  16  30  55  81 103 137 188 232 266 318
#
# _framework density 19.514766999999999
#
# number of rings (size 3 to 8) (size 9 to 14) (size 15 to 20)
#    0.000    2.125    2.500    1.500    1.750    0.500 
#    0.000    1.875    0.000    6.750    0.000    0.000 
#    0.000    0.000    0.000    0.000    0.000    0.000 
#
# Total GULP energy -178615.753858 kJ/mol
# GULP energy per Si atom -5581.742308 kJ/mol
# Density = 1.947035 g / cm^3
# Si number density = 19.514767 Si / 1000 Ang^3
#
#
#
# Elastic Constant Matrix: (Units=GPa)
#
#
# Indices 1 2 3 4 5 6 
#
# 1 146.1208 2.5622 63.8428 -0.0002 0.7478 -0.0004
# 2 2.5622 10.9725 1.1594 -0.0003 4.4809 -0.0007
# 3 63.8428 1.1594 113.2163 -0.0001 -9.6333 -0.0002
# 4 -0.0002 -0.0003 -0.0001 24.4489 0.0000 -4.7200
# 5 0.7478 4.4809 -9.6333 0.0000 29.1521 -0.0001
# 6 -0.0004 -0.0007 -0.0002 -4.7200 -0.0001 19.9279
#
#
#
# Elastic Compliance Matrix: (Units=1/GPa)
#
#
# Indices 1 2 3 4 5 6 
#
# 1 0.009200 -0.000819 -0.005339 0.000000 -0.001875 0.000000
# 2 -0.000819 0.097916 -0.001872 0.000002 -0.015648 0.000004
# 3 -0.005339 -0.001872 0.012243 0.000000 0.004470 0.000000
# 4 0.000000 0.000002 0.000000 0.042861 0.000000 0.010152
# 5 -0.001875 -0.015648 0.004470 0.000000 0.038233 0.000000
# 6 0.000000 0.000004 0.000000 0.010152 0.000000 0.052585
#
#
# Mechanical properties :
#
#
# Convention : Reuss Voigt Hill
#
# Bulk Modulus (GPa) = 9.68069 45.04869 27.36469
# Shear Modulus (GPa) = 16.47267 28.22214 22.34741
#
# Velocity S-wave (km/s) = 2.90851 3.80701 3.38768
# Velocity P-wave (km/s) = 4.03122 6.51606 5.41801
#
# Compressibility (1/GPa) = 0.10329844
#
# Stress axis : x y z
#
# Youngs Moduli (GPa) = 108.69087 10.21285 81.67933
#
# Poissons Ratio (x) = 0.00836 0.43610
# Poissons Ratio (y) = 0.08899 0.15294
# Poissons Ratio (z) = 0.58033 0.01912
#
# Static dielectric constant tensor:
#      x y z
#    x 1.671450 0.000000 0.003340 
#    y 0.000000 1.702880 0.000000 
#    z 0.003340 0.000000 1.681440 
# 
# From -- ./inp_files/319894.got.cif
#   From: 2010.05.17/outbox.cif.g08.bks.cpg/sg12_160_cif.got.tgz:319894.got - 2010.06.03 13:09:07.
