data_PCOD9178962
_publ_section_title
;
Structure prediction by ZEFSAII (Michael W. Deem and Ramdas Pophale) SiO2 
 PCOD9178962
Probable space group: C 2/M
;
_chemical_formula_sum "Si O2"
_cell_formula_units_Z 52
_cell_length_a 11.852120
_cell_length_b 23.635918
_cell_length_c 16.980794
_cell_angle_alpha 90.000000
_cell_angle_beta 142.166018
_cell_angle_gamma 90.000000
_cell_volume 2917.783024
_symmetry_space_group_name_H-M "C 2/M"
_symmetry_group_IT_number 12
_symmetry_cell_setting 'monoclinic'
loop_
_space_group_symop_operation_xyz
x,y,z
-x,y,-z
-x,-y,-z
x,-y,z
1/2+x,1/2+y,z
1/2-x,1/2+y,-z
1/2-x,1/2-y,-z
1/2+x,1/2-y,z
loop_
_atom_site_type_symbol
_atom_site_label
_atom_site_fract_x
_atom_site_fract_y
_atom_site_fract_z
Si Si1 0.000000 0.225472 0.000000
Si Si2 0.575159 0.938608 0.347923
Si Si3 0.984894 0.315589 0.867404
Si Si4 0.473459 0.597402 0.580577
Si Si5 0.381820 0.823295 0.237622
Si Si6 0.380163 0.937320 0.818299
Si Si7 0.555789 0.720882 0.620202
O O1 0.072028 0.269212 0.973084
O O2 0.836097 0.187322 0.876843
O O3 0.782710 0.932461 0.494623
O O4 0.452804 0.884758 0.302226
O O5 0.599094 0.937093 0.265778
O O6 0.498429 0.000000 0.327212
O O7 0.986117 0.380045 0.900600
O O8 0.770606 0.297499 0.741318
O O9 0.067329 0.315818 0.825924
O O10 0.500000 0.595611 0.500000
O O11 0.663342 0.571765 0.717608
O O12 0.454122 0.663569 0.590387
O O13 0.473391 0.773786 0.339452
O O14 0.439063 0.000000 0.877330
O O15 0.500000 0.733794 0.500000
#
# Coordination Sequence:
#
# PCOD9178962 Si02
#       7
#     4   8   8   8   8   8   8
#     4  10  20  34  46  62  86 116 156 192 224 252
#     4   9  16  25  40  63  87 114 148 180 213 256
#     4   9  18  30  46  66  90 118 147 182 218 261
#     4   8  13  22  38  63  94 118 135 165 213 269
#     4  10  19  31  48  65  87 118 150 186 222 258
#     4   8  13  23  40  63  90 116 139 167 212 268
#     4   9  17  28  44  71  97 115 140 174 219 271
#
# _framework density 17.821750000000002
#
# number of rings (size 3 to 8) (size 9 to 14) (size 15 to 20)
#    0.000    3.077    0.000    3.692    0.000    4.308 
#    0.000    0.769    0.000    0.462    0.000    0.000 
#    0.000    4.923    0.000    0.000    0.000    0.000 
#
# Total GULP energy -144774.436188 kJ/mol
# GULP energy per Si atom -5568.247546 kJ/mol
# Density = 1.778119 g / cm^3
# Si number density = 17.821750 Si / 1000 Ang^3
#
#
#
# Elastic Constant Matrix: (Units=GPa)
#
#
# Indices 1 2 3 4 5 6 
#
# 1 23.0589 35.1890 0.6053 -0.0001 -2.3077 -0.0001
# 2 35.1890 155.4201 22.8428 0.0000 8.8902 0.0000
# 3 0.6053 22.8428 20.1077 -0.0005 0.5718 -0.0002
# 4 -0.0001 0.0000 -0.0005 6.6125 -0.0002 4.3629
# 5 -2.3077 8.8902 0.5718 -0.0002 17.3449 -0.0001
# 6 -0.0001 0.0000 -0.0002 4.3629 -0.0001 22.3800
#
#
#
# Elastic Compliance Matrix: (Units=1/GPa)
#
#
# Indices 1 2 3 4 5 6 
#
# 1 0.079173 -0.022454 0.022519 0.000003 0.021300 0.000000
# 2 -0.022454 0.014333 -0.015327 -0.000002 -0.009829 0.000000
# 3 0.022519 -0.015327 0.066220 0.000006 0.008669 0.000000
# 4 0.000003 -0.000002 0.000006 0.173553 0.000003 -0.033833
# 5 0.021300 -0.009829 0.008669 0.000003 0.065240 0.000000
# 6 0.000000 0.000000 0.000000 -0.033833 0.000000 0.051278
#
#
# Mechanical properties :
#
#
# Convention : Reuss Voigt Hill
#
# Bulk Modulus (GPa) = 7.73983 35.09566 21.41774
# Shear Modulus (GPa) = 9.55315 18.59745 14.07530
#
# Velocity S-wave (km/s) = 2.31776 3.23387 2.81336
# Velocity P-wave (km/s) = 3.39338 5.80338 4.75364
#
# Compressibility (1/GPa) = 0.12920179
#
# Stress axis : x y z
#
# Youngs Moduli (GPa) = 12.63051 69.76969 15.10129
#
# Poissons Ratio (x) = 1.56660 -0.34006
# Poissons Ratio (y) = 0.28360 0.23146
# Poissons Ratio (z) = -0.28443 1.06936
#
# Static dielectric constant tensor:
#      x y z
#    x 1.590110 0.000000 -0.001380 
#    y 0.000000 1.645920 0.000000 
#    z -0.001380 0.000000 1.626680 
# 
# From -- ./inp_files/190187.got.cif
#   From: 2010.05.17/outbox.cif.g08.bks.cpg/sg12_96_cif.got.tgz:190187.got - 2010.06.03 13:09:07.
