data_PCOD9178020
_publ_section_title
;
Structure prediction by ZEFSAII (Michael W. Deem and Ramdas Pophale) SiO2 
 PCOD9178020
Probable space group: C 2/M
;
_chemical_formula_sum "Si O2"
_cell_formula_units_Z 48
_cell_length_a 13.945754
_cell_length_b 9.124390
_cell_length_c 20.713150
_cell_angle_alpha 90.000000
_cell_angle_beta 127.399666
_cell_angle_gamma 90.000000
_cell_volume 2093.828728
_symmetry_space_group_name_H-M "C 2/M"
_symmetry_group_IT_number 12
_symmetry_cell_setting 'monoclinic'
loop_
_space_group_symop_operation_xyz
x,y,z
-x,y,-z
-x,-y,-z
x,-y,z
1/2+x,1/2+y,z
1/2-x,1/2+y,-z
1/2-x,1/2-y,-z
1/2+x,1/2-y,z
loop_
_atom_site_type_symbol
_atom_site_label
_atom_site_fract_x
_atom_site_fract_y
_atom_site_fract_z
Si Si1 0.433450 0.332392 0.588235
Si Si2 0.816287 0.332047 0.428960
Si Si3 0.459497 0.675437 0.238798
Si Si4 0.067584 0.335136 0.090543
Si Si5 0.191990 0.322471 0.266163
Si Si6 0.331746 0.836874 0.082344
O O1 0.450034 0.500000 0.573422
O O2 0.309043 0.328890 0.580084
O O3 0.413256 0.229089 0.519343
O O4 0.534655 0.295215 0.682653
O O5 0.838373 0.500000 0.420318
O O6 0.796361 0.236513 0.356499
O O7 0.467642 0.500000 0.233631
O O8 0.575412 0.755340 0.255250
O O9 0.350757 0.742082 0.153852
O O10 0.106500 0.500000 0.085270
O O11 0.957558 0.349460 0.095857
O O12 0.170755 0.276512 0.182240
O O13 0.000000 0.265025 0.000000
O O14 0.192503 0.500000 0.266931
O O15 0.287044 0.000000 0.078568
O O16 0.250000 0.750000 0.000000
#
# Coordination Sequence:
#
# PCOD9178020 Si02
#       6
#     8   8   8   8   8   8
#     4   8  14  22  32  48  71 101 134 167 203 244
#     4   9  15  21  31  48  73 104 135 168 203 246
#     4   9  16  26  39  55  78 106 137 173 210 251
#     4   8  15  28  45  64  84 110 146 182 214 248
#     4   9  15  23  37  55  77 106 137 171 211 253
#     4  10  19  30  46  65  87 115 144 178 215 254
#
# _framework density 22.924510999999999
#
# number of rings (size 3 to 8) (size 9 to 14) (size 15 to 20)
#    0.000    3.167    0.000    4.000    0.000    4.667 
#    0.000    0.000    0.000   18.000    0.000    0.000 
#    0.000    1.333    0.000   15.333    0.000   15.667 
#
# Total GULP energy -133809.689801 kJ/mol
# GULP energy per Si atom -5575.403742 kJ/mol
# Density = 2.287233 g / cm^3
# Si number density = 22.924511 Si / 1000 Ang^3
#
#
#
# Elastic Constant Matrix: (Units=GPa)
#
#
# Indices 1 2 3 4 5 6 
#
# 1 65.4152 21.5114 11.7840 0.0000 -21.7576 0.0000
# 2 21.5114 106.1756 109.6100 0.0000 -15.4513 0.0000
# 3 11.7840 109.6100 265.1281 0.0000 -19.4252 0.0000
# 4 0.0000 0.0000 0.0000 40.0899 0.0000 0.0718
# 5 -21.7576 -15.4513 -19.4252 0.0000 28.0642 0.0000
# 6 0.0000 0.0000 0.0000 0.0718 0.0000 0.4967
#
#
#
# Elastic Compliance Matrix: (Units=1/GPa)
#
#
# Indices 1 2 3 4 5 6 
#
# 1 0.021499 -0.003957 0.001835 0.000000 0.015760 0.000000
# 2 -0.003957 0.017737 -0.007022 0.000000 0.001837 0.000000
# 3 0.001835 -0.007022 0.006757 0.000000 0.002233 0.000000
# 4 0.000000 0.000000 0.000000 0.024950 0.000000 -0.003606
# 5 0.015760 0.001837 0.002233 0.000000 0.050408 0.000000
# 6 0.000000 0.000000 0.000000 -0.003606 0.000000 2.013687
#
#
# Mechanical properties :
#
#
# Convention : Reuss Voigt Hill
#
# Bulk Modulus (GPa) = 36.09460 80.28109 58.18784
# Shear Modulus (GPa) = 2.31207 33.31773 17.81490
#
# Velocity S-wave (km/s) = 1.00536 3.81644 2.79070
# Velocity P-wave (km/s) = 4.13846 7.38350 5.98510
#
# Compressibility (1/GPa) = 0.02770498
#
# Stress axis : x y z
#
# Youngs Moduli (GPa) = 46.51322 56.37984 147.99392
#
# Poissons Ratio (x) = 0.22307 -0.27154
# Poissons Ratio (y) = 0.18403 1.03927
# Poissons Ratio (z) = -0.08534 0.39592
#
# Static dielectric constant tensor:
#      x y z
#    x 1.883360 0.000000 0.002890 
#    y 0.000000 1.798100 0.000000 
#    z 0.002890 0.000000 1.852560 
# 
# From -- ./inp_files/345692.got.cif
#   From: 2010.05.17/outbox.cif.g08.bks.cpg/sg12_173_cif.got.tgz:345692.got - 2010.06.03 13:09:07.
