data_PCOD9178842
_publ_section_title
;
Structure prediction by ZEFSAII (Michael W. Deem and Ramdas Pophale) SiO2 
 PCOD9178842
Probable space group: C 2/M
;
_chemical_formula_sum "Si O2"
_cell_formula_units_Z 48
_cell_length_a 13.982165
_cell_length_b 9.356310
_cell_length_c 16.088216
_cell_angle_alpha 90.000000
_cell_angle_beta 98.425388
_cell_angle_gamma 90.000000
_cell_volume 2081.969280
_symmetry_space_group_name_H-M "C 2/M"
_symmetry_group_IT_number 12
_symmetry_cell_setting 'monoclinic'
loop_
_space_group_symop_operation_xyz
x,y,z
-x,y,-z
-x,-y,-z
x,-y,z
1/2+x,1/2+y,z
1/2-x,1/2+y,-z
1/2-x,1/2-y,-z
1/2+x,1/2-y,z
loop_
_atom_site_type_symbol
_atom_site_label
_atom_site_fract_x
_atom_site_fract_y
_atom_site_fract_z
Si Si1 0.070687 0.337115 0.757432
Si Si2 0.801785 0.163052 0.745822
Si Si3 0.242106 0.339328 0.415143
Si Si4 0.156246 0.336877 0.088995
Si Si5 0.113212 0.163167 0.923601
Si Si6 0.467229 0.338773 0.405386
O O1 0.037357 0.500000 0.763073
O O2 0.186241 0.342648 0.751331
O O3 0.065149 0.247440 0.841437
O O4 0.020129 0.259342 0.673367
O O5 0.811054 0.245787 0.660607
O O6 0.849262 0.253664 0.825254
O O7 0.836662 0.000000 0.747304
O O8 0.202702 0.500000 0.421775
O O9 0.250000 0.250000 0.500000
O O10 0.351844 0.353814 0.397665
O O11 0.121591 0.500000 0.088962
O O12 0.271418 0.342390 0.082387
O O13 0.107543 0.248529 0.008852
O O14 0.078859 0.000000 0.925264
O O15 0.500000 0.281367 0.500000
O O16 0.508849 0.500000 0.401665
#
# Coordination Sequence:
#
# PCOD9178842 Si02
#       6
#     8   8   8   8   8   8
#     4   9  16  25  38  57  81 109 141 178 219 261
#     4   9  16  26  39  56  80 110 143 177 216 262
#     4  10  19  31  47  66  89 117 149 185 224 265
#     4   9  15  22  33  51  76 106 140 176 214 257
#     4   9  15  22  33  50  75 108 142 174 211 258
#     4   9  18  32  48  65  87 117 151 185 222 265
#
# _framework density 23.055095999999999
#
# number of rings (size 3 to 8) (size 9 to 14) (size 15 to 20)
#    0.000    2.833    0.000    2.500    0.000    9.000 
#    0.000    0.000    0.000    0.000    0.000    0.000 
#    0.000    1.333    0.000   14.333    0.000   20.667 
#
# Total GULP energy -134235.005543 kJ/mol
# GULP energy per Si atom -5593.125231 kJ/mol
# Density = 2.300262 g / cm^3
# Si number density = 23.055096 Si / 1000 Ang^3
#
#
#
# Elastic Constant Matrix: (Units=GPa)
#
#
# Indices 1 2 3 4 5 6 
#
# 1 72.3306 6.4041 2.6700 0.0000 9.8219 0.0000
# 2 6.4041 269.7715 180.6769 0.0000 4.3340 0.0000
# 3 2.6700 180.6769 283.4284 0.0000 6.1598 0.0000
# 4 0.0000 0.0000 0.0000 33.8703 0.0000 3.9209
# 5 9.8219 4.3340 6.1598 0.0000 14.2166 0.0000
# 6 0.0000 0.0000 0.0000 3.9209 0.0000 0.2625
#
#
#
# Elastic Compliance Matrix: (Units=1/GPa)
#
#
# Indices 1 2 3 4 5 6 
#
# 1 0.015288 -0.000437 0.000365 0.000000 -0.010587 0.000000
# 2 -0.000437 0.006481 -0.004130 0.000000 0.000116 0.000000
# 3 0.000365 -0.004130 0.006194 0.000000 -0.001677 0.000000
# 4 0.000000 0.000000 0.000000 -0.040510 0.000000 0.604991
# 5 -0.010587 0.000116 -0.001677 0.000000 0.078346 0.000000
# 6 0.000000 0.000000 0.000000 0.604991 0.000000 -5.226222
#
#
# Mechanical properties :
#
#
# Convention : Reuss Voigt Hill
#
# Bulk Modulus (GPa) = 51.12795 111.67028 81.39911
# Shear Modulus (GPa) = -0.97172 38.72187 18.87507
#
# Velocity S-wave (km/s) = -0.64992 4.10266 2.86439
# Velocity P-wave (km/s) = 4.65418 8.42519 6.80607
#
# Compressibility (1/GPa) = 0.01955877
#
# Stress axis : x y z
#
# Youngs Moduli (GPa) = 65.40953 154.28572 161.44476
#
# Poissons Ratio (x) = 0.06744 -0.05888
# Poissons Ratio (y) = 0.02859 0.66679
# Poissons Ratio (z) = -0.02386 0.63722
#
# Static dielectric constant tensor:
#      x y z
#    x 1.987100 0.000000 -0.032100 
#    y 0.000000 1.810270 0.000000 
#    z -0.032100 0.000000 1.797150 
# 
# From -- ./inp_files/236613.got.cif
#   From: 2010.05.17/outbox.cif.g08.bks.cpg/sg12_119_cif.got.tgz:236613.got - 2010.06.03 13:09:07.
