data_PCOD9178044
_publ_section_title
;
Structure prediction by ZEFSAII (Michael W. Deem and Ramdas Pophale) SiO2 
 PCOD9178044
Probable space group: C 2/M
;
_chemical_formula_sum "Si O2"
_cell_formula_units_Z 56
_cell_length_a 14.175755
_cell_length_b 24.430035
_cell_length_c 15.724629
_cell_angle_alpha 90.000000
_cell_angle_beta 38.554154
_cell_angle_gamma 90.000000
_cell_volume 3394.031016
_symmetry_space_group_name_H-M "C 2/M"
_symmetry_group_IT_number 12
_symmetry_cell_setting 'monoclinic'
loop_
_space_group_symop_operation_xyz
x,y,z
-x,y,-z
-x,-y,-z
x,-y,z
1/2+x,1/2+y,z
1/2-x,1/2+y,-z
1/2-x,1/2-y,-z
1/2+x,1/2-y,z
loop_
_atom_site_type_symbol
_atom_site_label
_atom_site_fract_x
_atom_site_fract_y
_atom_site_fract_z
Si Si1 0.648007 0.187486 0.072456
Si Si2 0.133982 0.233856 0.764879
Si Si3 0.077130 0.719642 0.538893
Si Si4 0.464439 0.000000 0.390991
Si Si5 0.699768 0.267086 0.181267
Si Si6 0.547098 0.883748 0.280300
Si Si7 0.636903 0.386195 0.836868
Si Si8 0.236233 0.000000 0.699010
O O1 0.511711 0.229890 0.151341
O O2 0.728457 0.215719 0.097359
O O3 0.585500 0.132508 0.156846
O O4 0.750380 0.184318 0.916435
O O5 0.255438 0.238404 0.603029
O O6 0.201159 0.258849 0.804983
O O7 0.114885 0.168985 0.796830
O O8 0.000000 0.710943 0.500000
O O9 0.971919 0.762364 0.664543
O O10 0.059646 0.662832 0.602307
O O11 0.475936 0.056735 0.333986
O O12 0.313251 0.000000 0.553117
O O13 0.615724 0.000000 0.343638
O O14 0.701262 0.882157 0.228308
O O15 0.646431 0.443863 0.780230
O O16 0.500000 0.388413 0.000000
#
# Coordination Sequence:
#
# PCOD9178044 Si02
#       8
#     8   8   8   4   8   8   8   4
#     4  10  19  30  46  67  96 126 161 196 234 291
#     4  11  19  29  49  68  94 132 161 194 242 279
#     4   9  16  29  44  64  97 123 155 196 225 284
#     4   9  18  30  52  64  89 127 160 199 246 276
#     4   9  18  30  43  64  94 122 155 190 234 280
#     4  10  19  32  46  69  93 125 165 196 237 287
#     4  11  19  29  45  68  97 128 164 194 235 282
#     4   9  19  30  46  70  91 126 165 196 231 290
#
# _framework density 16.499554
#
# number of rings (size 3 to 8) (size 9 to 14) (size 15 to 20)
#    0.000    2.143    4.286    2.357    4.000    2.286 
#    0.000    0.000    0.000    0.000    0.000    2.000 
#    0.000    0.000    0.000    8.857    0.000    0.000 
#
# Total GULP energy -155969.130247 kJ/mol
# GULP energy per Si atom -5570.326080 kJ/mol
# Density = 1.646200 g / cm^3
# Si number density = 16.499554 Si / 1000 Ang^3
#
#
#
# Elastic Constant Matrix: (Units=GPa)
#
#
# Indices 1 2 3 4 5 6 
#
# 1 35.1469 16.9376 14.5780 -0.0011 5.5035 0.0006
# 2 16.9376 87.1585 58.2185 -0.0006 8.0136 0.0005
# 3 14.5780 58.2185 144.5099 -0.0033 14.7328 0.0020
# 4 -0.0011 -0.0006 -0.0033 24.6942 0.0017 4.5492
# 5 5.5035 8.0136 14.7328 0.0017 22.2922 -0.0009
# 6 0.0006 0.0005 0.0020 4.5492 -0.0009 13.7921
#
#
#
# Elastic Compliance Matrix: (Units=1/GPa)
#
#
# Indices 1 2 3 4 5 6 
#
# 1 0.032145 -0.005398 -0.000490 0.000002 -0.005672 -0.000002
# 2 -0.005398 0.016655 -0.006102 -0.000001 -0.000622 0.000001
# 3 -0.000490 -0.006102 0.009856 0.000002 -0.004199 -0.000002
# 4 0.000002 -0.000001 0.000002 0.043115 -0.000005 -0.014221
# 5 -0.005672 -0.000622 -0.004199 -0.000005 0.049258 0.000006
# 6 -0.000002 0.000001 -0.000002 -0.014221 0.000006 0.077196
#
#
# Mechanical properties :
#
#
# Convention : Reuss Voigt Hill
#
# Bulk Modulus (GPa) = 28.83828 49.58706 39.21267
# Shear Modulus (GPa) = 18.95637 23.96110 21.45874
#
# Velocity S-wave (km/s) = 3.39322 3.81494 3.61025
# Velocity P-wave (km/s) = 5.73307 7.03732 6.41841
#
# Compressibility (1/GPa) = 0.03467613
#
# Stress axis : x y z
#
# Youngs Moduli (GPa) = 31.10935 60.04038 101.46352
#
# Poissons Ratio (x) = 0.32410 0.04969
# Poissons Ratio (y) = 0.16793 0.61913
# Poissons Ratio (z) = 0.01524 0.36637
#
# Static dielectric constant tensor:
#      x y z
#    x 1.588460 0.000000 -0.010710 
#    y 0.000000 1.561520 0.000000 
#    z -0.010710 0.000000 1.614800 
# 
# From -- ./inp_files/218267.got.cif
#   From: 2010.05.17/outbox.cif.g08.bks.cpg/sg12_110_cif.got.tgz:218267.got - 2010.06.03 13:09:07.
