data_PCOD9178356
_publ_section_title
;
Structure prediction by ZEFSAII (Michael W. Deem and Ramdas Pophale) SiO2 
 PCOD9178356
Probable space group: C 2/M
;
_chemical_formula_sum "Si O2"
_cell_formula_units_Z 56
_cell_length_a 23.055166
_cell_length_b 9.391944
_cell_length_c 15.121854
_cell_angle_alpha 90.000000
_cell_angle_beta 92.953155
_cell_angle_gamma 90.000000
_cell_volume 3270.029407
_symmetry_space_group_name_H-M "C 2/M"
_symmetry_group_IT_number 12
_symmetry_cell_setting 'monoclinic'
loop_
_space_group_symop_operation_xyz
x,y,z
-x,y,-z
-x,-y,-z
x,-y,z
1/2+x,1/2+y,z
1/2-x,1/2+y,-z
1/2-x,1/2-y,-z
1/2+x,1/2-y,z
loop_
_atom_site_type_symbol
_atom_site_label
_atom_site_fract_x
_atom_site_fract_y
_atom_site_fract_z
Si Si1 0.529360 0.336198 0.125063
Si Si2 0.881355 0.333830 0.975546
Si Si3 0.707707 0.835225 0.196650
Si Si4 0.553941 0.168348 0.758662
Si Si5 0.513330 0.670496 0.399132
Si Si6 0.379700 0.337896 0.702825
Si Si7 0.823075 0.668099 0.155790
O O1 0.513090 0.500000 0.106514
O O2 0.564163 0.262731 0.047978
O O3 0.477127 0.242261 0.159635
O O4 0.575577 0.337860 0.210461
O O5 0.899240 0.500000 0.987082
O O6 0.835005 0.326615 0.891814
O O7 0.848257 0.289047 0.061765
O O8 0.672698 0.763047 0.274142
O O9 0.766745 0.754229 0.178954
O O10 0.719053 0.000000 0.215481
O O11 0.528214 0.243285 0.669981
O O12 0.622807 0.186520 0.773853
O O13 0.540599 0.000000 0.758249
O O14 0.500000 0.699593 0.500000
O O15 0.506269 0.500000 0.382706
O O16 0.579547 0.705183 0.375906
O O17 0.359276 0.500000 0.689114
O O18 0.808843 0.500000 0.149614
#
# Coordination Sequence:
#
# PCOD9178356 Si02
#       7
#     8   8   8   8   8   8   8
#     4   9  17  30  48  69  95 128 163 203 247 287
#     4   9  18  32  48  68  94 127 169 212 249 284
#     4  10  19  30  48  71  94 125 168 211 241 273
#     4  10  20  33  49  71  99 131 163 195 239 294
#     4   9  18  34  57  82 103 123 150 190 242 294
#     4   8  15  29  49  71  96 125 153 186 235 290
#     4  10  21  34  47  65  96 136 169 201 245 291
#
# _framework density 17.125228
#
# number of rings (size 3 to 8) (size 9 to 14) (size 15 to 20)
#    0.000    2.714    0.000    2.571    0.000    6.571 
#    0.000    2.857    0.000    0.857    0.000    0.000 
#    0.000    0.000    0.000    0.000    0.000    0.000 
#
# Total GULP energy -156189.281199 kJ/mol
# GULP energy per Si atom -5578.188614 kJ/mol
# Density = 1.708625 g / cm^3
# Si number density = 17.125228 Si / 1000 Ang^3
#
#
#
# Elastic Constant Matrix: (Units=GPa)
#
#
# Indices 1 2 3 4 5 6 
#
# 1 87.2890 66.9170 48.5984 0.0000 -25.9797 0.0000
# 2 66.9170 92.4966 52.0599 0.0000 -17.5635 0.0000
# 3 48.5984 52.0599 96.6159 0.0000 -30.7992 0.0000
# 4 0.0000 0.0000 0.0000 17.8460 0.0000 -6.1430
# 5 -25.9797 -17.5635 -30.7992 0.0000 23.0090 0.0000
# 6 0.0000 0.0000 0.0000 -6.1430 0.0000 30.0387
#
#
#
# Elastic Compliance Matrix: (Units=1/GPa)
#
#
# Indices 1 2 3 4 5 6 
#
# 1 0.033671 -0.020902 0.002371 0.000000 0.025237 0.000000
# 2 -0.020902 0.028509 -0.009479 0.000000 -0.014526 0.000000
# 3 0.002371 -0.009479 0.022348 0.000000 0.025356 0.000000
# 4 0.000000 0.000000 0.000000 0.060278 0.000000 0.012327
# 5 0.025237 -0.014526 0.025356 0.000000 0.094809 0.000000
# 6 0.000000 0.000000 0.000000 0.012327 0.000000 0.035811
#
#
# Mechanical properties :
#
#
# Convention : Reuss Voigt Hill
#
# Bulk Modulus (GPa) = 35.07641 67.95025 51.51333
# Shear Modulus (GPa) = 14.66492 21.43382 18.04937
#
# Velocity S-wave (km/s) = 2.92949 3.54162 3.25000
# Velocity P-wave (km/s) = 5.65414 7.51590 6.65049
#
# Compressibility (1/GPa) = 0.02850919
#
# Stress axis : x y z
#
# Youngs Moduli (GPa) = 29.69908 35.07623 44.74625
#
# Poissons Ratio (x) = 0.73316 -0.10609
# Poissons Ratio (y) = 0.62076 0.42414
# Poissons Ratio (z) = -0.07041 0.33248
#
# Static dielectric constant tensor:
#      x y z
#    x 1.566810 0.000000 0.003670 
#    y 0.000000 1.577710 0.000000 
#    z 0.003670 0.000000 1.583300 
# 
# From -- ./inp_files/231020.got.cif
#   From: 2010.05.17/outbox.cif.g08.bks.cpg/sg12_116_cif.got.tgz:231020.got - 2010.06.03 13:09:07.
