data_PCOD9178792
_publ_section_title
;
Structure prediction by ZEFSAII (Michael W. Deem and Ramdas Pophale) SiO2 
 PCOD9178792
Probable space group: C 2/M
;
_chemical_formula_sum "Si O2"
_cell_formula_units_Z 64
_cell_length_a 32.782558
_cell_length_b 8.713145
_cell_length_c 16.210232
_cell_angle_alpha 90.000000
_cell_angle_beta 53.714847
_cell_angle_gamma 90.000000
_cell_volume 3732.381705
_symmetry_space_group_name_H-M "C 2/M"
_symmetry_group_IT_number 12
_symmetry_cell_setting 'monoclinic'
loop_
_space_group_symop_operation_xyz
x,y,z
-x,y,-z
-x,-y,-z
x,-y,z
1/2+x,1/2+y,z
1/2-x,1/2+y,-z
1/2-x,1/2-y,-z
1/2+x,1/2-y,z
loop_
_atom_site_type_symbol
_atom_site_label
_atom_site_fract_x
_atom_site_fract_y
_atom_site_fract_z
Si Si1 0.036233 0.180934 0.765792
Si Si2 0.940430 0.672535 0.092365
Si Si3 0.288093 0.186648 0.647426
Si Si4 0.791001 0.184300 0.386885
Si Si5 0.674257 0.684836 0.049936
Si Si6 0.781215 0.685267 0.842203
Si Si7 0.077890 0.185727 0.058177
Si Si8 0.368520 0.817016 0.412898
O O1 0.058927 0.220447 0.828675
O O2 0.073776 0.261279 0.656526
O O3 0.977432 0.231241 0.840131
O O4 0.037338 0.000000 0.750616
O O5 0.921863 0.500000 0.133045
O O6 0.915467 0.743054 0.040701
O O7 0.000000 0.661035 0.000000
O O8 0.233739 0.226933 0.671383
O O9 0.292356 0.239691 0.736165
O O10 0.333401 0.236814 0.531786
O O11 0.289679 0.000000 0.646035
O O12 0.750000 0.250000 0.500000
O O13 0.842079 0.255213 0.360939
O O14 0.793869 0.000000 0.388018
O O15 0.674077 0.500000 0.055362
O O16 0.681514 0.751916 0.132391
O O17 0.623406 0.731934 0.063685
O O18 0.724371 0.730251 0.938244
O O19 0.783326 0.500000 0.840183
O O20 0.077677 0.000000 0.050274
O O21 0.366786 0.000000 0.413889
#
# Coordination Sequence:
#
# PCOD9178792 Si02
#       8
#     8   8   8   8   8   8   8   8
#     4  10  19  31  47  67  94 130 167 196 229 277
#     4   9  17  29  45  67  95 124 156 194 232 270
#     4   8  16  30  48  69  94 125 157 192 235 282
#     4   9  16  28  45  66  93 125 160 195 233 277
#     4   9  18  32  50  73  97 119 147 189 239 286
#     4   9  17  32  52  71  92 119 151 187 234 290
#     4   9  18  32  49  69  96 128 159 192 233 284
#     4  10  19  31  46  67  97 129 163 202 239 276
#
# _framework density 17.147227000000001
#
# number of rings (size 3 to 8) (size 9 to 14) (size 15 to 20)
#    0.000    2.875    0.000    2.250    0.000    3.500 
#    0.000    6.250    0.000    0.750    0.000    5.250 
#    0.000    0.000    0.000    0.000    0.000    0.000 
#
# Total GULP energy -178206.888964 kJ/mol
# GULP energy per Si atom -5568.965280 kJ/mol
# Density = 1.710820 g / cm^3
# Si number density = 17.147227 Si / 1000 Ang^3
#
#
#
# Elastic Constant Matrix: (Units=GPa)
#
#
# Indices 1 2 3 4 5 6 
#
# 1 133.3764 20.8814 56.0050 0.0000 11.9608 0.0000
# 2 20.8814 24.3781 11.1970 0.0000 0.6686 0.0000
# 3 56.0050 11.1970 76.6193 0.0000 11.4102 0.0000
# 4 0.0000 0.0000 0.0000 22.0603 0.0000 0.2847
# 5 11.9608 0.6686 11.4102 0.0000 26.6102 0.0000
# 6 0.0000 0.0000 0.0000 0.2847 0.0000 24.2555
#
#
#
# Elastic Compliance Matrix: (Units=1/GPa)
#
#
# Indices 1 2 3 4 5 6 
#
# 1 0.011814 -0.006683 -0.007363 0.000000 -0.001985 0.000000
# 2 -0.006683 0.047830 -0.002535 0.000000 0.002889 0.000000
# 3 -0.007363 -0.002535 0.019550 0.000000 -0.005010 0.000000
# 4 0.000000 0.000000 0.000000 0.045337 0.000000 -0.000532
# 5 -0.001985 0.002889 -0.005010 0.000000 0.040547 0.000000
# 6 0.000000 0.000000 0.000000 -0.000532 0.000000 0.041234
#
#
# Mechanical properties :
#
#
# Convention : Reuss Voigt Hill
#
# Bulk Modulus (GPa) = 21.72424 45.61563 33.66994
# Shear Modulus (GPa) = 19.62189 24.33790 21.97990
#
# Velocity S-wave (km/s) = 3.38645 3.77151 3.58415
# Velocity P-wave (km/s) = 5.29032 6.75469 6.06685
#
# Compressibility (1/GPa) = 0.04603152
#
# Stress axis : x y z
#
# Youngs Moduli (GPa) = 84.64854 20.90747 51.15081
#
# Poissons Ratio (x) = 0.13972 0.37662
# Poissons Ratio (y) = 0.56569 0.12968
# Poissons Ratio (z) = 0.62326 0.05300
#
# Static dielectric constant tensor:
#      x y z
#    x 1.580430 0.000000 -0.015920 
#    y 0.000000 1.589760 0.000000 
#    z -0.015920 0.000000 1.592320 
# 
# From -- ./inp_files/249047.got.cif
#   From: 2010.05.17/outbox.cif.g08.bks.cpg/sg12_125_cif.got.tgz:249047.got - 2010.06.03 13:09:07.
