data_PCOD9178234
_publ_section_title
;
Structure prediction by ZEFSAII (Michael W. Deem and Ramdas Pophale) SiO2 
 PCOD9178234
Probable space group: C 2/M
;
_chemical_formula_sum "Si O2"
_cell_formula_units_Z 64
_cell_length_a 28.076952
_cell_length_b 8.880484
_cell_length_c 15.828063
_cell_angle_alpha 90.000000
_cell_angle_beta 70.119734
_cell_angle_gamma 90.000000
_cell_volume 3711.328842
_symmetry_space_group_name_H-M "C 2/M"
_symmetry_group_IT_number 12
_symmetry_cell_setting 'monoclinic'
loop_
_space_group_symop_operation_xyz
x,y,z
-x,y,-z
-x,-y,-z
x,-y,z
1/2+x,1/2+y,z
1/2-x,1/2+y,-z
1/2-x,1/2-y,-z
1/2+x,1/2-y,z
loop_
_atom_site_type_symbol
_atom_site_label
_atom_site_fract_x
_atom_site_fract_y
_atom_site_fract_z
Si Si1 0.439234 0.670627 0.551004
Si Si2 0.712010 0.180990 0.953758
Si Si3 0.825220 0.821185 0.408457
Si Si4 0.292201 0.319460 0.777150
Si Si5 0.074694 0.320241 0.617023
Si Si6 0.367197 0.181636 0.871685
Si Si7 0.219973 0.320689 0.394096
Si Si8 0.040578 0.680938 0.287093
O O1 0.500000 0.664360 0.500000
O O2 0.419308 0.500000 0.563024
O O3 0.419158 0.763080 0.483322
O O4 0.433863 0.748230 0.644857
O O5 0.736617 0.223263 0.849300
O O6 0.715213 0.000000 0.955598
O O7 0.750000 0.250000 0.000000
O O8 0.656653 0.223848 0.022882
O O9 0.879600 0.749445 0.357473
O O10 0.806215 0.752452 0.508688
O O11 0.780127 0.790014 0.369712
O O12 0.830232 0.000000 0.414051
O O13 0.296094 0.500000 0.770042
O O14 0.332423 0.256625 0.820474
O O15 0.299212 0.248161 0.681454
O O16 0.077415 0.500000 0.616863
O O17 0.018289 0.272391 0.680312
O O18 0.424885 0.220974 0.814006
O O19 0.362812 0.000000 0.866288
O O20 0.212052 0.500000 0.400725
O O21 0.040728 0.500000 0.297338
#
# Coordination Sequence:
#
# PCOD9178234 Si02
#       8
#     8   8   8   8   8   8   8   8
#     4   9  17  28  41  58  84 118 155 192 224 258
#     4   8  15  28  45  66  92 123 154 187 226 269
#     4  10  21  36  52  69  90 117 153 195 234 273
#     4  10  19  30  47  71  97 123 154 190 230 275
#     4  10  19  31  47  65  89 121 154 189 233 276
#     4   9  17  30  47  67  96 129 159 189 224 268
#     4  10  21  36  52  70  91 118 152 190 234 280
#     4   9  18  30  44  65  91 122 158 191 224 270
#
# _framework density 17.244496999999999
#
# number of rings (size 3 to 8) (size 9 to 14) (size 15 to 20)
#    0.000    2.625    0.000    1.875    1.750    4.500 
#    0.000    0.000    0.000    0.000    0.000    0.875 
#    0.000    7.000    0.000    0.000    0.000    0.000 
#
# Total GULP energy -178301.165859 kJ/mol
# GULP energy per Si atom -5571.911433 kJ/mol
# Density = 1.720525 g / cm^3
# Si number density = 17.244497 Si / 1000 Ang^3
#
#
#
# Elastic Constant Matrix: (Units=GPa)
#
#
# Indices 1 2 3 4 5 6 
#
# 1 66.9998 20.7695 4.5587 0.0000 -17.2367 0.0000
# 2 20.7695 29.5498 2.1556 0.0000 -3.8570 0.0000
# 3 4.5587 2.1556 39.6115 0.0000 -17.2247 0.0000
# 4 0.0000 0.0000 0.0000 12.5373 0.0000 -1.9100
# 5 -17.2367 -3.8570 -17.2247 0.0000 26.6757 0.0000
# 6 0.0000 0.0000 0.0000 -1.9100 0.0000 22.1256
#
#
#
# Elastic Compliance Matrix: (Units=1/GPa)
#
#
# Indices 1 2 3 4 5 6 
#
# 1 0.023299 -0.014628 0.005202 0.000000 0.016299 0.000000
# 2 -0.014628 0.043681 -0.002861 0.000000 -0.004984 0.000000
# 3 0.005202 -0.002861 0.036267 0.000000 0.026366 0.000000
# 4 0.000000 0.000000 0.000000 0.080825 0.000000 0.006977
# 5 0.016299 -0.004984 0.026366 0.000000 0.064323 0.000000
# 6 0.000000 0.000000 0.000000 0.006977 0.000000 0.045799
#
#
# Mechanical properties :
#
#
# Convention : Reuss Voigt Hill
#
# Bulk Modulus (GPa) = 12.71074 21.23655 16.97364
# Shear Modulus (GPa) = 14.49307 19.51287 17.00297
#
# Velocity S-wave (km/s) = 2.90219 3.36749 3.14346
# Velocity P-wave (km/s) = 4.31476 5.24039 4.79994
#
# Compressibility (1/GPa) = 0.07867362
#
# Stress axis : x y z
#
# Youngs Moduli (GPa) = 42.91980 22.89322 27.57323
#
# Poissons Ratio (x) = 0.33489 -0.14344
# Poissons Ratio (y) = 0.62784 0.07888
# Poissons Ratio (z) = -0.22327 0.06549
#
# Static dielectric constant tensor:
#      x y z
#    x 1.575040 0.000000 -0.052730 
#    y 0.000000 1.581290 0.000000 
#    z -0.052730 0.000000 1.596340 
# 
# From -- ./inp_files/243764.got.cif
#   From: 2010.05.17/outbox.cif.g08.bks.cpg/sg12_122_cif.got.tgz:243764.got - 2010.06.03 13:09:07.
