data_PCOD9178103
_publ_section_title
;
Structure prediction by ZEFSAII (Michael W. Deem and Ramdas Pophale) SiO2 
 PCOD9178103
Probable space group: C 2/M
;
_chemical_formula_sum "Si O2"
_cell_formula_units_Z 56
_cell_length_a 19.261922
_cell_length_b 7.527891
_cell_length_c 23.495792
_cell_angle_alpha 90.000000
_cell_angle_beta 52.348541
_cell_angle_gamma 90.000000
_cell_volume 2697.406190
_symmetry_space_group_name_H-M "C 2/M"
_symmetry_group_IT_number 12
_symmetry_cell_setting 'monoclinic'
loop_
_space_group_symop_operation_xyz
x,y,z
-x,y,-z
-x,-y,-z
x,-y,z
1/2+x,1/2+y,z
1/2-x,1/2+y,-z
1/2-x,1/2-y,-z
1/2+x,1/2-y,z
loop_
_atom_site_type_symbol
_atom_site_label
_atom_site_fract_x
_atom_site_fract_y
_atom_site_fract_z
Si Si1 0.356141 0.287903 0.795480
Si Si2 0.520344 0.283211 0.365194
Si Si3 0.994039 0.282106 0.068765
Si Si4 0.819721 0.216411 0.634449
Si Si5 0.802812 0.716882 0.203030
Si Si6 0.848672 0.291250 0.931700
Si Si7 0.668555 0.286977 0.500225
O O1 0.354836 0.500000 0.789571
O O2 0.436466 0.223193 0.715950
O O3 0.265172 0.225022 0.812294
O O4 0.362513 0.252246 0.858707
O O5 0.517900 0.500000 0.365411
O O6 0.589679 0.233491 0.379645
O O7 0.423031 0.219914 0.427824
O O8 0.994149 0.500000 0.068833
O O9 0.901346 0.224863 0.141803
O O10 0.076405 0.215975 0.064377
O O11 0.000000 0.228031 0.000000
O O12 0.740488 0.272480 0.715498
O O13 0.816257 0.279826 0.571570
O O14 0.818052 0.000000 0.634695
O O15 0.803753 0.500000 0.202198
O O16 0.857816 0.500000 0.932374
O O17 0.750000 0.250000 0.000000
O O18 0.659936 0.500000 0.500080
O O19 0.750000 0.250000 0.500000
#
# Coordination Sequence:
#
# PCOD9178103 Si02
#       7
#     8   8   8   8   8   8   8
#     4   9  17  32  54  75  96 123 156 198 246 293
#     4   8  15  29  50  73  94 123 164 203 239 284
#     4   9  17  29  46  68  92 120 156 196 234 274
#     4   8  14  26  47  71  92 121 164 207 239 278
#     4   8  14  27  49  74  94 117 159 208 245 279
#     4  11  22  34  51  74 100 129 160 196 237 283
#     4  10  19  30  46  70 100 130 162 203 247 289
#
# _framework density 20.760686
#
# number of rings (size 3 to 8) (size 9 to 14) (size 15 to 20)
#    0.000    3.000    0.000    3.429    0.000    5.143 
#    0.000    2.143    0.000   12.857    0.000    0.000 
#    0.000    0.000    0.000    0.000    0.000    0.000 
#
# Total GULP energy -156256.227240 kJ/mol
# GULP energy per Si atom -5580.579544 kJ/mol
# Density = 2.071343 g / cm^3
# Si number density = 20.760686 Si / 1000 Ang^3
#
#
#
# Elastic Constant Matrix: (Units=GPa)
#
#
# Indices 1 2 3 4 5 6 
#
# 1 193.6176 2.6659 166.8722 0.0001 -6.8684 0.0005
# 2 2.6659 48.1038 4.9743 0.0003 -1.4133 0.0005
# 3 166.8722 4.9743 220.6197 0.0001 -0.8189 0.0000
# 4 0.0001 0.0003 0.0001 -4.0875 -0.0001 6.8103
# 5 -6.8684 -1.4133 -0.8189 -0.0001 40.4119 0.0003
# 6 0.0005 0.0005 0.0000 6.8103 0.0003 17.4808
#
#
#
# Elastic Compliance Matrix: (Units=1/GPa)
#
#
# Indices 1 2 3 4 5 6 
#
# 1 0.015061 0.000412 -0.011392 0.000000 0.002343 0.000000
# 2 0.000412 0.020869 -0.000779 0.000000 0.000784 -0.000001
# 3 -0.011392 -0.000779 0.013161 0.000000 -0.001697 0.000000
# 4 0.000000 0.000000 0.000000 -0.148353 -0.000001 0.057796
# 5 0.002343 0.000784 -0.001697 -0.000001 0.025137 0.000000
# 6 0.000000 -0.000001 0.000000 0.057796 0.000000 0.034689
#
#
# Mechanical properties :
#
#
# Convention : Reuss Voigt Hill
#
# Bulk Modulus (GPa) = 39.10547 90.15176 64.62861
# Shear Modulus (GPa) = -676.27761 29.94963 -323.16399
#
# Velocity S-wave (km/s) = -18.06810 3.80229 -12.48997
# Velocity P-wave (km/s) = 20.40583 7.92434 13.29667
#
# Compressibility (1/GPa) = 0.02557187
#
# Stress axis : x y z
#
# Youngs Moduli (GPa) = 66.39660 47.91762 75.98226
#
# Poissons Ratio (x) = -0.01975 0.86562
# Poissons Ratio (y) = -0.02737 0.05922
# Poissons Ratio (z) = 0.75642 0.03735
#
# Static dielectric constant tensor:
#      x y z
#    x 1.720830 0.000000 -0.000890 
#    y 0.000000 1.815390 0.000000 
#    z -0.000890 0.000000 1.709350 
# 
# From -- ./inp_files/313697.got.cif
#   From: 2010.05.17/outbox.cif.g08.bks.cpg/sg12_157_cif.got.tgz:313697.got - 2010.06.03 13:09:07.
