data_PCOD9178464
_publ_section_title
;
Structure prediction by ZEFSAII (Michael W. Deem and Ramdas Pophale) SiO2 
 PCOD9178464
Probable space group: C 2/M
;
_chemical_formula_sum "Si O2"
_cell_formula_units_Z 40
_cell_length_a 22.837816
_cell_length_b 13.823923
_cell_length_c 18.364709
_cell_angle_alpha 90.000000
_cell_angle_beta 19.460287
_cell_angle_gamma 90.000000
_cell_volume 1931.586643
_symmetry_space_group_name_H-M "C 2/M"
_symmetry_group_IT_number 12
_symmetry_cell_setting 'monoclinic'
loop_
_space_group_symop_operation_xyz
x,y,z
-x,y,-z
-x,-y,-z
x,-y,z
1/2+x,1/2+y,z
1/2-x,1/2+y,-z
1/2-x,1/2-y,-z
1/2+x,1/2-y,z
loop_
_atom_site_type_symbol
_atom_site_label
_atom_site_fract_x
_atom_site_fract_y
_atom_site_fract_z
Si Si1 0.225976 0.893776 0.207339
Si Si2 0.535317 0.809220 0.665469
Si Si3 0.794880 0.747629 0.252923
Si Si4 0.139332 0.392261 0.690037
Si Si5 0.146997 0.110603 0.135115
O O1 0.217855 0.805285 0.272235
O O2 0.128583 0.881789 0.244776
O O3 0.185995 0.000000 0.286939
O O4 0.429495 0.898128 0.946623
O O5 0.652470 0.818894 0.455442
O O6 0.653186 0.845366 0.594510
O O7 0.468985 0.698805 0.759274
O O8 0.351349 0.867152 0.876807
O O9 0.804154 0.667641 0.306216
O O10 0.000000 0.778774 0.000000
O O11 0.212681 0.500000 0.605364
O O12 0.108083 0.000000 0.159812
#
# Coordination Sequence:
#
# PCOD9178464 Si02
#       5
#     8   8   8   8   8
#     4   8  15  29  48  72 101 129 158 202 261 310
#     4  10  19  32  51  76 104 136 171 204 249 302
#     4  10  19  30  48  77 108 135 161 199 254 313
#     4   9  17  31  51  74 102 135 169 207 249 295
#     4   9  19  35  54  76 101 131 171 215 253 294
#
# _framework density 20.708365000000001
#
# number of rings (size 3 to 8) (size 9 to 14) (size 15 to 20)
#    0.000    2.800    0.000    3.000    0.000    4.800 
#    0.000    2.000    0.000    2.400    0.000   79.800 
#    0.000    0.000    0.000    0.000    0.000    0.000 
#
# Total GULP energy -111490.188926 kJ/mol
# GULP energy per Si atom -5574.509446 kJ/mol
# Density = 2.066123 g / cm^3
# Si number density = 20.708365 Si / 1000 Ang^3
#
#
#
# Elastic Constant Matrix: (Units=GPa)
#
#
# Indices 1 2 3 4 5 6 
#
# 1 43.1529 5.2293 14.1171 -0.0001 9.8801 -0.0007
# 2 5.2293 39.3028 19.4166 -0.0016 -1.5839 -0.0012
# 3 14.1171 19.4166 138.5561 0.0062 6.9670 -0.0048
# 4 -0.0001 -0.0016 0.0062 -0.8641 -0.0048 8.5734
# 5 9.8801 -1.5839 6.9670 -0.0048 29.3482 0.0021
# 6 -0.0007 -0.0012 -0.0048 8.5734 0.0021 13.3367
#
#
#
# Elastic Compliance Matrix: (Units=1/GPa)
#
#
# Indices 1 2 3 4 5 6 
#
# 1 0.026068 -0.002912 -0.001821 0.000007 -0.008501 -0.000003
# 2 -0.002912 0.027831 -0.003773 -0.000013 0.003378 0.000009
# 3 -0.001821 -0.003773 0.008007 0.000013 -0.001491 -0.000006
# 4 0.000007 -0.000013 0.000013 -0.156851 -0.000039 0.100830
# 5 -0.008501 0.003378 -0.001491 -0.000039 0.037472 0.000019
# 6 -0.000003 0.000009 -0.000006 0.100830 0.000019 0.010163
#
#
# Mechanical properties :
#
#
# Convention : Reuss Voigt Hill
#
# Bulk Modulus (GPa) = 22.27424 33.17086 27.72255
# Shear Modulus (GPa) = -326.06080 20.51407 -152.77337
#
# Velocity S-wave (km/s) = -12.56167 3.15082 -8.59848
# Velocity P-wave (km/s) = 14.12850 5.41200 9.22834
#
# Compressibility (1/GPa) = 0.04489491
#
# Stress axis : x y z
#
# Youngs Moduli (GPa) = 38.36100 35.93100 124.89778
#
# Poissons Ratio (x) = 0.10462 0.22738
# Poissons Ratio (y) = 0.11169 0.47128
# Poissons Ratio (z) = 0.06984 0.13558
#
# Static dielectric constant tensor:
#      x y z
#    x 1.756950 0.000000 -0.044200 
#    y 0.000000 1.778780 0.000000 
#    z -0.044200 0.000000 1.840790 
# 
# From -- ./inp_files/95952.got.cif
#   From: 2010.05.17/outbox.cif.g08.bks.cpg/sg12_48_cif.got.tgz:95952.got - 2010.06.03 13:09:07.
