data_PCOD9178459
_publ_section_title
;
Structure prediction by ZEFSAII (Michael W. Deem and Ramdas Pophale) SiO2 
 PCOD9178459
Probable space group: C 2/M
;
_chemical_formula_sum "Si O2"
_cell_formula_units_Z 64
_cell_length_a 25.016335
_cell_length_b 8.704927
_cell_length_c 24.415969
_cell_angle_alpha 90.000000
_cell_angle_beta 133.957890
_cell_angle_gamma 90.000000
_cell_volume 3827.409076
_symmetry_space_group_name_H-M "C 2/M"
_symmetry_group_IT_number 12
_symmetry_cell_setting 'monoclinic'
loop_
_space_group_symop_operation_xyz
x,y,z
-x,y,-z
-x,-y,-z
x,-y,z
1/2+x,1/2+y,z
1/2-x,1/2+y,-z
1/2-x,1/2-y,-z
1/2+x,1/2-y,z
loop_
_atom_site_type_symbol
_atom_site_label
_atom_site_fract_x
_atom_site_fract_y
_atom_site_fract_z
Si Si1 0.898368 0.682935 0.070633
Si Si2 0.161331 0.181293 0.664401
Si Si3 0.769797 0.183908 0.907129
Si Si4 0.680098 0.816033 0.173705
Si Si5 0.606568 0.683290 0.813670
Si Si6 0.929475 0.321930 0.491318
Si Si7 0.460612 0.815639 0.340395
Si Si8 0.022269 0.817096 0.079093
O O1 0.889542 0.500000 0.064662
O O2 0.912926 0.744557 0.141746
O O3 0.964689 0.732712 0.077630
O O4 0.823587 0.759801 0.993751
O O5 0.246825 0.215632 0.738128
O O6 0.134058 0.228145 0.584587
O O7 0.109153 0.268933 0.670845
O O8 0.149414 0.000000 0.664254
O O9 0.607877 0.500000 0.817734
O O10 0.804739 0.243170 0.875099
O O11 0.688473 0.255499 0.856106
O O12 0.605563 0.744422 0.145067
O O13 0.672105 0.000000 0.162205
O O14 0.734795 0.500000 0.096447
O O15 0.551805 0.738543 0.726762
O O16 0.906991 0.500000 0.480255
O O17 0.000000 0.317402 0.500000
O O18 0.964957 0.267932 0.573736
O O19 0.461395 0.000000 0.336148
O O20 0.018164 0.000000 0.085524
O O21 0.000000 0.788240 0.000000
#
# Coordination Sequence:
#
# PCOD9178459 Si02
#       8
#     8   8   8   8   8   8   8   8
#     4  12  25  41  59  78 105 141 181 226 271 318
#     4  10  19  30  48  76 109 140 178 220 263 317
#     4  12  23  37  56  79 108 143 181 222 267 319
#     4  11  22  35  54  81 109 143 182 222 270 318
#     4  12  24  38  55  79 110 143 182 223 266 322
#     4   8  16  29  46  70 103 141 177 213 259 317
#     4  10  19  32  50  74 106 143 180 216 263 319
#     4  11  23  39  59  81 105 137 181 227 272 318
#
# _framework density 16.721495000000001
#
# number of rings (size 3 to 8) (size 9 to 14) (size 15 to 20)
#    0.000    1.250    2.500    6.000    0.000    4.750 
#    0.000    0.000    0.000    0.000    0.000    0.875 
#    0.000    0.000    0.000    0.000    0.000    0.000 
#
# Total GULP energy -178782.853875 kJ/mol
# GULP energy per Si atom -5586.964184 kJ/mol
# Density = 1.668344 g / cm^3
# Si number density = 16.721495 Si / 1000 Ang^3
#
#
#
# Elastic Constant Matrix: (Units=GPa)
#
#
# Indices 1 2 3 4 5 6 
#
# 1 32.8081 9.9404 14.7529 0.0000 -8.1690 0.0000
# 2 9.9404 73.0173 29.3601 0.0000 1.3239 0.0000
# 3 14.7529 29.3601 110.4868 0.0000 -6.3677 0.0000
# 4 0.0000 0.0000 0.0000 29.8441 0.0000 -0.5775
# 5 -8.1690 1.3239 -6.3677 0.0000 19.0838 0.0000
# 6 0.0000 0.0000 0.0000 -0.5775 0.0000 23.6764
#
#
#
# Elastic Compliance Matrix: (Units=1/GPa)
#
#
# Indices 1 2 3 4 5 6 
#
# 1 0.036798 -0.004093 -0.002959 0.000000 0.015048 0.000000
# 2 -0.004093 0.015904 -0.003920 0.000000 -0.004163 0.000000
# 3 -0.002959 -0.003920 0.010635 0.000000 0.002554 0.000000
# 4 0.000000 0.000000 0.000000 0.033523 0.000000 0.000818
# 5 0.015048 -0.004163 0.002554 0.000000 0.059983 0.000000
# 6 0.000000 0.000000 0.000000 0.000818 0.000000 0.042256
#
#
# Mechanical properties :
#
#
# Convention : Reuss Voigt Hill
#
# Bulk Modulus (GPa) = 24.15786 36.04654 30.10220
# Shear Modulus (GPa) = 21.29117 25.33811 23.31464
#
# Velocity S-wave (km/s) = 3.57218 3.89691 3.73807
# Velocity P-wave (km/s) = 5.61182 6.46929 6.05575
#
# Compressibility (1/GPa) = 0.04139439
#
# Stress axis : x y z
#
# Youngs Moduli (GPa) = 27.17566 62.87667 94.03185
#
# Poissons Ratio (x) = 0.25734 0.27820
# Poissons Ratio (y) = 0.11122 0.36858
# Poissons Ratio (z) = 0.08040 0.24646
#
# Static dielectric constant tensor:
#      x y z
#    x 1.532940 0.000000 -0.003690 
#    y 0.000000 1.558100 0.000000 
#    z -0.003690 0.000000 1.586650 
# 
# From -- ./inp_files/324291.got.cif
#   From: 2010.05.17/outbox.cif.g08.bks.cpg/sg12_163_cif.got.tgz:324291.got - 2010.06.03 13:09:07.
