data_PCOD9178619
_publ_section_title
;
Structure prediction by ZEFSAII (Michael W. Deem and Ramdas Pophale) SiO2 
 PCOD9178619
Probable space group: C 2/M
;
_chemical_formula_sum "Si O2"
_cell_formula_units_Z 64
_cell_length_a 22.686278
_cell_length_b 8.981822
_cell_length_c 23.724794
_cell_angle_alpha 90.000000
_cell_angle_beta 45.846954
_cell_angle_gamma 90.000000
_cell_volume 3468.494174
_symmetry_space_group_name_H-M "C 2/M"
_symmetry_group_IT_number 12
_symmetry_cell_setting 'monoclinic'
loop_
_space_group_symop_operation_xyz
x,y,z
-x,y,-z
-x,-y,-z
x,-y,z
1/2+x,1/2+y,z
1/2-x,1/2+y,-z
1/2-x,1/2-y,-z
1/2+x,1/2-y,z
loop_
_atom_site_type_symbol
_atom_site_label
_atom_site_fract_x
_atom_site_fract_y
_atom_site_fract_z
Si Si1 0.919045 0.832897 0.704061
Si Si2 0.196474 0.678510 0.586294
Si Si3 0.264751 0.321402 0.666352
Si Si4 0.277178 0.323506 0.069523
Si Si5 0.222512 0.329632 0.815902
Si Si6 0.070454 0.665693 0.407967
Si Si7 0.876776 0.176948 0.892063
Si Si8 0.988217 0.324959 0.263435
O O1 0.821839 0.828363 0.757316
O O2 0.957641 0.784066 0.619625
O O3 0.949206 0.713058 0.728202
O O4 0.941264 0.000000 0.707014
O O5 0.197254 0.500000 0.576559
O O6 0.250000 0.750000 0.500000
O O7 0.230643 0.706682 0.626711
O O8 0.101035 0.727657 0.655353
O O9 0.280837 0.500000 0.660388
O O10 0.209638 0.284976 0.758887
O O11 0.346935 0.226979 0.619324
O O12 0.261353 0.500000 0.081315
O O13 0.304749 0.268093 0.112796
O O14 0.194510 0.242884 0.101529
O O15 0.345277 0.292380 0.976237
O O16 0.194247 0.500000 0.841928
O O17 0.085311 0.500000 0.373331
O O18 0.000000 0.654212 0.500000
O O19 0.965844 0.244684 0.818883
O O20 0.878580 0.000000 0.882055
O O21 0.981922 0.500000 0.256074
#
# Coordination Sequence:
#
# PCOD9178619 Si02
#       8
#     8   8   8   8   8   8   8   8
#     4  10  20  33  51  77 107 143 181 217 269 332
#     4  10  24  43  61  82 107 142 189 237 283 329
#     4   9  20  39  57  76 104 141 184 226 272 332
#     4  10  19  30  50  81 116 149 181 223 272 326
#     4   9  17  31  53  78 108 142 178 219 266 326
#     4  10  21  34  51  77 108 136 170 224 278 329
#     4  10  20  33  50  78 115 151 186 220 268 336
#     4  11  22  36  56  80 110 144 184 235 280 325
#
# _framework density 18.451810999999999
#
# number of rings (size 3 to 8) (size 9 to 14) (size 15 to 20)
#    0.000    2.125    1.250    2.625    1.750    6.000 
#    0.000    0.000    0.000    0.750    0.000    5.250 
#    0.000    0.000    0.000    0.000    0.000    0.000 
#
# Total GULP energy -178249.930576 kJ/mol
# GULP energy per Si atom -5570.310331 kJ/mol
# Density = 1.840981 g / cm^3
# Si number density = 18.451811 Si / 1000 Ang^3
#
#
#
# Elastic Constant Matrix: (Units=GPa)
#
#
# Indices 1 2 3 4 5 6 
#
# 1 43.3098 16.7858 42.2505 0.0000 16.6759 -0.0002
# 2 16.7858 41.1183 49.2314 0.0000 2.9493 -0.0009
# 3 42.2505 49.2314 146.4377 0.0000 14.3733 -0.0001
# 4 0.0000 0.0000 0.0000 26.3422 0.0000 2.5145
# 5 16.6759 2.9493 14.3733 0.0000 29.7716 0.0001
# 6 -0.0002 -0.0009 -0.0001 2.5145 0.0001 17.0646
#
#
#
# Elastic Compliance Matrix: (Units=1/GPa)
#
#
# Indices 1 2 3 4 5 6 
#
# 1 0.039828 -0.005562 -0.007858 0.000000 -0.017964 0.000000
# 2 -0.005562 0.041690 -0.012924 0.000000 0.005225 0.000002
# 3 -0.007858 -0.012924 0.013524 0.000000 -0.000847 -0.000001
# 4 0.000000 0.000000 0.000000 0.038503 0.000000 -0.005674
# 5 -0.017964 0.005225 -0.000847 0.000000 0.043543 0.000000
# 6 0.000000 0.000002 -0.000001 -0.005674 0.000000 0.059437
#
#
# Mechanical properties :
#
#
# Convention : Reuss Voigt Hill
#
# Bulk Modulus (GPa) = 23.61054 49.71126 36.66090
# Shear Modulus (GPa) = 16.48368 22.80891 19.64629
#
# Velocity S-wave (km/s) = 2.99212 3.51968 3.26657
# Velocity P-wave (km/s) = 4.97600 6.59676 5.84285
#
# Compressibility (1/GPa) = 0.04235396
#
# Stress axis : x y z
#
# Youngs Moduli (GPa) = 25.10810 23.98673 73.94149
#
# Poissons Ratio (x) = 0.13341 0.58104
# Poissons Ratio (y) = 0.13965 0.95561
# Poissons Ratio (z) = 0.19730 0.31000
#
# Static dielectric constant tensor:
#      x y z
#    x 1.634030 0.000000 0.030480 
#    y 0.000000 1.650130 0.000000 
#    z 0.030480 0.000000 1.680920 
# 
# From -- ./inp_files/345932.got.cif
#   From: 2010.05.17/outbox.cif.g08.bks.cpg/sg12_173_cif.got.tgz:345932.got - 2010.06.03 13:09:07.
