data_PCOD9178990
_publ_section_title
;
Structure prediction by ZEFSAII (Michael W. Deem and Ramdas Pophale) SiO2 
 PCOD9178990
Probable space group: C 2/M
;
_chemical_formula_sum "Si O2"
_cell_formula_units_Z 56
_cell_length_a 24.151470
_cell_length_b 7.870097
_cell_length_c 15.532820
_cell_angle_alpha 90.000000
_cell_angle_beta 90.975327
_cell_angle_gamma 90.000000
_cell_volume 2951.963873
_symmetry_space_group_name_H-M "C 2/M"
_symmetry_group_IT_number 12
_symmetry_cell_setting 'monoclinic'
loop_
_space_group_symop_operation_xyz
x,y,z
-x,y,-z
-x,-y,-z
x,-y,z
1/2+x,1/2+y,z
1/2-x,1/2+y,-z
1/2-x,1/2-y,-z
1/2+x,1/2-y,z
loop_
_atom_site_type_symbol
_atom_site_label
_atom_site_fract_x
_atom_site_fract_y
_atom_site_fract_z
Si Si1 0.420183 0.294937 0.839190
Si Si2 0.775083 0.199141 0.126247
Si Si3 0.264801 0.204504 0.403683
Si Si4 0.143579 0.293546 0.715247
Si Si5 0.815098 0.799930 0.748764
Si Si6 0.452637 0.797251 0.176493
Si Si7 0.872101 0.202892 0.018082
O O1 0.416265 0.500000 0.841638
O O2 0.376292 0.230722 0.767328
O O3 0.483796 0.254038 0.825014
O O4 0.397868 0.229661 0.930637
O O5 0.817942 0.224020 0.206886
O O6 0.719804 0.281898 0.163110
O O7 0.811712 0.269826 0.047633
O O8 0.764368 0.000000 0.113267
O O9 0.250000 0.250000 0.500000
O O10 0.325533 0.259939 0.371195
O O11 0.220379 0.271403 0.331845
O O12 0.264209 0.000000 0.398497
O O13 0.145920 0.500000 0.719339
O O14 0.081599 0.241602 0.739258
O O15 0.820099 0.000000 0.731945
O O16 0.417500 0.731957 0.093949
O O17 0.450438 0.000000 0.172301
O O18 0.864816 0.000000 0.009794
#
# Coordination Sequence:
#
# PCOD9178990 Si02
#       7
#     8   8   8   8   8   8   8
#     4  10  20  33  47  63  91 131 164 191 228 272
#     4   9  16  27  45  68  92 118 154 197 230 264
#     4   9  17  31  52  75  94 113 142 182 229 281
#     4   8  16  31  48  67  94 124 149 180 228 278
#     4   9  19  34  48  65  94 128 154 181 231 288
#     4  10  19  31  48  69  93 123 161 199 229 261
#     4   9  18  31  46  66  92 124 162 199 233 267
#
# _framework density 18.970423
#
# number of rings (size 3 to 8) (size 9 to 14) (size 15 to 20)
#    0.000    2.857    0.000    2.143    0.000    6.857 
#    0.000    0.000    0.000    0.857    0.000    6.000 
#    0.000    0.000    0.000    0.000    0.000    0.000 
#
# Total GULP energy -155980.753973 kJ/mol
# GULP energy per Si atom -5570.741213 kJ/mol
# Density = 1.892725 g / cm^3
# Si number density = 18.970423 Si / 1000 Ang^3
#
#
#
# Elastic Constant Matrix: (Units=GPa)
#
#
# Indices 1 2 3 4 5 6 
#
# 1 119.4882 -5.2596 59.0210 0.0000 -18.6773 0.0000
# 2 -5.2596 11.3473 4.4850 0.0000 -3.2646 0.0000
# 3 59.0210 4.4850 119.8223 0.0000 -24.3560 0.0000
# 4 0.0000 0.0000 0.0000 17.9426 0.0000 -8.4204
# 5 -18.6773 -3.2646 -24.3560 0.0000 15.2590 0.0000
# 6 0.0000 0.0000 0.0000 -8.4204 0.0000 14.6358
#
#
#
# Elastic Compliance Matrix: (Units=1/GPa)
#
#
# Indices 1 2 3 4 5 6 
#
# 1 0.012741 0.010767 -0.004501 0.000000 0.010715 0.000000
# 2 0.010767 0.103064 -0.002961 0.000000 0.030504 0.000000
# 3 -0.004501 -0.002961 0.013952 0.000000 0.016126 0.000000
# 4 0.000000 0.000000 0.000000 0.076347 0.000000 0.043925
# 5 0.010715 0.030504 0.016126 0.000000 0.110917 0.000000
# 6 0.000000 0.000000 0.000000 0.043925 0.000000 0.093597
#
#
# Mechanical properties :
#
#
# Convention : Reuss Voigt Hill
#
# Bulk Modulus (GPa) = 7.33314 40.79451 24.06382
# Shear Modulus (GPa) = 11.12442 22.39492 16.75967
#
# Velocity S-wave (km/s) = 2.42421 3.43959 2.97554
# Velocity P-wave (km/s) = 3.42195 6.10945 4.95152
#
# Compressibility (1/GPa) = 0.13636719
#
# Stress axis : x y z
#
# Youngs Moduli (GPa) = 78.48656 9.70271 71.67678
#
# Poissons Ratio (x) = -0.10447 0.32261
# Poissons Ratio (y) = -0.84509 0.21223
# Poissons Ratio (z) = 0.35326 0.02873
#
# Static dielectric constant tensor:
#      x y z
#    x 1.702080 0.000000 -0.016610 
#    y 0.000000 1.691040 0.000000 
#    z -0.016610 0.000000 1.685430 
# 
# From -- ./inp_files/280251.got.cif
#   From: 2010.05.17/outbox.cif.g08.bks.cpg/sg12_141_cif.got.tgz:280251.got - 2010.06.03 13:09:07.
