data_PCOD9178168
_publ_section_title
;
Structure prediction by ZEFSAII (Michael W. Deem and Ramdas Pophale) SiO2 
 PCOD9178168
Probable space group: C 2/M
;
_chemical_formula_sum "Si O2"
_cell_formula_units_Z 56
_cell_length_a 13.129553
_cell_length_b 12.023354
_cell_length_c 18.822136
_cell_angle_alpha 90.000000
_cell_angle_beta 125.964503
_cell_angle_gamma 90.000000
_cell_volume 2404.902559
_symmetry_space_group_name_H-M "C 2/M"
_symmetry_group_IT_number 12
_symmetry_cell_setting 'monoclinic'
loop_
_space_group_symop_operation_xyz
x,y,z
-x,y,-z
-x,-y,-z
x,-y,z
1/2+x,1/2+y,z
1/2-x,1/2+y,-z
1/2-x,1/2-y,-z
1/2+x,1/2-y,z
loop_
_atom_site_type_symbol
_atom_site_label
_atom_site_fract_x
_atom_site_fract_y
_atom_site_fract_z
Si Si1 0.214583 0.374153 0.550698
Si Si2 0.771983 0.783245 0.222677
Si Si3 0.986220 0.622354 0.351471
Si Si4 0.555358 0.378750 0.091808
Si Si5 0.563154 0.119631 0.226227
Si Si6 0.648001 0.369157 0.541027
Si Si7 0.850134 0.796229 0.098223
O O1 0.229568 0.500000 0.590111
O O2 0.919997 0.375636 0.544439
O O3 0.318868 0.367475 0.530414
O O4 0.207865 0.254127 0.587722
O O5 0.894980 0.726655 0.305761
O O6 0.672886 0.683689 0.171398
O O7 0.696738 0.863718 0.243562
O O8 0.796039 0.828802 0.153010
O O9 0.921762 0.500000 0.324968
O O10 0.068689 0.624500 0.313427
O O11 0.599371 0.500000 0.086857
O O12 0.438758 0.385252 0.097045
O O13 0.500000 0.317285 0.000000
O O14 0.454796 0.202897 0.158029
O O15 0.513799 0.000000 0.185051
O O16 0.500000 0.362021 0.500000
O O17 0.683070 0.500000 0.576139
O O18 0.750000 0.750000 0.000000
#
# Coordination Sequence:
#
# PCOD9178168 Si02
#       7
#     8   8   8   8   8   8   8
#     4   9  18  33  54  79 109 142 182 222 256 307
#     4  10  19  33  51  67  96 125 160 207 252 304
#     4   9  18  34  53  73  97 133 172 207 252 304
#     4  10  19  30  47  68  87 115 155 197 243 295
#     4   9  20  34  50  71  96 128 166 207 256 313
#     4   9  18  33  54  82 114 146 177 215 262 310
#     4  10  19  32  47  67  95 121 156 202 252 304
#
# _framework density 23.285767
#
# number of rings (size 3 to 8) (size 9 to 14) (size 15 to 20)
#    0.000    2.571    1.429    0.429    0.000    3.143 
#    0.000    2.857    0.000    4.286    0.000    0.000 
#    0.000    0.000    0.000    0.000    0.000    0.000 
#
# Total GULP energy -156064.676785 kJ/mol
# GULP energy per Si atom -5573.738457 kJ/mol
# Density = 2.323277 g / cm^3
# Si number density = 23.285767 Si / 1000 Ang^3
#
#
#
# Elastic Constant Matrix: (Units=GPa)
#
#
# Indices 1 2 3 4 5 6 
#
# 1 127.1961 14.0142 30.0283 0.0000 -28.8855 0.0000
# 2 14.0142 139.0873 17.4683 0.0000 -3.0696 0.0000
# 3 30.0283 17.4683 58.7714 0.0000 -13.2396 0.0000
# 4 0.0000 0.0000 0.0000 -17.1063 0.0000 -30.0447
# 5 -28.8855 -3.0696 -13.2396 0.0000 42.6306 0.0000
# 6 0.0000 0.0000 0.0000 -30.0447 0.0000 -10.3169
#
#
#
# Elastic Compliance Matrix: (Units=1/GPa)
#
#
# Indices 1 2 3 4 5 6 
#
# 1 0.010073 -0.000419 -0.003754 0.000000 0.005629 0.000000
# 2 -0.000419 0.007487 -0.002101 0.000000 -0.000397 0.000000
# 3 -0.003754 -0.002101 0.020376 0.000000 0.003633 0.000000
# 4 0.000000 0.000000 0.000000 0.014207 0.000000 -0.041372
# 5 0.005629 -0.000397 0.003633 0.000000 0.028371 0.000000
# 6 0.000000 0.000000 0.000000 -0.041372 0.000000 0.023556
#
#
# Mechanical properties :
#
#
# Convention : Reuss Voigt Hill
#
# Bulk Modulus (GPa) = 39.38841 49.78627 44.58734
# Shear Modulus (GPa) = 39.97477 20.61109 30.29293
#
# Velocity S-wave (km/s) = 4.14781 2.97835 3.61074
# Velocity P-wave (km/s) = 6.31593 5.76666 6.04754
#
# Compressibility (1/GPa) = 0.02538818
#
# Stress axis : x y z
#
# Youngs Moduli (GPa) = 99.27972 133.56440 49.07776
#
# Poissons Ratio (x) = 0.05599 0.18423
# Poissons Ratio (y) = 0.04162 0.10309
# Poissons Ratio (z) = 0.37267 0.28057
#
# Static dielectric constant tensor:
#      x y z
#    x 1.906620 0.000000 -0.035640 
#    y 0.000000 1.957890 0.000000 
#    z -0.035640 0.000000 1.909030 
# 
# From -- ./inp_files/304306.got.cif
#   From: 2010.05.17/outbox.cif.g08.bks.cpg/sg12_153_cif.got.tgz:304306.got - 2010.06.03 13:09:07.
