data_PCOD9178966
_publ_section_title
;
Structure prediction by ZEFSAII (Michael W. Deem and Ramdas Pophale) SiO2 
 PCOD9178966
Probable space group: C 2/M
;
_chemical_formula_sum "Si O2"
_cell_formula_units_Z 56
_cell_length_a 15.747540
_cell_length_b 7.620168
_cell_length_c 26.869306
_cell_angle_alpha 90.000000
_cell_angle_beta 38.893827
_cell_angle_gamma 90.000000
_cell_volume 2024.462873
_symmetry_space_group_name_H-M "C 2/M"
_symmetry_group_IT_number 12
_symmetry_cell_setting 'monoclinic'
loop_
_space_group_symop_operation_xyz
x,y,z
-x,y,-z
-x,-y,-z
x,-y,z
1/2+x,1/2+y,z
1/2-x,1/2+y,-z
1/2-x,1/2-y,-z
1/2+x,1/2-y,z
loop_
_atom_site_type_symbol
_atom_site_label
_atom_site_fract_x
_atom_site_fract_y
_atom_site_fract_z
Si Si1 0.597993 0.293735 0.050730
Si Si2 0.730783 0.214404 0.236156
Si Si3 0.930016 0.285992 0.337290
Si Si4 0.146146 0.702580 0.377930
Si Si5 0.650233 0.699469 0.489015
Si Si6 0.177912 0.786127 0.910067
Si Si7 0.485220 0.791359 0.805368
O O1 0.589119 0.500000 0.047920
O O2 0.505000 0.258548 0.141239
O O3 0.750000 0.250000 0.000000
O O4 0.590159 0.222003 0.997611
O O5 0.577410 0.260571 0.289736
O O6 0.733302 0.276502 0.292163
O O7 0.821211 0.274304 0.147913
O O8 0.739537 0.000000 0.234099
O O9 0.923182 0.500000 0.340681
O O10 0.801318 0.225346 0.427835
O O11 0.927400 0.222985 0.280885
O O12 0.179292 0.500000 0.371732
O O13 0.150696 0.801767 0.427811
O O14 0.986990 0.703211 0.434414
O O15 0.638112 0.500000 0.510913
O O16 0.330958 0.748524 0.858960
O O17 0.163654 0.000000 0.913743
O O18 0.494509 0.000000 0.800048
#
# Coordination Sequence:
#
# PCOD9178966 Si02
#       7
#     8   8   8   8   8   8   8
#     4   9  14  20  33  54  81 112 142 170 204 247
#     4   8  14  26  44  65  87 112 144 179 214 253
#     4   8  15  28  46  66  86 114 148 177 212 259
#     4  10  19  31  48  67  87 111 142 181 218 253
#     4  10  19  32  49  65  86 115 145 176 211 261
#     4   7  11  20  35  55  79 107 137 168 202 244
#     4   8  13  23  38  56  80 107 138 174 209 248
#
# _framework density 27.661657999999999
#
# number of rings (size 3 to 8) (size 9 to 14) (size 15 to 20)
#    0.000    3.429    0.000    4.714    0.000    0.571 
#    0.000    1.429    0.000   19.714    0.000    1.000 
#    0.000    8.000    0.000    0.000    0.000    0.000 
#
# Total GULP energy -156517.912817 kJ/mol
# GULP energy per Si atom -5589.925458 kJ/mol
# Density = 2.759870 g / cm^3
# Si number density = 27.661658 Si / 1000 Ang^3
#
#
#
# Elastic Constant Matrix: (Units=GPa)
#
#
# Indices 1 2 3 4 5 6 
#
# 1 113.2877 8.0674 30.8740 -0.0002 38.7349 -0.0003
# 2 8.0674 72.9529 22.4923 -0.0007 5.9244 -0.0014
# 3 30.8740 22.4923 243.2628 0.0001 29.1627 0.0000
# 4 -0.0002 -0.0007 0.0001 25.4223 0.0000 7.2141
# 5 38.7349 5.9244 29.1627 0.0000 71.0995 -0.0001
# 6 -0.0003 -0.0014 0.0000 7.2141 -0.0001 9.5426
#
#
#
# Elastic Compliance Matrix: (Units=1/GPa)
#
#
# Indices 1 2 3 4 5 6 
#
# 1 0.010985 -0.000550 -0.000664 0.000000 -0.005666 0.000000
# 2 -0.000550 0.014168 -0.001193 0.000000 -0.000392 0.000002
# 3 -0.000664 -0.001193 0.004470 0.000000 -0.001372 0.000000
# 4 0.000000 0.000000 0.000000 0.050079 0.000000 -0.037859
# 5 -0.005666 -0.000392 -0.001372 0.000000 0.017747 0.000000
# 6 0.000000 0.000002 0.000000 -0.037859 0.000000 0.133414
#
#
# Mechanical properties :
#
#
# Convention : Reuss Voigt Hill
#
# Bulk Modulus (GPa) = 40.30928 61.37454 50.84191
# Shear Modulus (GPa) = 20.49632 45.75087 33.12360
#
# Velocity S-wave (km/s) = 2.72502 4.07128 3.46418
# Velocity P-wave (km/s) = 4.95024 6.65855 5.86690
#
# Compressibility (1/GPa) = 0.02480818
#
# Stress axis : x y z
#
# Youngs Moduli (GPa) = 91.03681 70.58174 223.71924
#
# Poissons Ratio (x) = 0.03881 0.14855
# Poissons Ratio (y) = 0.05006 0.26696
# Poissons Ratio (z) = 0.06045 0.08422
#
# Static dielectric constant tensor:
#      x y z
#    x 2.347590 0.000000 -0.039500 
#    y 0.000000 1.984400 0.000000 
#    z -0.039500 0.000000 2.197780 
# 
# From -- ./inp_files/377636.got.cif
#   From: 2010.05.17/outbox.cif.g08.bks.cpg/sg12_189_cif.got.tgz:377636.got - 2010.06.03 13:09:07.
