data_PCOD9178715
_publ_section_title
;
Structure prediction by ZEFSAII (Michael W. Deem and Ramdas Pophale) SiO2 
 PCOD9178715
Probable space group: C 2/M
;
_chemical_formula_sum "Si O2"
_cell_formula_units_Z 56
_cell_length_a 20.870881
_cell_length_b 9.027225
_cell_length_c 30.679401
_cell_angle_alpha 90.000000
_cell_angle_beta 33.643437
_cell_angle_gamma 90.000000
_cell_volume 3202.355903
_symmetry_space_group_name_H-M "C 2/M"
_symmetry_group_IT_number 12
_symmetry_cell_setting 'monoclinic'
loop_
_space_group_symop_operation_xyz
x,y,z
-x,y,-z
-x,-y,-z
x,-y,z
1/2+x,1/2+y,z
1/2-x,1/2+y,-z
1/2-x,1/2-y,-z
1/2+x,1/2-y,z
loop_
_atom_site_type_symbol
_atom_site_label
_atom_site_fract_x
_atom_site_fract_y
_atom_site_fract_z
Si Si1 0.835275 0.822477 0.228645
Si Si2 0.804861 0.177566 0.904910
Si Si3 0.415861 0.822601 0.666648
Si Si4 0.070071 0.823082 0.504747
Si Si5 0.809796 0.177419 0.344883
Si Si6 0.071696 0.323500 0.082371
Si Si7 0.547751 0.322752 0.260885
O O1 0.714584 0.783112 0.274289
O O2 0.827795 0.780860 0.284046
O O3 0.946929 0.745932 0.144782
O O4 0.849804 0.000000 0.218457
O O5 0.879443 0.257335 0.899999
O O6 0.852749 0.217054 0.830393
O O7 0.821462 0.000000 0.900874
O O8 0.670888 0.211438 0.990592
O O9 0.503871 0.750746 0.582458
O O10 0.439600 0.762587 0.701318
O O11 0.426597 0.000000 0.658904
O O12 0.198708 0.760023 0.426585
O O13 0.000000 0.787858 0.500000
O O14 0.072269 0.000000 0.508698
O O15 0.925549 0.208510 0.306535
O O16 0.789529 0.000000 0.357516
O O17 0.062719 0.500000 0.090942
O O18 0.553434 0.500000 0.265461
#
# Coordination Sequence:
#
# PCOD9178715 Si02
#       7
#     8   8   8   8   8   8   8
#     4  10  20  37  58  82 113 150 190 231 281 337
#     4   9  18  35  55  81 117 154 187 228 284 336
#     4  11  24  40  60  83 113 152 189 230 283 342
#     4  11  23  38  59  88 117 144 183 238 285 328
#     4  10  20  37  62  84 109 151 192 230 279 335
#     4  10  19  30  55  89 115 144 190 240 279 325
#     4  10  21  39  60  82 114 152 188 231 282 334
#
# _framework density 17.487124999999999
#
# number of rings (size 3 to 8) (size 9 to 14) (size 15 to 20)
#    0.000    1.857    2.857    1.286    0.000    4.571 
#    0.000    0.714    0.000    4.286    0.000    0.000 
#    0.000    0.000    0.000    0.000    0.000    0.000 
#
# Total GULP energy -156353.781295 kJ/mol
# GULP energy per Si atom -5584.063618 kJ/mol
# Density = 1.744732 g / cm^3
# Si number density = 17.487125 Si / 1000 Ang^3
#
#
#
# Elastic Constant Matrix: (Units=GPa)
#
#
# Indices 1 2 3 4 5 6 
#
# 1 110.3126 48.4586 71.3910 0.0000 7.0065 0.0003
# 2 48.4586 38.7068 61.4854 -0.0020 0.5364 0.0010
# 3 71.3910 61.4854 163.3752 0.0000 -0.7657 0.0000
# 4 0.0000 -0.0020 0.0000 33.5957 0.0000 -2.8665
# 5 7.0065 0.5364 -0.7657 0.0000 27.4284 0.0000
# 6 0.0003 0.0010 0.0000 -2.8665 0.0000 27.3732
#
#
#
# Elastic Compliance Matrix: (Units=1/GPa)
#
#
# Indices 1 2 3 4 5 6 
#
# 1 0.020935 -0.028784 0.001663 -0.000002 -0.004738 0.000001
# 2 -0.028784 0.103918 -0.026509 0.000006 0.004581 -0.000003
# 3 0.001663 -0.026509 0.015373 -0.000002 0.000523 0.000001
# 4 -0.000002 0.000006 -0.000002 0.030034 0.000000 0.003145
# 5 -0.004738 0.004581 0.000523 0.000000 0.037594 0.000000
# 6 0.000001 -0.000003 0.000001 0.003145 0.000000 0.036861
#
#
# Mechanical properties :
#
#
# Convention : Reuss Voigt Hill
#
# Bulk Modulus (GPa) = 30.33630 75.00718 52.67174
# Shear Modulus (GPa) = 13.77542 26.41677 20.09610
#
# Velocity S-wave (km/s) = 2.80973 3.89091 3.39365
# Velocity P-wave (km/s) = 5.28314 7.94805 6.74845
#
# Compressibility (1/GPa) = 0.03296381
#
# Stress axis : x y z
#
# Youngs Moduli (GPa) = 47.76796 9.62299 65.04735
#
# Poissons Ratio (x) = 0.27699 -0.10816
# Poissons Ratio (y) = 1.37497 1.72437
# Poissons Ratio (z) = -0.07943 0.25510
#
# Static dielectric constant tensor:
#      x y z
#    x 1.566090 0.000000 -0.007370 
#    y 0.000000 1.582810 0.000000 
#    z -0.007370 0.000000 1.587330 
# 
# From -- ./inp_files/362912.got.cif
#   From: 2010.05.17/outbox.cif.g08.bks.cpg/sg12_182_cif.got.tgz:362912.got - 2010.06.03 13:09:07.
