data_PCOD9178397
_publ_section_title
;
Structure prediction by ZEFSAII (Michael W. Deem and Ramdas Pophale) SiO2 
 PCOD9178397
Probable space group: C 2/M
;
_chemical_formula_sum "Si O2"
_cell_formula_units_Z 48
_cell_length_a 16.054623
_cell_length_b 7.551799
_cell_length_c 14.834379
_cell_angle_alpha 90.000000
_cell_angle_beta 103.163725
_cell_angle_gamma 90.000000
_cell_volume 1751.279477
_symmetry_space_group_name_H-M "C 2/M"
_symmetry_group_IT_number 12
_symmetry_cell_setting 'monoclinic'
loop_
_space_group_symop_operation_xyz
x,y,z
-x,y,-z
-x,-y,-z
x,-y,z
1/2+x,1/2+y,z
1/2-x,1/2+y,-z
1/2-x,1/2-y,-z
1/2+x,1/2-y,z
loop_
_atom_site_type_symbol
_atom_site_label
_atom_site_fract_x
_atom_site_fract_y
_atom_site_fract_z
Si Si1 0.369893 0.217275 0.473191
Si Si2 0.319401 0.793640 0.648587
Si Si3 0.140239 0.213835 0.029103
Si Si4 0.047207 0.300060 0.682277
Si Si5 0.999370 0.789626 0.137599
Si Si6 0.231998 0.790611 0.798686
O O1 0.376944 0.275627 0.579385
O O2 0.276972 0.280142 0.416374
O O3 0.435549 0.280408 0.412281
O O4 0.369119 0.000000 0.472702
O O5 0.301800 0.716756 0.743610
O O6 0.340135 0.000000 0.666111
O O7 0.230795 0.272772 0.091772
O O8 0.073409 0.277496 0.090471
O O9 0.144082 0.000000 0.028488
O O10 0.091167 0.273971 0.926828
O O11 0.022231 0.500000 0.657044
O O12 0.991394 0.240951 0.754022
O O13 0.142447 0.294758 0.750100
O O14 0.998474 0.000000 0.125520
O O15 0.219316 0.000000 0.780260
#
# Coordination Sequence:
#
# PCOD9178397 Si02
#       6
#     8   8   8   8   8   8
#     4   8  14  25  41  63  92 123 153 185 223 268
#     4   8  14  25  41  63  92 123 153 185 223 268
#     4   9  19  36  54  69  89 121 158 195 238 285
#     4  10  19  30  48  74 100 125 155 193 234 274
#     4   9  19  36  54  69  89 121 158 195 238 285
#     4  10  19  30  48  74 100 125 155 193 234 274
#
# _framework density 27.408529999999999
#
# number of rings (size 3 to 8) (size 9 to 14) (size 15 to 20)
#    0.000    3.000    0.000    2.000    0.000    3.333 
#    0.000    1.667    0.000    1.000    0.000    7.000 
#    0.000    0.000    0.000    0.000    0.000    0.000 
#
# Total GULP energy -134094.552371 kJ/mol
# GULP energy per Si atom -5587.273015 kJ/mol
# Density = 2.734615 g / cm^3
# Si number density = 27.408530 Si / 1000 Ang^3
#
#
#
# Elastic Constant Matrix: (Units=GPa)
#
#
# Indices 1 2 3 4 5 6 
#
# 1 90.1897 -1.5825 17.6854 0.0000 -4.2929 0.0000
# 2 -1.5825 80.4682 -13.3332 0.0000 0.1871 0.0000
# 3 17.6854 -13.3332 196.5596 0.0000 3.3546 0.0000
# 4 0.0000 0.0000 0.0000 14.3352 0.0000 -9.6489
# 5 -4.2929 0.1871 3.3546 0.0000 64.4207 0.0000
# 6 0.0000 0.0000 0.0000 -9.6489 0.0000 10.8804
#
#
#
# Elastic Compliance Matrix: (Units=1/GPa)
#
#
# Indices 1 2 3 4 5 6 
#
# 1 0.011329 0.000050 -0.001030 0.000000 0.000808 0.000000
# 2 0.000050 0.012569 0.000849 0.000000 -0.000077 0.000000
# 3 -0.001030 0.000849 0.005244 0.000000 -0.000344 0.000000
# 4 0.000000 0.000000 0.000000 0.173058 0.000000 0.153470
# 5 0.000808 -0.000077 -0.000344 0.000000 0.015595 0.000000
# 6 0.000000 0.000000 0.000000 0.153470 0.000000 0.228008
#
#
# Mechanical properties :
#
#
# Convention : Reuss Voigt Hill
#
# Bulk Modulus (GPa) = 34.62385 41.41743 38.02064
# Shear Modulus (GPa) = 10.97238 42.22379 26.59808
#
# Velocity S-wave (km/s) = 2.00299 3.92922 3.11855
# Velocity P-wave (km/s) = 4.24373 5.97737 5.18354
#
# Compressibility (1/GPa) = 0.02888182
#
# Stress axis : x y z
#
# Youngs Moduli (GPa) = 88.26893 79.55969 190.70673
#
# Poissons Ratio (x) = -0.00400 0.19637
# Poissons Ratio (y) = -0.00444 -0.16199
# Poissons Ratio (z) = 0.09089 -0.06758
#
# Static dielectric constant tensor:
#      x y z
#    x 2.277050 0.000000 -0.048050 
#    y 0.000000 2.124960 0.000000 
#    z -0.048050 0.000000 2.170970 
# 
# From -- ./inp_files/229313.got.cif
#   From: 2010.05.17/outbox.cif.g08.bks.cpg/sg12_115_cif.got.tgz:229313.got - 2010.06.03 13:09:07.
