data_PCOD9178821
_publ_section_title
;
Structure prediction by ZEFSAII (Michael W. Deem and Ramdas Pophale) SiO2 
 PCOD9178821
Probable space group: C 2/M
;
_chemical_formula_sum "Si O2"
_cell_formula_units_Z 64
_cell_length_a 25.361493
_cell_length_b 25.209879
_cell_length_c 10.588463
_cell_angle_alpha 90.000000
_cell_angle_beta 31.011665
_cell_angle_gamma 90.000000
_cell_volume 3487.907487
_symmetry_space_group_name_H-M "C 2/M"
_symmetry_group_IT_number 12
_symmetry_cell_setting 'monoclinic'
loop_
_space_group_symop_operation_xyz
x,y,z
-x,y,-z
-x,-y,-z
x,-y,z
1/2+x,1/2+y,z
1/2-x,1/2+y,-z
1/2-x,1/2-y,-z
1/2+x,1/2-y,z
loop_
_atom_site_type_symbol
_atom_site_label
_atom_site_fract_x
_atom_site_fract_y
_atom_site_fract_z
Si Si1 0.290154 0.309412 0.291822
Si Si2 0.520499 0.440433 0.805207
Si Si3 0.797866 0.833128 0.994032
Si Si4 0.064887 0.275575 0.739319
Si Si5 0.143551 0.300924 0.932433
Si Si6 0.618850 0.770052 0.262527
Si Si7 0.100207 0.939885 0.205088
Si Si8 0.346601 0.659966 0.446552
O O1 0.166708 0.310481 0.549064
O O2 0.319168 0.247397 0.233184
O O3 0.342892 0.337259 0.301258
O O4 0.329982 0.327631 0.074415
O O5 0.564451 0.500000 0.694900
O O6 0.432710 0.436646 0.876438
O O7 0.591854 0.390180 0.632873
O O8 0.500000 0.437886 0.000000
O O9 0.861554 0.793200 0.772783
O O10 0.819488 0.894178 0.921749
O O11 0.684084 0.807455 0.220444
O O12 0.102400 0.216822 0.617365
O O13 0.000000 0.267962 0.000000
O O14 0.978293 0.304206 0.832625
O O15 0.227437 0.344835 0.730141
O O16 0.163473 0.284346 0.034116
O O17 0.500000 0.780618 0.500000
O O18 0.000000 0.932450 0.500000
O O19 0.137439 0.000000 0.149946
#
# Coordination Sequence:
#
# PCOD9178821 Si02
#       8
#     8   8   8   8   8   8   8   8
#     4  10  19  31  46  77 105 136 177 208 257 321
#     4  10  22  37  55  81 108 138 180 225 269 311
#     4  10  21  35  54  75 108 144 175 214 267 318
#     4  11  17  29  47  72 110 138 168 211 252 319
#     4  10  20  31  47  74 102 137 178 207 254 319
#     4  10  21  35  50  77 109 141 175 214 263 320
#     4  10  22  39  59  81 107 142 184 224 266 321
#     4  11  20  30  52  77 104 140 171 214 265 309
#
# _framework density 18.34911
#
# number of rings (size 3 to 8) (size 9 to 14) (size 15 to 20)
#    0.000    1.750    2.500    3.000    5.250    1.000 
#    0.000    0.000    0.000    0.375    0.000    4.375 
#    0.000    0.000    0.000    0.000    0.000    0.000 
#
# Total GULP energy -178182.422570 kJ/mol
# GULP energy per Si atom -5568.200705 kJ/mol
# Density = 1.830735 g / cm^3
# Si number density = 18.349110 Si / 1000 Ang^3
#
#
#
# Elastic Constant Matrix: (Units=GPa)
#
#
# Indices 1 2 3 4 5 6 
#
# 1 54.6475 16.2770 12.2710 0.0000 -0.3557 0.0000
# 2 16.2770 115.8654 18.9556 0.0000 -17.3422 0.0000
# 3 12.2710 18.9556 42.2735 0.0000 -6.5726 0.0000
# 4 0.0000 0.0000 0.0000 16.4130 0.0000 -8.4916
# 5 -0.3557 -17.3422 -6.5726 0.0000 32.6599 0.0000
# 6 0.0000 0.0000 0.0000 -8.4916 0.0000 23.9881
#
#
#
# Elastic Compliance Matrix: (Units=1/GPa)
#
#
# Indices 1 2 3 4 5 6 
#
# 1 0.020120 -0.002291 -0.005128 0.000000 -0.002030 0.000000
# 2 -0.002291 0.010180 -0.003162 0.000000 0.004744 0.000000
# 3 -0.005128 -0.003162 0.027142 0.000000 0.003727 0.000000
# 4 0.000000 0.000000 0.000000 0.074588 0.000000 0.026403
# 5 -0.002030 0.004744 0.003727 0.000000 0.033866 0.000000
# 6 0.000000 0.000000 0.000000 0.026403 0.000000 0.051034
#
#
# Mechanical properties :
#
#
# Convention : Reuss Voigt Hill
#
# Bulk Modulus (GPa) = 27.56498 34.19929 30.88214
# Shear Modulus (GPa) = 19.98523 25.63105 22.80814
#
# Velocity S-wave (km/s) = 3.30383 3.74151 3.52946
# Velocity P-wave (km/s) = 5.44140 6.11095 5.78587
#
# Compressibility (1/GPa) = 0.03627791
#
# Stress axis : x y z
#
# Youngs Moduli (GPa) = 49.70198 98.23195 36.84392
#
# Poissons Ratio (x) = 0.22507 0.18895
# Poissons Ratio (y) = 0.11388 0.11650
# Poissons Ratio (z) = 0.25490 0.31061
#
# Static dielectric constant tensor:
#      x y z
#    x 1.748000 0.000000 0.016800 
#    y 0.000000 1.630260 0.000000 
#    z 0.016800 0.000000 1.676670 
# 
# From -- ./inp_files/184958.got.cif
#   From: 2010.05.17/outbox.cif.g08.bks.cpg/sg12_93_cif.got.tgz:184958.got - 2010.06.03 13:09:07.
