data_PCOD9178141
_publ_section_title
;
Structure prediction by ZEFSAII (Michael W. Deem and Ramdas Pophale) SiO2 
 PCOD9178141
Probable space group: C 2/M
;
_chemical_formula_sum "Si O2"
_cell_formula_units_Z 64
_cell_length_a 13.193948
_cell_length_b 19.147794
_cell_length_c 13.525917
_cell_angle_alpha 90.000000
_cell_angle_beta 50.353113
_cell_angle_gamma 90.000000
_cell_volume 2631.152891
_symmetry_space_group_name_H-M "C 2/M"
_symmetry_group_IT_number 12
_symmetry_cell_setting 'monoclinic'
loop_
_space_group_symop_operation_xyz
x,y,z
-x,y,-z
-x,-y,-z
x,-y,z
1/2+x,1/2+y,z
1/2-x,1/2+y,-z
1/2-x,1/2-y,-z
1/2+x,1/2-y,z
loop_
_atom_site_type_symbol
_atom_site_label
_atom_site_fract_x
_atom_site_fract_y
_atom_site_fract_z
Si Si1 0.063728 0.785807 0.624541
Si Si2 0.825225 0.808068 0.886512
Si Si3 0.754270 0.222339 0.662063
Si Si4 0.425467 0.329389 0.135142
Si Si5 0.637899 0.081535 0.078230
Si Si6 0.748341 0.419796 0.553823
Si Si7 0.702782 0.919123 0.257860
Si Si8 0.663593 0.923363 0.721006
O O1 0.117940 0.766183 0.483401
O O2 0.133107 0.731437 0.656153
O O3 0.136618 0.860941 0.602528
O O4 0.906733 0.784570 0.737797
O O5 0.956886 0.833705 0.861494
O O6 0.750000 0.750000 0.000000
O O7 0.724126 0.871843 0.951232
O O8 0.701144 0.281789 0.766532
O O9 0.746734 0.142931 0.701453
O O10 0.359826 0.403417 0.153940
O O11 0.500000 0.293633 0.000000
O O12 0.652148 0.109221 0.183456
O O13 0.484268 0.084708 0.149609
O O14 0.678433 0.000000 0.050351
O O15 0.697938 0.500000 0.598230
O O16 0.823248 0.400821 0.609587
O O17 0.834416 0.422092 0.400785
O O18 0.666375 0.000000 0.275775
O O19 0.714837 0.000000 0.718158
#
# Coordination Sequence:
#
# PCOD9178141 Si02
#       8
#     8   8   8   8   8   8   8   8
#     4   9  17  30  48  68  92 123 168 209 248 287
#     4  11  21  33  49  71  98 130 169 211 250 293
#     4   9  17  31  52  71  88 126 168 208 253 287
#     4  11  20  34  51  72 101 131 169 206 246 299
#     4  10  20  31  45  70 105 140 167 196 242 295
#     4   9  16  28  48  72  99 134 172 204 238 289
#     4  10  19  30  46  72 105 140 171 196 231 293
#     4   9  18  32  49  71 100 131 169 213 252 290
#
# _framework density 24.323937000000001
#
# number of rings (size 3 to 8) (size 9 to 14) (size 15 to 20)
#    0.000    2.250    3.750    1.500    0.000    1.750 
#    0.000    2.500    0.000    1.125    0.000    0.000 
#    0.000    0.000    0.000   10.750    0.000    0.000 
#
# Total GULP energy -178304.586155 kJ/mol
# GULP energy per Si atom -5572.018317 kJ/mol
# Density = 2.426857 g / cm^3
# Si number density = 24.323937 Si / 1000 Ang^3
#
#
#
# Elastic Constant Matrix: (Units=GPa)
#
#
# Indices 1 2 3 4 5 6 
#
# 1 38.6155 -8.4062 2.0140 0.0000 -6.9315 0.0000
# 2 -8.4062 110.3068 38.0633 0.0000 -8.9199 0.0000
# 3 2.0140 38.0633 162.9481 0.0000 -9.6810 0.0000
# 4 0.0000 0.0000 0.0000 30.3615 0.0000 -2.3356
# 5 -6.9315 -8.9199 -9.6810 0.0000 24.9540 0.0000
# 6 0.0000 0.0000 0.0000 -2.3356 0.0000 15.1990
#
#
#
# Elastic Compliance Matrix: (Units=1/GPa)
#
#
# Indices 1 2 3 4 5 6 
#
# 1 0.028145 0.003034 -0.000540 0.000000 0.008693 0.000000
# 2 0.003034 0.010368 -0.002241 0.000000 0.003679 0.000000
# 3 -0.000540 -0.002241 0.006766 0.000000 0.001674 0.000000
# 4 0.000000 0.000000 0.000000 0.033330 0.000000 0.005122
# 5 0.008693 0.003679 0.001674 0.000000 0.044453 0.000000
# 6 0.000000 0.000000 0.000000 0.005122 0.000000 0.066581
#
#
# Mechanical properties :
#
#
# Convention : Reuss Voigt Hill
#
# Bulk Modulus (GPa) = 21.84058 41.69028 31.76543
# Shear Modulus (GPa) = 24.46195 32.78287 28.62241
#
# Velocity S-wave (km/s) = 3.17468 3.67517 3.43405
# Velocity P-wave (km/s) = 4.73673 5.93178 5.36762
#
# Compressibility (1/GPa) = 0.04578632
#
# Stress axis : x y z
#
# Youngs Moduli (GPa) = 35.52971 96.45451 147.78764
#
# Poissons Ratio (x) = -0.29267 0.07983
# Poissons Ratio (y) = -0.10781 0.33114
# Poissons Ratio (z) = 0.01919 0.21612
#
# Static dielectric constant tensor:
#      x y z
#    x 2.075790 0.000000 0.212520 
#    y 0.000000 1.993200 0.000000 
#    z 0.212520 0.000000 2.114540 
# 
# From -- ./inp_files/278909.got.cif
#   From: 2010.05.17/outbox.cif.g08.bks.cpg/sg12_140_cif.got.tgz:278909.got - 2010.06.03 13:09:07.
