data_PCOD9178516
_publ_section_title
;
Structure prediction by ZEFSAII (Michael W. Deem and Ramdas Pophale) SiO2 
 PCOD9178516
Probable space group: C 2/M
;
_chemical_formula_sum "Si O2"
_cell_formula_units_Z 64
_cell_length_a 26.361873
_cell_length_b 8.288017
_cell_length_c 15.754450
_cell_angle_alpha 90.000000
_cell_angle_beta 69.970670
_cell_angle_gamma 90.000000
_cell_volume 3233.962487
_symmetry_space_group_name_H-M "C 2/M"
_symmetry_group_IT_number 12
_symmetry_cell_setting 'monoclinic'
loop_
_space_group_symop_operation_xyz
x,y,z
-x,y,-z
-x,-y,-z
x,-y,z
1/2+x,1/2+y,z
1/2-x,1/2+y,-z
1/2-x,1/2-y,-z
1/2+x,1/2-y,z
loop_
_atom_site_type_symbol
_atom_site_label
_atom_site_fract_x
_atom_site_fract_y
_atom_site_fract_z
Si Si1 0.130309 0.305279 0.702777
Si Si2 0.189683 0.192313 0.014532
Si Si3 0.392474 0.306184 0.794072
Si Si4 0.487850 0.182128 0.255827
Si Si5 0.839258 0.815739 0.498346
Si Si6 0.699448 0.805376 0.824337
Si Si7 0.548567 0.184535 0.529231
Si Si8 0.315398 0.302639 0.692429
O O1 0.126519 0.500000 0.706055
O O2 0.157376 0.263631 0.596333
O O3 0.165845 0.250995 0.761603
O O4 0.068361 0.243082 0.746481
O O5 0.176902 0.243509 0.926023
O O6 0.189351 0.000000 0.020277
O O7 0.250000 0.250000 0.000000
O O8 0.147348 0.253924 0.108785
O O9 0.389118 0.500000 0.793018
O O10 0.453841 0.262881 0.781117
O O11 0.367637 0.249195 0.717414
O O12 0.473856 0.173039 0.363287
O O13 0.493226 0.000000 0.218426
O O14 0.900573 0.800515 0.497552
O O15 0.809007 0.745102 0.598361
O O16 0.822295 0.000000 0.495792
O O17 0.761936 0.757994 0.775336
O O18 0.698260 0.000000 0.826727
O O19 0.500000 0.243602 0.500000
O O20 0.563997 0.000000 0.494578
O O21 0.317199 0.500000 0.685838
#
# Coordination Sequence:
#
# PCOD9178516 Si02
#       8
#     8   8   8   8   8   8   8   8
#     4   9  20  38  57  76 107 150 189 224 270 319
#     4  11  22  38  60  86 113 140 175 220 273 331
#     4  10  20  35  55  80 111 142 173 217 275 331
#     4   9  18  32  50  76 105 138 183 225 262 315
#     4  10  19  30  49  76 108 144 183 226 266 318
#     4  10  20  39  62  79 105 147 184 226 277 322
#     4   9  17  30  47  69 103 142 182 228 270 314
#     4   9  18  33  52  79 111 141 178 224 275 325
#
# _framework density 19.789963
#
# number of rings (size 3 to 8) (size 9 to 14) (size 15 to 20)
#    0.000    2.375    1.250    2.250    0.000    4.250 
#    0.000    2.500    0.000    3.750    0.000    0.000 
#    0.000    0.000    0.000    0.000    0.000    0.000 
#
# Total GULP energy -178324.862548 kJ/mol
# GULP energy per Si atom -5572.651955 kJ/mol
# Density = 1.974492 g / cm^3
# Si number density = 19.789963 Si / 1000 Ang^3
#
#
#
# Elastic Constant Matrix: (Units=GPa)
#
#
# Indices 1 2 3 4 5 6 
#
# 1 51.0484 7.9387 36.5374 0.0000 7.6149 0.0000
# 2 7.9387 9.3842 9.3992 0.0000 1.0143 0.0000
# 3 36.5374 9.3992 100.1712 0.0000 7.2089 0.0000
# 4 0.0000 0.0000 0.0000 24.6361 0.0000 0.1965
# 5 7.6149 1.0143 7.2089 0.0000 33.9131 0.0000
# 6 0.0000 0.0000 0.0000 0.1965 0.0000 24.8324
#
#
#
# Elastic Compliance Matrix: (Units=1/GPa)
#
#
# Indices 1 2 3 4 5 6 
#
# 1 0.028871 -0.015151 -0.008810 0.000000 -0.004157 0.000000
# 2 -0.015151 0.125614 -0.006332 0.000000 0.000991 0.000000
# 3 -0.008810 -0.006332 0.013846 0.000000 -0.000776 0.000000
# 4 0.000000 0.000000 0.000000 0.040593 0.000000 -0.000321
# 5 -0.004157 0.000991 -0.000776 0.000000 0.030556 0.000000
# 6 0.000000 0.000000 0.000000 -0.000321 0.000000 0.040272
#
#
# Mechanical properties :
#
#
# Convention : Reuss Voigt Hill
#
# Bulk Modulus (GPa) = 9.28100 29.81716 19.54908
# Shear Modulus (GPa) = 13.28890 23.79155 18.54023
#
# Velocity S-wave (km/s) = 2.59414 3.47104 3.06412
# Velocity P-wave (km/s) = 3.69766 5.58244 4.73478
#
# Compressibility (1/GPa) = 0.10774702
#
# Stress axis : x y z
#
# Youngs Moduli (GPa) = 34.63663 7.96088 72.22163
#
# Poissons Ratio (x) = 0.12061 0.63627
# Poissons Ratio (y) = 0.52477 0.45727
# Poissons Ratio (z) = 0.30515 0.05040
#
# Static dielectric constant tensor:
#      x y z
#    x 1.756440 0.000000 0.013100 
#    y 0.000000 1.720420 0.000000 
#    z 0.013100 0.000000 1.374920 
# 
# From -- ./inp_files/243860.got.cif
#   From: 2010.05.17/outbox.cif.g08.bks.cpg/sg12_122_cif.got.tgz:243860.got - 2010.06.03 13:09:07.
