data_PCOD9178594
_publ_section_title
;
Structure prediction by ZEFSAII (Michael W. Deem and Ramdas Pophale) SiO2 
 PCOD9178594
Probable space group: C 2/M
;
_chemical_formula_sum "Si O2"
_cell_formula_units_Z 56
_cell_length_a 21.468709
_cell_length_b 9.184247
_cell_length_c 14.087644
_cell_angle_alpha 90.000000
_cell_angle_beta 80.876124
_cell_angle_gamma 90.000000
_cell_volume 2742.571899
_symmetry_space_group_name_H-M "C 2/M"
_symmetry_group_IT_number 12
_symmetry_cell_setting 'monoclinic'
loop_
_space_group_symop_operation_xyz
x,y,z
-x,y,-z
-x,-y,-z
x,-y,z
1/2+x,1/2+y,z
1/2-x,1/2+y,-z
1/2-x,1/2-y,-z
1/2+x,1/2-y,z
loop_
_atom_site_type_symbol
_atom_site_label
_atom_site_fract_x
_atom_site_fract_y
_atom_site_fract_z
Si Si1 0.265443 0.674611 0.255276
Si Si2 0.356539 0.670864 0.633559
Si Si3 0.500248 0.671502 0.392248
Si Si4 0.812137 0.826131 0.444293
Si Si5 0.145634 0.329558 0.903653
Si Si6 0.556874 0.333571 0.063859
Si Si7 0.032878 0.668992 0.776953
O O1 0.265126 0.500000 0.244183
O O2 0.196645 0.733111 0.302824
O O3 0.311380 0.714989 0.333759
O O4 0.293551 0.752194 0.156027
O O5 0.338237 0.500000 0.645988
O O6 0.426630 0.686501 0.656089
O O7 0.360100 0.704714 0.518885
O O8 0.500000 0.726467 0.500000
O O9 0.483385 0.500000 0.397987
O O10 0.457979 0.751093 0.325207
O O11 0.750000 0.750000 0.500000
O O12 0.804983 0.000000 0.444691
O O13 0.156231 0.500000 0.921026
O O14 0.115768 0.245909 0.000459
O O15 0.091223 0.319686 0.835506
O O16 0.571476 0.500000 0.087106
O O17 0.500000 0.338534 0.000000
O O18 0.526241 0.243437 0.156226
O O19 0.020523 0.500000 0.762859
#
# Coordination Sequence:
#
# PCOD9178594 Si02
#       7
#     8   8   8   8   8   8   8
#     4  10  19  30  50  78 104 136 175 220 269 317
#     4   9  18  34  51  70 101 140 179 220 267 315
#     4  10  22  37  56  78 104 144 188 226 262 308
#     4   8  15  27  44  66  93 127 167 210 256 304
#     4  10  20  33  52  81 113 142 172 215 270 324
#     4   9  17  32  55  81 107 137 174 218 265 317
#     4  10  21  36  54  78 110 145 178 218 268 318
#
# _framework density 20.418792
#
# number of rings (size 3 to 8) (size 9 to 14) (size 15 to 20)
#    0.000    2.571    0.000    1.714    2.000    4.857 
#    0.000    0.000    0.000    0.857    0.000    0.000 
#    0.000    0.000    0.000    0.000    0.000    0.000 
#
# Total GULP energy -156146.657921 kJ/mol
# GULP energy per Si atom -5576.666354 kJ/mol
# Density = 2.037232 g / cm^3
# Si number density = 20.418792 Si / 1000 Ang^3
#
#
#
# Elastic Constant Matrix: (Units=GPa)
#
#
# Indices 1 2 3 4 5 6 
#
# 1 31.0109 13.3056 -3.8839 0.0000 -9.7246 0.0000
# 2 13.3056 67.4295 27.4808 0.0000 -16.5956 0.0000
# 3 -3.8839 27.4808 67.2535 0.0000 -24.5745 0.0000
# 4 0.0000 0.0000 0.0000 27.0426 0.0000 1.3645
# 5 -9.7246 -16.5956 -24.5745 0.0000 34.1443 0.0000
# 6 0.0000 0.0000 0.0000 1.3645 0.0000 11.3456
#
#
#
# Elastic Compliance Matrix: (Units=1/GPa)
#
#
# Indices 1 2 3 4 5 6 
#
# 1 0.043078 -0.009479 0.012429 0.000000 0.016608 0.000000
# 2 -0.009479 0.020436 -0.008487 0.000000 0.001125 0.000000
# 3 0.012429 -0.008487 0.025564 0.000000 0.017814 0.000000
# 4 0.000000 0.000000 0.000000 0.037205 0.000000 -0.004475
# 5 0.016608 0.001125 0.017814 0.000000 0.047386 0.000000
# 6 0.000000 0.000000 0.000000 -0.004475 0.000000 0.088678
#
#
# Mechanical properties :
#
#
# Convention : Reuss Voigt Hill
#
# Bulk Modulus (GPa) = 12.81941 26.61099 19.71520
# Shear Modulus (GPa) = 16.69885 23.09257 19.89571
#
# Velocity S-wave (km/s) = 2.86285 3.36660 3.12490
# Velocity P-wave (km/s) = 4.14967 5.30782 4.76407
#
# Compressibility (1/GPa) = 0.07800669
#
# Stress axis : x y z
#
# Youngs Moduli (GPa) = 23.21349 48.93219 39.11739
#
# Poissons Ratio (x) = 0.46381 -0.48621
# Poissons Ratio (y) = 0.22003 0.33199
# Poissons Ratio (z) = -0.28853 0.41528
#
# Static dielectric constant tensor:
#      x y z
#    x 1.754540 0.000000 0.019260 
#    y 0.000000 1.683060 0.000000 
#    z 0.019260 0.000000 1.735660 
# 
# From -- ./inp_files/237362.got.cif
#   From: 2010.05.17/outbox.cif.g08.bks.cpg/sg12_119_cif.got.tgz:237362.got - 2010.06.03 13:09:07.
