data_PCOD9178376
_publ_section_title
;
Structure prediction by ZEFSAII (Michael W. Deem and Ramdas Pophale) SiO2 
 PCOD9178376
Probable space group: C 2/M
;
_chemical_formula_sum "Si O2"
_cell_formula_units_Z 50
_cell_length_a 24.744518
_cell_length_b 7.298307
_cell_length_c 15.553940
_cell_angle_alpha 90.000000
_cell_angle_beta 130.163241
_cell_angle_gamma 90.000000
_cell_volume 2146.615435
_symmetry_space_group_name_H-M "C 2/M"
_symmetry_group_IT_number 12
_symmetry_cell_setting 'monoclinic'
loop_
_space_group_symop_operation_xyz
x,y,z
-x,y,-z
-x,-y,-z
x,-y,z
1/2+x,1/2+y,z
1/2-x,1/2+y,-z
1/2-x,1/2-y,-z
1/2+x,1/2-y,z
loop_
_atom_site_type_symbol
_atom_site_label
_atom_site_fract_x
_atom_site_fract_y
_atom_site_fract_z
Si Si1 0.915426 0.706215 0.786647
Si Si2 0.170702 0.718779 0.953136
Si Si3 0.419841 0.776553 0.598130
Si Si4 0.325106 0.222074 0.350185
Si Si5 0.500000 0.000000 0.000000
Si Si6 0.571980 0.776760 0.697030
Si Si7 0.667077 0.208484 0.140868
O O1 0.883186 0.500000 0.738723
O O2 0.921049 0.786414 0.698077
O O3 0.987399 0.658747 0.911134
O O4 0.867726 0.796550 0.811102
O O5 0.159618 0.789206 0.038383
O O6 0.337297 0.000000 0.048481
O O7 0.250000 0.750000 0.000000
O O8 0.115591 0.783842 0.825620
O O9 0.352185 0.724494 0.472261
O O10 0.491348 0.718021 0.623336
O O11 0.422314 0.000000 0.601215
O O12 0.384991 0.277236 0.343127
O O13 0.250247 0.299801 0.244595
O O14 0.318726 0.000000 0.340498
O O15 0.572079 0.000000 0.696599
O O16 0.633370 0.000000 0.105055
#
# Coordination Sequence:
#
# PCOD9178376 Si02
#       7
#     8   8   8   8   2   8   8
#     4   8  17  28  46  73 101 125 157 202 252 286
#     4  10  19  30  48  72  98 125 157 196 248 297
#     4   9  17  29  48  71  96 127 169 210 245 283
#     4  10  19  32  49  72 100 133 167 202 243 296
#     4   8  16  28  48  68 108 120 154 208 256 282
#     4   9  17  28  47  71  97 124 162 210 251 286
#     4  10  20  32  48  74 104 129 161 202 251 295
#
# _framework density 23.292483000000001
#
# number of rings (size 3 to 8) (size 9 to 14) (size 15 to 20)
#    0.480    2.240    1.600    0.480    2.240    2.560 
#    0.000    0.000    0.000    2.880    0.000    0.560 
#    0.000    0.000    0.000    0.000    0.000    0.000 
#
# Total GULP energy -139251.022825 kJ/mol
# GULP energy per Si atom -5570.040913 kJ/mol
# Density = 2.323947 g / cm^3
# Si number density = 23.292483 Si / 1000 Ang^3
#
#
#
# Elastic Constant Matrix: (Units=GPa)
#
#
# Indices 1 2 3 4 5 6 
#
# 1 81.4496 -0.0017 23.4010 0.0000 -28.5308 0.0000
# 2 -0.0017 95.6628 2.1530 0.0000 -5.1818 0.0000
# 3 23.4010 2.1530 150.9321 0.0000 -26.5145 0.0000
# 4 0.0000 0.0000 0.0000 -9.0350 0.0000 10.3671
# 5 -28.5308 -5.1818 -26.5145 0.0000 32.8970 0.0000
# 6 0.0000 0.0000 0.0000 10.3671 0.0000 3.5194
#
#
#
# Elastic Compliance Matrix: (Units=1/GPa)
#
#
# Indices 1 2 3 4 5 6 
#
# 1 0.017702 0.000838 -0.000042 0.000000 0.015450 0.000000
# 2 0.000838 0.010587 0.000163 0.000000 0.002526 0.000000
# 3 -0.000042 0.000163 0.007721 0.000000 0.006212 0.000000
# 4 0.000000 0.000000 0.000000 -0.025269 0.000000 0.074437
# 5 0.015450 0.002526 0.006212 0.000000 0.049202 0.000000
# 6 0.000000 0.000000 0.000000 0.074437 0.000000 0.064872
#
#
# Mechanical properties :
#
#
# Convention : Reuss Voigt Hill
#
# Bulk Modulus (GPa) = 26.36684 42.12766 34.24725
# Shear Modulus (GPa) = 36.88981 25.64242 31.26611
#
# Velocity S-wave (km/s) = 3.98397 3.32156 3.66775
# Velocity P-wave (km/s) = 5.70151 5.73027 5.71591
#
# Compressibility (1/GPa) = 0.03792642
#
# Stress axis : x y z
#
# Youngs Moduli (GPa) = 56.49154 94.45951 129.51697
#
# Poissons Ratio (x) = -0.07917 0.00548
# Poissons Ratio (y) = -0.04735 -0.02107
# Poissons Ratio (z) = 0.00239 -0.01537
#
# Static dielectric constant tensor:
#      x y z
#    x 1.740590 0.000000 -0.056650 
#    y 0.000000 1.934390 0.000000 
#    z -0.056650 0.000000 1.818180 
# 
# From -- ./inp_files/237980.got.cif
#   From: 2010.05.17/outbox.cif.g08.bks.cpg/sg12_119_cif.got.tgz:237980.got - 2010.06.03 13:09:07.
