data_PCOD9178707
_publ_section_title
;
Structure prediction by ZEFSAII (Michael W. Deem and Ramdas Pophale) SiO2 
 PCOD9178707
Probable space group: C 2/M
;
_chemical_formula_sum "Si O2"
_cell_formula_units_Z 40
_cell_length_a 17.683462
_cell_length_b 17.483223
_cell_length_c 8.474828
_cell_angle_alpha 90.000000
_cell_angle_beta 131.476692
_cell_angle_gamma 90.000000
_cell_volume 1963.053191
_symmetry_space_group_name_H-M "C 2/M"
_symmetry_group_IT_number 12
_symmetry_cell_setting 'monoclinic'
loop_
_space_group_symop_operation_xyz
x,y,z
-x,y,-z
-x,-y,-z
x,-y,z
1/2+x,1/2+y,z
1/2-x,1/2+y,-z
1/2-x,1/2-y,-z
1/2+x,1/2-y,z
loop_
_atom_site_type_symbol
_atom_site_label
_atom_site_fract_x
_atom_site_fract_y
_atom_site_fract_z
Si Si1 0.085993 0.413018 0.749766
Si Si2 0.467326 0.241709 0.271333
Si Si3 0.205734 0.153864 0.085125
Si Si4 0.378776 0.500000 0.522757
Si Si5 0.381241 0.500000 0.169917
Si Si6 0.402474 0.354472 0.758736
O O1 0.110229 0.500000 0.838148
O O2 0.043113 0.345898 0.802734
O O3 0.180674 0.368409 0.802070
O O4 0.000000 0.422037 0.500000
O O5 0.500000 0.244218 0.500000
O O6 0.549467 0.289407 0.285595
O O7 0.359066 0.283779 0.100692
O O8 0.182538 0.172087 0.235346
O O9 0.152125 0.074306 0.968188
O O10 0.337678 0.500000 0.287890
O O11 0.498853 0.500000 0.662663
O O12 0.358916 0.423779 0.594986
O O13 0.500000 0.379733 0.000000
#
# Coordination Sequence:
#
# PCOD9178707 Si02
#       6
#     8   8   8   4   4   8
#     4  10  22  40  60  82 110 157 209 240 266 329
#     4  10  20  36  58  90 120 147 184 237 297 351
#     4  11  20  35  59  90 114 148 192 240 288 341
#     4  11  18  29  48  90 128 151 168 228 304 368
#     4  11  19  28  54  87 123 149 184 227 297 354
#     4  10  19  30  54  87 123 147 177 232 300 356
#
# _framework density 20.376421000000001
#
# number of rings (size 3 to 8) (size 9 to 14) (size 15 to 20)
#    0.000    1.600    5.000    2.700    0.000    0.000 
#    0.000    4.000    0.000   15.000    0.000    0.000 
#    0.000    0.000    0.000    0.000    0.000    0.000 
#
# Total GULP energy -111409.446064 kJ/mol
# GULP energy per Si atom -5570.472303 kJ/mol
# Density = 2.033004 g / cm^3
# Si number density = 20.376421 Si / 1000 Ang^3
#
#
#
# Elastic Constant Matrix: (Units=GPa)
#
#
# Indices 1 2 3 4 5 6 
#
# 1 70.7295 50.5417 30.2718 0.0000 -12.8497 0.0000
# 2 50.5417 175.7207 28.8828 0.0000 -4.1389 0.0000
# 3 30.2718 28.8828 46.5614 0.0000 -3.5941 0.0000
# 4 0.0000 0.0000 0.0000 33.6866 0.0000 -9.1707
# 5 -12.8497 -4.1389 -3.5941 0.0000 30.7465 0.0000
# 6 0.0000 0.0000 0.0000 -9.1707 0.0000 12.4652
#
#
#
# Elastic Compliance Matrix: (Units=1/GPa)
#
#
# Indices 1 2 3 4 5 6 
#
# 1 0.024222 -0.004778 -0.012162 0.000000 0.008058 0.000000
# 2 -0.004778 0.007284 -0.001504 0.000000 -0.001192 0.000000
# 3 -0.012162 -0.001504 0.030181 0.000000 -0.001757 0.000000
# 4 0.000000 0.000000 0.000000 0.037120 0.000000 0.027309
# 5 0.008058 -0.001192 -0.001757 0.000000 0.035526 0.000000
# 6 0.000000 0.000000 0.000000 0.027309 0.000000 0.100315
#
#
# Mechanical properties :
#
#
# Convention : Reuss Voigt Hill
#
# Bulk Modulus (GPa) = 40.32347 56.93378 48.62863
# Shear Modulus (GPa) = 17.86976 27.60068 22.73522
#
# Velocity S-wave (km/s) = 2.96460 3.68440 3.34392
# Velocity P-wave (km/s) = 5.61700 6.78980 6.23106
#
# Compressibility (1/GPa) = 0.02479945
#
# Stress axis : x y z
#
# Youngs Moduli (GPa) = 41.28524 137.28203 33.13291
#
# Poissons Ratio (x) = 0.65593 0.40296
# Poissons Ratio (y) = 0.19726 0.04984
# Poissons Ratio (z) = 0.50211 0.20650
#
# Static dielectric constant tensor:
#      x y z
#    x 1.781230 0.000000 0.021450 
#    y 0.000000 1.769900 0.000000 
#    z 0.021450 0.000000 1.734020 
# 
# From -- ./inp_files/75543.got.cif
#   From: 2010.05.17/outbox.cif.g08.bks.cpg/sg12_38_cif.got.tgz:75543.got - 2010.06.03 13:09:07.
