data_PCOD9178607
_publ_section_title
;
Structure prediction by ZEFSAII (Michael W. Deem and Ramdas Pophale) SiO2 
 PCOD9178607
Probable space group: C 2/M
;
_chemical_formula_sum "Si O2"
_cell_formula_units_Z 64
_cell_length_a 25.570638
_cell_length_b 8.049216
_cell_length_c 15.657504
_cell_angle_alpha 90.000000
_cell_angle_beta 77.645980
_cell_angle_gamma 90.000000
_cell_volume 3148.060130
_symmetry_space_group_name_H-M "C 2/M"
_symmetry_group_IT_number 12
_symmetry_cell_setting 'monoclinic'
loop_
_space_group_symop_operation_xyz
x,y,z
-x,y,-z
-x,-y,-z
x,-y,z
1/2+x,1/2+y,z
1/2-x,1/2+y,-z
1/2-x,1/2-y,-z
1/2+x,1/2-y,z
loop_
_atom_site_type_symbol
_atom_site_label
_atom_site_fract_x
_atom_site_fract_y
_atom_site_fract_z
Si Si1 0.297043 0.199902 0.921848
Si Si2 0.749722 0.197139 0.237896
Si Si3 0.056024 0.299167 0.688455
Si Si4 0.097652 0.299843 0.020207
Si Si5 0.627342 0.800641 0.820165
Si Si6 0.441476 0.302264 0.795150
Si Si7 0.859284 0.196127 0.681460
Si Si8 0.938403 0.298950 0.504178
O O1 0.278346 0.266462 0.837875
O O2 0.350420 0.264573 0.946877
O O3 0.301950 0.000000 0.914400
O O4 0.250000 0.250000 0.000000
O O5 0.809833 0.265964 0.219119
O O6 0.699964 0.232464 0.318160
O O7 0.756173 0.000000 0.229539
O O8 0.057783 0.500000 0.688345
O O9 0.092670 0.236119 0.753070
O O10 0.074486 0.245294 0.588070
O O11 0.995109 0.248195 0.727216
O O12 0.098269 0.500000 0.015009
O O13 0.053703 0.256364 0.107467
O O14 0.104498 0.238976 0.920263
O O15 0.621749 0.000000 0.824733
O O16 0.436865 0.500000 0.798074
O O17 0.391216 0.235048 0.755170
O O18 0.898928 0.229223 0.588978
O O19 0.853241 0.000000 0.695251
O O20 0.935712 0.500000 0.509852
O O21 0.000000 0.251012 0.500000
#
# Coordination Sequence:
#
# PCOD9178607 Si02
#       8
#     8   8   8   8   8   8   8   8
#     4  10  19  30  50  79 109 146 190 236 279 326
#     4  11  22  36  57  85 118 154 193 239 287 337
#     4  10  22  41  63  85 114 152 192 235 288 352
#     4  10  20  35  55  81 116 156 195 234 281 339
#     4  10  22  40  60  83 115 158 200 234 278 342
#     4  11  23  36  56  87 120 152 190 241 291 336
#     4  11  23  37  58  90 122 150 186 240 296 344
#     4  10  20  37  64  92 115 144 186 239 296 350
#
# _framework density 20.329979000000002
#
# number of rings (size 3 to 8) (size 9 to 14) (size 15 to 20)
#    0.000    1.625    3.750    1.125    0.000    4.250 
#    0.000    3.125    0.000    0.000    0.000    0.000 
#    0.000    0.000    0.000    0.000    0.000    0.000 
#
# Total GULP energy -178401.559914 kJ/mol
# GULP energy per Si atom -5575.048747 kJ/mol
# Density = 2.028371 g / cm^3
# Si number density = 20.329979 Si / 1000 Ang^3
#
#
#
# Elastic Constant Matrix: (Units=GPa)
#
#
# Indices 1 2 3 4 5 6 
#
# 1 57.0447 -2.3550 36.5008 0.0000 8.3438 0.0000
# 2 -2.3550 12.7213 9.7373 0.0000 9.4879 0.0000
# 3 36.5008 9.7373 129.6615 0.0000 0.3324 0.0000
# 4 0.0000 0.0000 0.0000 24.0426 0.0000 -12.4948
# 5 8.3438 9.4879 0.3324 0.0000 31.7790 0.0000
# 6 0.0000 0.0000 0.0000 -12.4948 0.0000 23.1622
#
#
#
# Elastic Compliance Matrix: (Units=1/GPa)
#
#
# Indices 1 2 3 4 5 6 
#
# 1 0.026036 0.021439 -0.008906 0.000000 -0.013144 0.000000
# 2 0.021439 0.126679 -0.015438 0.000000 -0.043289 0.000000
# 3 -0.008906 -0.015438 0.011361 0.000000 0.006828 0.000000
# 4 0.000000 0.000000 0.000000 0.057795 0.000000 0.031178
# 5 -0.013144 -0.043289 0.006828 0.000000 0.047771 0.000000
# 6 0.000000 0.000000 0.000000 0.031178 0.000000 0.059992
#
#
# Mechanical properties :
#
#
# Convention : Reuss Voigt Hill
#
# Bulk Modulus (GPa) = 6.31839 31.91044 19.11441
# Shear Modulus (GPa) = 12.87997 26.16639 19.52318
#
# Velocity S-wave (km/s) = 2.51976 3.59149 3.10226
# Velocity P-wave (km/s) = 3.40298 5.73835 4.71747
#
# Compressibility (1/GPa) = 0.15826824
#
# Stress axis : x y z
#
# Youngs Moduli (GPa) = 38.40809 7.89397 88.01823
#
# Poissons Ratio (x) = -0.16924 0.78387
# Poissons Ratio (y) = -0.82345 1.35880
# Poissons Ratio (z) = 0.34205 0.12187
#
# Static dielectric constant tensor:
#      x y z
#    x 1.745550 0.000000 -0.017690 
#    y 0.000000 1.717010 0.000000 
#    z -0.017690 0.000000 1.790250 
# 
# From -- ./inp_files/243746.got.cif
#   From: 2010.05.17/outbox.cif.g08.bks.cpg/sg12_122_cif.got.tgz:243746.got - 2010.06.03 13:09:07.
