data_PCOD9178812
_publ_section_title
;
Structure prediction by ZEFSAII (Michael W. Deem and Ramdas Pophale) SiO2 
 PCOD9178812
Probable space group: C 2/M
;
_chemical_formula_sum "Si O2"
_cell_formula_units_Z 48
_cell_length_a 28.190923
_cell_length_b 23.635766
_cell_length_c 22.969865
_cell_angle_alpha 90.000000
_cell_angle_beta 11.961949
_cell_angle_gamma 90.000000
_cell_volume 3172.175401
_symmetry_space_group_name_H-M "C 2/M"
_symmetry_group_IT_number 12
_symmetry_cell_setting 'monoclinic'
loop_
_space_group_symop_operation_xyz
x,y,z
-x,y,-z
-x,-y,-z
x,-y,z
1/2+x,1/2+y,z
1/2-x,1/2+y,-z
1/2-x,1/2-y,-z
1/2+x,1/2-y,z
loop_
_atom_site_type_symbol
_atom_site_label
_atom_site_fract_x
_atom_site_fract_y
_atom_site_fract_z
Si Si1 0.326308 0.254489 0.841798
Si Si2 0.858107 0.866081 0.297225
Si Si3 0.869007 0.356202 0.714152
Si Si4 0.397470 0.804451 0.300938
Si Si5 0.258526 0.066893 0.668791
Si Si6 0.656352 0.754489 0.755455
O O1 0.310931 0.194337 0.827860
O O2 0.591269 0.269043 0.525338
O O3 0.250000 0.250000 0.000000
O O4 0.152720 0.296421 0.018496
O O5 0.729609 0.854600 0.512416
O O6 0.736605 0.912799 0.403733
O O7 0.848283 0.807623 0.270430
O O8 0.123801 0.880562 0.989288
O O9 0.000000 0.332720 0.500000
O O10 0.046111 0.399791 0.530498
O O11 0.250000 0.750000 0.500000
O O12 0.402492 0.798582 0.225406
O O13 0.287906 0.000000 0.640315
O O14 0.000000 0.081999 0.000000
O O15 0.500000 0.753132 0.000000
#
# Coordination Sequence:
#
# PCOD9178812 Si02
#       6
#     8   8   8   8   8   8
#     4  12  19  30  49  68  95 129 165 198 237 287
#     4  11  19  34  49  66  95 128 164 200 241 288
#     4  12  21  30  50  68  89 128 169 201 242 287
#     4  10  19  31  46  70  94 124 163 194 236 292
#     4  11  23  36  48  66  92 125 169 219 254 278
#     4  11  20  30  47  71  99 129 164 197 233 285
#
# _framework density 15.131572
#
# number of rings (size 3 to 8) (size 9 to 14) (size 15 to 20)
#    0.000    0.833   10.000    1.500    0.000    1.000 
#    0.000    0.000    0.000    0.000    0.000    0.000 
#    0.000    0.667    0.000   12.500    0.000    6.000 
#
# Total GULP energy -133845.150978 kJ/mol
# GULP energy per Si atom -5576.881291 kJ/mol
# Density = 1.509713 g / cm^3
# Si number density = 15.131572 Si / 1000 Ang^3
#
#
#
# Elastic Constant Matrix: (Units=GPa)
#
#
# Indices 1 2 3 4 5 6 
#
# 1 83.2252 10.6906 34.8782 -0.0299 -1.1673 0.1156
# 2 10.6906 27.8592 11.6526 0.3271 2.5822 -0.1620
# 3 34.8782 11.6526 99.3562 0.1153 -14.9102 0.0296
# 4 -0.0299 0.3271 0.1153 14.5361 0.1246 0.2496
# 5 -1.1673 2.5822 -14.9102 0.1246 39.8961 -0.1838
# 6 0.1156 -0.1620 0.0296 0.2496 -0.1838 11.4118
#
#
#
# Elastic Compliance Matrix: (Units=1/GPa)
#
#
# Indices 1 2 3 4 5 6 
#
# 1 0.014474 -0.003417 -0.004856 0.000159 -0.001172 -0.000205
# 2 -0.003417 0.039288 -0.004029 -0.000833 -0.004144 0.000554
# 3 -0.004856 -0.004029 0.012988 -0.000066 0.004973 0.000040
# 4 0.000159 -0.000833 -0.000066 0.068841 -0.000188 -0.001522
# 5 -0.001172 -0.004144 0.004973 -0.000188 0.027160 0.000382
# 6 -0.000205 0.000554 0.000040 -0.001522 0.000382 0.087678
#
#
# Mechanical properties :
#
#
# Convention : Reuss Voigt Hill
#
# Bulk Modulus (GPa) = 23.72740 36.09816 29.91278
# Shear Modulus (GPa) = 17.29607 23.38343 20.33975
#
# Velocity S-wave (km/s) = 3.38456 3.93535 3.67030
# Velocity P-wave (km/s) = 5.56673 6.67512 6.14596
#
# Compressibility (1/GPa) = 0.04214537
#
# Stress axis : x y z
#
# Youngs Moduli (GPa) = 69.09164 25.45275 76.99189
#
# Poissons Ratio (x) = 0.08698 0.37387
# Poissons Ratio (y) = 0.23611 0.31021
# Poissons Ratio (z) = 0.33551 0.10255
#
# Static dielectric constant tensor:
#      x y z
#    x 1.539090 0.000040 -0.036850 
#    y 0.000040 1.487160 0.000260 
#    z -0.036850 0.000260 1.476200 
# 
# From -- ./inp_files/318454.got.cif
#   From: 2010.05.17/outbox.cif.g08.bks.cpg/sg12_160_cif.got.tgz:318454.got - 2010.06.03 13:09:07.
