data_PCOD9178189
_publ_section_title
;
Structure prediction by ZEFSAII (Michael W. Deem and Ramdas Pophale) SiO2 
 PCOD9178189
Probable space group: C 2/M
;
_chemical_formula_sum "Si O2"
_cell_formula_units_Z 56
_cell_length_a 14.276141
_cell_length_b 9.618821
_cell_length_c 18.499353
_cell_angle_alpha 90.000000
_cell_angle_beta 91.642257
_cell_angle_gamma 90.000000
_cell_volume 2539.281146
_symmetry_space_group_name_H-M "C 2/M"
_symmetry_group_IT_number 12
_symmetry_cell_setting 'monoclinic'
loop_
_space_group_symop_operation_xyz
x,y,z
-x,y,-z
-x,-y,-z
x,-y,z
1/2+x,1/2+y,z
1/2-x,1/2+y,-z
1/2-x,1/2-y,-z
1/2+x,1/2-y,z
loop_
_atom_site_type_symbol
_atom_site_label
_atom_site_fract_x
_atom_site_fract_y
_atom_site_fract_z
Si Si1 0.402316 0.155476 0.321578
Si Si2 0.955537 0.334552 0.158666
Si Si3 0.360843 0.664883 0.876254
Si Si4 0.114489 0.658295 0.990508
Si Si5 0.684623 0.343728 0.284728
Si Si6 0.122937 0.159063 0.549766
Si Si7 0.651996 0.840253 0.413501
O O1 0.429380 0.191685 0.240530
O O2 0.289516 0.146667 0.316942
O O3 0.425205 0.264905 0.383788
O O4 0.436779 0.000000 0.338732
O O5 0.981966 0.500000 0.153354
O O6 0.876687 0.314567 0.095034
O O7 0.038076 0.229629 0.141178
O O8 0.362066 0.500000 0.887520
O O9 0.307374 0.693094 0.799811
O O10 0.338018 0.739963 0.951190
O O11 0.143348 0.500000 0.005998
O O12 0.000000 0.664379 0.000000
O O13 0.642324 0.500000 0.288528
O O14 0.635730 0.230462 0.334777
O O15 0.235292 0.157732 0.568889
O O16 0.110741 0.246624 0.476585
O O17 0.094071 0.000000 0.541519
O O18 0.621884 0.000000 0.416191
#
# Coordination Sequence:
#
# PCOD9178189 Si02
#       7
#     8   8   8   8   8   8   8
#     4   9  17  31  49  67  91 122 155 188 223 269
#     4   9  18  32  50  69  89 119 156 191 226 266
#     4  10  19  30  47  70  94 120 150 187 231 274
#     4   8  15  29  47  66  88 117 155 191 222 263
#     4   9  18  31  46  67  95 123 150 185 230 273
#     4   9  16  26  42  66  94 120 149 187 228 267
#     4   9  16  26  43  66  90 120 156 188 220 263
#
# _framework density 22.053484000000001
#
# number of rings (size 3 to 8) (size 9 to 14) (size 15 to 20)
#    0.000    3.000    0.000    2.143    0.000    7.714 
#    0.000    0.714    0.000    0.857    0.000    6.000 
#    0.000    0.000    0.000    0.000    0.000    0.000 
#
# Total GULP energy -156286.386271 kJ/mol
# GULP energy per Si atom -5581.656653 kJ/mol
# Density = 2.200329 g / cm^3
# Si number density = 22.053484 Si / 1000 Ang^3
#
#
#
# Elastic Constant Matrix: (Units=GPa)
#
#
# Indices 1 2 3 4 5 6 
#
# 1 40.3785 22.3121 31.9539 0.0000 11.1240 0.0000
# 2 22.3121 142.4855 126.8443 0.0000 -1.5338 0.0000
# 3 31.9539 126.8443 195.0574 0.0000 -7.0153 0.0000
# 4 0.0000 0.0000 0.0000 41.9563 0.0000 1.5034
# 5 11.1240 -1.5338 -7.0153 0.0000 37.0165 0.0000
# 6 0.0000 0.0000 0.0000 1.5034 0.0000 -3.0393
#
#
#
# Elastic Compliance Matrix: (Units=1/GPa)
#
#
# Indices 1 2 3 4 5 6 
#
# 1 0.032214 -0.000281 -0.005480 0.000000 -0.010731 0.000000
# 2 -0.000281 0.016739 -0.010885 0.000000 -0.001285 0.000000
# 3 -0.005480 -0.010885 0.013236 0.000000 0.003704 0.000000
# 4 0.000000 0.000000 0.000000 0.023419 0.000000 0.011585
# 5 -0.010731 -0.001285 0.003704 0.000000 0.030889 0.000000
# 6 0.000000 0.000000 0.000000 0.011585 0.000000 -0.323294
#
#
# Mechanical properties :
#
#
# Convention : Reuss Voigt Hill
#
# Bulk Modulus (GPa) = 34.60724 82.23803 58.42263
# Shear Modulus (GPa) = -30.51171 28.30742 -1.10214
#
# Velocity S-wave (km/s) = -3.72362 3.58660 -0.70770
# Velocity P-wave (km/s) = 1.66153 7.38395 5.08734
#
# Compressibility (1/GPa) = 0.02889569
#
# Stress axis : x y z
#
# Youngs Moduli (GPa) = 31.04209 59.74145 75.54996
#
# Poissons Ratio (x) = 0.01681 0.41404
# Poissons Ratio (y) = 0.00873 0.82238
# Poissons Ratio (z) = 0.17012 0.65030
#
# Static dielectric constant tensor:
#      x y z
#    x 1.886650 0.000000 -0.001520 
#    y 0.000000 1.760590 0.000000 
#    z -0.001520 0.000000 1.826730 
# 
# From -- ./inp_files/280296.got.cif
#   From: 2010.05.17/outbox.cif.g08.bks.cpg/sg12_141_cif.got.tgz:280296.got - 2010.06.03 13:09:07.
