data_PCOD9178347
_publ_section_title
;
Structure prediction by ZEFSAII (Michael W. Deem and Ramdas Pophale) SiO2 
 PCOD9178347
Probable space group: C 2/M
;
_chemical_formula_sum "Si O2"
_cell_formula_units_Z 64
_cell_length_a 31.903392
_cell_length_b 8.888572
_cell_length_c 14.636800
_cell_angle_alpha 90.000000
_cell_angle_beta 91.836165
_cell_angle_gamma 90.000000
_cell_volume 4148.508087
_symmetry_space_group_name_H-M "C 2/M"
_symmetry_group_IT_number 12
_symmetry_cell_setting 'monoclinic'
loop_
_space_group_symop_operation_xyz
x,y,z
-x,y,-z
-x,-y,-z
x,-y,z
1/2+x,1/2+y,z
1/2-x,1/2+y,-z
1/2-x,1/2-y,-z
1/2+x,1/2-y,z
loop_
_atom_site_type_symbol
_atom_site_label
_atom_site_fract_x
_atom_site_fract_y
_atom_site_fract_z
Si Si1 0.664327 0.317118 0.781688
Si Si2 0.246766 0.818475 0.899465
Si Si3 0.797206 0.179671 0.608941
Si Si4 0.329758 0.819826 0.790415
Si Si5 0.795169 0.818822 0.401394
Si Si6 0.004860 0.673071 0.110730
Si Si7 0.917475 0.818745 0.116422
Si Si8 0.592078 0.320430 0.098580
O O1 0.663611 0.500000 0.784332
O O2 0.704113 0.269772 0.845771
O O3 0.673874 0.273585 0.678030
O O4 0.620646 0.266587 0.822291
O O5 0.287343 0.776738 0.842312
O O6 0.245905 0.000000 0.905909
O O7 0.250000 0.750000 0.000000
O O8 0.825325 0.254219 0.688579
O O9 0.809806 0.216062 0.505227
O O10 0.749887 0.241991 0.616464
O O11 0.797269 0.000000 0.619506
O O12 0.369630 0.755469 0.846302
O O13 0.331693 0.000000 0.787220
O O14 0.788921 0.000000 0.395335
O O15 0.008735 0.500000 0.139567
O O16 0.962156 0.746860 0.143760
O O17 0.047424 0.762833 0.133093
O O18 0.000000 0.676237 0.000000
O O19 0.921160 0.000000 0.121821
O O20 0.906754 0.782181 0.009741
O O21 0.594751 0.500000 0.106628
#
# Coordination Sequence:
#
# PCOD9178347 Si02
#       8
#     8   8   8   8   8   8   8   8
#     4   9  16  30  48  66  91 125 159 189 230 280
#     4  10  20  32  45  62  91 129 163 192 225 270
#     4  10  19  30  48  70  91 119 158 203 241 278
#     4  11  21  33  48  66  94 129 160 193 238 285
#     4   9  17  32  50  67  91 122 157 198 243 284
#     4   9  17  30  47  67  94 124 156 193 235 279
#     4   9  17  29  48  70  94 125 158 194 232 273
#     4  10  19  31  48  70  96 123 160 200 231 273
#
# _framework density 15.427232999999999
#
# number of rings (size 3 to 8) (size 9 to 14) (size 15 to 20)
#    0.000    2.375    1.250    2.250    0.000    4.500 
#    0.000    1.250    0.000    0.000    0.000    0.875 
#    0.000    7.000    0.000    0.000    0.000    0.000 
#
# Total GULP energy -178431.886394 kJ/mol
# GULP energy per Si atom -5575.996450 kJ/mol
# Density = 1.539212 g / cm^3
# Si number density = 15.427233 Si / 1000 Ang^3
#
#
#
# Elastic Constant Matrix: (Units=GPa)
#
#
# Indices 1 2 3 4 5 6 
#
# 1 121.4229 34.4455 59.9655 0.0000 -21.8387 0.0000
# 2 34.4455 32.6191 33.8559 0.0000 -2.3608 0.0000
# 3 59.9655 33.8559 99.4403 0.0000 -16.3811 0.0000
# 4 0.0000 0.0000 0.0000 20.4172 0.0000 3.7499
# 5 -21.8387 -2.3608 -16.3811 0.0000 13.3339 0.0000
# 6 0.0000 0.0000 0.0000 3.7499 0.0000 26.1815
#
#
#
# Elastic Compliance Matrix: (Units=1/GPa)
#
#
# Indices 1 2 3 4 5 6 
#
# 1 0.017751 -0.015569 -0.001340 0.000000 0.024671 0.000000
# 2 -0.015569 0.063358 -0.018223 0.000000 -0.036669 0.000000
# 3 -0.001340 -0.018223 0.020280 0.000000 0.019494 0.000000
# 4 0.000000 0.000000 0.000000 0.050302 0.000000 -0.007205
# 5 0.024671 -0.036669 0.019494 0.000000 0.132860 0.000000
# 6 0.000000 0.000000 0.000000 -0.007205 0.000000 0.039227
#
#
# Mechanical properties :
#
#
# Convention : Reuss Voigt Hill
#
# Bulk Modulus (GPa) = 32.12848 56.66847 44.39848
# Shear Modulus (GPa) = 12.36351 20.33422 16.34886
#
# Velocity S-wave (km/s) = 2.83399 3.63447 3.25890
# Velocity P-wave (km/s) = 5.61958 7.37733 6.55761
#
# Compressibility (1/GPa) = 0.03112503
#
# Stress axis : x y z
#
# Youngs Moduli (GPa) = 56.33425 15.78333 49.31029
#
# Poissons Ratio (x) = 0.24573 0.06606
# Poissons Ratio (y) = 0.87707 0.89859
# Poissons Ratio (z) = 0.07547 0.28762
#
# Static dielectric constant tensor:
#      x y z
#    x 1.496190 0.000000 -0.012100 
#    y 0.000000 1.518250 0.000000 
#    z -0.012100 0.000000 1.509500 
# 
# From -- ./inp_files/248391.got.cif
#   From: 2010.05.17/outbox.cif.g08.bks.cpg/sg12_125_cif.got.tgz:248391.got - 2010.06.03 13:09:07.
