data_PCOD9178146
_publ_section_title
;
Structure prediction by ZEFSAII (Michael W. Deem and Ramdas Pophale) SiO2 
 PCOD9178146
Probable space group: C 2/M
;
_chemical_formula_sum "Si O2"
_cell_formula_units_Z 44
_cell_length_a 13.088057
_cell_length_b 24.514007
_cell_length_c 13.980424
_cell_angle_alpha 90.000000
_cell_angle_beta 146.797318
_cell_angle_gamma 90.000000
_cell_volume 2456.264676
_symmetry_space_group_name_H-M "C 2/M"
_symmetry_group_IT_number 12
_symmetry_cell_setting 'monoclinic'
loop_
_space_group_symop_operation_xyz
x,y,z
-x,y,-z
-x,-y,-z
x,-y,z
1/2+x,1/2+y,z
1/2-x,1/2+y,-z
1/2-x,1/2-y,-z
1/2+x,1/2-y,z
loop_
_atom_site_type_symbol
_atom_site_label
_atom_site_fract_x
_atom_site_fract_y
_atom_site_fract_z
Si Si1 0.487857 0.676970 0.643682
Si Si2 0.546094 0.163359 0.282277
Si Si3 0.682891 0.788274 0.744632
Si Si4 0.500000 0.412598 0.500000
Si Si5 0.503996 0.719903 0.152611
Si Si6 0.572393 0.061241 0.165781
O O1 0.265196 0.673358 0.469089
O O2 0.567578 0.732017 0.658773
O O3 0.546138 0.626107 0.626448
O O4 0.545948 0.680156 0.799351
O O5 0.444559 0.165520 0.305888
O O6 0.492507 0.218534 0.183361
O O7 0.513842 0.109919 0.192134
O O8 0.790343 0.793263 0.728415
O O9 0.852637 0.783881 0.952050
O O10 0.700538 0.440968 0.645749
O O11 0.502011 0.000000 0.134219
O O12 0.500000 0.072809 0.000000
#
# Coordination Sequence:
#
# PCOD9178146 Si02
#       6
#     8   8   8   4   8   8
#     4  10  19  31  45  74 100 136 166 198 248 302
#     4  10  20  31  50  70 100 135 165 207 252 298
#     4  10  19  30  46  73 103 138 166 200 240 307
#     4  10  21  34  56  76 108 136 165 212 256 312
#     4  10  20  29  47  74 106 135 166 197 244 307
#     4  10  22  36  54  77  99 133 176 217 261 299
#
# _framework density 17.913378999999999
#
# number of rings (size 3 to 8) (size 9 to 14) (size 15 to 20)
#    0.000    2.000    0.000    6.818    7.636    2.182 
#    0.000    0.000    0.000    0.000    0.000   14.000 
#    0.000    0.000    0.000    0.000    0.000    0.000 
#
# Total GULP energy -122567.871474 kJ/mol
# GULP energy per Si atom -5571.266885 kJ/mol
# Density = 1.787261 g / cm^3
# Si number density = 17.913379 Si / 1000 Ang^3
#
#
#
# Elastic Constant Matrix: (Units=GPa)
#
#
# Indices 1 2 3 4 5 6 
#
# 1 107.7363 40.8817 6.1788 0.0002 1.6340 -0.0002
# 2 40.8817 82.5331 19.9660 0.0000 -6.9873 0.0000
# 3 6.1788 19.9660 61.2308 0.0003 -9.0552 -0.0002
# 4 0.0002 0.0000 0.0003 131.4557 0.0002 -71.9199
# 5 1.6340 -6.9873 -9.0552 0.0002 31.0204 -0.0001
# 6 -0.0002 0.0000 -0.0002 -71.9199 -0.0001 36.3143
#
#
#
# Elastic Compliance Matrix: (Units=1/GPa)
#
#
# Indices 1 2 3 4 5 6 
#
# 1 0.011558 -0.006005 0.000524 0.000000 -0.001808 0.000000
# 2 -0.006005 0.016370 -0.004326 0.000000 0.002741 0.000000
# 3 0.000524 -0.004326 0.018333 0.000000 0.004349 0.000000
# 4 0.000000 0.000000 0.000000 -0.091072 0.000000 -0.180366
# 5 -0.001808 0.002741 0.004349 0.000000 0.034219 -0.000001
# 6 0.000000 0.000000 0.000000 -0.180366 -0.000001 -0.329674
#
#
# Mechanical properties :
#
#
# Convention : Reuss Voigt Hill
#
# Bulk Modulus (GPa) = 37.52923 42.83924 40.18423
# Shear Modulus (GPa) = -16.03744 52.05635 18.00946
#
# Velocity S-wave (km/s) = -2.99536 5.39658 3.17419
# Velocity P-wave (km/s) = 3.00548 7.92448 5.99293
#
# Compressibility (1/GPa) = 0.02664590
#
# Stress axis : x y z
#
# Youngs Moduli (GPa) = 86.52057 61.08921 54.54730
#
# Poissons Ratio (x) = 0.36684 -0.02860
# Poissons Ratio (y) = 0.51956 0.23600
# Poissons Ratio (z) = -0.04537 0.26430
#
# Static dielectric constant tensor:
#      x y z
#    x 1.692680 0.000000 0.019200 
#    y 0.000000 1.579720 0.000000 
#    z 0.019200 0.000000 1.661070 
# 
# From -- ./inp_files/217787.got.cif
#   From: 2010.05.17/outbox.cif.g08.bks.cpg/sg12_109_cif.got.tgz:217787.got - 2010.06.03 13:09:07.
