data_PCOD9178518
_publ_section_title
;
Structure prediction by ZEFSAII (Michael W. Deem and Ramdas Pophale) SiO2 
 PCOD9178518
Probable space group: C 2/M
;
_chemical_formula_sum "Si O2"
_cell_formula_units_Z 64
_cell_length_a 31.241201
_cell_length_b 8.613766
_cell_length_c 16.494084
_cell_angle_alpha 90.000000
_cell_angle_beta 133.352357
_cell_angle_gamma 90.000000
_cell_volume 3227.531308
_symmetry_space_group_name_H-M "C 2/M"
_symmetry_group_IT_number 12
_symmetry_cell_setting 'monoclinic'
loop_
_space_group_symop_operation_xyz
x,y,z
-x,y,-z
-x,-y,-z
x,-y,z
1/2+x,1/2+y,z
1/2-x,1/2+y,-z
1/2-x,1/2-y,-z
1/2+x,1/2-y,z
loop_
_atom_site_type_symbol
_atom_site_label
_atom_site_fract_x
_atom_site_fract_y
_atom_site_fract_z
Si Si1 0.797632 0.184003 0.298914
Si Si2 0.828739 0.814248 0.859170
Si Si3 0.511778 0.313564 0.217494
Si Si4 0.197878 0.314652 0.875958
Si Si5 0.410389 0.318838 0.828914
Si Si6 0.812384 0.324290 0.595826
Si Si7 0.391335 0.175073 0.540046
Si Si8 0.883321 0.315634 0.086337
O O1 0.734916 0.249845 0.250152
O O2 0.802067 0.235998 0.211310
O O3 0.854769 0.246564 0.420595
O O4 0.795420 0.000000 0.302833
O O5 0.886344 0.755927 0.883435
O O6 0.827064 0.000000 0.849279
O O7 0.839973 0.765791 0.966000
O O8 0.509121 0.500000 0.209431
O O9 0.538977 0.255973 0.165777
O O10 0.555014 0.265034 0.347275
O O11 0.448269 0.244715 0.152629
O O12 0.204797 0.500000 0.874811
O O13 0.138939 0.284217 0.851655
O O14 0.250000 0.250000 0.000000
O O15 0.424290 0.500000 0.859264
O O16 0.351656 0.291356 0.699967
O O17 0.809936 0.500000 0.627428
O O18 0.750000 0.250000 0.500000
O O19 0.844472 0.335596 0.551771
O O20 0.409985 0.000000 0.542022
O O21 0.879707 0.500000 0.068650
#
# Coordination Sequence:
#
# PCOD9178518 Si02
#       8
#     8   8   8   8   8   8   8   8
#     4  12  24  38  60  92 125 155 195 246 302 360
#     4  11  22  37  59  87 121 159 201 248 299 351
#     4  10  21  40  63  86 118 160 204 246 292 348
#     4  11  23  41  65  91 121 154 193 241 299 359
#     4   9  20  36  54  80 114 155 200 243 288 344
#     4  10  19  30  49  76 109 151 195 241 292 346
#     4  10  21  38  58  83 117 157 199 243 295 350
#     4  11  24  41  62  89 119 154 197 245 298 358
#
# _framework density 19.829398000000001
#
# number of rings (size 3 to 8) (size 9 to 14) (size 15 to 20)
#    0.000    1.500    1.250    4.125    0.000    8.000 
#    0.000    3.125    0.000    3.750    0.000    0.000 
#    0.000    0.000    0.000    0.000    0.000    0.000 
#
# Total GULP energy -178624.117507 kJ/mol
# GULP energy per Si atom -5582.003672 kJ/mol
# Density = 1.978427 g / cm^3
# Si number density = 19.829398 Si / 1000 Ang^3
#
#
#
# Elastic Constant Matrix: (Units=GPa)
#
#
# Indices 1 2 3 4 5 6 
#
# 1 91.0370 18.6316 9.7681 0.0000 -2.1529 0.0000
# 2 18.6316 60.3054 2.2363 0.0000 -7.9377 0.0000
# 3 9.7681 2.2363 40.4349 0.0000 -16.4603 0.0000
# 4 0.0000 0.0000 0.0000 28.6128 0.0000 1.9741
# 5 -2.1529 -7.9377 -16.4603 0.0000 27.5017 0.0000
# 6 0.0000 0.0000 0.0000 1.9741 0.0000 20.4623
#
#
#
# Elastic Compliance Matrix: (Units=1/GPa)
#
#
# Indices 1 2 3 4 5 6 
#
# 1 0.012127 -0.003924 -0.003685 0.000000 -0.002389 0.000000
# 2 -0.003924 0.018569 0.002615 0.000000 0.006617 0.000000
# 3 -0.003685 0.002615 0.033935 0.000000 0.020777 0.000000
# 4 0.000000 0.000000 0.000000 0.035184 0.000000 -0.003394
# 5 -0.002389 0.006617 0.020777 0.000000 0.050520 0.000000
# 6 0.000000 0.000000 0.000000 -0.003394 0.000000 0.049198
#
#
# Mechanical properties :
#
#
# Convention : Reuss Voigt Hill
#
# Bulk Modulus (GPa) = 18.30127 28.11658 23.20892
# Shear Modulus (GPa) = 21.95550 26.05812 24.00681
#
# Velocity S-wave (km/s) = 3.33110 3.62901 3.48324
# Velocity P-wave (km/s) = 4.90351 5.63645 5.28271
#
# Compressibility (1/GPa) = 0.05464102
#
# Stress axis : x y z
#
# Youngs Moduli (GPa) = 82.46341 53.85397 29.46851
#
# Poissons Ratio (x) = 0.21134 0.10859
# Poissons Ratio (y) = 0.32361 -0.07706
# Poissons Ratio (z) = 0.30387 -0.14082
#
# Static dielectric constant tensor:
#      x y z
#    x 1.722680 0.000000 -0.035360 
#    y 0.000000 1.696580 0.000000 
#    z -0.035360 0.000000 1.642550 
# 
# From -- ./inp_files/249931.got.cif
#   From: 2010.05.17/outbox.cif.g08.bks.cpg/sg12_125_cif.got.tgz:249931.got - 2010.06.03 13:09:07.
