data_PCOD9178863
_publ_section_title
;
Structure prediction by ZEFSAII (Michael W. Deem and Ramdas Pophale) SiO2 
 PCOD9178863
Probable space group: C 2/M
;
_chemical_formula_sum "Si O2"
_cell_formula_units_Z 48
_cell_length_a 23.571450
_cell_length_b 7.627937
_cell_length_c 14.578115
_cell_angle_alpha 90.000000
_cell_angle_beta 103.263583
_cell_angle_gamma 90.000000
_cell_volume 2551.247546
_symmetry_space_group_name_H-M "C 2/M"
_symmetry_group_IT_number 12
_symmetry_cell_setting 'monoclinic'
loop_
_space_group_symop_operation_xyz
x,y,z
-x,y,-z
-x,-y,-z
x,-y,z
1/2+x,1/2+y,z
1/2-x,1/2+y,-z
1/2-x,1/2-y,-z
1/2+x,1/2-y,z
loop_
_atom_site_type_symbol
_atom_site_label
_atom_site_fract_x
_atom_site_fract_y
_atom_site_fract_z
Si Si1 0.952762 0.210649 0.856589
Si Si2 0.799913 0.210909 0.092010
Si Si3 0.688304 0.208169 0.526009
Si Si4 0.742205 0.704686 0.728697
Si Si5 0.141216 0.709125 0.325460
Si Si6 0.081249 0.214479 0.955115
O O1 0.916503 0.261043 0.754080
O O2 0.019857 0.269728 0.887498
O O3 0.953939 0.000000 0.860345
O O4 0.921112 0.269949 0.938947
O O5 0.780565 0.280609 0.184327
O O6 0.861742 0.276874 0.076746
O O7 0.805724 0.000000 0.101634
O O8 0.750000 0.250000 0.000000
O O9 0.750000 0.250000 0.500000
O O10 0.694592 0.284373 0.629808
O O11 0.643106 0.273296 0.431669
O O12 0.682243 0.000000 0.535598
O O13 0.754269 0.500000 0.750778
O O14 0.802814 0.780860 0.710752
O O15 0.150259 0.500000 0.336176
O O16 0.082036 0.000000 0.955434
#
# Coordination Sequence:
#
# PCOD9178863 Si02
#       6
#     8   8   8   8   8   8
#     4   9  16  28  47  66  85 115 152 183 214 260
#     4  10  19  31  47  67  93 121 148 182 223 267
#     4   9  17  29  45  65  91 119 147 183 225 266
#     4   9  18  30  44  65  93 121 148 182 223 266
#     4   9  17  28  42  65  92 112 138 181 226 261
#     4   8  16  30  45  64  90 117 147 183 219 255
#
# _framework density 18.814325
#
# number of rings (size 3 to 8) (size 9 to 14) (size 15 to 20)
#    0.000    3.000    0.000    3.500    0.000    4.000 
#    0.000    2.500    0.000    1.000    0.000    7.000 
#    0.000    0.000    0.000    0.000    0.000    0.000 
#
# Total GULP energy -133705.316910 kJ/mol
# GULP energy per Si atom -5571.054871 kJ/mol
# Density = 1.877150 g / cm^3
# Si number density = 18.814325 Si / 1000 Ang^3
#
#
#
# Elastic Constant Matrix: (Units=GPa)
#
#
# Indices 1 2 3 4 5 6 
#
# 1 81.1020 -1.8687 56.9818 0.0000 -5.0504 0.0000
# 2 -1.8687 30.9150 -16.2516 0.0000 -5.9848 0.0000
# 3 56.9818 -16.2516 159.4037 0.0000 3.6992 0.0000
# 4 0.0000 0.0000 0.0000 22.2448 0.0000 8.1656
# 5 -5.0504 -5.9848 3.6992 0.0000 26.9719 0.0000
# 6 0.0000 0.0000 0.0000 8.1656 0.0000 8.6904
#
#
#
# Elastic Compliance Matrix: (Units=1/GPa)
#
#
# Indices 1 2 3 4 5 6 
#
# 1 0.016955 -0.001576 -0.006307 0.000000 0.003690 0.000000
# 2 -0.001576 0.035748 0.004044 0.000000 0.007082 0.000000
# 3 -0.006307 0.004044 0.008975 0.000000 -0.001515 0.000000
# 4 0.000000 0.000000 0.000000 0.068623 0.000000 -0.064479
# 5 0.003690 0.007082 -0.001515 0.000000 0.039546 0.000000
# 6 0.000000 0.000000 0.000000 -0.064479 0.000000 0.175654
#
#
# Mechanical properties :
#
#
# Convention : Reuss Voigt Hill
#
# Bulk Modulus (GPa) = 18.51881 38.79374 28.65628
# Shear Modulus (GPa) = 13.47049 27.08537 20.27793
#
# Velocity S-wave (km/s) = 2.67866 3.79834 3.28654
# Velocity P-wave (km/s) = 4.40809 6.31669 5.44664
#
# Compressibility (1/GPa) = 0.05399915
#
# Stress axis : x y z
#
# Youngs Moduli (GPa) = 58.97941 27.97330 111.41501
#
# Poissons Ratio (x) = 0.04410 0.70272
# Poissons Ratio (y) = 0.09298 -0.45054
# Poissons Ratio (z) = 0.37200 -0.11312
#
# Static dielectric constant tensor:
#      x y z
#    x 1.639400 0.000000 -0.000650 
#    y 0.000000 1.738020 0.000000 
#    z -0.000650 0.000000 1.681500 
# 
# From -- ./inp_files/230393.got.cif
#   From: 2010.05.17/outbox.cif.g08.bks.cpg/sg12_116_cif.got.tgz:230393.got - 2010.06.03 13:09:07.
