data_PCOD9178539
_publ_section_title
;
Structure prediction by ZEFSAII (Michael W. Deem and Ramdas Pophale) SiO2 
 PCOD9178539
Probable space group: C 2/M
;
_chemical_formula_sum "Si O2"
_cell_formula_units_Z 48
_cell_length_a 14.470471
_cell_length_b 21.504779
_cell_length_c 7.978382
_cell_angle_alpha 90.000000
_cell_angle_beta 104.631121
_cell_angle_gamma 90.000000
_cell_volume 2402.236823
_symmetry_space_group_name_H-M "C 2/M"
_symmetry_group_IT_number 12
_symmetry_cell_setting 'monoclinic'
loop_
_space_group_symop_operation_xyz
x,y,z
-x,y,-z
-x,-y,-z
x,-y,z
1/2+x,1/2+y,z
1/2-x,1/2+y,-z
1/2-x,1/2-y,-z
1/2+x,1/2-y,z
loop_
_atom_site_type_symbol
_atom_site_label
_atom_site_fract_x
_atom_site_fract_y
_atom_site_fract_z
Si Si1 0.994061 0.759885 0.301589
Si Si2 0.949555 0.097908 0.301765
Si Si3 0.144892 0.932078 0.283850
Si Si4 0.759338 0.067993 0.041141
Si Si5 0.296749 0.697594 0.634720
Si Si6 0.319967 0.194204 0.087920
O O1 0.943307 0.827312 0.289815
O O2 0.928274 0.716375 0.158649
O O3 0.000000 0.738499 0.500000
O O4 0.098973 0.773678 0.274949
O O5 0.847131 0.071801 0.210402
O O6 0.000000 0.080305 0.500000
O O7 0.031319 0.076019 0.210935
O O8 0.177846 0.872815 0.410361
O O9 0.166359 0.000000 0.365957
O O10 0.192518 0.929170 0.122374
O O11 0.711940 0.000000 0.035217
O O12 0.696487 0.130668 0.021755
O O13 0.250000 0.750000 0.500000
O O14 0.220712 0.685209 0.744093
O O15 0.250000 0.250000 0.000000
#
# Coordination Sequence:
#
# PCOD9178539 Si02
#       6
#     8   8   8   8   8   8
#     4  10  19  34  55  79 110 139 176 224 267 315
#     4  10  19  30  49  77 109 140 172 212 272 329
#     4   9  19  32  48  72 107 141 174 213 263 327
#     4  10  20  34  51  74 107 143 178 219 265 318
#     4  10  20  34  56  79 106 144 180 220 273 318
#     4  11  21  35  56  80 109 140 183 221 266 319
#
# _framework density 19.981377999999999
#
# number of rings (size 3 to 8) (size 9 to 14) (size 15 to 20)
#    0.000    2.000    3.333    1.000    0.000    3.333 
#    0.000    0.000    0.000    1.500    0.000    1.167 
#    0.000    0.000    0.000    0.000    0.000    0.000 
#
# Total GULP energy -133751.096866 kJ/mol
# GULP energy per Si atom -5572.962369 kJ/mol
# Density = 1.993590 g / cm^3
# Si number density = 19.981378 Si / 1000 Ang^3
#
#
#
# Elastic Constant Matrix: (Units=GPa)
#
#
# Indices 1 2 3 4 5 6 
#
# 1 56.6875 30.1904 8.0885 0.0000 20.6493 0.0000
# 2 30.1904 170.8482 56.6553 0.0000 40.7438 0.0000
# 3 8.0885 56.6553 43.9988 0.0000 17.1752 0.0000
# 4 0.0000 0.0000 0.0000 20.9148 0.0000 0.4701
# 5 20.6493 40.7438 17.1752 0.0000 26.7219 0.0000
# 6 0.0000 0.0000 0.0000 0.4701 0.0000 18.1599
#
#
#
# Elastic Compliance Matrix: (Units=1/GPa)
#
#
# Indices 1 2 3 4 5 6 
#
# 1 0.025149 -0.001092 0.004964 0.000000 -0.020960 0.000000
# 2 -0.001092 0.012460 -0.011690 0.000000 -0.010642 0.000000
# 3 0.004964 -0.011690 0.041927 0.000000 -0.012960 0.000000
# 4 0.000000 0.000000 0.000000 0.047841 0.000000 -0.001238
# 5 -0.020960 -0.010642 -0.012960 0.000000 0.078175 0.000000
# 6 0.000000 0.000000 0.000000 -0.001238 0.000000 0.055099
#
#
# Mechanical properties :
#
#
# Convention : Reuss Voigt Hill
#
# Bulk Modulus (GPa) = 15.64915 51.26698 33.45807
# Shear Modulus (GPa) = 16.80190 24.93266 20.86728
#
# Velocity S-wave (km/s) = 2.90294 3.53625 3.23513
# Velocity P-wave (km/s) = 4.36863 6.51049 5.54398
#
# Compressibility (1/GPa) = 0.06390125
#
# Stress axis : x y z
#
# Youngs Moduli (GPa) = 39.76378 80.25409 23.85093
#
# Poissons Ratio (x) = 0.08762 -0.11841
# Poissons Ratio (y) = 0.04341 0.27882
# Poissons Ratio (z) = -0.19740 0.93817
#
# Static dielectric constant tensor:
#      x y z
#    x 1.714990 0.000000 -0.034670 
#    y 0.000000 1.797150 0.000000 
#    z -0.034670 0.000000 1.718680 
# 
# From -- ./inp_files/63320.got.cif
#   From: 2010.05.17/outbox.cif.g08.bks.cpg/sg12_32_cif.got.tgz:63320.got - 2010.06.03 13:09:07.
