data_PCOD9178793
_publ_section_title
;
Structure prediction by ZEFSAII (Michael W. Deem and Ramdas Pophale) SiO2 
 PCOD9178793
Probable space group: C 2/M
;
_chemical_formula_sum "Si O2"
_cell_formula_units_Z 48
_cell_length_a 24.430828
_cell_length_b 8.965781
_cell_length_c 15.728175
_cell_angle_alpha 90.000000
_cell_angle_beta 57.682482
_cell_angle_gamma 90.000000
_cell_volume 2911.467414
_symmetry_space_group_name_H-M "C 2/M"
_symmetry_group_IT_number 12
_symmetry_cell_setting 'monoclinic'
loop_
_space_group_symop_operation_xyz
x,y,z
-x,y,-z
-x,-y,-z
x,-y,z
1/2+x,1/2+y,z
1/2-x,1/2+y,-z
1/2-x,1/2-y,-z
1/2+x,1/2-y,z
loop_
_atom_site_type_symbol
_atom_site_label
_atom_site_fract_x
_atom_site_fract_y
_atom_site_fract_z
Si Si1 0.965694 0.180233 0.116471
Si Si2 0.997579 0.327590 0.264103
Si Si3 0.655992 0.171369 0.572742
Si Si4 0.680280 0.321203 0.726569
Si Si5 0.819486 0.680322 0.642291
Si Si6 0.053989 0.821101 0.384063
O O1 0.889918 0.228384 0.180909
O O2 0.000436 0.250752 0.169573
O O3 0.967193 0.000000 0.123258
O O4 0.000000 0.221395 0.000000
O O5 0.018172 0.500000 0.242922
O O6 0.034058 0.242661 0.309057
O O7 0.921500 0.324478 0.351537
O O8 0.684561 0.267314 0.625518
O O9 0.670272 0.220157 0.465411
O O10 0.677836 0.000000 0.564163
O O11 0.680196 0.500000 0.726511
O O12 0.745096 0.275027 0.722763
O O13 0.825838 0.500000 0.644620
O O14 0.876271 0.757695 0.647130
O O15 0.000000 0.775483 0.500000
O O16 0.055088 0.000000 0.381144
#
# Coordination Sequence:
#
# PCOD9178793 Si02
#       6
#     8   8   8   8   8   8
#     4   9  18  34  55  77 102 129 160 206 257 297
#     4  10  19  32  51  74 101 131 167 207 244 290
#     4   9  17  28  44  67  97 131 161 196 242 287
#     4   9  18  30  47  71  97 128 165 201 243 294
#     4  10  19  31  46  67  99 135 167 199 238 288
#     4  11  22  33  48  71 100 136 173 203 236 289
#
# _framework density 16.486533000000001
#
# number of rings (size 3 to 8) (size 9 to 14) (size 15 to 20)
#    0.000    2.333    1.667    1.500    0.000    3.000 
#    0.000    0.000    0.000    1.000    0.000    0.000 
#    0.000    0.000    0.000    0.000    0.000    0.000 
#
# Total GULP energy -133801.610456 kJ/mol
# GULP energy per Si atom -5575.067102 kJ/mol
# Density = 1.644901 g / cm^3
# Si number density = 16.486533 Si / 1000 Ang^3
#
#
#
# Elastic Constant Matrix: (Units=GPa)
#
#
# Indices 1 2 3 4 5 6 
#
# 1 147.6164 48.6198 60.3492 0.0000 12.7793 0.0000
# 2 48.6198 32.6926 35.6411 0.0000 4.4108 0.0000
# 3 60.3492 35.6411 103.8833 0.0000 13.6051 0.0000
# 4 0.0000 0.0000 0.0000 18.6405 0.0000 6.9299
# 5 12.7793 4.4108 13.6051 0.0000 12.4692 0.0000
# 6 0.0000 0.0000 0.0000 6.9299 0.0000 27.1755
#
#
#
# Elastic Compliance Matrix: (Units=1/GPa)
#
#
# Indices 1 2 3 4 5 6 
#
# 1 0.013904 -0.019050 -0.000650 0.000000 -0.006801 0.000000
# 2 -0.019050 0.074982 -0.016033 0.000000 0.010493 0.000000
# 3 -0.000650 -0.016033 0.017121 0.000000 -0.012343 0.000000
# 4 0.000000 0.000000 0.000000 0.059265 0.000000 -0.015113
# 5 -0.006801 0.010493 -0.012343 0.000000 0.096923 0.000000
# 6 0.000000 0.000000 0.000000 -0.015113 0.000000 0.040652
#
#
# Mechanical properties :
#
#
# Convention : Reuss Voigt Hill
#
# Bulk Modulus (GPa) = 28.95207 63.71252 46.33229
# Shear Modulus (GPa) = 12.95916 20.96252 16.96084
#
# Velocity S-wave (km/s) = 2.80669 3.56967 3.21092
# Velocity P-wave (km/s) = 5.30118 7.46453 6.47386
#
# Compressibility (1/GPa) = 0.03453985
#
# Stress axis : x y z
#
# Youngs Moduli (GPa) = 71.92417 13.33646 58.40738
#
# Poissons Ratio (x) = 0.25407 0.03799
# Poissons Ratio (y) = 1.37019 0.93643
# Poissons Ratio (z) = 0.04678 0.21382
#
# Static dielectric constant tensor:
#      x y z
#    x 1.564550 0.000000 -0.030280 
#    y 0.000000 1.559420 0.000000 
#    z -0.030280 0.000000 1.539870 
# 
# From -- ./inp_files/172403.got.cif
#   From: 2010.05.17/outbox.cif.g08.bks.cpg/sg12_87_cif.got.tgz:172403.got - 2010.06.03 13:09:07.
