data_PCOD9178487
_publ_section_title
;
Structure prediction by ZEFSAII (Michael W. Deem and Ramdas Pophale) SiO2 
 PCOD9178487
Probable space group: C 2/M
;
_chemical_formula_sum "Si O2"
_cell_formula_units_Z 56
_cell_length_a 14.575092
_cell_length_b 29.453080
_cell_length_c 8.202385
_cell_angle_alpha 90.000000
_cell_angle_beta 62.163965
_cell_angle_gamma 90.000000
_cell_volume 3113.691967
_symmetry_space_group_name_H-M "C 2/M"
_symmetry_group_IT_number 12
_symmetry_cell_setting 'monoclinic'
loop_
_space_group_symop_operation_xyz
x,y,z
-x,y,-z
-x,-y,-z
x,-y,z
1/2+x,1/2+y,z
1/2-x,1/2+y,-z
1/2-x,1/2-y,-z
1/2+x,1/2-y,z
loop_
_atom_site_type_symbol
_atom_site_label
_atom_site_fract_x
_atom_site_fract_y
_atom_site_fract_z
Si Si1 0.610040 0.205872 0.447688
Si Si2 0.116196 0.917350 0.888417
Si Si3 0.114390 0.052876 0.557838
Si Si4 0.162780 0.179394 0.728999
Si Si5 0.391728 0.220694 0.163713
Si Si6 0.613870 0.598859 0.243790
Si Si7 0.664004 0.306456 0.335430
O O1 0.500000 0.184180 0.500000
O O2 0.715092 0.178844 0.325964
O O3 0.611091 0.214178 0.639947
O O4 0.617852 0.255666 0.355101
O O5 0.167782 0.940840 0.689340
O O6 0.108822 0.865094 0.839304
O O7 0.162019 0.916015 0.031555
O O8 0.000000 0.937592 0.000000
O O9 0.166674 0.076575 0.358880
O O10 0.003240 0.078785 0.663029
O O11 0.098292 0.000000 0.539427
O O12 0.119702 0.225102 0.845601
O O13 0.154966 0.182650 0.537649
O O14 0.285897 0.197611 0.189106
O O15 0.500000 0.204796 0.000000
O O16 0.613346 0.652956 0.275004
#
# Coordination Sequence:
#
# PCOD9178487 Si02
#       7
#     8   8   8   8   8   8   8
#     4   9  19  29  46  65  93 135 167 206 244 281
#     4  10  20  30  49  73  94 131 166 199 235 290
#     4  10  21  35  49  70 104 131 154 201 250 294
#     4   9  17  33  44  64  98 132 168 204 245 284
#     4   9  18  31  46  65  95 131 168 212 241 276
#     4  10  19  30  49  71  92 131 165 192 235 292
#     4   9  18  31  47  65  95 134 169 199 247 287
#
# _framework density 17.98508
#
# number of rings (size 3 to 8) (size 9 to 14) (size 15 to 20)
#    0.000    2.571    1.429    3.000    2.000    6.571 
#    0.000    2.857    0.000    0.000    0.000    0.000 
#    0.000    2.857    1.714    0.000    0.000    0.000 
#
# Total GULP energy -155965.790862 kJ/mol
# GULP energy per Si atom -5570.206817 kJ/mol
# Density = 1.794415 g / cm^3
# Si number density = 17.985080 Si / 1000 Ang^3
#
#
#
# Elastic Constant Matrix: (Units=GPa)
#
#
# Indices 1 2 3 4 5 6 
#
# 1 35.5736 -3.3763 13.5645 0.0000 -6.2988 0.0000
# 2 -3.3763 51.4428 7.6574 0.0000 4.7349 0.0000
# 3 13.5645 7.6574 79.4566 0.0000 11.9904 0.0000
# 4 0.0000 0.0000 0.0000 -3.6724 0.0000 3.4159
# 5 -6.2988 4.7349 11.9904 0.0000 36.2433 0.0000
# 6 0.0000 0.0000 0.0000 3.4159 0.0000 10.7585
#
#
#
# Elastic Compliance Matrix: (Units=1/GPa)
#
#
# Indices 1 2 3 4 5 6 
#
# 1 0.032314 0.002450 -0.006896 0.000000 0.007577 0.000000
# 2 0.002450 0.020054 -0.002126 0.000000 -0.001491 0.000000
# 3 -0.006896 -0.002126 0.014848 0.000000 -0.005833 0.000000
# 4 0.000000 0.000000 0.000000 -0.210215 0.000000 0.066746
# 5 0.007577 -0.001491 -0.005833 0.000000 0.031033 0.000000
# 6 0.000000 0.000000 0.000000 0.066746 0.000000 0.071757
#
#
# Mechanical properties :
#
#
# Convention : Reuss Voigt Hill
#
# Bulk Modulus (GPa) = 18.49398 22.46268 20.47833
# Shear Modulus (GPa) = -553.04401 18.57437 -267.23482
#
# Velocity S-wave (km/s) = -17.55475 3.21715 -12.20285
# Velocity P-wave (km/s) = 20.01467 5.12999 13.67973
#
# Compressibility (1/GPa) = 0.05407166
#
# Stress axis : x y z
#
# Youngs Moduli (GPa) = 30.94586 49.86653 67.34968
#
# Poissons Ratio (x) = -0.12217 0.46446
# Poissons Ratio (y) = -0.07582 0.14318
# Poissons Ratio (z) = 0.21341 0.10601
#
# Static dielectric constant tensor:
#      x y z
#    x 1.683340 0.000000 0.050340 
#    y 0.000000 1.610990 0.000000 
#    z 0.050340 0.000000 1.684860 
# 
# From -- ./inp_files/67788.got.cif
#   From: 2010.05.17/outbox.cif.g08.bks.cpg/sg12_34_cif.got.tgz:67788.got - 2010.06.03 13:09:07.
