data_PCOD9178527
_publ_section_title
;
Structure prediction by ZEFSAII (Michael W. Deem and Ramdas Pophale) SiO2 
 PCOD9178527
Probable space group: C 2/M
;
_chemical_formula_sum "Si O2"
_cell_formula_units_Z 48
_cell_length_a 28.220200
_cell_length_b 9.057828
_cell_length_c 16.197909
_cell_angle_alpha 90.000000
_cell_angle_beta 42.902838
_cell_angle_gamma 90.000000
_cell_volume 2818.612184
_symmetry_space_group_name_H-M "C 2/M"
_symmetry_group_IT_number 12
_symmetry_cell_setting 'monoclinic'
loop_
_space_group_symop_operation_xyz
x,y,z
-x,y,-z
-x,-y,-z
x,-y,z
1/2+x,1/2+y,z
1/2-x,1/2+y,-z
1/2-x,1/2-y,-z
1/2+x,1/2-y,z
loop_
_atom_site_type_symbol
_atom_site_label
_atom_site_fract_x
_atom_site_fract_y
_atom_site_fract_z
Si Si1 0.749369 0.323880 0.410771
Si Si2 0.112315 0.175977 0.826778
Si Si3 0.030728 0.673626 0.268707
Si Si4 0.976049 0.175371 0.896458
Si Si5 0.420184 0.330305 0.635108
Si Si6 0.627092 0.174158 0.464484
O O1 0.746851 0.500000 0.421066
O O2 0.750000 0.250000 0.500000
O O3 0.819434 0.269995 0.276264
O O4 0.683399 0.263408 0.444684
O O5 0.052599 0.210500 0.835349
O O6 0.127351 0.000000 0.801443
O O7 0.077596 0.202788 0.960320
O O8 0.045668 0.500000 0.253517
O O9 0.040083 0.736362 0.165381
O O10 0.075803 0.758707 0.279781
O O11 0.949465 0.693803 0.397625
O O12 0.975110 0.000000 0.880187
O O13 0.500000 0.329471 0.500000
O O14 0.396753 0.500000 0.667362
O O15 0.377835 0.236203 0.622246
O O16 0.643198 0.000000 0.444159
#
# Coordination Sequence:
#
# PCOD9178527 Si02
#       6
#     8   8   8   8   8   8
#     4  12  24  36  52  75 103 136 171 206 248 299
#     4   9  19  36  54  74 101 133 169 208 252 299
#     4  10  19  30  49  77 105 133 168 209 251 296
#     4   9  18  33  54  76 100 132 168 208 252 299
#     4   9  17  30  49  73 101 133 168 207 251 298
#     4  10  20  34  51  74 105 137 168 207 253 298
#
# _framework density 17.029657
#
# number of rings (size 3 to 8) (size 9 to 14) (size 15 to 20)
#    0.000    2.167    0.000    5.000    0.000    8.000 
#    0.000    1.667    0.000    1.000    0.000    0.000 
#    0.000    0.000    0.000    0.000    0.000    0.000 
#
# Total GULP energy -133972.681208 kJ/mol
# GULP energy per Si atom -5582.195050 kJ/mol
# Density = 1.699090 g / cm^3
# Si number density = 17.029657 Si / 1000 Ang^3
#
#
#
# Elastic Constant Matrix: (Units=GPa)
#
#
# Indices 1 2 3 4 5 6 
#
# 1 111.9151 69.5327 34.1595 -0.0007 24.0154 0.0003
# 2 69.5327 112.8956 43.3069 -0.0015 8.0720 0.0007
# 3 34.1595 43.3069 33.3403 -0.0013 11.3776 0.0006
# 4 -0.0007 -0.0015 -0.0013 26.9904 0.0006 4.8223
# 5 24.0154 8.0720 11.3776 0.0006 28.7275 -0.0003
# 6 0.0003 0.0007 0.0006 4.8223 -0.0003 33.5957
#
#
#
# Elastic Compliance Matrix: (Units=1/GPa)
#
#
# Indices 1 2 3 4 5 6 
#
# 1 0.017871 -0.009288 -0.002356 0.000000 -0.011396 0.000000
# 2 -0.009288 0.023065 -0.024145 0.000000 0.010846 0.000000
# 3 -0.002356 -0.024145 0.070282 0.000003 -0.019081 -0.000001
# 4 0.000000 0.000000 0.000003 0.038025 -0.000002 -0.005458
# 5 -0.011396 0.010846 -0.019081 -0.000002 0.048846 0.000001
# 6 0.000000 0.000000 -0.000001 -0.005458 0.000001 0.030549
#
#
# Mechanical properties :
#
#
# Convention : Reuss Voigt Hill
#
# Bulk Modulus (GPa) = 25.22738 61.34990 43.28864
# Shear Modulus (GPa) = 15.95259 25.27286 20.61272
#
# Velocity S-wave (km/s) = 3.06396 3.85652 3.48286
# Velocity P-wave (km/s) = 5.23098 7.47889 6.45356
#
# Compressibility (1/GPa) = 0.03963947
#
# Stress axis : x y z
#
# Youngs Moduli (GPa) = 55.95798 43.35656 14.22841
#
# Poissons Ratio (x) = 0.40269 0.03353
# Poissons Ratio (y) = 0.51973 0.34354
# Poissons Ratio (z) = 0.13185 1.04683
#
# Static dielectric constant tensor:
#      x y z
#    x 1.555930 0.000000 0.001410 
#    y 0.000000 1.564730 0.000000 
#    z 0.001410 0.000000 1.561880 
# 
# From -- ./inp_files/244618.got.cif
#   From: 2010.05.17/outbox.cif.g08.bks.cpg/sg12_123_cif.got.tgz:244618.got - 2010.06.03 13:09:07.
