data_PCOD9178445
_publ_section_title
;
Structure prediction by ZEFSAII (Michael W. Deem and Ramdas Pophale) SiO2 
 PCOD9178445
Probable space group: C 2/M
;
_chemical_formula_sum "Si O2"
_cell_formula_units_Z 48
_cell_length_a 24.861379
_cell_length_b 8.304746
_cell_length_c 23.605083
_cell_angle_alpha 90.000000
_cell_angle_beta 157.454048
_cell_angle_gamma 90.000000
_cell_volume 1868.687598
_symmetry_space_group_name_H-M "C 2/M"
_symmetry_group_IT_number 12
_symmetry_cell_setting 'monoclinic'
loop_
_space_group_symop_operation_xyz
x,y,z
-x,y,-z
-x,-y,-z
x,-y,z
1/2+x,1/2+y,z
1/2-x,1/2+y,-z
1/2-x,1/2-y,-z
1/2+x,1/2-y,z
loop_
_atom_site_type_symbol
_atom_site_label
_atom_site_fract_x
_atom_site_fract_y
_atom_site_fract_z
Si Si1 0.715510 0.306724 0.029645
Si Si2 0.188373 0.191552 0.636734
Si Si3 0.075971 0.693745 0.286333
Si Si4 0.693032 0.184531 0.766951
Si Si5 0.495747 0.184528 0.062827
Si Si6 0.383290 0.809559 0.549658
O O1 0.721370 0.500000 0.036464
O O2 0.554466 0.246157 0.879072
O O3 0.750000 0.250000 0.000000
O O4 0.821826 0.248263 0.182809
O O5 0.154960 0.238425 0.669220
O O6 0.346167 0.247885 0.774009
O O7 0.091731 0.248554 0.490407
O O8 0.190799 0.000000 0.637264
O O9 0.089391 0.500000 0.299382
O O10 0.220647 0.768654 0.406021
O O11 0.049457 0.748726 0.325448
O O12 0.647977 0.000000 0.720492
O O13 0.863666 0.196228 0.936417
O O14 0.474030 0.000000 0.065006
O O15 0.500000 0.156404 0.000000
O O16 0.404340 0.000000 0.568543
#
# Coordination Sequence:
#
# PCOD9178445 Si02
#       6
#     8   8   8   8   8   8
#     4  11  24  40  59  81 107 143 187 234 280 327
#     4  10  19  30  48  75 107 143 178 216 268 327
#     4  10  21  37  57  82 114 150 187 227 273 325
#     4  10  20  32  48  73 103 135 174 222 273 324
#     4   8  15  26  40  64  99 136 170 204 251 312
#     4  10  20  34  55  84 117 151 184 222 270 326
#
# _framework density 25.686477
#
# number of rings (size 3 to 8) (size 9 to 14) (size 15 to 20)
#    0.000    2.167    0.000    4.500    0.000   11.000 
#    0.000    0.000    0.000    1.000    0.000    7.000 
#    0.000    0.000    0.000    0.000    0.000    0.000 
#
# Total GULP energy -133956.573039 kJ/mol
# GULP energy per Si atom -5581.523877 kJ/mol
# Density = 2.562801 g / cm^3
# Si number density = 25.686477 Si / 1000 Ang^3
#
#
#
# Elastic Constant Matrix: (Units=GPa)
#
#
# Indices 1 2 3 4 5 6 
#
# 1 116.9639 15.8437 22.5130 -0.0001 -43.3749 0.0001
# 2 15.8437 34.7113 5.3909 0.0000 -8.0668 0.0001
# 3 22.5130 5.3909 160.6541 0.0000 -51.3327 0.0001
# 4 -0.0001 0.0000 0.0000 -66.9696 -0.0001 21.3731
# 5 -43.3749 -8.0668 -51.3327 -0.0001 63.1635 0.0001
# 6 0.0001 0.0001 0.0001 21.3731 0.0001 25.8662
#
#
#
# Elastic Compliance Matrix: (Units=1/GPa)
#
#
# Indices 1 2 3 4 5 6 
#
# 1 0.012087 -0.003654 0.001259 0.000000 0.008856 0.000000
# 2 -0.003654 0.030805 -0.000090 0.000000 0.001352 0.000000
# 3 0.001259 -0.000090 0.008542 0.000000 0.007795 0.000000
# 4 0.000000 0.000000 0.000000 -0.011816 0.000000 0.009764
# 5 0.008856 0.001352 0.007795 0.000000 0.028421 0.000000
# 6 0.000000 0.000000 0.000000 0.009764 0.000000 0.030593
#
#
# Mechanical properties :
#
#
# Convention : Reuss Voigt Hill
#
# Bulk Modulus (GPa) = 21.52244 44.42496 32.97370
# Shear Modulus (GPa) = 41.98532 22.31746 32.15139
#
# Velocity S-wave (km/s) = 4.04732 2.95081 3.54175
# Velocity P-wave (km/s) = 5.49892 5.37981 5.43969
#
# Compressibility (1/GPa) = 0.04646314
#
# Stress axis : x y z
#
# Youngs Moduli (GPa) = 82.73619 32.46218 117.07156
#
# Poissons Ratio (x) = 0.11862 -0.14735
# Poissons Ratio (y) = 0.30233 0.01049
# Poissons Ratio (z) = -0.10414 0.00291
#
# Static dielectric constant tensor:
#      x y z
#    x 2.488770 0.000000 0.162620 
#    y 0.000000 1.923090 0.000000 
#    z 0.162620 0.000000 2.151280 
# 
# From -- ./inp_files/351147.got.cif
#   From: 2010.05.17/outbox.cif.g08.bks.cpg/sg12_176_cif.got.tgz:351147.got - 2010.06.03 13:09:07.
