data_PCOD9178451
_publ_section_title
;
Structure prediction by ZEFSAII (Michael W. Deem and Ramdas Pophale) SiO2 
 PCOD9178451
Probable space group: C 2/M
;
_chemical_formula_sum "Si O2"
_cell_formula_units_Z 56
_cell_length_a 19.844104
_cell_length_b 8.898583
_cell_length_c 22.139601
_cell_angle_alpha 90.000000
_cell_angle_beta 124.333175
_cell_angle_gamma 90.000000
_cell_volume 3228.361971
_symmetry_space_group_name_H-M "C 2/M"
_symmetry_group_IT_number 12
_symmetry_cell_setting 'monoclinic'
loop_
_space_group_symop_operation_xyz
x,y,z
-x,y,-z
-x,-y,-z
x,-y,z
1/2+x,1/2+y,z
1/2-x,1/2+y,-z
1/2-x,1/2-y,-z
1/2+x,1/2-y,z
loop_
_atom_site_type_symbol
_atom_site_label
_atom_site_fract_x
_atom_site_fract_y
_atom_site_fract_z
Si Si1 0.622556 0.321626 0.453043
Si Si2 0.008996 0.317617 0.809009
Si Si3 0.784419 0.319541 0.205897
Si Si4 0.031033 0.680893 0.680222
Si Si5 0.310388 0.181122 0.079143
Si Si6 0.667754 0.819777 0.242392
Si Si7 0.242187 0.178602 0.399881
O O1 0.621709 0.500000 0.462176
O O2 0.532358 0.258617 0.396386
O O3 0.672726 0.241240 0.531404
O O4 0.674903 0.291176 0.418241
O O5 0.010075 0.500000 0.810221
O O6 0.008065 0.275579 0.737681
O O7 0.926405 0.267994 0.799505
O O8 0.095269 0.268382 0.880398
O O9 0.776661 0.500000 0.206331
O O10 0.786042 0.280310 0.135771
O O11 0.713368 0.241249 0.206882
O O12 0.873609 0.280158 0.278300
O O13 0.023246 0.500000 0.671611
O O14 0.308519 0.000000 0.073612
O O15 0.250000 0.250000 0.000000
O O16 0.714290 0.758344 0.324826
O O17 0.669033 0.000000 0.243719
O O18 0.246993 0.000000 0.393298
#
# Coordination Sequence:
#
# PCOD9178451 Si02
#       7
#     8   8   8   8   8   8   8
#     4  10  19  30  48  76 104 132 174 225 264 299
#     4   8  16  31  53  77 101 134 173 209 252 304
#     4   9  20  36  54  76 107 142 170 205 261 317
#     4   9  16  32  54  72  97 137 178 215 256 311
#     4   9  18  36  59  81 105 135 171 210 250 303
#     4  11  20  33  54  78 105 136 174 219 259 304
#     4  10  20  32  48  72 105 141 173 213 264 313
#
# _framework density 17.346257999999999
#
# number of rings (size 3 to 8) (size 9 to 14) (size 15 to 20)
#    0.000    2.571    1.429    3.000    0.000    2.286 
#    0.000    5.000    0.000    8.571    0.000    0.000 
#    0.000    0.000    0.000    0.000    0.000    0.000 
#
# Total GULP energy -156158.550385 kJ/mol
# GULP energy per Si atom -5577.091085 kJ/mol
# Density = 1.730678 g / cm^3
# Si number density = 17.346258 Si / 1000 Ang^3
#
#
#
# Elastic Constant Matrix: (Units=GPa)
#
#
# Indices 1 2 3 4 5 6 
#
# 1 126.8655 37.4509 66.1404 0.0000 15.4409 0.0000
# 2 37.4509 25.5861 35.4702 0.0000 1.2730 0.0000
# 3 66.1404 35.4702 125.3591 0.0000 25.6625 0.0000
# 4 0.0000 0.0000 0.0000 32.5789 0.0000 0.9093
# 5 15.4409 1.2730 25.6625 0.0000 20.0563 0.0000
# 6 0.0000 0.0000 0.0000 0.9093 0.0000 27.0212
#
#
#
# Elastic Compliance Matrix: (Units=1/GPa)
#
#
# Indices 1 2 3 4 5 6 
#
# 1 0.015938 -0.023682 0.000672 0.000000 -0.011627 0.000000
# 2 -0.023682 0.111364 -0.028861 0.000000 0.048091 0.000000
# 3 0.000672 -0.028861 0.021027 0.000000 -0.025590 0.000000
# 4 0.000000 0.000000 0.000000 0.030724 0.000000 -0.001034
# 5 -0.011627 0.048091 -0.025590 0.000000 0.088502 0.000000
# 6 0.000000 0.000000 0.000000 -0.001034 0.000000 0.037043
#
#
# Mechanical properties :
#
#
# Convention : Reuss Voigt Hill
#
# Bulk Modulus (GPa) = 22.42724 61.77041 42.09883
# Shear Modulus (GPa) = 11.81469 25.18122 18.49795
#
# Velocity S-wave (km/s) = 2.61264 3.81423 3.26911
# Velocity P-wave (km/s) = 4.69664 7.42195 6.21062
#
# Compressibility (1/GPa) = 0.04458863
#
# Stress axis : x y z
#
# Youngs Moduli (GPa) = 62.74256 8.97954 47.55720
#
# Poissons Ratio (x) = 0.21265 -0.03195
# Poissons Ratio (y) = 1.48586 1.37252
# Poissons Ratio (z) = -0.04215 0.25915
#
# Static dielectric constant tensor:
#      x y z
#    x 1.599860 0.000000 0.010640 
#    y 0.000000 1.578160 0.000000 
#    z 0.010640 0.000000 1.564060 
# 
# From -- ./inp_files/314375.got.cif
#   From: 2010.05.17/outbox.cif.g08.bks.cpg/sg12_158_cif.got.tgz:314375.got - 2010.06.03 13:09:07.
