data_PCOD9178918
_publ_section_title
;
Structure prediction by ZEFSAII (Michael W. Deem and Ramdas Pophale) SiO2 
 PCOD9178918
Probable space group: C 2/M
;
_chemical_formula_sum "Si O2"
_cell_formula_units_Z 48
_cell_length_a 24.398096
_cell_length_b 8.000159
_cell_length_c 21.587692
_cell_angle_alpha 90.000000
_cell_angle_beta 141.027344
_cell_angle_gamma 90.000000
_cell_volume 2650.186863
_symmetry_space_group_name_H-M "C 2/M"
_symmetry_group_IT_number 12
_symmetry_cell_setting 'monoclinic'
loop_
_space_group_symop_operation_xyz
x,y,z
-x,y,-z
-x,-y,-z
x,-y,z
1/2+x,1/2+y,z
1/2-x,1/2+y,-z
1/2-x,1/2-y,-z
1/2+x,1/2-y,z
loop_
_atom_site_type_symbol
_atom_site_label
_atom_site_fract_x
_atom_site_fract_y
_atom_site_fract_z
Si Si1 0.269114 0.202715 0.785880
Si Si2 0.772185 0.800924 0.927979
Si Si3 0.428751 0.699665 0.389534
Si Si4 0.051213 0.701823 0.107270
Si Si5 0.576492 0.801635 0.752720
Si Si6 0.052337 0.198946 0.861465
O O1 0.294532 0.267330 0.876158
O O2 0.170393 0.262627 0.686797
O O3 0.347507 0.252995 0.809693
O O4 0.267447 0.000000 0.786745
O O5 0.674808 0.731221 0.850094
O O6 0.768472 0.000000 0.935419
O O7 0.850928 0.729895 0.037656
O O8 0.500000 0.767801 0.500000
O O9 0.424879 0.500000 0.394642
O O10 0.453501 0.732471 0.339763
O O11 0.047554 0.500000 0.103430
O O12 0.007330 0.759118 0.132247
O O13 0.000000 0.759226 0.000000
O O14 0.524438 0.763218 0.769521
O O15 0.582571 0.000000 0.750567
O O16 0.058204 0.000000 0.862514
#
# Coordination Sequence:
#
# PCOD9178918 Si02
#       6
#     8   8   8   8   8   8
#     4   9  17  30  49  72  98 129 164 198 237 286
#     4   9  18  30  45  68  98 131 164 199 238 283
#     4   9  18  34  56  78  98 122 156 203 253 295
#     4  10  19  31  47  69  99 136 170 198 231 281
#     4  10  20  33  49  71  99 129 163 202 245 293
#     4  11  21  31  46  69 100 136 168 200 239 283
#
# _framework density 18.111929
#
# number of rings (size 3 to 8) (size 9 to 14) (size 15 to 20)
#    0.000    2.333    1.667    1.500    0.000    2.667 
#    0.000    0.000    0.000    1.000    0.000    0.000 
#    0.000    0.000    0.000    0.000    0.000    0.000 
#
# Total GULP energy -133790.447018 kJ/mol
# GULP energy per Si atom -5574.601959 kJ/mol
# Density = 1.807071 g / cm^3
# Si number density = 18.111929 Si / 1000 Ang^3
#
#
#
# Elastic Constant Matrix: (Units=GPa)
#
#
# Indices 1 2 3 4 5 6 
#
# 1 81.8421 -4.7533 54.0306 0.0000 -22.7115 0.0000
# 2 -4.7533 11.3868 4.3969 0.0000 5.3959 0.0000
# 3 54.0306 4.3969 120.4893 0.0000 -11.5858 0.0000
# 4 0.0000 0.0000 0.0000 14.2798 0.0000 -6.7230
# 5 -22.7115 5.3959 -11.5858 0.0000 16.3200 0.0000
# 6 0.0000 0.0000 0.0000 -6.7230 0.0000 23.9842
#
#
#
# Elastic Compliance Matrix: (Units=1/GPa)
#
#
# Indices 1 2 3 4 5 6 
#
# 1 0.026712 0.000066 -0.009024 0.000000 0.030745 0.000000
# 2 0.000066 0.111114 -0.008166 0.000000 -0.042443 0.000000
# 3 -0.009024 -0.008166 0.012553 0.000000 -0.000947 0.000000
# 4 0.000000 0.000000 0.000000 0.080676 0.000000 0.022614
# 5 0.030745 -0.042443 -0.000947 0.000000 0.117421 0.000000
# 6 0.000000 0.000000 0.000000 0.022614 0.000000 0.048033
#
#
# Mechanical properties :
#
#
# Convention : Reuss Voigt Hill
#
# Bulk Modulus (GPa) = 8.61092 35.67406 22.14249
# Shear Modulus (GPa) = 10.65035 21.58639 16.11837
#
# Velocity S-wave (km/s) = 2.42756 3.45604 2.98641
# Velocity P-wave (km/s) = 3.55275 5.97200 4.91359
#
# Compressibility (1/GPa) = 0.11613163
#
# Stress axis : x y z
#
# Youngs Moduli (GPa) = 37.43614 8.99975 79.66097
#
# Poissons Ratio (x) = -0.00059 0.71890
# Poissons Ratio (y) = -0.00247 0.65048
# Poissons Ratio (z) = 0.33784 0.07349
#
# Static dielectric constant tensor:
#      x y z
#    x 1.651290 0.000000 0.018830 
#    y 0.000000 1.636460 0.000000 
#    z 0.018830 0.000000 1.632420 
# 
# From -- ./inp_files/229914.got.cif
#   From: 2010.05.17/outbox.cif.g08.bks.cpg/sg12_115_cif.got.tgz:229914.got - 2010.06.03 13:09:07.
