data_PCOD9178302
_publ_section_title
;
Structure prediction by ZEFSAII (Michael W. Deem and Ramdas Pophale) SiO2 
 PCOD9178302
Probable space group: C 2/M
;
_chemical_formula_sum "Si O2"
_cell_formula_units_Z 40
_cell_length_a 19.157623
_cell_length_b 9.449070
_cell_length_c 28.677790
_cell_angle_alpha 90.000000
_cell_angle_beta 25.176218
_cell_angle_gamma 90.000000
_cell_volume 2208.399378
_symmetry_space_group_name_H-M "C 2/M"
_symmetry_group_IT_number 12
_symmetry_cell_setting 'monoclinic'
loop_
_space_group_symop_operation_xyz
x,y,z
-x,y,-z
-x,-y,-z
x,-y,z
1/2+x,1/2+y,z
1/2-x,1/2+y,-z
1/2-x,1/2-y,-z
1/2+x,1/2-y,z
loop_
_atom_site_type_symbol
_atom_site_label
_atom_site_fract_x
_atom_site_fract_y
_atom_site_fract_z
Si Si1 0.741030 0.336045 0.177574
Si Si2 0.070806 0.668717 0.841334
Si Si3 0.649560 0.665588 0.599438
Si Si4 0.710670 0.335226 0.942758
Si Si5 0.897616 0.334907 0.280572
O O1 0.782696 0.500000 0.141482
O O2 0.812410 0.302775 0.185186
O O3 0.544231 0.323423 0.295364
O O4 0.810274 0.237241 0.095057
O O5 0.036693 0.500000 0.860606
O O6 0.148181 0.705216 0.744533
O O7 0.904023 0.752727 0.951944
O O8 0.693351 0.500000 0.573595
O O9 0.750000 0.750000 0.500000
O O10 0.671405 0.737378 0.636818
O O11 0.666834 0.500000 0.968059
O O12 0.903634 0.324000 0.837833
O O13 0.855386 0.500000 0.314666
#
# Coordination Sequence:
#
# PCOD9178302 Si02
#       5
#     8   8   8   8   8
#     4   9  19  34  51  72  97 129 168 202 236 285
#     4  10  19  32  50  72 101 134 165 199 237 281
#     4  10  20  36  57  75  93 122 161 204 248 294
#     4  10  19  30  47  73 104 136 166 197 236 282
#     4   9  19  34  51  73 100 130 165 201 238 284
#
# _framework density 18.112666000000001
#
# number of rings (size 3 to 8) (size 9 to 14) (size 15 to 20)
#    0.000    2.400    0.000    2.400    0.000    5.600 
#    0.000    1.000    0.000    6.000    0.000    0.000 
#    0.000    0.000    0.000    0.000    0.000    0.000 
#
# Total GULP energy -111630.697296 kJ/mol
# GULP energy per Si atom -5581.534865 kJ/mol
# Density = 1.807144 g / cm^3
# Si number density = 18.112666 Si / 1000 Ang^3
#
#
#
# Elastic Constant Matrix: (Units=GPa)
#
#
# Indices 1 2 3 4 5 6 
#
# 1 94.5662 45.0835 19.7120 0.0004 34.5621 -0.0001
# 2 45.0835 81.7120 48.4649 -0.0019 33.3999 -0.0002
# 3 19.7120 48.4649 59.5402 -0.0036 35.0063 -0.0001
# 4 0.0004 -0.0019 -0.0036 30.5626 0.0001 8.7984
# 5 34.5621 33.3999 35.0063 0.0001 33.0184 -0.0001
# 6 -0.0001 -0.0002 -0.0001 8.7984 -0.0001 20.8766
#
#
#
# Elastic Compliance Matrix: (Units=1/GPa)
#
#
# Indices 1 2 3 4 5 6 
#
# 1 0.028004 -0.013872 0.029217 0.000003 -0.046256 -0.000001
# 2 -0.013872 0.031669 -0.028907 -0.000002 0.013134 0.000001
# 3 0.029217 -0.028907 0.083474 0.000009 -0.089841 -0.000004
# 4 0.000003 -0.000002 0.000009 0.037238 -0.000011 -0.015694
# 5 -0.046256 0.013134 -0.089841 -0.000011 0.160669 0.000005
# 6 -0.000001 0.000001 -0.000004 -0.015694 0.000005 0.054515
#
#
# Mechanical properties :
#
#
# Convention : Reuss Voigt Hill
#
# Bulk Modulus (GPa) = 8.61917 51.37102 29.99510
# Shear Modulus (GPa) = 10.83733 25.06204 17.94968
#
# Velocity S-wave (km/s) = 2.44873 3.72381 3.15143
# Velocity P-wave (km/s) = 3.57268 6.84927 5.46244
#
# Compressibility (1/GPa) = 0.11602042
#
# Stress axis : x y z
#
# Youngs Moduli (GPa) = 35.70969 31.57649 11.97972
#
# Poissons Ratio (x) = 0.43804 -0.35001
# Poissons Ratio (y) = 0.49538 0.34630
# Poissons Ratio (z) = -1.04331 0.91280
#
# Static dielectric constant tensor:
#      x y z
#    x 1.640560 0.000000 -0.010650 
#    y 0.000000 1.607310 0.000000 
#    z -0.010650 0.000000 1.599890 
# 
# From -- ./inp_files/151620.got.cif
#   From: 2010.05.17/outbox.cif.g08.bks.cpg/sg12_76_cif.got.tgz:151620.got - 2010.06.03 13:09:07.
