data_PCOD9178354
_publ_section_title
;
Structure prediction by ZEFSAII (Michael W. Deem and Ramdas Pophale) SiO2 
 PCOD9178354
Probable space group: C 2/M
;
_chemical_formula_sum "Si O2"
_cell_formula_units_Z 48
_cell_length_a 19.049535
_cell_length_b 8.716678
_cell_length_c 19.038338
_cell_angle_alpha 90.000000
_cell_angle_beta 120.369029
_cell_angle_gamma 90.000000
_cell_volume 2727.520647
_symmetry_space_group_name_H-M "C 2/M"
_symmetry_group_IT_number 12
_symmetry_cell_setting 'monoclinic'
loop_
_space_group_symop_operation_xyz
x,y,z
-x,y,-z
-x,-y,-z
x,-y,z
1/2+x,1/2+y,z
1/2-x,1/2+y,-z
1/2-x,1/2-y,-z
1/2+x,1/2-y,z
loop_
_atom_site_type_symbol
_atom_site_label
_atom_site_fract_x
_atom_site_fract_y
_atom_site_fract_z
Si Si1 0.746339 0.684000 0.419015
Si Si2 0.751886 0.683701 0.921919
Si Si3 0.079639 0.184622 0.997749
Si Si4 0.427184 0.684402 0.170982
Si Si5 0.924221 0.686572 0.506850
Si Si6 0.921741 0.316764 0.668952
O O1 0.741821 0.500000 0.419155
O O2 0.750000 0.750000 0.500000
O O3 0.834541 0.728652 0.432662
O O4 0.663232 0.748885 0.345248
O O5 0.755489 0.500000 0.926983
O O6 0.663211 0.726570 0.846673
O O7 0.750000 0.750000 0.000000
O O8 0.835164 0.747116 0.931687
O O9 0.070126 0.225142 0.910542
O O10 0.085398 0.000000 0.004665
O O11 0.000000 0.234515 0.000000
O O12 0.435297 0.500000 0.179869
O O13 0.500396 0.761900 0.248922
O O14 0.927075 0.500000 0.507940
O O15 0.930263 0.733567 0.591560
O O16 0.000000 0.743886 0.500000
O O17 0.915954 0.500000 0.666778
#
# Coordination Sequence:
#
# PCOD9178354 Si02
#       6
#     8   8   8   8   8   8
#     4   9  16  28  48  69  92 122 154 190 230 277
#     4   9  17  30  49  71  95 126 162 196 236 287
#     4   9  18  33  52  73  96 124 161 201 240 287
#     4   9  18  32  49  69  95 125 155 192 237 282
#     4   8  15  29  48  69  90 115 152 192 227 267
#     4  10  19  30  48  71  93 121 157 195 232 276
#
# _framework density 17.598402
#
# number of rings (size 3 to 8) (size 9 to 14) (size 15 to 20)
#    0.000    3.000    0.000    3.500    0.000    3.667 
#    0.000    1.667    0.000   26.000    0.000    0.000 
#    0.000    0.000    0.000    0.000    0.000    0.000 
#
# Total GULP energy -133602.320285 kJ/mol
# GULP energy per Si atom -5566.763345 kJ/mol
# Density = 1.755835 g / cm^3
# Si number density = 17.598402 Si / 1000 Ang^3
#
#
#
# Elastic Constant Matrix: (Units=GPa)
#
#
# Indices 1 2 3 4 5 6 
#
# 1 145.4299 34.0601 62.4751 0.0000 49.9924 0.0000
# 2 34.0601 32.2120 35.5959 0.0000 17.7180 0.0000
# 3 62.4751 35.5959 108.4135 0.0000 47.8296 0.0000
# 4 0.0000 0.0000 0.0000 27.6548 0.0000 8.7747
# 5 49.9924 17.7180 47.8296 0.0000 36.9586 0.0000
# 6 0.0000 0.0000 0.0000 8.7747 0.0000 21.9583
#
#
#
# Elastic Compliance Matrix: (Units=1/GPa)
#
#
# Indices 1 2 3 4 5 6 
#
# 1 0.013879 -0.007326 0.002658 0.000000 -0.018701 0.000000
# 2 -0.007326 0.053204 -0.014838 0.000000 0.003605 0.000000
# 3 0.002658 -0.014838 0.025666 0.000000 -0.029697 0.000000
# 4 0.000000 0.000000 0.000000 0.041411 0.000000 -0.016548
# 5 -0.018701 0.003605 -0.029697 0.000000 0.089057 0.000000
# 6 0.000000 0.000000 0.000000 -0.016548 0.000000 0.052154
#
#
# Mechanical properties :
#
#
# Convention : Reuss Voigt Hill
#
# Bulk Modulus (GPa) = 18.60916 61.14639 39.87777
# Shear Modulus (GPa) = 15.04697 27.57594 21.31146
#
# Velocity S-wave (km/s) = 2.92724 3.96278 3.48370
# Velocity P-wave (km/s) = 4.69279 7.46719 6.23624
#
# Compressibility (1/GPa) = 0.05373699
#
# Stress axis : x y z
#
# Youngs Moduli (GPa) = 72.05353 18.79568 38.96250
#
# Poissons Ratio (x) = 0.13769 -0.10356
# Poissons Ratio (y) = 0.52784 0.57811
# Poissons Ratio (z) = -0.19151 0.27888
#
# Static dielectric constant tensor:
#      x y z
#    x 1.641590 0.000000 0.028480 
#    y 0.000000 1.593490 0.000000 
#    z 0.028480 0.000000 1.605690 
# 
# From -- ./inp_files/273604.got.cif
#   From: 2010.05.17/outbox.cif.g08.bks.cpg/sg12_137_cif.got.tgz:273604.got - 2010.06.03 13:09:07.
