data_PCOD9178905
_publ_section_title
;
Structure prediction by ZEFSAII (Michael W. Deem and Ramdas Pophale) SiO2 
 PCOD9178905
Probable space group: C 2/M
;
_chemical_formula_sum "Si O2"
_cell_formula_units_Z 48
_cell_length_a 23.473791
_cell_length_b 8.749696
_cell_length_c 20.231914
_cell_angle_alpha 90.000000
_cell_angle_beta 43.772870
_cell_angle_gamma 90.000000
_cell_volume 2874.713477
_symmetry_space_group_name_H-M "C 2/M"
_symmetry_group_IT_number 12
_symmetry_cell_setting 'monoclinic'
loop_
_space_group_symop_operation_xyz
x,y,z
-x,y,-z
-x,-y,-z
x,-y,z
1/2+x,1/2+y,z
1/2-x,1/2+y,-z
1/2-x,1/2-y,-z
1/2+x,1/2-y,z
loop_
_atom_site_type_symbol
_atom_site_label
_atom_site_fract_x
_atom_site_fract_y
_atom_site_fract_z
Si Si1 0.120404 0.313780 0.353409
Si Si2 0.904462 0.818095 0.220990
Si Si3 0.696370 0.684202 0.827409
Si Si4 0.945367 0.314018 0.448992
Si Si5 0.051942 0.323958 0.025039
Si Si6 0.840258 0.683521 0.411317
O O1 0.121593 0.500000 0.352031
O O2 0.209060 0.263377 0.253164
O O3 0.103872 0.268054 0.443411
O O4 0.040140 0.265106 0.379285
O O5 0.845430 0.776938 0.208322
O O6 0.873962 0.738281 0.312754
O O7 0.996354 0.767531 0.123474
O O8 0.900526 0.000000 0.232336
O O9 0.693669 0.500000 0.835358
O O10 0.639859 0.754427 0.932017
O O11 0.945783 0.500000 0.448449
O O12 0.900547 0.264019 0.420092
O O13 0.059072 0.500000 0.039234
O O14 0.000000 0.317942 0.000000
O O15 0.836327 0.500000 0.416045
O O16 0.750000 0.750000 0.500000
#
# Coordination Sequence:
#
# PCOD9178905 Si02
#       6
#     8   8   8   8   8   8
#     4   8  13  25  46  69  91 116 150 192 231 267
#     4  10  19  31  47  69  96 124 153 187 228 273
#     4   9  16  27  47  72  94 118 152 192 232 274
#     4   8  15  27  44  67  93 120 152 189 227 268
#     4   9  17  29  45  67  95 124 152 186 230 275
#     4  11  21  32  47  69  96 125 155 186 224 272
#
# _framework density 16.697315
#
# number of rings (size 3 to 8) (size 9 to 14) (size 15 to 20)
#    0.000    2.833    0.000    3.500    0.000    5.333 
#    0.000    0.000    0.000    3.000    0.000    7.000 
#    0.000    0.000    0.000    0.000    0.000    0.000 
#
# Total GULP energy -133742.733643 kJ/mol
# GULP energy per Si atom -5572.613902 kJ/mol
# Density = 1.665931 g / cm^3
# Si number density = 16.697315 Si / 1000 Ang^3
#
#
#
# Elastic Constant Matrix: (Units=GPa)
#
#
# Indices 1 2 3 4 5 6 
#
# 1 83.7525 26.3307 66.4287 0.0001 -11.9193 -0.0001
# 2 26.3307 27.7555 33.4695 0.0004 -0.9803 -0.0003
# 3 66.4287 33.4695 140.0220 0.0001 -24.0176 -0.0001
# 4 0.0001 0.0004 0.0001 29.8064 -0.0001 1.1835
# 5 -11.9193 -0.9803 -24.0176 -0.0001 30.6480 0.0001
# 6 -0.0001 -0.0003 -0.0001 1.1835 0.0001 11.9013
#
#
#
# Elastic Compliance Matrix: (Units=1/GPa)
#
#
# Indices 1 2 3 4 5 6 
#
# 1 0.021578 -0.012040 -0.006915 0.000000 0.002588 0.000000
# 2 -0.012040 0.059626 -0.010416 -0.000001 -0.010938 0.000002
# 3 -0.006915 -0.010416 0.014319 0.000000 0.008198 0.000000
# 4 0.000000 -0.000001 0.000000 0.033683 0.000000 -0.003350
# 5 0.002588 -0.010938 0.008198 0.000000 0.039710 0.000000
# 6 0.000000 0.000002 0.000000 -0.003350 0.000000 0.084357
#
#
# Mechanical properties :
#
#
# Convention : Reuss Voigt Hill
#
# Bulk Modulus (GPa) = 27.18987 55.99865 41.59426
# Shear Modulus (GPa) = 15.41895 22.82456 19.12175
#
# Velocity S-wave (km/s) = 3.04211 3.70125 3.38775
# Velocity P-wave (km/s) = 5.35337 7.20250 6.34565
#
# Compressibility (1/GPa) = 0.03677841
#
# Stress axis : x y z
#
# Youngs Moduli (GPa) = 46.34247 16.77129 69.83970
#
# Poissons Ratio (x) = 0.20193 0.48296
# Poissons Ratio (y) = 0.55799 0.72748
# Poissons Ratio (z) = 0.32047 0.17470
#
# Static dielectric constant tensor:
#      x y z
#    x 1.561510 0.000000 -0.013600 
#    y 0.000000 1.565460 0.000000 
#    z -0.013600 0.000000 1.548200 
# 
# From -- ./inp_files/280802.got.cif
#   From: 2010.05.17/outbox.cif.g08.bks.cpg/sg12_141_cif.got.tgz:280802.got - 2010.06.03 13:09:07.
