data_PCOD9178802
_publ_section_title
;
Structure prediction by ZEFSAII (Michael W. Deem and Ramdas Pophale) SiO2 
 PCOD9178802
Probable space group: C 2/M
;
_chemical_formula_sum "Si O2"
_cell_formula_units_Z 56
_cell_length_a 27.928446
_cell_length_b 11.491587
_cell_length_c 15.114483
_cell_angle_alpha 90.000000
_cell_angle_beta 46.977351
_cell_angle_gamma 90.000000
_cell_volume 3546.397291
_symmetry_space_group_name_H-M "C 2/M"
_symmetry_group_IT_number 12
_symmetry_cell_setting 'monoclinic'
loop_
_space_group_symop_operation_xyz
x,y,z
-x,y,-z
-x,-y,-z
x,-y,z
1/2+x,1/2+y,z
1/2-x,1/2+y,-z
1/2-x,1/2-y,-z
1/2+x,1/2-y,z
loop_
_atom_site_type_symbol
_atom_site_label
_atom_site_fract_x
_atom_site_fract_y
_atom_site_fract_z
Si Si1 0.811105 0.133940 0.123826
Si Si2 0.989808 0.500000 0.363893
Si Si3 0.350044 0.635054 0.871494
Si Si4 0.942667 0.138108 0.504987
Si Si5 0.539450 0.361693 0.040350
Si Si6 0.816621 0.741641 0.742261
Si Si7 0.109272 0.500000 0.351648
Si Si8 0.488243 0.749183 0.740990
O O1 0.751922 0.219901 0.220333
O O2 0.797606 0.000000 0.167712
O O3 0.816728 0.135640 0.009508
O O4 0.883325 0.166185 0.066885
O O5 0.050205 0.500000 0.356396
O O6 0.996724 0.383533 0.297443
O O7 0.924917 0.500000 0.507931
O O8 0.366954 0.500000 0.829751
O O9 0.308496 0.690353 0.845013
O O10 0.416326 0.710155 0.796857
O O11 0.873048 0.189455 0.619768
O O12 0.000000 0.182715 0.500000
O O13 0.962272 0.176992 0.382554
O O14 0.941393 0.000000 0.513927
O O15 0.537014 0.500000 0.066927
O O16 0.511100 0.289011 0.157959
O O17 0.500000 0.344141 0.000000
O O18 0.847015 0.613695 0.718169
#
# Coordination Sequence:
#
# PCOD9178802 Si02
#       8
#     8   4   8   8   8   8   4   8
#     4   9  19  32  49  72 100 134 169 210 258 304
#     4  11  20  32  45  76 108 142 179 203 239 300
#     4  10  19  31  46  69 103 140 175 211 248 295
#     4  11  20  30  48  74 106 143 173 207 248 292
#     4   9  19  38  62  81  96 124 172 225 268 306
#     4  12  19  30  46  70 106 141 173 203 245 303
#     4  11  20  30  44  68 109 152 174 196 234 295
#     4  11  19  32  52  77 104 133 173 218 253 300
#
# _framework density 15.790673
#
# number of rings (size 3 to 8) (size 9 to 14) (size 15 to 20)
#    0.000    1.571    5.000    3.000    0.000    0.000 
#    0.000    0.357    6.286    0.857    0.000    0.000 
#    0.000    0.000    0.000    0.000    0.000    0.000 
#
# Total GULP energy -156182.521377 kJ/mol
# GULP energy per Si atom -5577.947192 kJ/mol
# Density = 1.575473 g / cm^3
# Si number density = 15.790673 Si / 1000 Ang^3
#
#
#
# Elastic Constant Matrix: (Units=GPa)
#
#
# Indices 1 2 3 4 5 6 
#
# 1 83.9956 29.3888 40.8347 0.0000 -3.7220 0.0000
# 2 29.3888 81.8900 31.3743 0.0000 -0.7920 0.0000
# 3 40.8347 31.3743 59.6856 0.0000 -7.8026 0.0000
# 4 0.0000 0.0000 0.0000 21.0180 0.0000 -2.2697
# 5 -3.7220 -0.7920 -7.8026 0.0000 17.5733 0.0000
# 6 0.0000 0.0000 0.0000 -2.2697 0.0000 13.9538
#
#
#
# Elastic Compliance Matrix: (Units=1/GPa)
#
#
# Indices 1 2 3 4 5 6 
#
# 1 0.018179 -0.002134 -0.011492 0.000000 -0.001348 0.000000
# 2 -0.002134 0.015698 -0.007175 0.000000 -0.002930 0.000000
# 3 -0.011492 -0.007175 0.029755 0.000000 0.010454 0.000000
# 4 0.000000 0.000000 0.000000 0.048429 0.000000 0.007877
# 5 -0.001348 -0.002930 0.010454 0.000000 0.061129 0.000000
# 6 0.000000 0.000000 0.000000 0.007877 0.000000 0.072946
#
#
# Mechanical properties :
#
#
# Convention : Reuss Voigt Hill
#
# Bulk Modulus (GPa) = 45.39194 47.64074 46.51634
# Shear Modulus (GPa) = 16.94452 18.77392 17.85922
#
# Velocity S-wave (km/s) = 3.27933 3.45182 3.36668
# Velocity P-wave (km/s) = 6.56865 6.79135 6.68093
#
# Compressibility (1/GPa) = 0.02203034
#
# Stress axis : x y z
#
# Youngs Moduli (GPa) = 55.00786 63.70276 33.60810
#
# Poissons Ratio (x) = 0.13597 0.38622
# Poissons Ratio (y) = 0.11741 0.24112
# Poissons Ratio (z) = 0.63214 0.45704
#
# Static dielectric constant tensor:
#      x y z
#    x 1.513000 0.000000 -0.017170 
#    y 0.000000 1.532140 0.000000 
#    z -0.017170 0.000000 1.551330 
# 
# From -- ./inp_files/250553.got.cif
#   From: 2010.05.17/outbox.cif.g08.bks.cpg/sg12_126_cif.got.tgz:250553.got - 2010.06.03 13:09:07.
