data_PCOD9178294
_publ_section_title
;
Structure prediction by ZEFSAII (Michael W. Deem and Ramdas Pophale) SiO2 
 PCOD9178294
Probable space group: C 2/M
;
_chemical_formula_sum "Si O2"
_cell_formula_units_Z 40
_cell_length_a 28.725650
_cell_length_b 7.606830
_cell_length_c 19.306775
_cell_angle_alpha 90.000000
_cell_angle_beta 26.989586
_cell_angle_gamma 90.000000
_cell_volume 1914.587056
_symmetry_space_group_name_H-M "C 2/M"
_symmetry_group_IT_number 12
_symmetry_cell_setting 'monoclinic'
loop_
_space_group_symop_operation_xyz
x,y,z
-x,y,-z
-x,-y,-z
x,-y,z
1/2+x,1/2+y,z
1/2-x,1/2+y,-z
1/2-x,1/2-y,-z
1/2+x,1/2-y,z
loop_
_atom_site_type_symbol
_atom_site_label
_atom_site_fract_x
_atom_site_fract_y
_atom_site_fract_z
Si Si1 0.529832 0.284048 0.537789
Si Si2 0.908591 0.206861 0.965544
Si Si3 0.580708 0.787654 0.833395
Si Si4 0.749957 0.295825 0.295376
Si Si5 0.865647 0.789214 0.868594
O O1 0.500000 0.227766 0.500000
O O2 0.531284 0.500000 0.534466
O O3 0.641981 0.221309 0.413416
O O4 0.444917 0.225949 0.705557
O O5 0.889658 0.277807 0.913855
O O6 0.025685 0.230736 0.836023
O O7 0.885629 0.000000 0.996740
O O8 0.831088 0.289167 0.124399
O O9 0.690099 0.722158 0.716820
O O10 0.583405 0.000000 0.829423
O O11 0.500000 0.731895 0.000000
O O12 0.729953 0.500000 0.337952
O O13 0.877699 0.000000 0.855358
O O14 0.750000 0.750000 0.000000
#
# Coordination Sequence:
#
# PCOD9178294 Si02
#       5
#     8   8   8   8   8
#     4   9  17  31  52  73  92 121 162 203 239 278
#     4  10  19  30  47  73 103 129 154 193 244 291
#     4   8  15  28  47  71  96 126 165 200 229 271
#     4   9  17  31  52  74  95 125 167 205 231 270
#     4  10  21  35  51  73  98 125 159 198 242 289
#
# _framework density 20.892233000000001
#
# number of rings (size 3 to 8) (size 9 to 14) (size 15 to 20)
#    0.000    2.800    0.000    3.000    0.000    6.800 
#    0.000    2.000    0.000    3.600    0.000    0.000 
#    0.000    0.000    0.000    0.000    0.000    0.000 
#
# Total GULP energy -111520.623711 kJ/mol
# GULP energy per Si atom -5576.031186 kJ/mol
# Density = 2.084468 g / cm^3
# Si number density = 20.892233 Si / 1000 Ang^3
#
#
#
# Elastic Constant Matrix: (Units=GPa)
#
#
# Indices 1 2 3 4 5 6 
#
# 1 224.2178 -6.9104 88.4094 0.0039 -29.6380 0.0009
# 2 -6.9104 38.3529 -9.9654 -0.0088 -3.9698 0.0040
# 3 88.4094 -9.9654 104.9029 -0.0044 -26.8999 0.0001
# 4 0.0039 -0.0088 -0.0044 -11.0327 -0.0013 -4.2046
# 5 -29.6380 -3.9698 -26.8999 -0.0013 36.4360 0.0003
# 6 0.0009 0.0040 0.0001 -4.2046 0.0003 16.9361
#
#
#
# Elastic Compliance Matrix: (Units=1/GPa)
#
#
# Indices 1 2 3 4 5 6 
#
# 1 0.006754 0.000010 -0.005282 0.000004 0.001595 0.000001
# 2 0.000010 0.027805 0.004209 -0.000020 0.006145 -0.000012
# 3 -0.005282 0.004209 0.016529 -0.000011 0.008365 -0.000004
# 4 0.000004 -0.000020 -0.000011 -0.082805 -0.000010 -0.020557
# 5 0.001595 0.006145 0.008365 -0.000010 0.035588 -0.000005
# 6 0.000001 -0.000012 -0.000004 -0.020557 -0.000005 0.053942
#
#
# Mechanical properties :
#
#
# Convention : Reuss Voigt Hill
#
# Bulk Modulus (GPa) = 20.42446 56.72674 38.57560
# Shear Modulus (GPa) = 65.56521 28.19723 46.88122
#
# Velocity S-wave (km/s) = 5.60809 3.67775 4.74218
# Velocity P-wave (km/s) = 7.19247 6.72647 6.96337
#
# Compressibility (1/GPa) = 0.04896089
#
# Stress axis : x y z
#
# Youngs Moduli (GPa) = 148.06517 35.96478 60.49981
#
# Poissons Ratio (x) = -0.00034 0.31956
# Poissons Ratio (y) = -0.00142 -0.25464
# Poissons Ratio (z) = 0.78207 -0.15137
#
# Static dielectric constant tensor:
#      x y z
#    x 1.783580 0.000000 -0.022070 
#    y 0.000000 1.778930 0.000000 
#    z -0.022070 0.000000 1.713920 
# 
# From -- ./inp_files/220188.got.cif
#   From: 2010.05.17/outbox.cif.g08.bks.cpg/sg12_111_cif.got.tgz:220188.got - 2010.06.03 13:09:07.
