data_PCOD9178194
_publ_section_title
;
Structure prediction by ZEFSAII (Michael W. Deem and Ramdas Pophale) SiO2 
 PCOD9178194
Probable space group: C 2/M
;
_chemical_formula_sum "Si O2"
_cell_formula_units_Z 56
_cell_length_a 8.811398
_cell_length_b 18.654662
_cell_length_c 21.109666
_cell_angle_alpha 90.000000
_cell_angle_beta 114.671304
_cell_angle_gamma 90.000000
_cell_volume 3153.133682
_symmetry_space_group_name_H-M "C 2/M"
_symmetry_group_IT_number 12
_symmetry_cell_setting 'monoclinic'
loop_
_space_group_symop_operation_xyz
x,y,z
-x,y,-z
-x,-y,-z
x,-y,z
1/2+x,1/2+y,z
1/2-x,1/2+y,-z
1/2-x,1/2-y,-z
1/2+x,1/2-y,z
loop_
_atom_site_type_symbol
_atom_site_label
_atom_site_fract_x
_atom_site_fract_y
_atom_site_fract_z
Si Si1 0.258282 0.169401 0.076365
Si Si2 0.178184 0.413453 0.500000
Si Si3 0.035490 0.670094 0.217931
Si Si4 0.394446 0.669400 0.076365
Si Si5 0.400372 0.670093 0.217931
Si Si6 0.962001 0.916740 0.644446
Si Si7 0.326893 0.916740 0.644447
O O1 0.399659 0.136614 0.146035
O O2 0.324420 0.250001 0.074422
O O3 0.083483 0.173421 0.083484
O O4 0.216320 0.136790 0.000000
O O5 0.202640 0.500000 0.500000
O O6 0.322849 0.387201 0.572120
O O7 0.178608 0.387201 0.427879
O O8 0.000000 0.399572 0.500000
O O9 0.213793 0.673628 0.213793
O O10 0.059581 0.626330 0.286672
O O11 0.973617 0.750001 0.223616
O O12 0.392409 0.636613 0.146035
O O13 0.513761 0.626329 0.286672
O O14 0.139342 0.914976 0.639342
O O15 0.922529 0.000000 0.651703
O O16 0.380878 0.000000 0.651704
#
# Coordination Sequence:
#
# PCOD9178194 Si02
#       7
#     8   8   8   8   8   8   8
#     4   9  16  26  42  64  90 120 153 188 225 266
#     4   9  17  29  48  73  94 115 149 191 230 267
#     4  10  19  30  47  70  95 122 151 187 230 272
#     4   9  16  26  42  64  90 120 153 188 225 266
#     4  10  19  30  47  70  95 122 151 187 230 272
#     4   9  18  33  51  69  91 121 155 188 224 269
#     4   9  18  33  51  69  91 121 155 188 224 269
#
# _framework density 17.760110000000001
#
# number of rings (size 3 to 8) (size 9 to 14) (size 15 to 20)
#    0.000    2.714    0.000    3.857    0.000    5.714 
#    0.000    0.714    0.000    0.857    0.000    6.000 
#    0.000    0.000    0.000    0.000    0.000    0.000 
#
# Total GULP energy -155950.626229 kJ/mol
# GULP energy per Si atom -5569.665222 kJ/mol
# Density = 1.771969 g / cm^3
# Si number density = 17.760110 Si / 1000 Ang^3
#
#
#
# Elastic Constant Matrix: (Units=GPa)
#
#
# Indices 1 2 3 4 5 6 
#
# 1 45.7512 12.6763 62.3498 0.0000 -3.3340 0.0000
# 2 12.6763 20.5268 46.4311 0.0000 -1.3425 0.0000
# 3 62.3498 46.4311 237.4464 0.0000 -4.2902 0.0000
# 4 0.0000 0.0000 0.0000 45.7101 0.0000 -1.2968
# 5 -3.3340 -1.3425 -4.2902 0.0000 33.6544 0.0000
# 6 0.0000 0.0000 0.0000 -1.2968 0.0000 13.1060
#
#
#
# Elastic Compliance Matrix: (Units=1/GPa)
#
#
# Indices 1 2 3 4 5 6 
#
# 1 0.034228 -0.001350 -0.008683 0.000000 0.002230 0.000000
# 2 -0.001350 0.087466 -0.016727 0.000000 0.001223 0.000000
# 3 -0.008683 -0.016727 0.009757 0.000000 -0.000284 0.000000
# 4 0.000000 0.000000 0.000000 0.021939 0.000000 0.002171
# 5 0.002230 0.001223 -0.000284 0.000000 0.029947 0.000000
# 6 0.000000 0.000000 0.000000 0.002171 0.000000 0.076516
#
#
# Mechanical properties :
#
#
# Convention : Reuss Voigt Hill
#
# Bulk Modulus (GPa) = 12.83185 60.73763 36.78474
# Shear Modulus (GPa) = 14.73404 30.64524 22.68964
#
# Velocity S-wave (km/s) = 2.88343 4.15843 3.57818
# Velocity P-wave (km/s) = 4.28092 7.57165 6.15046
#
# Compressibility (1/GPa) = 0.07793108
#
# Stress axis : x y z
#
# Youngs Moduli (GPa) = 29.21617 11.43295 102.48713
#
# Poissons Ratio (x) = 0.01543 0.88994
# Poissons Ratio (y) = 0.03944 1.71430
# Poissons Ratio (z) = 0.25370 0.19124
#
# Static dielectric constant tensor:
#      x y z
#    x 1.595680 0.000000 -0.002610 
#    y 0.000000 1.593410 0.000000 
#    z -0.002610 0.000000 1.661210 
# 
# From -- ./inp_files/258702.got.cif
#   From: 2010.05.17/outbox.cif.g08.bks.cpg/sg12_130_cif.got.tgz:258702.got - 2010.06.03 13:09:07.
