data_PCOD9178026
_publ_section_title
;
Structure prediction by ZEFSAII (Michael W. Deem and Ramdas Pophale) SiO2 
 PCOD9178026
Probable space group: C 2/M
;
_chemical_formula_sum "Si O2"
_cell_formula_units_Z 64
_cell_length_a 24.173451
_cell_length_b 7.781532
_cell_length_c 18.921189
_cell_angle_alpha 90.000000
_cell_angle_beta 91.679050
_cell_angle_gamma 90.000000
_cell_volume 3557.670133
_symmetry_space_group_name_H-M "C 2/M"
_symmetry_group_IT_number 12
_symmetry_cell_setting 'monoclinic'
loop_
_space_group_symop_operation_xyz
x,y,z
-x,y,-z
-x,-y,-z
x,-y,z
1/2+x,1/2+y,z
1/2-x,1/2+y,-z
1/2-x,1/2-y,-z
1/2+x,1/2-y,z
loop_
_atom_site_type_symbol
_atom_site_label
_atom_site_fract_x
_atom_site_fract_y
_atom_site_fract_z
Si Si1 0.063211 0.291958 0.008728
Si Si2 0.928541 0.791948 0.721386
Si Si3 0.129200 0.289364 0.871197
Si Si4 0.136143 0.795743 0.145229
Si Si5 0.441889 0.793811 0.263898
Si Si6 0.750059 0.792760 0.916814
Si Si7 0.946882 0.298213 0.418304
Si Si8 0.072578 0.195675 0.433073
O O1 0.063324 0.500000 0.010022
O O2 0.097848 0.236637 0.941564
O O3 0.092320 0.230951 0.080930
O O4 0.000000 0.233931 0.000000
O O5 0.889762 0.727005 0.783031
O O6 0.911616 0.726706 0.642477
O O7 0.993021 0.750837 0.739087
O O8 0.925324 0.000000 0.718409
O O9 0.129064 0.500000 0.870206
O O10 0.095356 0.227341 0.801631
O O11 0.192774 0.233170 0.879572
O O12 0.194885 0.725672 0.119873
O O13 0.143244 0.000000 0.155726
O O14 0.422047 0.743069 0.342112
O O15 0.438556 0.000000 0.260115
O O16 0.750961 0.000000 0.912474
O O17 0.750000 0.750000 0.000000
O O18 0.960854 0.500000 0.413805
O O19 0.914008 0.274782 0.490050
O O20 0.005491 0.202100 0.426474
O O21 0.091710 0.000000 0.436136
#
# Coordination Sequence:
#
# PCOD9178026 Si02
#       8
#     8   8   8   8   8   8   8   8
#     4  10  19  30  46  66  88 116 147 176 213 265
#     4   9  18  30  42  62  92 119 144 177 215 260
#     4   9  17  30  46  64  86 112 145 182 218 258
#     4  10  20  32  46  65  88 114 146 185 225 258
#     4   9  17  29  45  65  89 117 146 177 216 260
#     4  10  19  33  51  66  83 111 148 190 227 260
#     4   9  15  23  38  61  87 111 140 176 209 248
#     4   9  15  24  39  57  83 118 146 167 203 256
#
# _framework density 17.9893
#
# number of rings (size 3 to 8) (size 9 to 14) (size 15 to 20)
#    0.000    2.625    1.250    2.250    0.000    2.750 
#    0.000    1.250    0.000    0.000    0.000    0.875 
#    0.000    0.000    0.000    0.000    0.000    0.000 
#
# Total GULP energy -178286.938714 kJ/mol
# GULP energy per Si atom -5571.466835 kJ/mol
# Density = 1.794836 g / cm^3
# Si number density = 17.989300 Si / 1000 Ang^3
#
#
#
# Elastic Constant Matrix: (Units=GPa)
#
#
# Indices 1 2 3 4 5 6 
#
# 1 89.4011 2.0870 61.4768 0.0000 -22.9578 0.0000
# 2 2.0870 23.3858 6.8955 0.0000 0.3808 0.0000
# 3 61.4768 6.8955 186.1491 0.0000 -20.4174 0.0000
# 4 0.0000 0.0000 0.0000 24.6241 0.0000 7.7727
# 5 -22.9578 0.3808 -20.4174 0.0000 9.4201 0.0000
# 6 0.0000 0.0000 0.0000 7.7727 0.0000 10.3916
#
#
#
# Elastic Compliance Matrix: (Units=1/GPa)
#
#
# Indices 1 2 3 4 5 6 
#
# 1 0.031021 -0.003214 -0.002387 0.000000 0.070558 0.000000
# 2 -0.003214 0.043905 -0.002124 0.000000 -0.014210 0.000000
# 3 -0.002387 -0.002124 0.007360 0.000000 0.010222 0.000000
# 4 0.000000 0.000000 0.000000 0.053163 0.000000 -0.039765
# 5 0.070558 -0.014210 0.010222 0.000000 0.300844 0.000000
# 6 0.000000 0.000000 0.000000 -0.039765 0.000000 0.125975
#
#
# Mechanical properties :
#
#
# Convention : Reuss Voigt Hill
#
# Bulk Modulus (GPa) = 14.96152 48.87275 31.91714
# Shear Modulus (GPa) = 8.33339 24.11894 16.22617
#
# Velocity S-wave (km/s) = 2.15464 3.66558 3.00657
# Velocity P-wave (km/s) = 3.81116 6.71878 5.46200
#
# Compressibility (1/GPa) = 0.06683811
#
# Stress axis : x y z
#
# Youngs Moduli (GPa) = 32.23635 22.77629 135.86846
#
# Poissons Ratio (x) = 0.07320 0.32428
# Poissons Ratio (y) = 0.10360 0.28853
# Poissons Ratio (z) = 0.07694 0.04837
#
# Static dielectric constant tensor:
#      x y z
#    x 1.584120 0.000000 -0.011230 
#    y 0.000000 1.664900 0.000000 
#    z -0.011230 0.000000 1.666530 
# 
# From -- ./inp_files/323369.got.cif
#   From: 2010.05.17/outbox.cif.g08.bks.cpg/sg12_162_cif.got.tgz:323369.got - 2010.06.03 13:09:07.
