data_PCOD9178764
_publ_section_title
;
Structure prediction by ZEFSAII (Michael W. Deem and Ramdas Pophale) SiO2 
 PCOD9178764
Probable space group: C 2/M
;
_chemical_formula_sum "Si O2"
_cell_formula_units_Z 56
_cell_length_a 24.921311
_cell_length_b 9.081023
_cell_length_c 23.433096
_cell_angle_alpha 90.000000
_cell_angle_beta 43.701209
_cell_angle_gamma 90.000000
_cell_volume 3663.945947
_symmetry_space_group_name_H-M "C 2/M"
_symmetry_group_IT_number 12
_symmetry_cell_setting 'monoclinic'
loop_
_space_group_symop_operation_xyz
x,y,z
-x,y,-z
-x,-y,-z
x,-y,z
1/2+x,1/2+y,z
1/2-x,1/2+y,-z
1/2-x,1/2-y,-z
1/2+x,1/2-y,z
loop_
_atom_site_type_symbol
_atom_site_label
_atom_site_fract_x
_atom_site_fract_y
_atom_site_fract_z
Si Si1 0.846333 0.325590 0.867676
Si Si2 0.769589 0.669360 0.397352
Si Si3 0.426585 0.823494 0.227420
Si Si4 0.468081 0.824127 0.962470
Si Si5 0.365479 0.169135 0.443470
Si Si6 0.332827 0.325671 0.001365
Si Si7 0.502690 0.675470 0.279683
O O1 0.862402 0.500000 0.857891
O O2 0.758062 0.303421 0.914704
O O3 0.911836 0.244279 0.780838
O O4 0.848945 0.259038 0.929624
O O5 0.746853 0.500000 0.404993
O O6 0.835199 0.714628 0.301372
O O7 0.693801 0.767495 0.464226
O O8 0.817162 0.673635 0.420828
O O9 0.467688 0.795307 0.135855
O O10 0.470347 0.736508 0.243885
O O11 0.432205 0.000000 0.235273
O O12 0.452420 0.000000 0.974056
O O13 0.500000 0.783859 0.000000
O O14 0.391082 0.737981 0.003293
O O15 0.441834 0.265045 0.373210
O O16 0.385808 0.000000 0.438759
O O17 0.345308 0.500000 0.983037
O O18 0.504733 0.500000 0.277619
#
# Coordination Sequence:
#
# PCOD9178764 Si02
#       7
#     8   8   8   8   8   8   8
#     4  10  19  31  46  64  90 118 148 185 226 273
#     4   8  14  24  37  54  78 110 146 180 214 256
#     4   9  17  29  43  59  84 117 150 185 224 263
#     4  10  20  33  49  67  90 122 156 190 228 267
#     4   9  16  25  37  55  82 114 143 175 217 259
#     4  10  20  32  47  67  87 115 151 189 230 266
#     4  11  19  26  41  64  88 115 149 181 217 265
#
# _framework density 15.284068
#
# number of rings (size 3 to 8) (size 9 to 14) (size 15 to 20)
#    0.000    2.429    1.429    3.429    0.000    5.429 
#    0.000    0.000    0.000    0.000    0.000    0.000 
#    0.000    1.143    0.000   13.143    0.000    3.571 
#
# Total GULP energy -156039.621797 kJ/mol
# GULP energy per Si atom -5572.843636 kJ/mol
# Density = 1.524928 g / cm^3
# Si number density = 15.284068 Si / 1000 Ang^3
#
#
#
# Elastic Constant Matrix: (Units=GPa)
#
#
# Indices 1 2 3 4 5 6 
#
# 1 61.1350 38.4405 40.3779 0.0004 -10.0094 -0.0001
# 2 38.4405 93.4266 68.1963 0.0004 -19.1359 -0.0003
# 3 40.3779 68.1963 112.8642 0.0004 -27.2996 -0.0005
# 4 0.0004 0.0004 0.0004 25.7956 -0.0001 -7.6541
# 5 -10.0094 -19.1359 -27.2996 -0.0001 16.5913 0.0001
# 6 -0.0001 -0.0003 -0.0005 -7.6541 0.0001 16.2910
#
#
#
# Elastic Compliance Matrix: (Units=1/GPa)
#
#
# Indices 1 2 3 4 5 6 
#
# 1 0.023315 -0.006326 -0.004786 0.000000 -0.001105 0.000000
# 2 -0.006326 0.021125 -0.009188 0.000000 0.005431 0.000000
# 3 -0.004786 -0.009188 0.021366 0.000000 0.021671 0.000000
# 4 0.000000 0.000000 0.000000 0.045046 0.000000 0.021164
# 5 -0.001105 0.005431 0.021671 0.000000 0.101528 0.000000
# 6 0.000000 0.000000 0.000000 0.021164 0.000000 0.071327
#
#
# Mechanical properties :
#
#
# Convention : Reuss Voigt Hill
#
# Bulk Modulus (GPa) = 39.67211 62.38391 51.02801
# Shear Modulus (GPa) = 15.02811 19.76299 17.39555
#
# Velocity S-wave (km/s) = 3.13909 3.59979 3.37731
# Velocity P-wave (km/s) = 6.25710 7.62777 6.97618
#
# Compressibility (1/GPa) = 0.02520663
#
# Stress axis : x y z
#
# Youngs Moduli (GPa) = 42.89102 47.33634 46.80321
#
# Poissons Ratio (x) = 0.29943 0.22401
# Poissons Ratio (y) = 0.27131 0.43003
# Poissons Ratio (z) = 0.20529 0.43492
#
# Static dielectric constant tensor:
#      x y z
#    x 1.474940 0.000000 -0.022270 
#    y 0.000000 1.512660 0.000000 
#    z -0.022270 0.000000 1.538810 
# 
# From -- ./inp_files/287895.got.cif
#   From: 2010.05.17/outbox.cif.g08.bks.cpg/sg12_144_cif.got.tgz:287895.got - 2010.06.03 13:09:07.
