data_PCOD9178834
_publ_section_title
;
Structure prediction by ZEFSAII (Michael W. Deem and Ramdas Pophale) SiO2 
 PCOD9178834
Probable space group: C 2/M
;
_chemical_formula_sum "Si O2"
_cell_formula_units_Z 56
_cell_length_a 26.674606
_cell_length_b 20.588335
_cell_length_c 8.106088
_cell_angle_alpha 90.000000
_cell_angle_beta 49.772453
_cell_angle_gamma 90.000000
_cell_volume 3398.845407
_symmetry_space_group_name_H-M "C 2/M"
_symmetry_group_IT_number 12
_symmetry_cell_setting 'monoclinic'
loop_
_space_group_symop_operation_xyz
x,y,z
-x,y,-z
-x,-y,-z
x,-y,z
1/2+x,1/2+y,z
1/2-x,1/2+y,-z
1/2-x,1/2-y,-z
1/2+x,1/2-y,z
loop_
_atom_site_type_symbol
_atom_site_label
_atom_site_fract_x
_atom_site_fract_y
_atom_site_fract_z
Si Si1 0.162368 0.575455 0.795671
Si Si2 0.779229 0.166634 0.578144
Si Si3 0.783341 0.821065 0.936999
Si Si4 0.838463 0.773261 0.141411
Si Si5 0.446589 0.173594 0.990257
Si Si6 0.031438 0.428776 0.613510
Si Si7 0.328988 0.074454 0.829459
O O1 0.156376 0.500000 0.762358
O O2 0.235625 0.604144 0.619628
O O3 0.108773 0.622491 0.824923
O O4 0.151012 0.581240 0.019171
O O5 0.809297 0.162156 0.698159
O O6 0.829512 0.186114 0.328522
O O7 0.723011 0.222581 0.717068
O O8 0.750000 0.750000 0.000000
O O9 0.831004 0.815447 0.992017
O O10 0.726860 0.873894 0.089607
O O11 0.903476 0.729607 0.999737
O O12 0.492467 0.127870 0.783135
O O13 0.500000 0.202986 0.000000
O O14 0.023253 0.500000 0.712577
O O15 0.107829 0.415635 0.418831
O O16 0.000000 0.434078 0.500000
O O17 0.306579 0.000000 0.857279
#
# Coordination Sequence:
#
# PCOD9178834 Si02
#       7
#     8   8   8   8   8   8   8
#     4   9  16  29  47  68  97 128 158 195 239 290
#     4   8  16  30  48  66  87 120 156 197 249 287
#     4   9  17  29  50  70  88 126 166 201 252 297
#     4   9  18  33  45  63  92 118 161 213 240 278
#     4  11  22  32  42  65  96 133 168 200 236 279
#     4  10  19  31  47  65  94 137 171 192 223 278
#     4   9  17  30  48  72 100 129 166 207 241 286
#
# _framework density 16.476184
#
# number of rings (size 3 to 8) (size 9 to 14) (size 15 to 20)
#    0.000    2.714    1.429    1.286    0.000    5.714 
#    0.000    2.143    0.000    0.000    0.000    0.000 
#    0.000    2.286    0.000   14.571    0.000    0.000 
#
# Total GULP energy -155899.686790 kJ/mol
# GULP energy per Si atom -5567.845957 kJ/mol
# Density = 1.643868 g / cm^3
# Si number density = 16.476184 Si / 1000 Ang^3
#
#
#
# Elastic Constant Matrix: (Units=GPa)
#
#
# Indices 1 2 3 4 5 6 
#
# 1 86.5634 42.1003 32.3803 0.0000 2.5417 0.0000
# 2 42.1003 73.9845 37.2376 0.0000 -11.2075 0.0000
# 3 32.3803 37.2376 63.1288 0.0000 2.6472 0.0000
# 4 0.0000 0.0000 0.0000 22.9494 0.0000 -5.7253
# 5 2.5417 -11.2075 2.6472 0.0000 11.0616 0.0000
# 6 0.0000 0.0000 0.0000 -5.7253 0.0000 20.4890
#
#
#
# Elastic Compliance Matrix: (Units=1/GPa)
#
#
# Indices 1 2 3 4 5 6 
#
# 1 0.018581 -0.012201 -0.001653 0.000000 -0.016236 0.000000
# 2 -0.012201 0.034944 -0.016118 0.000000 0.042066 0.000000
# 3 -0.001653 -0.016118 0.027137 0.000000 -0.022445 0.000000
# 4 0.000000 0.000000 0.000000 0.046839 0.000000 0.013088
# 5 -0.016236 0.042066 -0.022445 0.000000 0.142126 0.000000
# 6 0.000000 0.000000 0.000000 0.013088 0.000000 0.052464
#
#
# Mechanical properties :
#
#
# Convention : Reuss Voigt Hill
#
# Bulk Modulus (GPa) = 48.26644 49.67924 48.97284
# Shear Modulus (GPa) = 12.85538 18.36389 15.60964
#
# Velocity S-wave (km/s) = 2.79631 3.34214 3.08134
# Velocity P-wave (km/s) = 6.30746 6.71646 6.51517
#
# Compressibility (1/GPa) = 0.02071833
#
# Stress axis : x y z
#
# Youngs Moduli (GPa) = 53.81751 28.61717 36.84985
#
# Poissons Ratio (x) = 0.34916 0.06091
# Poissons Ratio (y) = 0.65663 0.59395
# Poissons Ratio (z) = 0.08896 0.46125
#
# Static dielectric constant tensor:
#      x y z
#    x 1.599170 0.000000 0.050980 
#    y 0.000000 1.558820 0.000000 
#    z 0.050980 0.000000 1.568000 
# 
# From -- ./inp_files/98792.got.cif
#   From: 2010.05.17/outbox.cif.g08.bks.cpg/sg12_50_cif.got.tgz:98792.got - 2010.06.03 13:09:07.
