data_PCOD9178478
_publ_section_title
;
Structure prediction by ZEFSAII (Michael W. Deem and Ramdas Pophale) SiO2 
 PCOD9178478
Probable space group: C 2/M
;
_chemical_formula_sum "Si O2"
_cell_formula_units_Z 58
_cell_length_a 29.548499
_cell_length_b 7.376660
_cell_length_c 27.315823
_cell_angle_alpha 90.000000
_cell_angle_beta 151.902332
_cell_angle_gamma 90.000000
_cell_volume 2804.195172
_symmetry_space_group_name_H-M "C 2/M"
_symmetry_group_IT_number 12
_symmetry_cell_setting 'monoclinic'
loop_
_space_group_symop_operation_xyz
x,y,z
-x,y,-z
-x,-y,-z
x,-y,z
1/2+x,1/2+y,z
1/2-x,1/2+y,-z
1/2-x,1/2-y,-z
1/2+x,1/2-y,z
loop_
_atom_site_type_symbol
_atom_site_label
_atom_site_fract_x
_atom_site_fract_y
_atom_site_fract_z
Si Si1 0.498871 0.778494 0.687967
Si Si2 0.572479 0.210083 0.487836
Si Si3 0.412815 0.210154 0.704510
Si Si4 0.038253 0.290214 0.086804
Si Si5 0.205487 0.278931 0.316545
Si Si6 0.784885 0.715790 0.088231
Si Si7 0.000000 0.000000 0.500000
Si Si8 0.411046 0.718407 0.056699
O O1 0.465466 0.730912 0.601936
O O2 0.431128 0.713443 0.667921
O O3 0.608112 0.714702 0.800938
O O4 0.498528 0.000000 0.690502
O O5 0.687831 0.219840 0.593617
O O6 0.534616 0.341688 0.493610
O O7 0.543671 0.000000 0.468382
O O8 0.336198 0.285036 0.670577
O O9 0.515592 0.219213 0.830811
O O10 0.386747 0.000000 0.673194
O O11 0.062365 0.500000 0.099132
O O12 0.131119 0.215405 0.203646
O O13 0.954657 0.282032 0.047308
O O14 0.000000 0.207666 0.000000
O O15 0.202130 0.500000 0.314105
O O16 0.790145 0.500000 0.100745
O O17 0.750000 0.750000 0.000000
O O18 0.697152 0.783289 0.037769
O O19 0.412441 0.500000 0.059035
#
# Coordination Sequence:
#
# PCOD9178478 Si02
#       8
#     8   8   8   8   8   8   2   8
#     4   9  19  37  59  88 124 162 211 261 306 381
#     4  11  24  45  71  94 123 167 214 262 327 380
#     4   9  17  33  60  85 122 164 195 243 307 366
#     4   9  19  37  59  83 114 156 204 255 310 368
#     4   9  18  36  61  91 125 161 205 259 316 379
#     4  10  19  33  53  81 120 161 199 245 301 362
#     4  12  26  52  72  90 126 164 214 284 318 372
#     4  10  19  30  48  82 118 153 196 243 301 365
#
# _framework density 20.683295000000001
#
# number of rings (size 3 to 8) (size 9 to 14) (size 15 to 20)
#    0.000    2.345    2.069    1.448    0.000    3.586 
#    4.966    0.000    0.000    0.000    0.000    0.000 
#    0.000    0.000    0.000    0.000    0.000    0.000 
#
# Total GULP energy -161583.993014 kJ/mol
# GULP energy per Si atom -5571.861828 kJ/mol
# Density = 2.063622 g / cm^3
# Si number density = 20.683295 Si / 1000 Ang^3
#
#
#
# Elastic Constant Matrix: (Units=GPa)
#
#
# Indices 1 2 3 4 5 6 
#
# 1 173.2897 27.2236 96.5595 0.0000 -25.7888 0.0000
# 2 27.2236 97.5939 11.1716 -0.0002 -6.7105 0.0001
# 3 96.5595 11.1716 105.0997 0.0000 -13.8619 0.0000
# 4 0.0000 -0.0002 0.0000 -2.8422 0.0000 9.8569
# 5 -25.7888 -6.7105 -13.8619 0.0000 12.1448 0.0000
# 6 0.0000 0.0001 0.0000 9.8569 0.0000 13.9677
#
#
#
# Elastic Compliance Matrix: (Units=1/GPa)
#
#
# Indices 1 2 3 4 5 6 
#
# 1 0.014943 -0.001647 -0.011170 0.000000 0.018071 0.000000
# 2 -0.001647 0.010848 0.000812 0.000000 0.003423 0.000000
# 3 -0.011170 0.000812 0.019567 0.000000 -0.000937 0.000000
# 4 0.000000 0.000000 0.000000 -0.102060 0.000000 0.072023
# 5 0.018071 0.003423 -0.000937 0.000000 0.121534 0.000000
# 6 0.000000 0.000000 0.000000 0.072023 0.000000 0.020767
#
#
# Mechanical properties :
#
#
# Convention : Reuss Voigt Hill
#
# Bulk Modulus (GPa) = 46.84395 71.76583 59.30489
# Shear Modulus (GPa) = 42.83486 20.72265 31.77875
#
# Velocity S-wave (km/s) = 4.55575 3.16872 3.92400
# Velocity P-wave (km/s) = 7.09722 6.93978 7.01894
#
# Compressibility (1/GPa) = 0.02134747
#
# Stress axis : x y z
#
# Youngs Moduli (GPa) = 66.92148 92.17894 51.10529
#
# Poissons Ratio (x) = 0.15183 0.57085
# Poissons Ratio (y) = 0.11023 -0.04148
# Poissons Ratio (z) = 0.74752 -0.07481
#
# Static dielectric constant tensor:
#      x y z
#    x 1.723130 0.000000 0.006640 
#    y 0.000000 1.755810 0.000000 
#    z 0.006640 0.000000 1.722360 
# 
# From -- ./inp_files/351538.got.cif
#   From: 2010.05.17/outbox.cif.g08.bks.cpg/sg12_176_cif.got.tgz:351538.got - 2010.06.03 13:09:07.
