data_PCOD9178264
_publ_section_title
;
Structure prediction by ZEFSAII (Michael W. Deem and Ramdas Pophale) SiO2 
 PCOD9178264
Probable space group: C 2/M
;
_chemical_formula_sum "Si O2"
_cell_formula_units_Z 48
_cell_length_a 20.546192
_cell_length_b 9.088390
_cell_length_c 23.409854
_cell_angle_alpha 90.000000
_cell_angle_beta 139.324547
_cell_angle_gamma 90.000000
_cell_volume 2849.139591
_symmetry_space_group_name_H-M "C 2/M"
_symmetry_group_IT_number 12
_symmetry_cell_setting 'monoclinic'
loop_
_space_group_symop_operation_xyz
x,y,z
-x,y,-z
-x,-y,-z
x,-y,z
1/2+x,1/2+y,z
1/2-x,1/2+y,-z
1/2-x,1/2-y,-z
1/2+x,1/2-y,z
loop_
_atom_site_type_symbol
_atom_site_label
_atom_site_fract_x
_atom_site_fract_y
_atom_site_fract_z
Si Si1 0.921175 0.177347 0.780150
Si Si2 0.049004 0.673573 0.765173
Si Si3 0.731127 0.325355 0.048533
Si Si4 0.970479 0.326902 0.046266
Si Si5 0.406087 0.668646 0.589156
Si Si6 0.244061 0.669298 0.585147
O O1 0.810464 0.216260 0.683464
O O2 0.998852 0.241335 0.785147
O O3 0.950582 0.247481 0.859710
O O4 0.928686 0.000000 0.785908
O O5 0.027154 0.500000 0.756411
O O6 0.167609 0.694061 0.847754
O O7 0.997305 0.735926 0.673882
O O8 0.713900 0.500000 0.029598
O O9 0.750000 0.250000 0.000000
O O10 0.635566 0.249509 0.012781
O O11 0.964654 0.500000 0.057248
O O12 0.000000 0.312935 0.000000
O O13 0.435543 0.500000 0.600365
O O14 0.324174 0.672093 0.586145
O O15 0.348730 0.733591 0.496449
O O16 0.212681 0.500000 0.571399
#
# Coordination Sequence:
#
# PCOD9178264 Si02
#       6
#     8   8   8   8   8   8
#     4  10  19  31  50  73  98 133 173 213 258 307
#     4  10  19  30  47  72 102 134 167 209 258 307
#     4  11  22  35  55  79 104 137 176 217 262 311
#     4  11  24  39  54  75 105 140 177 218 263 311
#     4   9  16  25  40  65  96 131 166 203 249 301
#     4   8  15  26  40  63  95 129 164 203 251 304
#
# _framework density 16.847190999999999
#
# number of rings (size 3 to 8) (size 9 to 14) (size 15 to 20)
#    0.000    2.167    1.667    3.500    0.000    8.000 
#    0.000    0.000    0.000    0.000    0.000    1.167 
#    0.000    9.333    0.000    0.000    0.000    0.000 
#
# Total GULP energy -133843.962688 kJ/mol
# GULP energy per Si atom -5576.831779 kJ/mol
# Density = 1.680885 g / cm^3
# Si number density = 16.847191 Si / 1000 Ang^3
#
#
#
# Elastic Constant Matrix: (Units=GPa)
#
#
# Indices 1 2 3 4 5 6 
#
# 1 38.6280 35.5520 31.7662 0.0000 0.6598 0.0000
# 2 35.5520 117.3214 89.4570 0.0000 0.0346 0.0000
# 3 31.7662 89.4570 158.5887 0.0000 -6.1570 0.0000
# 4 0.0000 0.0000 0.0000 33.7760 0.0000 -0.4240
# 5 0.6598 0.0346 -6.1570 0.0000 11.6972 0.0000
# 6 0.0000 0.0000 0.0000 -0.4240 0.0000 17.4162
#
#
#
# Elastic Compliance Matrix: (Units=1/GPa)
#
#
# Indices 1 2 3 4 5 6 
#
# 1 0.036322 -0.009416 -0.002085 0.000000 -0.003119 0.000000
# 2 -0.009416 0.017641 -0.008214 0.000000 -0.003845 0.000000
# 3 -0.002085 -0.008214 0.011600 0.000000 0.006248 0.000000
# 4 0.000000 0.000000 0.000000 0.029616 0.000000 0.000721
# 5 -0.003119 -0.003845 0.006248 0.000000 0.088967 0.000000
# 6 0.000000 0.000000 0.000000 0.000721 0.000000 0.057435
#
#
# Mechanical properties :
#
#
# Convention : Reuss Voigt Hill
#
# Bulk Modulus (GPa) = 38.26730 69.78762 54.02746
# Shear Modulus (GPa) = 17.25788 23.09541 20.17664
#
# Velocity S-wave (km/s) = 3.20406 3.70655 3.46443
# Velocity P-wave (km/s) = 6.03752 7.73510 6.93843
#
# Compressibility (1/GPa) = 0.02613197
#
# Stress axis : x y z
#
# Youngs Moduli (GPa) = 27.53142 56.68455 86.21040
#
# Poissons Ratio (x) = 0.53373 0.17978
# Poissons Ratio (y) = 0.25923 0.70817
# Poissons Ratio (z) = 0.05741 0.46563
#
# Static dielectric constant tensor:
#      x y z
#    x 1.529140 0.000000 -0.004170 
#    y 0.000000 1.569820 0.000000 
#    z -0.004170 0.000000 1.597000 
# 
# From -- ./inp_files/345380.got.cif
#   From: 2010.05.17/outbox.cif.g08.bks.cpg/sg12_173_cif.got.tgz:345380.got - 2010.06.03 13:09:07.
