data_PCOD9178505
_publ_section_title
;
Structure prediction by ZEFSAII (Michael W. Deem and Ramdas Pophale) SiO2 
 PCOD9178505
Probable space group: C 2/M
;
_chemical_formula_sum "Si O2"
_cell_formula_units_Z 40
_cell_length_a 28.124449
_cell_length_b 7.226385
_cell_length_c 7.525950
_cell_angle_alpha 90.000000
_cell_angle_beta 104.660667
_cell_angle_gamma 90.000000
_cell_volume 1479.759928
_symmetry_space_group_name_H-M "C 2/M"
_symmetry_group_IT_number 12
_symmetry_cell_setting 'monoclinic'
loop_
_space_group_symop_operation_xyz
x,y,z
-x,y,-z
-x,-y,-z
x,-y,z
1/2+x,1/2+y,z
1/2-x,1/2+y,-z
1/2-x,1/2-y,-z
1/2+x,1/2-y,z
loop_
_atom_site_type_symbol
_atom_site_label
_atom_site_fract_x
_atom_site_fract_y
_atom_site_fract_z
Si Si1 0.317738 0.776138 0.189297
Si Si2 0.382456 0.273400 0.745741
Si Si3 0.926199 0.789740 0.431943
Si Si4 0.958477 0.774805 0.099359
Si Si5 0.218649 0.788499 0.244429
O O1 0.370737 0.707607 0.299627
O O2 0.273224 0.710693 0.275232
O O3 0.318365 0.000000 0.189870
O O4 0.302612 0.713598 0.977548
O O5 0.381511 0.500000 0.738191
O O6 0.416709 0.208590 0.616799
O O7 0.407981 0.221784 0.954312
O O8 0.326388 0.207197 0.686234
O O9 0.943048 0.000000 0.478248
O O10 0.958849 0.710102 0.303082
O O11 0.960103 0.000000 0.109338
O O12 0.000000 0.717661 0.000000
O O13 0.224729 0.000000 0.308014
#
# Coordination Sequence:
#
# PCOD9178505 Si02
#       5
#     8   8   8   8   8
#     4  10  19  30  49  75 102 134 170 204 240 290
#     4   9  17  30  50  75 101 130 164 202 248 297
#     4  10  19  32  52  74 101 135 164 200 250 296
#     4   9  17  30  50  76 102 126 160 209 254 292
#     4   9  17  32  51  72 102 135 167 204 244 289
#
# _framework density 27.031412
#
# number of rings (size 3 to 8) (size 9 to 14) (size 15 to 20)
#    0.000    2.600    2.000    0.600    0.000    2.400 
#    0.000    5.000    0.000    0.600    0.000    1.400 
#    0.000    0.000    0.000    0.000    0.000    0.000 
#
# Total GULP energy -111873.321475 kJ/mol
# GULP energy per Si atom -5593.666074 kJ/mol
# Density = 2.696989 g / cm^3
# Si number density = 27.031412 Si / 1000 Ang^3
#
#
#
# Elastic Constant Matrix: (Units=GPa)
#
#
# Indices 1 2 3 4 5 6 
#
# 1 143.0827 -3.2213 31.0454 0.0000 -42.6709 0.0000
# 2 -3.2213 145.6953 -2.2956 0.0000 -9.1200 0.0000
# 3 31.0454 -2.2956 151.6364 0.0000 -31.4227 0.0000
# 4 0.0000 0.0000 0.0000 -25.3720 0.0000 9.1465
# 5 -42.6709 -9.1200 -31.4227 0.0000 64.9108 0.0000
# 6 0.0000 0.0000 0.0000 9.1465 0.0000 -3.3324
#
#
#
# Elastic Compliance Matrix: (Units=1/GPa)
#
#
# Indices 1 2 3 4 5 6 
#
# 1 0.008794 0.000531 -0.000644 0.000000 0.005544 0.000000
# 2 0.000531 0.006973 0.000303 0.000000 0.001475 0.000000
# 3 -0.000644 0.000303 0.007394 0.000000 0.003199 0.000000
# 4 0.000000 0.000000 0.000000 -3.734484 0.000000-10.250022
# 5 0.005544 0.001475 0.003199 0.000000 0.020806 0.000000
# 6 0.000000 0.000000 0.000000-10.250022 0.000000-28.433272
#
#
# Mechanical properties :
#
#
# Convention : Reuss Voigt Hill
#
# Bulk Modulus (GPa) = 42.47913 54.60793 48.54353
# Shear Modulus (GPa) = -0.15568 34.90035 17.37233
#
# Velocity S-wave (km/s) = -0.24025 3.59709 2.53785
# Velocity P-wave (km/s) = 3.95877 6.12353 5.15604
#
# Compressibility (1/GPa) = 0.02354097
#
# Stress axis : x y z
#
# Youngs Moduli (GPa) = 113.71471 143.42052 135.24628
#
# Poissons Ratio (x) = -0.07620 0.08703
# Poissons Ratio (y) = -0.06042 -0.04091
# Poissons Ratio (z) = 0.07318 -0.04339
#
# Static dielectric constant tensor:
#      x y z
#    x 2.112130 0.000000 -0.037770 
#    y 0.000000 1.981350 0.000000 
#    z -0.037770 0.000000 2.067940 
# 
# From -- ./inp_files/101090.got.cif
#   From: 2010.05.17/outbox.cif.g08.bks.cpg/sg12_51_cif.got.tgz:101090.got - 2010.06.03 13:09:07.
