data_PCOD9178150
_publ_section_title
;
Structure prediction by ZEFSAII (Michael W. Deem and Ramdas Pophale) SiO2 
 PCOD9178150
Probable space group: C 2/M
;
_chemical_formula_sum "Si O2"
_cell_formula_units_Z 56
_cell_length_a 26.671124
_cell_length_b 9.163425
_cell_length_c 13.689350
_cell_angle_alpha 90.000000
_cell_angle_beta 60.418493
_cell_angle_gamma 90.000000
_cell_volume 2909.568790
_symmetry_space_group_name_H-M "C 2/M"
_symmetry_group_IT_number 12
_symmetry_cell_setting 'monoclinic'
loop_
_space_group_symop_operation_xyz
x,y,z
-x,y,-z
-x,-y,-z
x,-y,z
1/2+x,1/2+y,z
1/2-x,1/2+y,-z
1/2-x,1/2-y,-z
1/2+x,1/2-y,z
loop_
_atom_site_type_symbol
_atom_site_label
_atom_site_fract_x
_atom_site_fract_y
_atom_site_fract_z
Si Si1 0.811521 0.175931 0.431228
Si Si2 0.984987 0.331869 0.373559
Si Si3 0.117907 0.173299 0.439951
Si Si4 0.485664 0.669112 0.177024
Si Si5 0.624416 0.675888 0.828630
Si Si6 0.875870 0.829282 0.959932
Si Si7 0.876020 0.669777 0.759615
O O1 0.750000 0.250000 0.500000
O O2 0.848128 0.210660 0.493225
O O3 0.841660 0.223624 0.300771
O O4 0.806604 0.000000 0.432263
O O5 0.969392 0.500000 0.406524
O O6 0.946725 0.232215 0.480192
O O7 0.970636 0.277970 0.278552
O O8 0.053981 0.319270 0.312743
O O9 0.144202 0.248192 0.318445
O O10 0.117295 0.000000 0.427813
O O11 0.472358 0.500000 0.219270
O O12 0.443247 0.703333 0.128586
O O13 0.554144 0.675788 0.097310
O O14 0.629887 0.500000 0.829737
O O15 0.644688 0.730562 0.915058
O O16 0.858901 0.742877 0.878900
O O17 0.860220 0.000000 0.963305
O O18 0.860266 0.500000 0.772894
#
# Coordination Sequence:
#
# PCOD9178150 Si02
#       7
#     8   8   8   8   8   8   8
#     4  10  22  39  58  81 106 132 171 225 274 316
#     4  10  19  30  46  73 109 146 177 211 258 312
#     4  11  21  35  55  76 101 136 180 225 263 308
#     4   9  15  27  47  74 106 140 177 214 252 306
#     4   9  16  31  53  77 105 135 173 221 264 306
#     4   9  17  29  51  78 105 142 179 209 251 310
#     4  10  21  34  48  74 113 147 175 211 256 311
#
# _framework density 19.246838
#
# number of rings (size 3 to 8) (size 9 to 14) (size 15 to 20)
#    0.000    2.286    1.429    2.143    0.000    6.286 
#    0.000    1.429    0.000    4.286    0.000    0.000 
#    0.000    0.000    0.000    0.000    0.000    0.000 
#
# Total GULP energy -156117.588692 kJ/mol
# GULP energy per Si atom -5575.628168 kJ/mol
# Density = 1.920303 g / cm^3
# Si number density = 19.246838 Si / 1000 Ang^3
#
#
#
# Elastic Constant Matrix: (Units=GPa)
#
#
# Indices 1 2 3 4 5 6 
#
# 1 36.6872 31.9554 40.3705 0.0000 16.9331 0.0000
# 2 31.9554 58.4589 47.3620 0.0000 23.4490 0.0000
# 3 40.3705 47.3620 119.7709 0.0000 47.0270 0.0000
# 4 0.0000 0.0000 0.0000 8.8311 0.0000 -8.9989
# 5 16.9331 23.4490 47.0270 0.0000 36.3354 0.0000
# 6 0.0000 0.0000 0.0000 -8.9989 0.0000 10.5623
#
#
#
# Elastic Compliance Matrix: (Units=1/GPa)
#
#
# Indices 1 2 3 4 5 6 
#
# 1 0.060244 -0.024619 -0.011763 0.000000 0.003038 0.000000
# 2 -0.024619 0.036094 -0.002712 0.000000 -0.008311 0.000000
# 3 -0.011763 -0.002712 0.021445 0.000000 -0.020523 0.000000
# 4 0.000000 0.000000 0.000000 0.858936 0.000000 0.731800
# 5 0.003038 -0.008311 -0.020523 0.000000 0.058031 0.000000
# 6 0.000000 0.000000 0.000000 0.731800 0.000000 0.718159
#
#
# Mechanical properties :
#
#
# Convention : Reuss Voigt Hill
#
# Bulk Modulus (GPa) = 25.25628 50.47699 37.86664
# Shear Modulus (GPa) = 2.71106 17.49435 10.10270
#
# Velocity S-wave (km/s) = 1.18812 3.01814 2.29356
# Velocity P-wave (km/s) = 3.87724 6.19908 5.17018
#
# Compressibility (1/GPa) = 0.03959411
#
# Stress axis : x y z
#
# Youngs Moduli (GPa) = 16.59927 27.70541 46.63152
#
# Poissons Ratio (x) = 0.68208 0.54855
# Poissons Ratio (y) = 0.40866 0.12645
# Poissons Ratio (z) = 0.19526 0.07513
#
# Static dielectric constant tensor:
#      x y z
#    x 1.676530 0.000000 0.027690 
#    y 0.000000 1.640090 0.000000 
#    z 0.027690 0.000000 1.712260 
# 
# From -- ./inp_files/243689.got.cif
#   From: 2010.05.17/outbox.cif.g08.bks.cpg/sg12_122_cif.got.tgz:243689.got - 2010.06.03 13:09:07.
