data_PCOD9178852
_publ_section_title
;
Structure prediction by ZEFSAII (Michael W. Deem and Ramdas Pophale) SiO2 
 PCOD9178852
Probable space group: C 2/M
;
_chemical_formula_sum "Si O2"
_cell_formula_units_Z 48
_cell_length_a 32.373096
_cell_length_b 11.300087
_cell_length_c 8.425007
_cell_angle_alpha 90.000000
_cell_angle_beta 34.519451
_cell_angle_gamma 90.000000
_cell_volume 1746.540908
_symmetry_space_group_name_H-M "C 2/M"
_symmetry_group_IT_number 12
_symmetry_cell_setting 'monoclinic'
loop_
_space_group_symop_operation_xyz
x,y,z
-x,y,-z
-x,-y,-z
x,-y,z
1/2+x,1/2+y,z
1/2-x,1/2+y,-z
1/2-x,1/2-y,-z
1/2+x,1/2-y,z
loop_
_atom_site_type_symbol
_atom_site_label
_atom_site_fract_x
_atom_site_fract_y
_atom_site_fract_z
Si Si1 0.341252 0.874632 0.981078
Si Si2 0.671645 0.631953 0.819632
Si Si3 0.811147 0.128799 0.710012
Si Si4 0.964527 0.871937 0.939388
Si Si5 0.479644 0.126690 0.377129
Si Si6 0.204994 0.367936 0.347970
O O1 0.358132 0.751481 0.009386
O O2 0.258388 0.877613 0.187312
O O3 0.392510 0.876608 0.665751
O O4 0.354309 0.000000 0.026618
O O5 0.656904 0.500000 0.934910
O O6 0.623557 0.627585 0.811081
O O7 0.758046 0.644617 0.592037
O O8 0.842575 0.255941 0.557386
O O9 0.849290 0.000000 0.585417
O O10 0.773508 0.136562 0.004902
O O11 0.993139 0.749392 0.777441
O O12 0.987156 0.000000 0.792494
O O13 0.000000 0.874209 0.000000
O O14 0.500000 0.124641 0.500000
O O15 0.504022 0.000000 0.228150
O O16 0.173588 0.500000 0.439497
#
# Coordination Sequence:
#
# PCOD9178852 Si02
#       6
#     8   8   8   8   8   8
#     4   9  16  26  41  62  87 111 137 171 211 255
#     4   9  16  26  41  60  83 111 142 176 212 251
#     4   8  13  21  34  54  81 108 131 162 205 250
#     4  10  21  34  46  63  88 117 150 185 218 255
#     4  10  19  31  47  67  89 114 146 181 217 260
#     4   8  13  21  34  54  79 106 135 165 203 250
#
# _framework density 27.482896
#
# number of rings (size 3 to 8) (size 9 to 14) (size 15 to 20)
#    0.000    3.000    1.667    0.000    0.000    1.333 
#    0.000    0.000    0.000    0.000    0.000    1.167 
#    0.000    0.000    0.000    0.000    0.000    0.000 
#
# Total GULP energy -133737.714224 kJ/mol
# GULP energy per Si atom -5572.404759 kJ/mol
# Density = 2.742034 g / cm^3
# Si number density = 27.482896 Si / 1000 Ang^3
#
#
#
# Elastic Constant Matrix: (Units=GPa)
#
#
# Indices 1 2 3 4 5 6 
#
# 1 131.4144 45.6264 17.7289 0.0000 2.9151 0.0000
# 2 45.6264 340.9783 71.7672 0.0000 24.7531 0.0000
# 3 17.7289 71.7672 53.9739 0.0000 -5.1239 0.0000
# 4 0.0000 0.0000 0.0000 30.8673 0.0000 18.1941
# 5 2.9151 24.7531 -5.1239 0.0000 36.4528 0.0000
# 6 0.0000 0.0000 0.0000 18.1941 0.0000 23.3269
#
#
#
# Elastic Compliance Matrix: (Units=1/GPa)
#
#
# Indices 1 2 3 4 5 6 
#
# 1 0.008096 -0.000670 -0.001812 0.000000 -0.000447 0.000000
# 2 -0.000670 0.004646 -0.006336 0.000000 -0.003992 0.000000
# 3 -0.001812 -0.006336 0.028348 0.000000 0.008432 0.000000
# 4 0.000000 0.000000 0.000000 0.059964 0.000000 -0.046770
# 5 -0.000447 -0.003992 0.008432 0.000000 0.031364 0.000000
# 6 0.000000 0.000000 0.000000 -0.046770 0.000000 0.079347
#
#
# Mechanical properties :
#
#
# Convention : Reuss Voigt Hill
#
# Bulk Modulus (GPa) = 42.63420 88.51239 65.57329
# Shear Modulus (GPa) = 21.07755 44.21236 32.64496
#
# Velocity S-wave (km/s) = 2.77236 4.01524 3.45023
# Velocity P-wave (km/s) = 5.07884 7.33297 6.30742
#
# Compressibility (1/GPa) = 0.02345535
#
# Stress axis : x y z
#
# Youngs Moduli (GPa) = 123.51302 215.25097 35.27573
#
# Poissons Ratio (x) = 0.14413 0.06390
# Poissons Ratio (y) = 0.08271 0.22352
# Poissons Ratio (z) = 0.22375 1.36389
#
# Static dielectric constant tensor:
#      x y z
#    x 2.198300 0.000000 0.021020 
#    y 0.000000 2.139430 0.000000 
#    z 0.021020 0.000000 2.207590 
# 
# From -- ./inp_files/101990.got.cif
#   From: 2010.05.17/outbox.cif.g08.bks.cpg/sg12_51_cif.got.tgz:101990.got - 2010.06.03 13:09:07.
