data_PCOD9178917
_publ_section_title
;
Structure prediction by ZEFSAII (Michael W. Deem and Ramdas Pophale) SiO2 
 PCOD9178917
Probable space group: C 2/M
;
_chemical_formula_sum "Si O2"
_cell_formula_units_Z 56
_cell_length_a 14.830945
_cell_length_b 9.305516
_cell_length_c 21.148910
_cell_angle_alpha 90.000000
_cell_angle_beta 78.745583
_cell_angle_gamma 90.000000
_cell_volume 2862.625608
_symmetry_space_group_name_H-M "C 2/M"
_symmetry_group_IT_number 12
_symmetry_cell_setting 'monoclinic'
loop_
_space_group_symop_operation_xyz
x,y,z
-x,y,-z
-x,-y,-z
x,-y,z
1/2+x,1/2+y,z
1/2-x,1/2+y,-z
1/2-x,1/2-y,-z
1/2+x,1/2-y,z
loop_
_atom_site_type_symbol
_atom_site_label
_atom_site_fract_x
_atom_site_fract_y
_atom_site_fract_z
Si Si1 0.305997 0.334435 0.811878
Si Si2 0.499678 0.838065 0.929735
Si Si3 0.155387 0.173553 0.329027
Si Si4 0.443517 0.325496 0.339438
Si Si5 0.220646 0.326277 0.568593
Si Si6 0.471858 0.335580 0.194478
Si Si7 0.282074 0.839186 0.935469
O O1 0.274767 0.500000 0.819998
O O2 0.296279 0.274574 0.742205
O O3 0.417057 0.336058 0.808605
O O4 0.261817 0.241084 0.872934
O O5 0.546359 0.755981 0.865466
O O6 0.392533 0.847684 0.925956
O O7 0.538029 0.000000 0.930262
O O8 0.500000 0.771027 0.000000
O O9 0.048338 0.213157 0.342785
O O10 0.206426 0.211280 0.386128
O O11 0.157238 0.000000 0.323251
O O12 0.433434 0.500000 0.346113
O O13 0.374196 0.240726 0.393271
O O14 0.430350 0.286204 0.267132
O O15 0.216499 0.500000 0.562805
O O16 0.250000 0.250000 0.500000
O O17 0.444408 0.500000 0.187406
O O18 0.243941 0.000000 0.942055
O O19 0.250000 0.750000 0.000000
#
# Coordination Sequence:
#
# PCOD9178917 Si02
#       7
#     8   8   8   8   8   8   8
#     4   8  14  30  54  74  94 129 176 219 256 308
#     4   9  18  32  48  68  97 133 173 214 257 307
#     4   8  17  36  61  82 106 147 189 219 267 338
#     4   9  18  37  61  83 109 144 185 227 273 327
#     4  11  23  39  58  85 117 148 183 225 274 329
#     4   8  15  29  52  76  98 129 170 216 264 310
#     4  10  19  31  47  69  99 134 171 214 263 313
#
# _framework density 19.562460999999999
#
# number of rings (size 3 to 8) (size 9 to 14) (size 15 to 20)
#    0.000    3.000    0.000    2.571    0.000    2.000 
#    2.571    7.857    0.000    0.000    0.000    0.000 
#    0.000    0.000    0.000    0.000    0.000    0.000 
#
# Total GULP energy -156159.826385 kJ/mol
# GULP energy per Si atom -5577.136657 kJ/mol
# Density = 1.951794 g / cm^3
# Si number density = 19.562461 Si / 1000 Ang^3
#
#
#
# Elastic Constant Matrix: (Units=GPa)
#
#
# Indices 1 2 3 4 5 6 
#
# 1 56.1631 23.9077 45.8399 0.0000 1.1151 0.0000
# 2 23.9077 82.4675 87.9572 0.0000 -11.7300 0.0000
# 3 45.8399 87.9572 212.9425 0.0000 -8.3637 0.0000
# 4 0.0000 0.0000 0.0000 36.6748 0.0000 -4.0450
# 5 1.1151 -11.7300 -8.3637 0.0000 30.8769 0.0000
# 6 0.0000 0.0000 0.0000 -4.0450 0.0000 17.6419
#
#
#
# Elastic Compliance Matrix: (Units=1/GPa)
#
#
# Indices 1 2 3 4 5 6 
#
# 1 0.022094 -0.002901 -0.003672 0.000000 -0.002895 0.000000
# 2 -0.002901 0.023163 -0.008686 0.000000 0.006551 0.000000
# 3 -0.003672 -0.008686 0.009046 0.000000 -0.000717 0.000000
# 4 0.000000 0.000000 0.000000 0.027974 0.000000 0.006414
# 5 -0.002895 0.006551 -0.000717 0.000000 0.034786 0.000000
# 6 0.000000 0.000000 0.000000 0.006414 0.000000 0.058154
#
#
# Mechanical properties :
#
#
# Convention : Reuss Voigt Hill
#
# Bulk Modulus (GPa) = 42.04047 74.10919 58.07483
# Shear Modulus (GPa) = 23.40138 29.96328 26.68233
#
# Velocity S-wave (km/s) = 3.46242 3.91790 3.69718
# Velocity P-wave (km/s) = 6.12548 7.64410 6.92653
#
# Compressibility (1/GPa) = 0.02378660
#
# Stress axis : x y z
#
# Youngs Moduli (GPa) = 45.26031 43.17279 110.54549
#
# Poissons Ratio (x) = 0.12524 0.40589
# Poissons Ratio (y) = 0.13129 0.96017
# Poissons Ratio (z) = 0.16618 0.37499
#
# Static dielectric constant tensor:
#      x y z
#    x 1.720710 0.000000 0.012350 
#    y 0.000000 1.678360 0.000000 
#    z 0.012350 0.000000 1.684160 
# 
# From -- ./inp_files/308897.got.cif
#   From: 2010.05.17/outbox.cif.g08.bks.cpg/sg12_155_cif.got.tgz:308897.got - 2010.06.03 13:09:07.
