data_PCOD9178110
_publ_section_title
;
Structure prediction by ZEFSAII (Michael W. Deem and Ramdas Pophale) SiO2 
 PCOD9178110
Probable space group: C 2/M
;
_chemical_formula_sum "Si O2"
_cell_formula_units_Z 64
_cell_length_a 29.204114
_cell_length_b 7.535531
_cell_length_c 14.502763
_cell_angle_alpha 90.000000
_cell_angle_beta 71.968570
_cell_angle_gamma 90.000000
_cell_volume 3034.851825
_symmetry_space_group_name_H-M "C 2/M"
_symmetry_group_IT_number 12
_symmetry_cell_setting 'monoclinic'
loop_
_space_group_symop_operation_xyz
x,y,z
-x,y,-z
-x,-y,-z
x,-y,z
1/2+x,1/2+y,z
1/2-x,1/2+y,-z
1/2-x,1/2-y,-z
1/2+x,1/2-y,z
loop_
_atom_site_type_symbol
_atom_site_label
_atom_site_fract_x
_atom_site_fract_y
_atom_site_fract_z
Si Si1 0.685850 0.281627 0.716620
Si Si2 0.523276 0.206308 0.883062
Si Si3 0.871236 0.293413 0.729675
Si Si4 0.054925 0.216058 0.478558
Si Si5 0.129956 0.793221 0.575364
Si Si6 0.618658 0.702074 0.911241
Si Si7 0.426422 0.206776 0.868117
Si Si8 0.703881 0.784088 0.366939
O O1 0.685102 0.500000 0.716902
O O2 0.651291 0.217040 0.655971
O O3 0.664086 0.223382 0.828015
O O4 0.740787 0.228380 0.665444
O O5 0.574625 0.295392 0.864911
O O6 0.480540 0.282726 0.846356
O O7 0.531839 0.000000 0.854577
O O8 0.500000 0.211068 0.000000
O O9 0.860468 0.500000 0.755677
O O10 0.912919 0.279757 0.626863
O O11 0.892995 0.213913 0.809516
O O12 0.824022 0.221236 0.707709
O O13 0.082297 0.278819 0.554335
O O14 0.000000 0.272234 0.500000
O O15 0.056250 0.000000 0.477449
O O16 0.172596 0.779674 0.473105
O O17 0.120069 0.000000 0.599599
O O18 0.628789 0.500000 0.930544
O O19 0.599990 0.789292 0.016538
O O20 0.434355 0.000000 0.839820
O O21 0.702222 0.000000 0.369917
#
# Coordination Sequence:
#
# PCOD9178110 Si02
#       8
#     8   8   8   8   8   8   8   8
#     4   9  18  31  47  68  95 123 148 186 239 280
#     4   8  15  29  46  62  87 120 148 181 226 269
#     4   9  18  32  51  70  89 121 161 194 225 269
#     4   9  18  31  47  70 100 128 151 183 229 275
#     4   9  17  31  49  68  93 123 153 185 226 278
#     4  10  19  30  46  70  96 121 154 192 227 269
#     4   9  18  33  49  66  92 125 156 188 231 274
#     4   9  17  32  51  69  90 117 153 193 231 273
#
# _framework density 21.088343999999999
#
# number of rings (size 3 to 8) (size 9 to 14) (size 15 to 20)
#    0.000    3.000    0.000    1.500    0.000    4.000 
#    0.000    4.375    0.000    0.000    0.000    0.000 
#    0.000    0.000    0.000    0.000    0.000    0.000 
#
# Total GULP energy -178381.719590 kJ/mol
# GULP energy per Si atom -5574.428737 kJ/mol
# Density = 2.104035 g / cm^3
# Si number density = 21.088344 Si / 1000 Ang^3
#
#
#
# Elastic Constant Matrix: (Units=GPa)
#
#
# Indices 1 2 3 4 5 6 
#
# 1 117.8887 -5.6043 40.4625 0.0000 14.0817 0.0000
# 2 -5.6043 50.7681 -12.2249 0.0000 4.3351 0.0000
# 3 40.4625 -12.2249 38.8332 0.0000 18.3431 0.0000
# 4 0.0000 0.0000 0.0000 72.2593 0.0000 35.4984
# 5 14.0817 4.3351 18.3431 0.0000 35.4485 0.0000
# 6 0.0000 0.0000 0.0000 35.4984 0.0000 34.4690
#
#
#
# Elastic Compliance Matrix: (Units=1/GPa)
#
#
# Indices 1 2 3 4 5 6 
#
# 1 0.013719 -0.002875 -0.016930 0.000000 0.003662 0.000000
# 2 -0.002875 0.023802 0.014987 0.000000 -0.009524 0.000000
# 3 -0.016930 0.014987 0.060614 0.000000 -0.026473 0.000000
# 4 0.000000 0.000000 0.000000 0.028011 0.000000 -0.028847
# 5 0.003662 -0.009524 -0.026473 0.000000 0.041619 0.000000
# 6 0.000000 0.000000 0.000000 -0.028847 0.000000 0.058720
#
#
# Mechanical properties :
#
#
# Convention : Reuss Voigt Hill
#
# Bulk Modulus (GPa) = 11.29931 28.08407 19.69169
# Shear Modulus (GPa) = 18.82392 40.75913 29.79152
#
# Velocity S-wave (km/s) = 2.99092 4.40111 3.76267
# Velocity P-wave (km/s) = 4.15899 6.25880 5.31365
#
# Compressibility (1/GPa) = 0.08850095
#
# Stress axis : x y z
#
# Youngs Moduli (GPa) = 72.89066 42.01282 16.49789
#
# Poissons Ratio (x) = 0.12078 0.27930
# Poissons Ratio (y) = 0.20955 -0.24726
# Poissons Ratio (z) = 1.23401 -0.62966
#
# Static dielectric constant tensor:
#      x y z
#    x 1.787770 0.000000 0.030180 
#    y 0.000000 1.760610 0.000000 
#    z 0.030180 0.000000 1.736370 
# 
# From -- ./inp_files/243862.got.cif
#   From: 2010.05.17/outbox.cif.g08.bks.cpg/sg12_122_cif.got.tgz:243862.got - 2010.06.03 13:09:07.
