data_PCOD9178315
_publ_section_title
;
Structure prediction by ZEFSAII (Michael W. Deem and Ramdas Pophale) SiO2 
 PCOD9178315
Probable space group: C 2/M
;
_chemical_formula_sum "Si O2"
_cell_formula_units_Z 56
_cell_length_a 25.907496
_cell_length_b 7.711313
_cell_length_c 23.041711
_cell_angle_alpha 90.000000
_cell_angle_beta 40.730827
_cell_angle_gamma 90.000000
_cell_volume 3003.676425
_symmetry_space_group_name_H-M "C 2/M"
_symmetry_group_IT_number 12
_symmetry_cell_setting 'monoclinic'
loop_
_space_group_symop_operation_xyz
x,y,z
-x,y,-z
-x,-y,-z
x,-y,z
1/2+x,1/2+y,z
1/2-x,1/2+y,-z
1/2-x,1/2-y,-z
1/2+x,1/2-y,z
loop_
_atom_site_type_symbol
_atom_site_label
_atom_site_fract_x
_atom_site_fract_y
_atom_site_fract_z
Si Si1 0.292615 0.793315 0.403002
Si Si2 0.865010 0.702603 0.904546
Si Si3 0.337555 0.287227 0.715555
Si Si4 0.987977 0.211813 0.392868
Si Si5 0.529401 0.703470 0.724792
Si Si6 0.748427 0.700969 0.099192
Si Si7 0.672020 0.287748 0.407613
O O1 0.250000 0.750000 0.500000
O O2 0.382268 0.728554 0.327677
O O3 0.239068 0.728202 0.395408
O O4 0.295627 0.000000 0.396053
O O5 0.843413 0.500000 0.918404
O O6 0.826718 0.789691 0.880330
O O7 0.958895 0.718316 0.822749
O O8 0.820766 0.774238 0.999360
O O9 0.337146 0.500000 0.717301
O O10 0.427083 0.234297 0.655159
O O11 0.278994 0.223822 0.816104
O O12 0.316575 0.233058 0.668401
O O13 0.976012 0.271382 0.336773
O O14 0.913736 0.266418 0.495069
O O15 0.987068 0.000000 0.393255
O O16 0.512694 0.500000 0.736308
O O17 0.767893 0.500000 0.093745
O O18 0.672370 0.500000 0.407873
#
# Coordination Sequence:
#
# PCOD9178315 Si02
#       7
#     8   8   8   8   8   8   8
#     4  11  21  34  51  74 101 132 169 207 246 289
#     4  10  19  30  47  74 104 131 162 203 251 297
#     4   9  15  26  47  73 101 130 161 202 245 288
#     4   9  15  25  44  72 100 124 155 195 239 287
#     4  11  20  33  52  73  99 132 170 207 248 293
#     4   9  17  30  49  74 102 131 164 201 245 299
#     4   9  17  28  45  72 101 129 165 204 242 286
#
# _framework density 18.643820000000002
#
# number of rings (size 3 to 8) (size 9 to 14) (size 15 to 20)
#    0.000    2.286    2.857    1.714    0.000    2.286 
#    0.000    0.000    0.000    2.571    0.000    8.000 
#    0.000    0.000    0.000    0.000    0.000    0.000 
#
# Total GULP energy -156230.444672 kJ/mol
# GULP energy per Si atom -5579.658738 kJ/mol
# Density = 1.860139 g / cm^3
# Si number density = 18.643820 Si / 1000 Ang^3
#
#
#
# Elastic Constant Matrix: (Units=GPa)
#
#
# Indices 1 2 3 4 5 6 
#
# 1 129.3854 -2.2437 83.9638 0.0010 19.5836 -0.0037
# 2 -2.2437 32.1722 -0.6669 -0.0062 3.7709 -0.0096
# 3 83.9638 -0.6669 168.2739 -0.0026 12.7549 -0.0004
# 4 0.0010 -0.0062 -0.0026 13.4591 0.0035 -3.4264
# 5 19.5836 3.7709 12.7549 0.0035 27.2440 -0.0001
# 6 -0.0037 -0.0096 -0.0004 -3.4264 -0.0001 14.4652
#
#
#
# Elastic Compliance Matrix: (Units=1/GPa)
#
#
# Indices 1 2 3 4 5 6 
#
# 1 0.012442 0.001509 -0.005711 0.000001 -0.006478 0.000004
# 2 0.001509 0.031815 -0.000218 0.000023 -0.005386 0.000027
# 3 -0.005711 -0.000218 0.008790 0.000002 0.000020 -0.000001
# 4 0.000001 0.000023 0.000002 0.079067 -0.000015 0.018728
# 5 -0.006478 -0.005386 0.000020 -0.000015 0.042098 -0.000008
# 6 0.000004 0.000027 -0.000001 0.018728 -0.000008 0.073568
#
#
# Mechanical properties :
#
#
# Convention : Reuss Voigt Hill
#
# Bulk Modulus (GPa) = 22.62202 54.65977 38.64090
# Shear Modulus (GPa) = 18.42601 27.61888 23.02245
#
# Velocity S-wave (km/s) = 3.14716 3.85307 3.51787
# Velocity P-wave (km/s) = 5.03650 7.01259 6.10503
#
# Compressibility (1/GPa) = 0.04420472
#
# Stress axis : x y z
#
# Youngs Moduli (GPa) = 80.37489 31.43198 113.76666
#
# Poissons Ratio (x) = -0.04742 0.64972
# Poissons Ratio (y) = -0.12126 0.02485
# Poissons Ratio (z) = 0.45902 0.00687
#
# Static dielectric constant tensor:
#      x y z
#    x 1.613380 0.000000 0.020500 
#    y 0.000000 1.716790 0.000000 
#    z 0.020500 0.000000 1.647430 
# 
# From -- ./inp_files/348465.got.cif
#   From: 2010.05.17/outbox.cif.g08.bks.cpg/sg12_175_cif.got.tgz:348465.got - 2010.06.03 13:09:07.
