data_PCOD9178143
_publ_section_title
;
Structure prediction by ZEFSAII (Michael W. Deem and Ramdas Pophale) SiO2 
 PCOD9178143
Probable space group: C 2/M
;
_chemical_formula_sum "Si O2"
_cell_formula_units_Z 64
_cell_length_a 7.857789
_cell_length_b 27.169418
_cell_length_c 22.128211
_cell_angle_alpha 90.000000
_cell_angle_beta 57.815029
_cell_angle_gamma 90.000000
_cell_volume 3998.234229
_symmetry_space_group_name_H-M "C 2/M"
_symmetry_group_IT_number 12
_symmetry_cell_setting 'monoclinic'
loop_
_space_group_symop_operation_xyz
x,y,z
-x,y,-z
-x,-y,-z
x,-y,z
1/2+x,1/2+y,z
1/2-x,1/2+y,-z
1/2-x,1/2-y,-z
1/2+x,1/2-y,z
loop_
_atom_site_type_symbol
_atom_site_label
_atom_site_fract_x
_atom_site_fract_y
_atom_site_fract_z
Si Si1 0.202504 0.693559 0.500000
Si Si2 0.395647 0.192012 0.766187
Si Si3 0.628872 0.441368 0.414085
Si Si4 0.933913 0.307545 0.076583
Si Si5 0.163664 0.192455 0.923417
Si Si6 0.501636 0.872919 0.632344
Si Si7 0.305790 0.692012 0.766188
Si Si8 0.101332 0.872919 0.632344
O O1 0.250000 0.750000 0.500000
O O2 0.152031 0.665281 0.570711
O O3 0.364164 0.665281 0.429289
O O4 0.000000 0.691163 0.500000
O O5 0.214697 0.176090 0.845739
O O6 0.410450 0.156627 0.706129
O O7 0.366460 0.250000 0.755694
O O8 0.605916 0.188458 0.762722
O O9 0.500000 0.431006 0.500000
O O10 0.641600 0.500000 0.405600
O O11 0.851020 0.417530 0.378012
O O12 0.514943 0.417530 0.378012
O O13 0.889607 0.250000 0.073595
O O14 0.751915 0.323910 0.154261
O O15 0.129589 0.310736 0.080274
O O16 0.000000 0.330167 0.000000
O O17 0.000000 0.169833 0.000000
O O18 0.317072 0.886075 0.621952
O O19 0.471162 0.656626 0.706129
#
# Coordination Sequence:
#
# PCOD9178143 Si02
#       8
#     8   8   8   8   8   8   8   8
#     4  10  22  32  48  75 103 140 176 204 243 300
#     4  10  19  30  46  72 106 146 182 215 258 309
#     4  11  24  42  64  80 100 135 172 222 274 309
#     4   9  16  25  39  60  93 137 182 217 246 292
#     4   9  16  25  39  60  93 137 182 217 246 292
#     4  11  22  37  54  78 107 135 173 218 261 311
#     4  10  19  30  46  72 106 146 182 215 258 309
#     4  11  22  37  54  78 107 135 173 218 261 311
#
# _framework density 16.007065999999998
#
# number of rings (size 3 to 8) (size 9 to 14) (size 15 to 20)
#    0.000    1.875    2.500    3.000    1.750    5.500 
#    0.000    1.250    0.000    0.000    0.000    0.000 
#    0.000    1.000    0.500    0.000    0.000    0.000 
#
# Total GULP energy -178257.066721 kJ/mol
# GULP energy per Si atom -5570.533335 kJ/mol
# Density = 1.597063 g / cm^3
# Si number density = 16.007066 Si / 1000 Ang^3
#
#
#
# Elastic Constant Matrix: (Units=GPa)
#
#
# Indices 1 2 3 4 5 6 
#
# 1 76.7394 35.5137 30.4525 0.0000 0.0768 0.0000
# 2 35.5137 75.6862 46.1512 0.0000 0.5158 0.0000
# 3 30.4525 46.1512 150.7100 0.0000 3.5097 0.0000
# 4 0.0000 0.0000 0.0000 4.1311 0.0000 -0.6823
# 5 0.0768 0.5158 3.5097 0.0000 24.1017 0.0000
# 6 0.0000 0.0000 0.0000 -0.6823 0.0000 18.2029
#
#
#
# Elastic Compliance Matrix: (Units=1/GPa)
#
#
# Indices 1 2 3 4 5 6 
#
# 1 0.016824 -0.007156 -0.001215 0.000000 0.000276 0.000000
# 2 -0.007156 0.019293 -0.004468 0.000000 0.000261 0.000000
# 3 -0.001215 -0.004468 0.008275 0.000000 -0.001105 0.000000
# 4 0.000000 0.000000 0.000000 0.243576 0.000000 0.009129
# 5 0.000276 0.000261 -0.001105 0.000000 0.041645 0.000000
# 6 0.000000 0.000000 0.000000 0.009129 0.000000 0.055279
#
#
# Mechanical properties :
#
#
# Convention : Reuss Voigt Hill
#
# Bulk Modulus (GPa) = 53.43325 58.59671 56.01498
# Shear Modulus (GPa) = 11.99596 22.02169 17.00882
#
# Velocity S-wave (km/s) = 2.74052 3.71313 3.26326
# Velocity P-wave (km/s) = 6.59298 7.42087 7.01915
#
# Compressibility (1/GPa) = 0.01871494
#
# Stress axis : x y z
#
# Youngs Moduli (GPa) = 59.43765 51.83297 120.85010
#
# Poissons Ratio (x) = 0.37089 0.14680
# Poissons Ratio (y) = 0.42531 0.53998
# Poissons Ratio (z) = 0.07220 0.23160
#
# Static dielectric constant tensor:
#      x y z
#    x 1.593050 0.000000 0.000830 
#    y 0.000000 1.556350 0.000000 
#    z 0.000830 0.000000 1.610130 
# 
# From -- ./inp_files/333981.got.cif
#   From: 2010.05.17/outbox.cif.g08.bks.cpg/sg12_167_cif.got.tgz:333981.got - 2010.06.03 13:09:07.
