data_PCOD9178013
_publ_section_title
;
Structure prediction by ZEFSAII (Michael W. Deem and Ramdas Pophale) SiO2 
 PCOD9178013
Probable space group: C 2/M
;
_chemical_formula_sum "Si O2"
_cell_formula_units_Z 64
_cell_length_a 19.654131
_cell_length_b 18.807513
_cell_length_c 11.398003
_cell_angle_alpha 90.000000
_cell_angle_beta 53.590242
_cell_angle_gamma 90.000000
_cell_volume 3390.767593
_symmetry_space_group_name_H-M "C 2/M"
_symmetry_group_IT_number 12
_symmetry_cell_setting 'monoclinic'
loop_
_space_group_symop_operation_xyz
x,y,z
-x,y,-z
-x,-y,-z
x,-y,z
1/2+x,1/2+y,z
1/2-x,1/2+y,-z
1/2-x,1/2-y,-z
1/2+x,1/2-y,z
loop_
_atom_site_type_symbol
_atom_site_label
_atom_site_fract_x
_atom_site_fract_y
_atom_site_fract_z
Si Si1 0.061169 0.222360 0.180639
Si Si2 0.306731 0.819154 0.406948
Si Si3 0.432423 0.194098 0.474663
Si Si4 0.866075 0.230609 0.137124
Si Si5 0.689113 0.718426 0.231192
Si Si6 0.408845 0.424684 0.157185
Si Si7 0.983853 0.922906 0.334664
Si Si8 0.188219 0.916122 0.367077
O O1 0.150849 0.239486 0.146519
O O2 0.990665 0.267294 0.319114
O O3 0.043974 0.141785 0.241125
O O4 0.065113 0.233321 0.037773
O O5 0.250000 0.750000 0.500000
O O6 0.361421 0.843626 0.464506
O O7 0.367613 0.787058 0.241867
O O8 0.245204 0.877974 0.410610
O O9 0.500000 0.160520 0.500000
O O10 0.379647 0.251787 0.604191
O O11 0.776041 0.244729 0.171225
O O12 0.864597 0.149452 0.180926
O O13 0.702879 0.634636 0.240419
O O14 0.368080 0.500000 0.161886
O O15 0.427303 0.428073 0.275395
O O16 0.500000 0.421859 0.000000
O O17 0.912704 0.910164 0.505037
O O18 0.025494 0.000000 0.310885
O O19 0.207799 0.000000 0.337454
#
# Coordination Sequence:
#
# PCOD9178013 Si02
#       8
#     8   8   8   8   8   8   8   8
#     4  11  20  33  49  77 111 142 183 225 271 325
#     4  11  19  35  58  79 109 146 188 232 279 323
#     4  10  20  34  53  76 109 144 178 225 281 327
#     4  11  21  31  54  77 106 142 190 227 264 321
#     4  10  21  35  50  74 111 150 181 224 272 324
#     4  10  19  30  45  72 109 138 163 210 274 332
#     4  10  19  30  48  76 110 144 172 212 269 336
#     4  10  20  34  54  81 109 144 191 230 274 334
#
# _framework density 18.874780999999999
#
# number of rings (size 3 to 8) (size 9 to 14) (size 15 to 20)
#    0.000    1.625    5.000    1.875    0.000    0.500 
#    0.000    1.250    0.000    0.375    0.000    9.625 
#    0.000    0.000    0.000    0.000    0.000    0.000 
#
# Total GULP energy -178237.595173 kJ/mol
# GULP energy per Si atom -5569.924849 kJ/mol
# Density = 1.883182 g / cm^3
# Si number density = 18.874781 Si / 1000 Ang^3
#
#
#
# Elastic Constant Matrix: (Units=GPa)
#
#
# Indices 1 2 3 4 5 6 
#
# 1 93.5119 6.2904 2.4716 0.0000 8.9128 0.0000
# 2 6.2904 48.8509 -7.3864 0.0000 -8.0266 0.0000
# 3 2.4716 -7.3864 34.4433 0.0000 2.8951 0.0000
# 4 0.0000 0.0000 0.0000 18.8887 0.0000 -6.0306
# 5 8.9128 -8.0266 2.8951 0.0000 26.1267 0.0000
# 6 0.0000 0.0000 0.0000 -6.0306 0.0000 20.2616
#
#
#
# Elastic Compliance Matrix: (Units=1/GPa)
#
#
# Indices 1 2 3 4 5 6 
#
# 1 0.011301 -0.002331 -0.000935 0.000000 -0.004468 0.000000
# 2 -0.002331 0.022630 0.004410 0.000000 0.007259 0.000000
# 3 -0.000935 0.004410 0.030187 0.000000 -0.001671 0.000000
# 4 0.000000 0.000000 0.000000 0.058501 0.000000 0.017412
# 5 -0.004468 0.007259 -0.001671 0.000000 0.042214 0.000000
# 6 0.000000 0.000000 0.000000 0.017412 0.000000 0.054537
#
#
# Mechanical properties :
#
#
# Convention : Reuss Voigt Hill
#
# Bulk Modulus (GPa) = 15.05883 19.95081 17.50482
# Shear Modulus (GPa) = 20.90154 24.75077 22.82615
#
# Velocity S-wave (km/s) = 3.33134 3.62514 3.48134
# Velocity P-wave (km/s) = 4.77417 5.30237 5.04519
#
# Compressibility (1/GPa) = 0.06640624
#
# Stress axis : x y z
#
# Youngs Moduli (GPa) = 88.48656 44.18896 33.12728
#
# Poissons Ratio (x) = 0.10299 0.03098
# Poissons Ratio (y) = 0.20624 -0.14610
# Poissons Ratio (z) = 0.08276 -0.19488
#
# Static dielectric constant tensor:
#      x y z
#    x 1.725360 0.000000 0.018940 
#    y 0.000000 1.672920 0.000000 
#    z 0.018940 0.000000 1.749520 
# 
# From -- ./inp_files/168746.got.cif
#   From: 2010.05.17/outbox.cif.g08.bks.cpg/sg12_85_cif.got.tgz:168746.got - 2010.06.03 13:09:07.
