data_PCOD9178407
_publ_section_title
;
Structure prediction by ZEFSAII (Michael W. Deem and Ramdas Pophale) SiO2 
 PCOD9178407
Probable space group: C 2/M
;
_chemical_formula_sum "Si O2"
_cell_formula_units_Z 56
_cell_length_a 25.877193
_cell_length_b 15.249950
_cell_length_c 19.660862
_cell_angle_alpha 90.000000
_cell_angle_beta 160.345194
_cell_angle_gamma 90.000000
_cell_volume 2609.653498
_symmetry_space_group_name_H-M "C 2/M"
_symmetry_group_IT_number 12
_symmetry_cell_setting 'monoclinic'
loop_
_space_group_symop_operation_xyz
x,y,z
-x,y,-z
-x,-y,-z
x,-y,z
1/2+x,1/2+y,z
1/2-x,1/2+y,-z
1/2-x,1/2-y,-z
1/2+x,1/2-y,z
loop_
_atom_site_type_symbol
_atom_site_label
_atom_site_fract_x
_atom_site_fract_y
_atom_site_fract_z
Si Si1 0.839272 0.106934 0.767938
Si Si2 0.855226 0.649577 0.081216
Si Si3 0.144279 0.900988 0.475280
Si Si4 0.168055 0.393886 0.687403
Si Si5 0.668257 0.353368 0.974706
Si Si6 0.309963 0.103927 0.554051
Si Si7 0.970670 0.894166 0.388063
O O1 0.712002 0.131835 0.665776
O O2 0.793907 0.138632 0.636886
O O3 0.843963 0.000000 0.770328
O O4 0.000000 0.135535 0.000000
O O5 0.868373 0.754085 0.092020
O O6 0.702565 0.625135 0.849930
O O7 0.811893 0.620132 0.104308
O O8 0.013050 0.612920 0.247712
O O9 0.263007 0.858326 0.569509
O O10 0.091207 0.859473 0.480994
O O11 0.198377 0.000000 0.558102
O O12 0.983826 0.905142 0.234629
O O13 0.171872 0.500000 0.695118
O O14 0.287507 0.361987 0.892354
O O15 0.000000 0.363290 0.500000
O O16 0.277236 0.000000 0.518722
O O17 0.000000 0.860910 0.500000
O O18 0.986481 0.000000 0.407764
#
# Coordination Sequence:
#
# PCOD9178407 Si02
#       7
#     8   8   8   8   8   8   8
#     4   9  17  29  47  73 103 132 160 195 244 297
#     4  10  21  34  51  75 102 136 173 212 259 303
#     4   9  18  33  55  77  97 129 169 208 256 310
#     4  10  19  30  48  74 101 131 168 209 249 291
#     4  10  20  34  50  72 103 138 174 207 247 307
#     4  10  19  33  54  79 105 132 169 215 256 302
#     4   9  18  35  57  77  98 128 170 218 264 309
#
# _framework density 21.458787000000001
#
# number of rings (size 3 to 8) (size 9 to 14) (size 15 to 20)
#    0.000    2.429    0.000    2.571    0.000    6.286 
#    0.000    2.143    0.000    5.143    0.000    0.000 
#    0.000    0.000    0.000    0.000    0.000    0.143 
#
# Total GULP energy -156261.585315 kJ/mol
# GULP energy per Si atom -5580.770904 kJ/mol
# Density = 2.140995 g / cm^3
# Si number density = 21.458787 Si / 1000 Ang^3
#
#
#
# Elastic Constant Matrix: (Units=GPa)
#
#
# Indices 1 2 3 4 5 6 
#
# 1 162.1638 7.7026 45.8018 -0.0033 7.7877 0.0003
# 2 7.7026 38.0692 -9.0494 -0.0029 1.0830 0.0003
# 3 45.8018 -9.0494 42.6610 0.0066 6.6467 -0.0001
# 4 -0.0033 -0.0029 0.0066 410.0470 -0.0037 4.2568
# 5 7.7877 1.0830 6.6467 -0.0037 41.2536 0.0005
# 6 0.0003 0.0003 -0.0001 4.2568 0.0005 7.9742
#
#
#
# Elastic Compliance Matrix: (Units=1/GPa)
#
#
# Indices 1 2 3 4 5 6 
#
# 1 0.009561 -0.004616 -0.011265 0.000000 0.000131 -0.000001
# 2 -0.004616 0.030010 0.011600 0.000000 -0.001785 -0.000001
# 3 -0.011265 0.011600 0.038682 -0.000001 -0.004410 0.000001
# 4 0.000000 0.000000 -0.000001 0.002452 0.000000 -0.001309
# 5 0.000131 -0.001785 -0.004410 0.000000 0.024973 -0.000002
# 6 -0.000001 -0.000001 0.000001 -0.001309 -0.000002 0.126103
#
#
# Mechanical properties :
#
#
# Convention : Reuss Voigt Hill
#
# Bulk Modulus (GPa) = 14.34883 36.86710 25.60796
# Shear Modulus (GPa) = 18.96995 105.08422 62.02709
#
# Velocity S-wave (km/s) = 2.97647 7.00547 5.38219
# Velocity P-wave (km/s) = 4.30276 9.09138 7.11220
#
# Compressibility (1/GPa) = 0.06969208
#
# Stress axis : x y z
#
# Youngs Moduli (GPa) = 104.58962 33.32210 25.85153
#
# Poissons Ratio (x) = 0.15381 0.29121
# Poissons Ratio (y) = 0.48278 -0.29987
# Poissons Ratio (z) = 1.17817 -0.38653
#
# Static dielectric constant tensor:
#      x y z
#    x 1.839880 0.000000 0.021930 
#    y 0.000000 1.779150 0.000000 
#    z 0.021930 0.000000 1.738610 
# 
# From -- ./inp_files/290863.got.cif
#   From: 2010.05.17/outbox.cif.g08.bks.cpg/sg12_146_cif.got.tgz:290863.got - 2010.06.03 13:09:07.
