data_PCOD9178833
_publ_section_title
;
Structure prediction by ZEFSAII (Michael W. Deem and Ramdas Pophale) SiO2 
 PCOD9178833
Probable space group: C 2/M
;
_chemical_formula_sum "Si O2"
_cell_formula_units_Z 64
_cell_length_a 28.553291
_cell_length_b 9.175452
_cell_length_c 21.325541
_cell_angle_alpha 90.000000
_cell_angle_beta 134.482645
_cell_angle_gamma 90.000000
_cell_volume 3986.162357
_symmetry_space_group_name_H-M "C 2/M"
_symmetry_group_IT_number 12
_symmetry_cell_setting 'monoclinic'
loop_
_space_group_symop_operation_xyz
x,y,z
-x,y,-z
-x,-y,-z
x,-y,z
1/2+x,1/2+y,z
1/2-x,1/2+y,-z
1/2-x,1/2-y,-z
1/2+x,1/2-y,z
loop_
_atom_site_type_symbol
_atom_site_label
_atom_site_fract_x
_atom_site_fract_y
_atom_site_fract_z
Si Si1 0.560127 0.822090 0.101781
Si Si2 0.005896 0.165949 0.702681
Si Si3 0.355125 0.168303 0.029136
Si Si4 0.989261 0.327358 0.811200
Si Si5 0.820903 0.673836 0.245951
Si Si6 0.306527 0.827856 0.841359
Si Si7 0.664433 0.666034 0.868519
Si Si8 0.540909 0.324544 0.601128
O O1 0.548375 0.773660 0.162214
O O2 0.631001 0.780595 0.141248
O O3 0.558061 0.000000 0.099489
O O4 0.500000 0.775229 0.000000
O O5 0.084871 0.164986 0.787843
O O6 0.001044 0.220553 0.626596
O O7 0.975290 0.254440 0.731262
O O8 0.982294 0.000000 0.683265
O O9 0.433360 0.194985 0.101990
O O10 0.322756 0.270764 0.050710
O O11 0.346158 0.000000 0.040215
O O12 0.329252 0.186317 0.934959
O O13 0.978544 0.500000 0.795502
O O14 0.823307 0.500000 0.248659
O O15 0.759579 0.735976 0.227492
O O16 0.812296 0.733983 0.166735
O O17 0.889590 0.742756 0.333376
O O18 0.293769 0.000000 0.818034
O O19 0.687890 0.500000 0.882545
O O20 0.500000 0.298182 0.500000
O O21 0.552677 0.500000 0.617967
#
# Coordination Sequence:
#
# PCOD9178833 Si02
#       8
#     8   8   8   8   8   8   8   8
#     4   9  15  27  47  69  90 121 169 215 244 272
#     4   8  15  27  44  69  97 121 146 182 230 282
#     4   9  16  26  43  66  89 119 160 204 245 279
#     4   9  15  25  44  68  93 122 160 203 240 273
#     4  11  22  34  47  67  97 126 155 193 236 283
#     4  10  19  31  47  65  91 127 166 204 242 283
#     4   9  17  30  46  62  87 124 163 197 232 279
#     4   9  18  35  58  79  98 122 152 185 228 289
#
# _framework density 16.055541999999999
#
# number of rings (size 3 to 8) (size 9 to 14) (size 15 to 20)
#    0.000    2.750    1.250    2.250    0.000    4.250 
#    0.000    0.625    0.000    0.750    0.000    0.875 
#    0.000    0.000    0.000    0.000    0.000    0.000 
#
# Total GULP energy -178340.104392 kJ/mol
# GULP energy per Si atom -5573.128262 kJ/mol
# Density = 1.601900 g / cm^3
# Si number density = 16.055542 Si / 1000 Ang^3
#
#
#
# Elastic Constant Matrix: (Units=GPa)
#
#
# Indices 1 2 3 4 5 6 
#
# 1 128.8688 55.3172 56.7605 0.0000 -12.8025 0.0000
# 2 55.3172 60.0410 37.5825 0.0000 -1.5862 0.0000
# 3 56.7605 37.5825 67.0702 0.0000 -14.5066 0.0000
# 4 0.0000 0.0000 0.0000 15.6877 0.0000 -4.6955
# 5 -12.8025 -1.5862 -14.5066 0.0000 18.2364 0.0000
# 6 0.0000 0.0000 0.0000 -4.6955 0.0000 18.6107
#
#
#
# Elastic Compliance Matrix: (Units=1/GPa)
#
#
# Indices 1 2 3 4 5 6 
#
# 1 0.015332 -0.010069 -0.006274 0.000000 0.004897 0.000000
# 2 -0.010069 0.034278 -0.013975 0.000000 -0.015204 0.000000
# 3 -0.006274 -0.013975 0.032410 0.000000 0.020162 0.000000
# 4 0.000000 0.000000 0.000000 0.068951 0.000000 0.017397
# 5 0.004897 -0.015204 0.020162 0.000000 0.072990 0.000000
# 6 0.000000 0.000000 0.000000 0.017397 0.000000 0.058122
#
#
# Mechanical properties :
#
#
# Convention : Reuss Voigt Hill
#
# Bulk Modulus (GPa) = 46.76079 61.70005 54.23042
# Shear Modulus (GPa) = 14.29198 17.59492 15.94345
#
# Velocity S-wave (km/s) = 2.98679 3.31400 3.15464
# Velocity P-wave (km/s) = 6.40954 7.29082 6.86433
#
# Compressibility (1/GPa) = 0.02138544
#
# Stress axis : x y z
#
# Youngs Moduli (GPa) = 65.22394 29.17322 30.85421
#
# Poissons Ratio (x) = 0.29375 0.19357
# Poissons Ratio (y) = 0.65675 0.43117
# Poissons Ratio (z) = 0.40919 0.40768
#
# Static dielectric constant tensor:
#      x y z
#    x 1.556790 0.000000 -0.002270 
#    y 0.000000 1.546080 0.000000 
#    z -0.002270 0.000000 1.533910 
# 
# From -- ./inp_files/326946.got.cif
#   From: 2010.05.17/outbox.cif.g08.bks.cpg/sg12_164_cif.got.tgz:326946.got - 2010.06.03 13:09:07.
