data_PCOD9178667
_publ_section_title
;
Structure prediction by ZEFSAII (Michael W. Deem and Ramdas Pophale) SiO2 
 PCOD9178667
Probable space group: C 2/M
;
_chemical_formula_sum "Si O2"
_cell_formula_units_Z 60
_cell_length_a 11.145576
_cell_length_b 21.705628
_cell_length_c 15.965447
_cell_angle_alpha 90.000000
_cell_angle_beta 134.903044
_cell_angle_gamma 90.000000
_cell_volume 2735.738796
_symmetry_space_group_name_H-M "C 2/M"
_symmetry_group_IT_number 12
_symmetry_cell_setting 'monoclinic'
loop_
_space_group_symop_operation_xyz
x,y,z
-x,y,-z
-x,-y,-z
x,-y,z
1/2+x,1/2+y,z
1/2-x,1/2+y,-z
1/2-x,1/2-y,-z
1/2+x,1/2-y,z
loop_
_atom_site_type_symbol
_atom_site_label
_atom_site_fract_x
_atom_site_fract_y
_atom_site_fract_z
Si Si1 0.893758 0.738089 0.139536
Si Si2 0.718966 0.066284 0.799929
Si Si3 0.995781 0.071051 0.585364
Si Si4 0.244667 0.428307 0.154493
Si Si5 0.266658 0.296796 0.765325
Si Si6 0.590084 0.103084 0.910716
Si Si7 0.632503 0.065343 0.474622
Si Si8 0.000000 0.676036 0.500000
O O1 0.797431 0.738974 0.182160
O O2 0.952511 0.667787 0.152794
O O3 0.062322 0.776053 0.197866
O O4 0.750000 0.750000 0.000000
O O5 0.795546 0.131450 0.807982
O O6 0.683803 0.068135 0.881988
O O7 0.535532 0.066064 0.663888
O O8 0.802642 0.000000 0.820044
O O9 0.097927 0.096143 0.714357
O O10 0.000000 0.105830 0.500000
O O11 0.798931 0.066267 0.503244
O O12 0.064658 0.000000 0.610265
O O13 0.270590 0.500000 0.143211
O O14 0.081602 0.425346 0.135625
O O15 0.206753 0.391758 0.050862
O O16 0.106204 0.290394 0.623374
O O17 0.632998 0.126927 0.527954
O O18 0.644160 0.000000 0.528298
#
# Coordination Sequence:
#
# PCOD9178667 Si02
#       8
#     8   8   8   8   8   8   8   4
#     4  11  25  45  70  93 124 169 233 274 321 386
#     4   9  17  35  63  95 128 165 209 263 328 393
#     4   9  17  29  47  78 123 167 205 250 306 381
#     4  10  19  30  51  86 125 162 203 256 326 386
#     4  10  24  43  71 101 129 176 221 275 331 388
#     4  10  20  33  56  85 121 163 213 263 321 375
#     4   9  17  31  56  86 123 170 207 246 313 395
#     4  10  21  40  62  92 132 160 215 272 330 386
#
# _framework density 21.931919000000001
#
# number of rings (size 3 to 8) (size 9 to 14) (size 15 to 20)
#    0.000    2.267    0.000    3.000    3.733    4.267 
#    0.000    0.000    1.467    8.000    0.000    0.000 
#    0.000    0.000    0.000    0.067    0.000    0.000 
#
# Total GULP energy -167187.580987 kJ/mol
# GULP energy per Si atom -5572.919366 kJ/mol
# Density = 2.188200 g / cm^3
# Si number density = 21.931919 Si / 1000 Ang^3
#
#
#
# Elastic Constant Matrix: (Units=GPa)
#
#
# Indices 1 2 3 4 5 6 
#
# 1 84.4294 20.6189 18.6324 -0.0001 -1.2114 -0.0001
# 2 20.6189 63.7795 7.4693 0.0000 8.5982 0.0000
# 3 18.6324 7.4693 46.3251 -0.0002 -14.2592 -0.0002
# 4 -0.0001 0.0000 -0.0002 26.2399 -0.0001 0.0870
# 5 -1.2114 8.5982 -14.2592 -0.0001 28.7394 -0.0001
# 6 -0.0001 0.0000 -0.0002 0.0870 -0.0001 23.1642
#
#
#
# Elastic Compliance Matrix: (Units=1/GPa)
#
#
# Indices 1 2 3 4 5 6 
#
# 1 0.013912 -0.003759 -0.005267 0.000000 -0.000902 0.000000
# 2 -0.003759 0.018347 -0.003759 0.000000 -0.007512 0.000000
# 3 -0.005267 -0.003759 0.029021 0.000000 0.015302 0.000000
# 4 0.000000 0.000000 0.000000 0.038110 0.000000 -0.000143
# 5 -0.000902 -0.007512 0.015302 0.000000 0.044597 0.000000
# 6 0.000000 0.000000 0.000000 -0.000143 0.000000 0.043171
#
#
# Mechanical properties :
#
#
# Convention : Reuss Voigt Hill
#
# Bulk Modulus (GPa) = 28.00307 31.99723 30.00015
# Shear Modulus (GPa) = 22.25876 25.48292 23.87084
#
# Velocity S-wave (km/s) = 3.18921 3.41238 3.30268
# Velocity P-wave (km/s) = 5.13394 5.49061 5.31527
#
# Compressibility (1/GPa) = 0.03571038
#
# Stress axis : x y z
#
# Youngs Moduli (GPa) = 71.88235 54.50429 34.45776
#
# Poissons Ratio (x) = 0.20488 0.18149
# Poissons Ratio (y) = 0.27020 0.12952
# Poissons Ratio (z) = 0.37861 0.20487
#
# Static dielectric constant tensor:
#      x y z
#    x 1.682550 0.000000 0.014390 
#    y 0.000000 1.892480 0.000000 
#    z 0.014390 0.000000 1.786880 
# 
# From -- ./inp_files/265706.got.cif
#   From: 2010.05.17/outbox.cif.g08.bks.cpg/sg12_133_cif.got.tgz:265706.got - 2010.06.03 13:09:07.
