data_PCOD9178796
_publ_section_title
;
Structure prediction by ZEFSAII (Michael W. Deem and Ramdas Pophale) SiO2 
 PCOD9178796
Probable space group: C 2/M
;
_chemical_formula_sum "Si O2"
_cell_formula_units_Z 64
_cell_length_a 29.512756
_cell_length_b 22.441302
_cell_length_c 13.165570
_cell_angle_alpha 90.000000
_cell_angle_beta 26.849664
_cell_angle_gamma 90.000000
_cell_volume 3938.224980
_symmetry_space_group_name_H-M "C 2/M"
_symmetry_group_IT_number 12
_symmetry_cell_setting 'monoclinic'
loop_
_space_group_symop_operation_xyz
x,y,z
-x,y,-z
-x,-y,-z
x,-y,z
1/2+x,1/2+y,z
1/2-x,1/2+y,-z
1/2-x,1/2-y,-z
1/2+x,1/2-y,z
loop_
_atom_site_type_symbol
_atom_site_label
_atom_site_fract_x
_atom_site_fract_y
_atom_site_fract_z
Si Si1 0.114665 0.842849 0.391070
Si Si2 0.250000 0.750000 0.758893
Si Si3 0.878331 0.567464 0.243336
Si Si4 0.614665 0.342850 0.150269
Si Si5 0.881873 0.642843 0.039190
Si Si6 0.793014 0.429271 0.795027
Si Si7 0.293014 0.929271 0.032916
Si Si8 0.118129 0.357157 0.566679
O O1 0.173929 0.789266 0.325794
O O2 0.112886 0.831319 0.274228
O O3 0.181548 0.902203 0.271939
O O4 0.000000 0.848415 0.656029
O O5 0.183494 0.702632 0.831107
O O6 0.316505 0.797368 0.565083
O O7 0.173930 0.789267 0.978488
O O8 0.840261 0.500000 0.319478
O O9 0.850121 0.602127 0.197681
O O10 0.850121 0.602127 0.401832
O O11 0.000000 0.564966 0.000000
O O12 0.681547 0.402204 0.001873
O O13 0.861054 0.606716 0.976435
O O14 0.000001 0.655835 0.810923
O O15 0.797559 0.500000 0.768462
O O16 0.861052 0.393284 0.579352
O O17 0.819517 0.418217 0.860964
O O18 0.297559 0.000000 0.041300
#
# Coordination Sequence:
#
# PCOD9178796 Si02
#       8
#     8   8   8   8   8   8   8   8
#     4   9  17  29  45  65  93 130 164 194 232 278
#     4  10  19  31  46  68  96 122 159 199 234 278
#     4   9  18  33  52  72  93 120 156 192 229 279
#     4   9  17  29  45  65  93 130 164 194 232 278
#     4  10  20  33  50  71  96 126 157 193 236 278
#     4   9  18  31  47  71  99 124 156 196 237 284
#     4   9  18  31  47  71  99 124 156 196 237 284
#     4  10  20  33  50  71  96 126 157 193 236 278
#
# _framework density 16.250976000000001
#
# number of rings (size 3 to 8) (size 9 to 14) (size 15 to 20)
#    0.000    2.625    0.000    1.875    0.000    4.000 
#    0.000    3.750    0.000    0.000    0.000    7.875 
#    0.000   33.000    0.000    0.000    0.000    0.000 
#
# Total GULP energy -178295.082234 kJ/mol
# GULP energy per Si atom -5571.721320 kJ/mol
# Density = 1.621399 g / cm^3
# Si number density = 16.250976 Si / 1000 Ang^3
#
#
#
# Elastic Constant Matrix: (Units=GPa)
#
#
# Indices 1 2 3 4 5 6 
#
# 1 66.1504 49.8387 35.5339 0.0000 1.0334 0.0000
# 2 49.8387 125.5423 41.9445 0.0000 6.1360 0.0000
# 3 35.5339 41.9445 70.5502 0.0000 -4.4506 0.0000
# 4 0.0000 0.0000 0.0000 19.1961 0.0000 2.4380
# 5 1.0334 6.1360 -4.4506 0.0000 18.9058 0.0000
# 6 0.0000 0.0000 0.0000 2.4380 0.0000 22.3336
#
#
#
# Elastic Compliance Matrix: (Units=1/GPa)
#
#
# Indices 1 2 3 4 5 6 
#
# 1 0.024984 -0.007037 -0.008468 0.000000 -0.001075 0.000000
# 2 -0.007037 0.012348 -0.004087 0.000000 -0.004585 0.000000
# 3 -0.008468 -0.004087 0.021298 0.000000 0.006803 0.000000
# 4 0.000000 0.000000 0.000000 0.052826 0.000000 -0.005767
# 5 -0.001075 -0.004585 0.006803 0.000000 0.056042 0.000000
# 6 0.000000 0.000000 0.000000 -0.005767 0.000000 0.045405
#
#
# Mechanical properties :
#
#
# Convention : Reuss Voigt Hill
#
# Bulk Modulus (GPa) = 51.41895 57.43080 54.42487
# Shear Modulus (GPa) = 19.33717 21.08216 20.20967
#
# Velocity S-wave (km/s) = 3.45325 3.60569 3.53029
# Velocity P-wave (km/s) = 6.89993 7.26301 7.08380
#
# Compressibility (1/GPa) = 0.01944808
#
# Stress axis : x y z
#
# Youngs Moduli (GPa) = 40.02547 80.98242 46.95225
#
# Poissons Ratio (x) = 0.56984 0.39759
# Poissons Ratio (y) = 0.28164 0.19188
# Poissons Ratio (z) = 0.33894 0.33095
#
# Static dielectric constant tensor:
#      x y z
#    x 1.535250 0.000000 -0.002310 
#    y 0.000000 1.536170 0.000000 
#    z -0.002310 0.000000 1.538230 
# 
# From -- ./inp_files/184947.got.cif
#   From: 2010.05.17/outbox.cif.g08.bks.cpg/sg12_93_cif.got.tgz:184947.got - 2010.06.03 13:09:07.
