data_PCOD9178621
_publ_section_title
;
Structure prediction by ZEFSAII (Michael W. Deem and Ramdas Pophale) SiO2 
 PCOD9178621
Probable space group: C 2/M
;
_chemical_formula_sum "Si O2"
_cell_formula_units_Z 56
_cell_length_a 26.405526
_cell_length_b 7.556652
_cell_length_c 15.138304
_cell_angle_alpha 90.000000
_cell_angle_beta 56.164274
_cell_angle_gamma 90.000000
_cell_volume 2509.071104
_symmetry_space_group_name_H-M "C 2/M"
_symmetry_group_IT_number 12
_symmetry_cell_setting 'monoclinic'
loop_
_space_group_symop_operation_xyz
x,y,z
-x,y,-z
-x,-y,-z
x,-y,z
1/2+x,1/2+y,z
1/2-x,1/2+y,-z
1/2-x,1/2-y,-z
1/2+x,1/2-y,z
loop_
_atom_site_type_symbol
_atom_site_label
_atom_site_fract_x
_atom_site_fract_y
_atom_site_fract_z
Si Si1 0.780089 0.286550 0.817233
Si Si2 0.858490 0.211895 0.045860
Si Si3 0.124011 0.788520 0.591142
Si Si4 0.233001 0.209695 0.368007
Si Si5 0.372776 0.298836 0.222097
Si Si6 0.994295 0.713361 0.405647
Si Si7 0.106728 0.287609 0.179484
O O1 0.778946 0.500000 0.823730
O O2 0.711036 0.221360 0.900297
O O3 0.796068 0.238069 0.700792
O O4 0.830365 0.220950 0.837360
O O5 0.884043 0.282069 0.114423
O O6 0.854033 0.000000 0.061417
O O7 0.895569 0.246534 0.921613
O O8 0.187123 0.722042 0.487404
O O9 0.107726 0.715467 0.703915
O O10 0.069862 0.757907 0.575784
O O11 0.131914 0.000000 0.593721
O O12 0.298864 0.300014 0.301777
O O13 0.242940 0.000000 0.370245
O O14 0.396829 0.500000 0.196715
O O15 0.998658 0.500000 0.404387
O O16 0.049272 0.779111 0.290696
O O17 0.000000 0.779268 0.500000
O O18 0.107612 0.500000 0.186710
#
# Coordination Sequence:
#
# PCOD9178621 Si02
#       7
#     8   8   8   8   8   8   8
#     4   9  18  33  52  75 106 142 173 204 253 313
#     4   9  18  32  52  77 103 134 170 209 256 308
#     4  10  21  36  54  77 105 137 174 215 256 301
#     4  10  19  30  50  82 110 133 168 213 259 303
#     4   9  19  36  54  75 106 140 172 206 252 311
#     4  10  22  39  57  77 102 135 174 211 253 308
#     4  10  20  34  53  76 102 135 174 215 257 301
#
# _framework density 22.319018
#
# number of rings (size 3 to 8) (size 9 to 14) (size 15 to 20)
#    0.000    2.429    0.000    3.000    0.000    6.571 
#    0.000    0.714    0.000    4.286    0.000    0.000 
#    0.000    0.000    0.000    0.000    0.000    0.000 
#
# Total GULP energy -156367.805482 kJ/mol
# GULP energy per Si atom -5584.564481 kJ/mol
# Density = 2.226822 g / cm^3
# Si number density = 22.319018 Si / 1000 Ang^3
#
#
#
# Elastic Constant Matrix: (Units=GPa)
#
#
# Indices 1 2 3 4 5 6 
#
# 1 61.7765 -9.8603 33.4560 0.0000 31.8171 0.0004
# 2 -9.8603 57.7215 -1.6260 -0.0001 -0.3440 0.0001
# 3 33.4560 -1.6260 146.2887 -0.0001 26.4313 -0.0003
# 4 0.0000 -0.0001 -0.0001 19.4728 -0.0001 1.7415
# 5 31.8171 -0.3440 26.4313 -0.0001 32.6098 -0.0002
# 6 0.0004 0.0001 -0.0003 1.7415 -0.0002 7.5017
#
#
#
# Elastic Compliance Matrix: (Units=1/GPa)
#
#
# Indices 1 2 3 4 5 6 
#
# 1 0.034823 0.005698 -0.002077 0.000000 -0.032233 -0.000003
# 2 0.005698 0.018262 -0.000153 0.000000 -0.005243 -0.000001
# 3 -0.002077 -0.000153 0.008134 0.000000 -0.004569 0.000000
# 4 0.000000 0.000000 0.000000 0.052442 0.000000 -0.012175
# 5 -0.032233 -0.005243 -0.004569 0.000000 0.065762 0.000004
# 6 -0.000003 -0.000001 0.000000 -0.012175 0.000004 0.136129
#
#
# Mechanical properties :
#
#
# Convention : Reuss Voigt Hill
#
# Bulk Modulus (GPa) = 14.67219 34.41401 24.54310
# Shear Modulus (GPa) = 15.09048 28.17135 21.63092
#
# Velocity S-wave (km/s) = 2.60306 3.55662 3.11653
# Velocity P-wave (km/s) = 3.95256 5.68495 4.89599
#
# Compressibility (1/GPa) = 0.06815614
#
# Stress axis : x y z
#
# Youngs Moduli (GPa) = 28.71706 54.75734 122.93319
#
# Poissons Ratio (x) = -0.31201 0.25530
# Poissons Ratio (y) = -0.16363 0.01879
# Poissons Ratio (z) = 0.05964 0.00837
#
# Static dielectric constant tensor:
#      x y z
#    x 1.800620 0.000000 0.036760 
#    y 0.000000 1.856830 0.000000 
#    z 0.036760 0.000000 1.838780 
# 
# From -- ./inp_files/243675.got.cif
#   From: 2010.05.17/outbox.cif.g08.bks.cpg/sg12_122_cif.got.tgz:243675.got - 2010.06.03 13:09:07.
