data_PCOD9178658
_publ_section_title
;
Structure prediction by ZEFSAII (Michael W. Deem and Ramdas Pophale) SiO2 
 PCOD9178658
Probable space group: C 2/M
;
_chemical_formula_sum "Si O2"
_cell_formula_units_Z 64
_cell_length_a 34.303811
_cell_length_b 8.964483
_cell_length_c 11.601245
_cell_angle_alpha 90.000000
_cell_angle_beta 94.796307
_cell_angle_gamma 90.000000
_cell_volume 3555.074924
_symmetry_space_group_name_H-M "C 2/M"
_symmetry_group_IT_number 12
_symmetry_cell_setting 'monoclinic'
loop_
_space_group_symop_operation_xyz
x,y,z
-x,y,-z
-x,-y,-z
x,-y,z
1/2+x,1/2+y,z
1/2-x,1/2+y,-z
1/2-x,1/2-y,-z
1/2+x,1/2-y,z
loop_
_atom_site_type_symbol
_atom_site_label
_atom_site_fract_x
_atom_site_fract_y
_atom_site_fract_z
Si Si1 0.563815 0.322124 0.579672
Si Si2 0.016612 0.322257 0.779376
Si Si3 0.862598 0.176230 0.253214
Si Si4 0.433771 0.822035 0.666323
Si Si5 0.874335 0.821260 0.814538
Si Si6 0.421265 0.321997 0.056147
Si Si7 0.704528 0.822074 0.116882
Si Si8 0.286698 0.822961 0.152322
O O1 0.557402 0.500000 0.571646
O O2 0.536865 0.254050 0.673316
O O3 0.608544 0.296591 0.632601
O O4 0.556810 0.244642 0.456446
O O5 0.021830 0.500000 0.773633
O O6 0.039326 0.260388 0.896022
O O7 0.970719 0.288703 0.758465
O O8 0.889080 0.211400 0.147289
O O9 0.822943 0.268262 0.237314
O O10 0.853449 0.000000 0.246212
O O11 0.395253 0.746839 0.708594
O O12 0.429458 0.000000 0.657921
O O13 0.831801 0.754833 0.829626
O O14 0.872294 0.000000 0.807057
O O15 0.902021 0.781049 0.930403
O O16 0.428161 0.500000 0.060430
O O17 0.746216 0.759887 0.169056
O O18 0.702656 0.000000 0.129499
O O19 0.702925 0.787269 0.979099
O O20 0.281212 0.000000 0.159505
#
# Coordination Sequence:
#
# PCOD9178658 Si02
#       8
#     8   8   8   8   8   8   8   8
#     4  10  21  37  58  82 106 138 181 228 273 317
#     4  10  21  36  56  80 108 139 176 227 277 320
#     4   9  17  32  53  79 110 138 172 221 270 314
#     4  11  24  39  54  77 107 143 184 224 271 324
#     4  11  22  37  56  77 108 146 183 223 265 321
#     4   9  19  34  53  78 108 142 179 220 269 321
#     4  10  20  33  51  78 112 146 177 216 262 313
#     4  10  19  30  51  82 111 142 178 214 260 315
#
# _framework density 18.002434000000001
#
# number of rings (size 3 to 8) (size 9 to 14) (size 15 to 20)
#    0.000    2.000    1.250    3.375    0.000    8.500 
#    0.000    2.500    0.000    0.750    0.000    0.000 
#    0.000    0.000    0.000    0.000    0.000    0.000 
#
# Total GULP energy -178699.585229 kJ/mol
# GULP energy per Si atom -5584.362038 kJ/mol
# Density = 1.796146 g / cm^3
# Si number density = 18.002434 Si / 1000 Ang^3
#
#
#
# Elastic Constant Matrix: (Units=GPa)
#
#
# Indices 1 2 3 4 5 6 
#
# 1 101.1788 44.9702 5.9962 0.0000 -1.9116 0.0000
# 2 44.9702 42.2110 3.4834 0.0000 1.0567 0.0000
# 3 5.9962 3.4834 10.0051 0.0000 -0.1130 0.0000
# 4 0.0000 0.0000 0.0000 19.9505 0.0000 7.2274
# 5 -1.9116 1.0567 -0.1130 0.0000 21.0173 0.0000
# 6 0.0000 0.0000 0.0000 7.2274 0.0000 31.6382
#
#
#
# Elastic Compliance Matrix: (Units=1/GPa)
#
#
# Indices 1 2 3 4 5 6 
#
# 1 0.019118 -0.020070 -0.004440 0.000000 0.002724 0.000000
# 2 -0.020070 0.045494 -0.003858 0.000000 -0.004134 0.000000
# 3 -0.004440 -0.003858 0.103957 0.000000 0.000349 0.000000
# 4 0.000000 0.000000 0.000000 0.054646 0.000000 -0.012483
# 5 0.002724 -0.004134 0.000349 0.000000 0.048037 0.000000
# 6 0.000000 0.000000 0.000000 -0.012483 0.000000 0.034459
#
#
# Mechanical properties :
#
#
# Convention : Reuss Voigt Hill
#
# Bulk Modulus (GPa) = 8.94174 29.14382 19.04278
# Shear Modulus (GPa) = 12.50860 21.11756 16.81308
#
# Velocity S-wave (km/s) = 2.63882 3.42868 3.05935
# Velocity P-wave (km/s) = 3.77654 5.64787 4.80420
#
# Compressibility (1/GPa) = 0.11183502
#
# Stress axis : x y z
#
# Youngs Moduli (GPa) = 52.30574 21.98090 9.61934
#
# Poissons Ratio (x) = 0.44115 0.04271
# Poissons Ratio (y) = 1.04977 0.03711
# Poissons Ratio (z) = 0.23222 0.08480
#
# Static dielectric constant tensor:
#      x y z
#    x 1.606940 0.000000 0.015790 
#    y 0.000000 1.592630 0.000000 
#    z 0.015790 0.000000 1.605020 
# 
# From -- ./inp_files/187409.got.cif
#   From: 2010.05.17/outbox.cif.g08.bks.cpg/sg12_94_cif.got.tgz:187409.got - 2010.06.03 13:09:07.
