data_PCOD9178201
_publ_section_title
;
Structure prediction by ZEFSAII (Michael W. Deem and Ramdas Pophale) SiO2 
 PCOD9178201
Probable space group: C 2/M
;
_chemical_formula_sum "Si O2"
_cell_formula_units_Z 48
_cell_length_a 28.666942
_cell_length_b 9.232582
_cell_length_c 12.297258
_cell_angle_alpha 90.000000
_cell_angle_beta 109.159255
_cell_angle_gamma 90.000000
_cell_volume 3074.435349
_symmetry_space_group_name_H-M "C 2/M"
_symmetry_group_IT_number 12
_symmetry_cell_setting 'monoclinic'
loop_
_space_group_symop_operation_xyz
x,y,z
-x,y,-z
-x,-y,-z
x,-y,z
1/2+x,1/2+y,z
1/2-x,1/2+y,-z
1/2-x,1/2-y,-z
1/2+x,1/2-y,z
loop_
_atom_site_type_symbol
_atom_site_label
_atom_site_fract_x
_atom_site_fract_y
_atom_site_fract_z
Si Si1 0.981242 0.667383 0.611365
Si Si2 0.248203 0.171710 0.173412
Si Si3 0.575325 0.328365 0.748700
Si Si4 0.324881 0.328141 0.073731
Si Si5 0.887984 0.828528 0.468445
Si Si6 0.772672 0.174112 0.412086
O O1 0.976768 0.500000 0.636644
O O2 0.928334 0.744586 0.570269
O O3 0.000000 0.677234 0.500000
O O4 0.023988 0.744003 0.713315
O O5 0.292365 0.235221 0.132748
O O6 0.248394 0.258559 0.285516
O O7 0.255042 0.000000 0.197028
O O8 0.199032 0.192009 0.062903
O O9 0.565309 0.500000 0.745706
O O10 0.617621 0.291609 0.868163
O O11 0.600192 0.298459 0.649585
O O12 0.319601 0.500000 0.098047
O O13 0.831356 0.793476 0.449829
O O14 0.895150 0.000000 0.489634
O O15 0.750000 0.250000 0.500000
O O16 0.766824 0.000000 0.410454
#
# Coordination Sequence:
#
# PCOD9178201 Si02
#       6
#     8   8   8   8   8   8
#     4   9  17  26  39  64  94 119 150 191 232 277
#     4  10  19  30  47  70  96 126 160 197 239 280
#     4   9  15  27  45  65  92 126 157 184 226 281
#     4   9  17  30  47  69  97 129 160 192 232 284
#     4   9  17  30  46  62  88 125 158 190 229 279
#     4  11  22  36  51  69  94 126 166 202 237 280
#
# _framework density 15.612622999999999
#
# number of rings (size 3 to 8) (size 9 to 14) (size 15 to 20)
#    0.000    2.500    1.667    1.500    0.000    4.667 
#    0.000    0.000    0.000    0.000    0.000    1.167 
#    0.000    9.333    0.000    0.000    0.000    0.000 
#
# Total GULP energy -133746.723665 kJ/mol
# GULP energy per Si atom -5572.780153 kJ/mol
# Density = 1.557709 g / cm^3
# Si number density = 15.612623 Si / 1000 Ang^3
#
#
#
# Elastic Constant Matrix: (Units=GPa)
#
#
# Indices 1 2 3 4 5 6 
#
# 1 65.4028 52.8693 53.8505 0.0000 23.4741 0.0000
# 2 52.8693 69.0021 60.1498 0.0000 17.2104 0.0000
# 3 53.8505 60.1498 96.9974 0.0000 22.8882 0.0000
# 4 0.0000 0.0000 0.0000 24.0796 0.0000 4.5512
# 5 23.4741 17.2104 22.8882 0.0000 34.1620 0.0000
# 6 0.0000 0.0000 0.0000 4.5512 0.0000 23.7246
#
#
#
# Elastic Compliance Matrix: (Units=1/GPa)
#
#
# Indices 1 2 3 4 5 6 
#
# 1 0.048189 -0.028169 -0.005726 0.000000 -0.015085 0.000000
# 2 -0.028169 0.048327 -0.015622 0.000000 0.005476 0.000000
# 3 -0.005726 -0.015622 0.024220 0.000000 -0.004422 0.000000
# 4 0.000000 0.000000 0.000000 0.043091 0.000000 -0.008266
# 5 -0.015085 0.005476 -0.004422 0.000000 0.039842 0.000000
# 6 0.000000 0.000000 0.000000 -0.008266 0.000000 0.043736
#
#
# Mechanical properties :
#
#
# Convention : Reuss Voigt Hill
#
# Bulk Modulus (GPa) = 46.07748 62.79352 54.43550
# Shear Modulus (GPa) = 14.13730 20.69542 17.41636
#
# Velocity S-wave (km/s) = 3.01242 3.64477 3.34358
# Velocity P-wave (km/s) = 6.45574 7.61705 7.06032
#
# Compressibility (1/GPa) = 0.02170257
#
# Stress axis : x y z
#
# Youngs Moduli (GPa) = 20.75142 20.69217 41.28891
#
# Poissons Ratio (x) = 0.58287 0.23642
# Poissons Ratio (y) = 0.58454 0.64503
# Poissons Ratio (z) = 0.11882 0.32326
#
# Static dielectric constant tensor:
#      x y z
#    x 1.502030 0.000000 0.025840 
#    y 0.000000 1.520630 0.000000 
#    z 0.025840 0.000000 1.523300 
# 
# From -- ./inp_files/172398.got.cif
#   From: 2010.05.17/outbox.cif.g08.bks.cpg/sg12_87_cif.got.tgz:172398.got - 2010.06.03 13:09:07.
