data_PCOD9178926
_publ_section_title
;
Structure prediction by ZEFSAII (Michael W. Deem and Ramdas Pophale) SiO2 
 PCOD9178926
Probable space group: C 2/M
;
_chemical_formula_sum "Si O2"
_cell_formula_units_Z 40
_cell_length_a 27.688592
_cell_length_b 7.698420
_cell_length_c 9.803402
_cell_angle_alpha 90.000000
_cell_angle_beta 107.398011
_cell_angle_gamma 90.000000
_cell_volume 1994.076319
_symmetry_space_group_name_H-M "C 2/M"
_symmetry_group_IT_number 12
_symmetry_cell_setting 'monoclinic'
loop_
_space_group_symop_operation_xyz
x,y,z
-x,y,-z
-x,-y,-z
x,-y,z
1/2+x,1/2+y,z
1/2-x,1/2+y,-z
1/2-x,1/2-y,-z
1/2+x,1/2-y,z
loop_
_atom_site_type_symbol
_atom_site_label
_atom_site_fract_x
_atom_site_fract_y
_atom_site_fract_z
Si Si1 0.667641 0.209395 0.671680
Si Si2 0.220162 0.205027 0.268044
Si Si3 0.374732 0.706158 0.641660
Si Si4 0.349348 0.211112 0.034662
Si Si5 0.556061 0.795991 0.061851
O O1 0.723370 0.277895 0.676767
O O2 0.628458 0.256566 0.520529
O O3 0.654400 0.269326 0.812597
O O4 0.670454 0.000000 0.680123
O O5 0.177150 0.278063 0.332635
O O6 0.223822 0.000000 0.300259
O O7 0.197608 0.228781 0.097521
O O8 0.375623 0.500000 0.663605
O O9 0.421350 0.779208 0.767237
O O10 0.151043 0.500000 0.968631
O O11 0.400272 0.274642 0.001641
O O12 0.552341 0.000000 0.024937
O O13 0.500000 0.720059 0.000000
#
# Coordination Sequence:
#
# PCOD9178926 Si02
#       5
#     8   8   8   8   8
#     4  10  19  31  47  70 101 130 156 190 231 276
#     4   9  18  31  47  69  98 131 161 189 226 275
#     4  10  20  32  48  72  98 125 159 194 231 277
#     4   9  18  31  49  73  96 122 159 197 233 277
#     4   9  18  35  56  72  89 119 158 198 240 284
#
# _framework density 20.059412999999999
#
# number of rings (size 3 to 8) (size 9 to 14) (size 15 to 20)
#    0.000    2.600    0.000    1.800    0.000    2.800 
#    0.000    1.000    0.000    6.000    0.000    0.000 
#    0.000    0.000    0.000    0.000    0.000    0.000 
#
# Total GULP energy -111601.676639 kJ/mol
# GULP energy per Si atom -5580.083832 kJ/mol
# Density = 2.001376 g / cm^3
# Si number density = 20.059413 Si / 1000 Ang^3
#
#
#
# Elastic Constant Matrix: (Units=GPa)
#
#
# Indices 1 2 3 4 5 6 
#
# 1 68.9334 -3.6124 25.7869 0.0000 32.1371 0.0000
# 2 -3.6124 30.5016 -26.1863 0.0000 -2.5118 0.0000
# 3 25.7869 -26.1863 107.9276 0.0000 10.3667 0.0000
# 4 0.0000 0.0000 0.0000 21.1884 0.0000 7.4622
# 5 32.1371 -2.5118 10.3667 0.0000 19.8930 0.0000
# 6 0.0000 0.0000 0.0000 7.4622 0.0000 2.9254
#
#
#
# Elastic Compliance Matrix: (Units=1/GPa)
#
#
# Indices 1 2 3 4 5 6 
#
# 1 0.062773 -0.006860 -0.007199 0.000000 -0.098524 0.000000
# 2 -0.006860 0.042161 0.010835 0.000000 0.010759 0.000000
# 3 -0.007199 0.010835 0.013017 0.000000 0.006214 0.000000
# 4 0.000000 0.000000 0.000000 0.464293 0.000000 -1.184325
# 5 -0.098524 0.010759 0.006214 0.000000 0.207555 0.000000
# 6 0.000000 0.000000 0.000000 -1.184325 0.000000 3.362820
#
#
# Mechanical properties :
#
#
# Convention : Reuss Voigt Hill
#
# Bulk Modulus (GPa) = 8.96835 22.14880 15.55857
# Shear Modulus (GPa) = 1.19154 22.89297 12.04226
#
# Velocity S-wave (km/s) = 0.77155 3.38192 2.45282
# Velocity P-wave (km/s) = 2.29659 5.12985 3.97427
#
# Compressibility (1/GPa) = 0.11150326
#
# Stress axis : x y z
#
# Youngs Moduli (GPa) = 15.93046 23.71870 76.81975
#
# Poissons Ratio (x) = 0.16271 0.55303
# Poissons Ratio (y) = 0.10928 -0.83234
# Poissons Ratio (z) = 0.11468 -0.25699
#
# Static dielectric constant tensor:
#      x y z
#    x 1.725940 0.000000 -0.015660 
#    y 0.000000 1.728190 0.000000 
#    z -0.015660 0.000000 1.697520 
# 
# From -- ./inp_files/52314.got.cif
#   From: 2010.05.17/outbox.cif.g08.bks.cpg/sg12_27_cif.got.tgz:52314.got - 2010.06.03 13:09:07.
