data_PCOD9178303
_publ_section_title
;
Structure prediction by ZEFSAII (Michael W. Deem and Ramdas Pophale) SiO2 
 PCOD9178303
Probable space group: C 2/M
;
_chemical_formula_sum "Si O2"
_cell_formula_units_Z 64
_cell_length_a 32.461860
_cell_length_b 8.827576
_cell_length_c 16.126855
_cell_angle_alpha 90.000000
_cell_angle_beta 53.801013
_cell_angle_gamma 90.000000
_cell_volume 3729.257246
_symmetry_space_group_name_H-M "C 2/M"
_symmetry_group_IT_number 12
_symmetry_cell_setting 'monoclinic'
loop_
_space_group_symop_operation_xyz
x,y,z
-x,y,-z
-x,-y,-z
x,-y,z
1/2+x,1/2+y,z
1/2-x,1/2+y,-z
1/2-x,1/2-y,-z
1/2+x,1/2-y,z
loop_
_atom_site_type_symbol
_atom_site_label
_atom_site_fract_x
_atom_site_fract_y
_atom_site_fract_z
Si Si1 0.035865 0.179198 0.766381
Si Si2 0.940019 0.669915 0.092541
Si Si3 0.291354 0.316749 0.643790
Si Si4 0.789131 0.318179 0.387321
Si Si5 0.671898 0.819634 0.048120
Si Si6 0.783456 0.817987 0.842868
Si Si7 0.079852 0.181422 0.055391
Si Si8 0.370731 0.818844 0.417942
O O1 0.058805 0.225876 0.828372
O O2 0.071743 0.258818 0.656166
O O3 0.976132 0.224308 0.841532
O O4 0.038469 0.000000 0.752081
O O5 0.919903 0.500000 0.134023
O O6 0.914607 0.741448 0.041562
O O7 0.000000 0.656330 0.000000
O O8 0.294882 0.500000 0.635920
O O9 0.235848 0.272883 0.670621
O O10 0.294815 0.270921 0.735275
O O11 0.335801 0.248970 0.532842
O O12 0.787713 0.500000 0.391154
O O13 0.750000 0.250000 0.500000
O O14 0.842902 0.273972 0.363694
O O15 0.682143 0.762830 0.129179
O O16 0.624655 0.737062 0.061476
O O17 0.664031 0.000000 0.055686
O O18 0.724434 0.785518 0.936103
O O19 0.790146 0.000000 0.841607
O O20 0.080309 0.000000 0.045225
O O21 0.370408 0.000000 0.424698
#
# Coordination Sequence:
#
# PCOD9178303 Si02
#       8
#     8   8   8   8   8   8   8   8
#     4  10  20  33  49  71 102 140 176 207 245 294
#     4   9  17  30  48  70  97 129 166 207 247 286
#     4   9  17  32  52  71  97 133 169 204 246 299
#     4   8  15  27  43  65  93 126 162 199 238 281
#     4  10  20  34  54  78 102 129 163 206 255 304
#     4   9  19  35  54  76 101 130 163 203 254 309
#     4  10  20  34  52  74 102 135 171 209 249 299
#     4  10  19  30  47  73 104 136 171 210 248 288
#
# _framework density 17.161595999999999
#
# number of rings (size 3 to 8) (size 9 to 14) (size 15 to 20)
#    0.000    2.625    0.000    1.875    0.000    5.500 
#    0.000    2.500    0.000    0.750    0.000    5.250 
#    0.000    0.000    0.000    0.000    0.000    0.000 
#
# Total GULP energy -178273.448488 kJ/mol
# GULP energy per Si atom -5571.045265 kJ/mol
# Density = 1.712254 g / cm^3
# Si number density = 17.161596 Si / 1000 Ang^3
#
#
#
# Elastic Constant Matrix: (Units=GPa)
#
#
# Indices 1 2 3 4 5 6 
#
# 1 107.9970 30.4533 41.3707 0.0000 9.3745 0.0000
# 2 30.4533 29.4784 16.7253 0.0000 1.2366 0.0001
# 3 41.3707 16.7253 69.6378 0.0000 10.1415 0.0000
# 4 0.0000 0.0000 0.0000 19.9033 0.0000 3.8817
# 5 9.3745 1.2366 10.1415 0.0000 23.6533 0.0000
# 6 0.0000 0.0001 0.0000 3.8817 0.0000 24.3037
#
#
#
# Elastic Compliance Matrix: (Units=1/GPa)
#
#
# Indices 1 2 3 4 5 6 
#
# 1 0.015141 -0.012340 -0.005601 0.000000 -0.002954 0.000000
# 2 -0.012340 0.049433 -0.005202 0.000000 0.004537 0.000000
# 3 -0.005601 -0.005202 0.019811 0.000000 -0.006002 0.000000
# 4 0.000000 0.000000 0.000000 0.051858 0.000000 -0.008283
# 5 -0.002954 0.004537 -0.006002 0.000000 0.045785 0.000000
# 6 0.000000 0.000000 0.000000 -0.008283 0.000000 0.042469
#
#
# Mechanical properties :
#
#
# Convention : Reuss Voigt Hill
#
# Bulk Modulus (GPa) = 26.24797 42.69020 34.46908
# Shear Modulus (GPa) = 17.63773 21.47633 19.55703
#
# Velocity S-wave (km/s) = 3.20932 3.54138 3.37943
# Velocity P-wave (km/s) = 5.39081 6.45378 5.94609
#
# Compressibility (1/GPa) = 0.03809819
#
# Stress axis : x y z
#
# Youngs Moduli (GPa) = 66.04431 20.22950 50.47666
#
# Poissons Ratio (x) = 0.24964 0.28273
# Poissons Ratio (y) = 0.81500 0.26259
# Poissons Ratio (z) = 0.36993 0.10524
#
# Static dielectric constant tensor:
#      x y z
#    x 1.584870 0.000000 -0.013800 
#    y 0.000000 1.578090 0.000000 
#    z -0.013800 0.000000 1.580990 
# 
# From -- ./inp_files/249048.got.cif
#   From: 2010.05.17/outbox.cif.g08.bks.cpg/sg12_125_cif.got.tgz:249048.got - 2010.06.03 13:09:07.
