data_PCOD9178085
_publ_section_title
;
Structure prediction by ZEFSAII (Michael W. Deem and Ramdas Pophale) SiO2 
 PCOD9178085
Probable space group: C 2/M
;
_chemical_formula_sum "Si O2"
_cell_formula_units_Z 64
_cell_length_a 21.547264
_cell_length_b 7.389573
_cell_length_c 20.050019
_cell_angle_alpha 90.000000
_cell_angle_beta 61.612751
_cell_angle_gamma 90.000000
_cell_volume 2808.585908
_symmetry_space_group_name_H-M "C 2/M"
_symmetry_group_IT_number 12
_symmetry_cell_setting 'monoclinic'
loop_
_space_group_symop_operation_xyz
x,y,z
-x,y,-z
-x,-y,-z
x,-y,z
1/2+x,1/2+y,z
1/2-x,1/2+y,-z
1/2-x,1/2-y,-z
1/2+x,1/2-y,z
loop_
_atom_site_type_symbol
_atom_site_label
_atom_site_fract_x
_atom_site_fract_y
_atom_site_fract_z
Si Si1 0.536368 0.279047 0.083336
Si Si2 0.354053 0.218320 0.614299
Si Si3 0.006441 0.785818 0.386925
Si Si4 0.978793 0.209885 0.764260
Si Si5 0.655397 0.204904 0.523567
Si Si6 0.109111 0.220950 0.913144
Si Si7 0.354657 0.218987 0.325070
Si Si8 0.266875 0.292862 0.238559
O O1 0.535802 0.500000 0.085064
O O2 0.549071 0.213089 0.151815
O O3 0.458433 0.225131 0.097192
O O4 0.591111 0.224994 0.997854
O O5 0.435287 0.259254 0.586728
O O6 0.326897 0.290243 0.556853
O O7 0.306863 0.288620 0.699593
O O8 0.347059 0.000000 0.615294
O O9 0.037926 0.715282 0.300354
O O10 0.930299 0.699043 0.435506
O O11 0.992658 0.000000 0.387580
O O12 0.064026 0.222303 0.724354
O O13 0.957362 0.000000 0.774137
O O14 0.671319 0.282978 0.588437
O O15 0.682281 0.000000 0.510942
O O16 0.181630 0.287010 0.843559
O O17 0.110343 0.000000 0.910638
O O18 0.311627 0.290870 0.284470
O O19 0.352907 0.000000 0.325270
O O20 0.253028 0.500000 0.225460
#
# Coordination Sequence:
#
# PCOD9178085 Si02
#       8
#     8   8   8   8   8   8   8   8
#     4   8  12  21  43  72  95 115 146 188 228 263
#     4  10  21  35  50  66  89 127 163 191 229 275
#     4  10  20  32  50  74  94 116 153 200 240 270
#     4   9  16  29  49  71  95 121 151 190 232 275
#     4   9  19  35  51  68  92 121 155 193 234 280
#     4   8  13  22  42  71  95 116 148 189 223 262
#     4  10  19  30  46  69  96 124 151 186 234 279
#     4  10  19  32  49  68  94 126 159 190 223 274
#
# _framework density 22.787268000000001
#
# number of rings (size 3 to 8) (size 9 to 14) (size 15 to 20)
#    0.000    2.750    1.250    1.875    0.000    4.000 
#    0.000    0.000    0.000    2.250    0.000    0.000 
#    0.000    0.000    0.000    0.000    0.000    0.375 
#
# Total GULP energy -178605.391918 kJ/mol
# GULP energy per Si atom -5581.418497 kJ/mol
# Density = 2.273540 g / cm^3
# Si number density = 22.787268 Si / 1000 Ang^3
#
#
#
# Elastic Constant Matrix: (Units=GPa)
#
#
# Indices 1 2 3 4 5 6 
#
# 1 55.9499 -11.1748 14.0471 -0.0001 -1.2654 -0.0002
# 2 -11.1748 90.3114 10.6102 0.0000 -0.1052 -0.0018
# 3 14.0471 10.6102 160.1270 -0.0003 -1.1544 0.0002
# 4 -0.0001 0.0000 -0.0003 2.6933 0.0002 1.8308
# 5 -1.2654 -0.1052 -1.1544 0.0002 33.5202 0.0000
# 6 -0.0002 -0.0018 0.0002 1.8308 0.0000 1.0038
#
#
#
# Elastic Compliance Matrix: (Units=1/GPa)
#
#
# Indices 1 2 3 4 5 6 
#
# 1 0.018853 0.002547 -0.001818 0.000025 0.000657 -0.000036
# 2 0.002547 0.011504 -0.000985 0.000060 0.000098 -0.000088
# 3 -0.001818 -0.000985 0.006471 -0.000012 0.000151 0.000019
# 4 0.000025 0.000060 -0.000012 -1.548845 0.000009 2.824779
# 5 0.000657 0.000098 0.000151 0.000009 0.029863 -0.000017
# 6 -0.000036 -0.000088 0.000019 2.824779 -0.000017 -4.155640
#
#
# Mechanical properties :
#
#
# Convention : Reuss Voigt Hill
#
# Bulk Modulus (GPa) = 27.53584 37.03926 32.28755
# Shear Modulus (GPa) = -0.88886 26.97053 13.04083
#
# Velocity S-wave (km/s) = -0.62523 3.44405 2.39485
# Velocity P-wave (km/s) = 3.40424 5.66612 4.67407
#
# Compressibility (1/GPa) = 0.03631630
#
# Stress axis : x y z
#
# Youngs Moduli (GPa) = 53.04151 86.92777 154.53853
#
# Poissons Ratio (x) = -0.22142 0.28094
# Poissons Ratio (y) = -0.13510 0.15222
# Poissons Ratio (z) = 0.09643 0.08562
#
# Static dielectric constant tensor:
#      x y z
#    x 1.798970 0.000000 -0.000520 
#    y 0.000000 1.868420 0.000000 
#    z -0.000520 0.000000 1.909120 
# 
# From -- ./inp_files/319787.got.cif
#   From: 2010.05.17/outbox.cif.g08.bks.cpg/sg12_160_cif.got.tgz:319787.got - 2010.06.03 13:09:07.
