data_PCOD9178857
_publ_section_title
;
Structure prediction by ZEFSAII (Michael W. Deem and Ramdas Pophale) SiO2 
 PCOD9178857
Probable space group: C 2/M
;
_chemical_formula_sum "Si O2"
_cell_formula_units_Z 64
_cell_length_a 29.228348
_cell_length_b 7.725669
_cell_length_c 15.165999
_cell_angle_alpha 90.000000
_cell_angle_beta 94.343721
_cell_angle_gamma 90.000000
_cell_volume 3414.775366
_symmetry_space_group_name_H-M "C 2/M"
_symmetry_group_IT_number 12
_symmetry_cell_setting 'monoclinic'
loop_
_space_group_symop_operation_xyz
x,y,z
-x,y,-z
-x,-y,-z
x,-y,z
1/2+x,1/2+y,z
1/2-x,1/2+y,-z
1/2-x,1/2-y,-z
1/2+x,1/2-y,z
loop_
_atom_site_type_symbol
_atom_site_label
_atom_site_fract_x
_atom_site_fract_y
_atom_site_fract_z
Si Si1 0.498720 0.702333 0.899895
Si Si2 0.652102 0.788671 0.975542
Si Si3 0.258918 0.705502 0.400499
Si Si4 0.102133 0.298096 0.145289
Si Si5 0.416517 0.701784 0.192259
Si Si6 0.690572 0.704197 0.234954
Si Si7 0.665596 0.711394 0.716375
Si Si8 0.764632 0.702834 0.115364
O O1 0.511610 0.500000 0.911644
O O2 0.447367 0.713175 0.855697
O O3 0.536208 0.779421 0.838113
O O4 0.500000 0.776742 0.000000
O O5 0.618454 0.718641 0.895100
O O6 0.704334 0.729020 0.961653
O O7 0.652284 0.000000 0.972516
O O8 0.629350 0.730713 0.063166
O O9 0.258577 0.500000 0.392671
O O10 0.250000 0.750000 0.500000
O O11 0.219645 0.769415 0.327749
O O12 0.308254 0.764765 0.368844
O O13 0.093175 0.500000 0.130103
O O14 0.139247 0.276165 0.227738
O O15 0.425097 0.500000 0.214194
O O16 0.385953 0.772228 0.268919
O O17 0.687162 0.500000 0.219819
O O18 0.719940 0.782791 0.156527
O O19 0.665589 0.500000 0.721867
O O20 0.698458 0.780396 0.798918
O O21 0.756718 0.500000 0.099074
#
# Coordination Sequence:
#
# PCOD9178857 Si02
#       8
#     8   8   8   8   8   8   8   8
#     4  10  19  31  47  67  91 124 169 214 248 279
#     4   9  17  28  42  62  89 123 162 201 240 279
#     4  10  19  33  54  79 104 126 152 185 230 288
#     4  11  22  32  44  64  94 129 166 205 245 286
#     4   9  16  28  46  66  91 123 162 205 243 275
#     4  10  20  34  50  68  94 126 160 198 239 283
#     4   8  15  27  45  70  96 122 152 190 232 278
#     4   8  15  28  44  62  87 121 159 196 233 276
#
# _framework density 18.742083000000001
#
# number of rings (size 3 to 8) (size 9 to 14) (size 15 to 20)
#    0.000    2.625    1.250    1.125    0.000    2.750 
#    0.000    0.000    0.000    0.000    0.000    0.875 
#    0.000    7.000    0.000    0.000    0.000    0.000 
#
# Total GULP energy -178290.821996 kJ/mol
# GULP energy per Si atom -5571.588187 kJ/mol
# Density = 1.869943 g / cm^3
# Si number density = 18.742083 Si / 1000 Ang^3
#
#
#
# Elastic Constant Matrix: (Units=GPa)
#
#
# Indices 1 2 3 4 5 6 
#
# 1 158.1482 -0.5435 40.5045 0.0000 -19.2475 0.0000
# 2 -0.5435 41.6091 0.6089 0.0000 -6.0315 0.0000
# 3 40.5045 0.6089 68.9710 0.0000 -20.5021 0.0000
# 4 0.0000 0.0000 0.0000 18.3161 0.0000 4.2724
# 5 -19.2475 -6.0315 -20.5021 0.0000 24.7450 0.0000
# 6 0.0000 0.0000 0.0000 4.2724 0.0000 14.3022
#
#
#
# Elastic Compliance Matrix: (Units=1/GPa)
#
#
# Indices 1 2 3 4 5 6 
#
# 1 0.007615 0.000605 -0.003546 0.000000 0.003133 0.000000
# 2 0.000605 0.025194 0.001841 0.000000 0.008137 0.000000
# 3 -0.003546 0.001841 0.021067 0.000000 0.015145 0.000000
# 4 0.000000 0.000000 0.000000 0.058686 0.000000 -0.017531
# 5 0.003133 0.008137 0.015145 0.000000 0.057381 0.000000
# 6 0.000000 0.000000 0.000000 -0.017531 0.000000 0.075156
#
#
# Mechanical properties :
#
#
# Convention : Reuss Voigt Hill
#
# Bulk Modulus (GPa) = 19.35138 38.87423 29.11280
# Shear Modulus (GPa) = 18.90195 26.68323 22.79259
#
# Velocity S-wave (km/s) = 3.17918 3.77730 3.49107
# Velocity P-wave (km/s) = 4.88096 6.30957 5.64068
#
# Compressibility (1/GPa) = 0.05167591
#
# Stress axis : x y z
#
# Youngs Moduli (GPa) = 131.32463 39.69248 47.46736
#
# Poissons Ratio (x) = -0.02403 0.16832
# Poissons Ratio (y) = -0.07951 -0.08738
# Poissons Ratio (z) = 0.46568 -0.07307
#
# Static dielectric constant tensor:
#      x y z
#    x 1.722080 0.000000 -0.039750 
#    y 0.000000 1.695540 0.000000 
#    z -0.039750 0.000000 1.633420 
# 
# From -- ./inp_files/248475.got.cif
#   From: 2010.05.17/outbox.cif.g08.bks.cpg/sg12_125_cif.got.tgz:248475.got - 2010.06.03 13:09:07.
