data_PCOD9178153
_publ_section_title
;
Structure prediction by ZEFSAII (Michael W. Deem and Ramdas Pophale) SiO2 
 PCOD9178153
Probable space group: C 2/M
;
_chemical_formula_sum "Si O2"
_cell_formula_units_Z 56
_cell_length_a 9.454286
_cell_length_b 13.490932
_cell_length_c 27.286514
_cell_angle_alpha 90.000000
_cell_angle_beta 132.151672
_cell_angle_gamma 90.000000
_cell_volume 2580.205463
_symmetry_space_group_name_H-M "C 2/M"
_symmetry_group_IT_number 12
_symmetry_cell_setting 'monoclinic'
loop_
_space_group_symop_operation_xyz
x,y,z
-x,y,-z
-x,-y,-z
x,-y,z
1/2+x,1/2+y,z
1/2-x,1/2+y,-z
1/2-x,1/2-y,-z
1/2+x,1/2-y,z
loop_
_atom_site_type_symbol
_atom_site_label
_atom_site_fract_x
_atom_site_fract_y
_atom_site_fract_z
Si Si1 0.392646 0.881195 0.731496
Si Si2 0.405656 0.879183 0.428273
Si Si3 0.523710 0.379650 0.698779
Si Si4 0.132608 0.697140 0.874710
Si Si5 0.035075 0.704863 0.955496
Si Si6 0.971138 0.384293 0.337621
Si Si7 0.526225 0.387082 0.204078
O O1 0.196057 0.840289 0.706911
O O2 0.554235 0.858053 0.808730
O O3 0.424412 0.839844 0.684768
O O4 0.381817 0.000000 0.725110
O O5 0.500000 0.841716 0.500000
O O6 0.494465 0.842941 0.397493
O O7 0.181828 0.857902 0.371323
O O8 0.422224 0.000000 0.432248
O O9 0.532022 0.500000 0.701448
O O10 0.558893 0.353202 0.763484
O O11 0.040586 0.651640 0.903384
O O12 0.360708 0.715193 0.920777
O O13 0.041747 0.807931 0.850924
O O14 0.250000 0.750000 0.000000
O O15 0.000000 0.649837 0.000000
O O16 0.029266 0.500000 0.355098
O O17 0.750437 0.386492 0.268985
O O18 0.472466 0.500000 0.179582
#
# Coordination Sequence:
#
# PCOD9178153 Si02
#       7
#     8   8   8   8   8   8   8
#     4  10  19  30  46  74 105 125 153 201 249 289
#     4   8  13  24  43  64  89 131 178 202 228 287
#     4   8  15  27  42  65  99 126 151 204 253 274
#     4  11  19  32  57  75  91 131 164 184 240 297
#     4   9  20  36  53  72  99 129 158 197 233 272
#     4   8  15  27  42  65  99 126 150 202 253 277
#     4   9  17  30  49  75  99 118 154 203 242 284
#
# _framework density 21.703697999999999
#
# number of rings (size 3 to 8) (size 9 to 14) (size 15 to 20)
#    0.000    3.000    0.000    3.429    0.000    0.000 
#    0.000    0.714    0.000   21.429    0.000   16.000 
#    0.000    0.000    0.000    0.000    0.000    0.286 
#
# Total GULP energy -155973.129956 kJ/mol
# GULP energy per Si atom -5570.468927 kJ/mol
# Density = 2.165430 g / cm^3
# Si number density = 21.703698 Si / 1000 Ang^3
#
#
#
# Elastic Constant Matrix: (Units=GPa)
#
#
# Indices 1 2 3 4 5 6 
#
# 1 143.1963 -10.9739 42.6522 0.0000 -35.8711 0.0000
# 2 -10.9739 59.3574 2.3269 0.0000 -7.7993 0.0000
# 3 42.6522 2.3269 87.3750 0.0000 -22.1366 0.0000
# 4 0.0000 0.0000 0.0000 12.6267 0.0000 5.6512
# 5 -35.8711 -7.7993 -22.1366 0.0000 32.3221 0.0000
# 6 0.0000 0.0000 0.0000 5.6512 0.0000 0.5934
#
#
#
# Elastic Compliance Matrix: (Units=1/GPa)
#
#
# Indices 1 2 3 4 5 6 
#
# 1 0.010794 0.003552 -0.002555 0.000000 0.011086 0.000000
# 2 0.003552 0.018606 -0.000113 0.000000 0.008355 0.000000
# 3 -0.002555 -0.000113 0.014483 0.000000 0.007056 0.000000
# 4 0.000000 0.000000 0.000000 -0.024279 0.000000 0.231201
# 5 0.011086 0.008355 0.007056 0.000000 0.050091 0.000000
# 6 0.000000 0.000000 0.000000 0.231201 0.000000 -0.516581
#
#
# Mechanical properties :
#
#
# Convention : Reuss Voigt Hill
#
# Bulk Modulus (GPa) = 21.90493 39.77104 30.83798
# Shear Modulus (GPa) = -11.53568 26.17002 7.31717
#
# Velocity S-wave (km/s) = -2.30795 3.47621 1.83813
# Velocity P-wave (km/s) = 1.73565 5.87166 4.32948
#
# Compressibility (1/GPa) = 0.04565182
#
# Stress axis : x y z
#
# Youngs Moduli (GPa) = 92.64555 53.74597 69.04744
#
# Poissons Ratio (x) = -0.19093 0.17641
# Poissons Ratio (y) = -0.32911 0.00780
# Poissons Ratio (z) = 0.23670 0.00607
#
# Static dielectric constant tensor:
#      x y z
#    x 1.864590 0.000000 -0.042540 
#    y 0.000000 1.819640 0.000000 
#    z -0.042540 0.000000 1.831080 
# 
# From -- ./inp_files/356193.got.cif
#   From: 2010.05.17/outbox.cif.g08.bks.cpg/sg12_179_cif.got.tgz:356193.got - 2010.06.03 13:09:07.
