data_PCOD9178364
_publ_section_title
;
Structure prediction by ZEFSAII (Michael W. Deem and Ramdas Pophale) SiO2 
 PCOD9178364
Probable space group: C 2/M
;
_chemical_formula_sum "Si O2"
_cell_formula_units_Z 56
_cell_length_a 29.608024
_cell_length_b 10.789765
_cell_length_c 27.831674
_cell_angle_alpha 90.000000
_cell_angle_beta 20.995170
_cell_angle_gamma 90.000000
_cell_volume 3185.623998
_symmetry_space_group_name_H-M "C 2/M"
_symmetry_group_IT_number 12
_symmetry_cell_setting 'monoclinic'
loop_
_space_group_symop_operation_xyz
x,y,z
-x,y,-z
-x,-y,-z
x,-y,z
1/2+x,1/2+y,z
1/2-x,1/2+y,-z
1/2-x,1/2-y,-z
1/2+x,1/2-y,z
loop_
_atom_site_type_symbol
_atom_site_label
_atom_site_fract_x
_atom_site_fract_y
_atom_site_fract_z
Si Si1 0.363360 0.850244 0.652790
Si Si2 0.964852 0.238587 0.799850
Si Si3 0.153485 0.356013 0.217916
Si Si4 0.113272 0.355409 0.568989
Si Si5 0.118396 0.148883 0.737472
Si Si6 0.238587 0.865360 0.066530
Si Si7 0.108119 0.151420 0.855673
O O1 0.500000 0.803308 0.500000
O O2 0.338245 0.826910 0.733933
O O3 0.245553 0.808039 0.737804
O O4 0.367362 0.000000 0.644092
O O5 0.874274 0.146808 0.860027
O O6 0.073895 0.281757 0.655528
O O7 0.023209 0.187734 0.790536
O O8 0.869424 0.349394 0.908206
O O9 0.195347 0.500000 0.168331
O O10 0.223860 0.252757 0.116320
O O11 0.007196 0.349434 0.346759
O O12 0.131129 0.500000 0.563811
O O13 0.240679 0.310295 0.417401
O O14 0.084711 0.192940 0.824391
O O15 0.120499 0.000000 0.737447
O O16 0.232112 0.000000 0.096727
O O17 0.107782 0.000000 0.856204
O O18 0.000000 0.191136 0.000000
#
# Coordination Sequence:
#
# PCOD9178364 Si02
#       7
#     8   8   8   8   8   8   8
#     4   9  16  28  48  74 103 134 169 212 260 307
#     4  10  20  32  50  70  97 134 177 211 249 304
#     4   9  18  31  53  79 105 136 171 210 256 307
#     4   9  17  31  48  72 102 130 164 208 254 303
#     4  10  19  30  48  72 102 134 164 206 261 311
#     4  10  21  35  50  73 104 135 172 215 256 305
#     4   9  18  29  42  67 103 132 161 206 258 305
#
# _framework density 17.578973999999999
#
# number of rings (size 3 to 8) (size 9 to 14) (size 15 to 20)
#    0.000    2.571    0.000    2.143    2.000    7.429 
#    0.000    0.000    0.000    1.286    0.000    3.000 
#    0.000    0.000    0.000    0.000    0.000    0.000 
#
# Total GULP energy -156058.745577 kJ/mol
# GULP energy per Si atom -5573.526628 kJ/mol
# Density = 1.753896 g / cm^3
# Si number density = 17.578974 Si / 1000 Ang^3
#
#
#
# Elastic Constant Matrix: (Units=GPa)
#
#
# Indices 1 2 3 4 5 6 
#
# 1 114.0630 16.0621 27.6244 -0.0007 17.2089 0.0001
# 2 16.0621 49.3381 12.6193 -0.0020 11.6685 0.0004
# 3 27.6244 12.6193 77.5169 -0.0022 19.6528 0.0005
# 4 -0.0007 -0.0020 -0.0022 2.3662 0.0005 4.7830
# 5 17.2089 11.6685 19.6528 0.0005 18.1161 0.0000
# 6 0.0001 0.0004 0.0005 4.7830 0.0000 14.3807
#
#
#
# Elastic Compliance Matrix: (Units=1/GPa)
#
#
# Indices 1 2 3 4 5 6 
#
# 1 0.010450 -0.001245 -0.001666 0.000007 -0.007317 -0.000002
# 2 -0.001245 0.024059 0.000215 0.000074 -0.014547 -0.000025
# 3 -0.001666 0.000215 0.018060 0.000066 -0.018148 -0.000022
# 4 0.000007 0.000074 0.000066 1.289631 -0.000162 -0.428931
# 5 -0.007317 -0.014547 -0.018148 -0.000162 0.091207 0.000055
# 6 -0.000002 -0.000025 -0.000022 -0.428931 0.000055 0.212200
#
#
# Mechanical properties :
#
#
# Convention : Reuss Voigt Hill
#
# Bulk Modulus (GPa) = 21.19705 39.28105 30.23905
# Shear Modulus (GPa) = 2.99989 19.28008 11.13999
#
# Velocity S-wave (km/s) = 1.30776 3.31534 2.52009
# Velocity P-wave (km/s) = 3.79007 6.08682 5.07021
#
# Compressibility (1/GPa) = 0.04717638
#
# Stress axis : x y z
#
# Youngs Moduli (GPa) = 95.69459 41.56449 55.37030
#
# Poissons Ratio (x) = 0.05176 0.09226
# Poissons Ratio (y) = 0.11917 -0.01191
# Poissons Ratio (z) = 0.15945 -0.00894
#
# Static dielectric constant tensor:
#      x y z
#    x 1.603660 0.000000 -0.000340 
#    y 0.000000 1.587730 0.000000 
#    z -0.000340 0.000000 1.622160 
# 
# From -- ./inp_files/110086.got.cif
#   From: 2010.05.17/outbox.cif.g08.bks.cpg/sg12_56_cif.got.tgz:110086.got - 2010.06.03 13:09:07.
