data_PCOD9178299
_publ_section_title
;
Structure prediction by ZEFSAII (Michael W. Deem and Ramdas Pophale) SiO2 
 PCOD9178299
Probable space group: C 2/M
;
_chemical_formula_sum "Si O2"
_cell_formula_units_Z 58
_cell_length_a 19.832713
_cell_length_b 7.660550
_cell_length_c 25.069826
_cell_angle_alpha 90.000000
_cell_angle_beta 137.625878
_cell_angle_gamma 90.000000
_cell_volume 2567.043244
_symmetry_space_group_name_H-M "C 2/M"
_symmetry_group_IT_number 12
_symmetry_cell_setting 'monoclinic'
loop_
_space_group_symop_operation_xyz
x,y,z
-x,y,-z
-x,-y,-z
x,-y,z
1/2+x,1/2+y,z
1/2-x,1/2+y,-z
1/2-x,1/2-y,-z
1/2+x,1/2-y,z
loop_
_atom_site_type_symbol
_atom_site_label
_atom_site_fract_x
_atom_site_fract_y
_atom_site_fract_z
Si Si1 0.096250 0.289501 0.683704
Si Si2 0.362575 0.211305 0.169405
Si Si3 0.458956 0.197493 0.794568
Si Si4 0.322566 0.702231 0.620207
Si Si5 0.000000 0.500000 0.000000
Si Si6 0.638002 0.288605 0.053771
Si Si7 0.688697 0.297160 0.201695
Si Si8 0.878427 0.203718 0.534774
O O1 0.088564 0.500000 0.678870
O O2 0.105416 0.232576 0.751661
O O3 0.200929 0.231553 0.718058
O O4 0.996328 0.224980 0.596886
O O5 0.439602 0.278013 0.170061
O O6 0.245828 0.245238 0.089982
O O7 0.372128 0.000000 0.176348
O O8 0.381252 0.198815 0.699931
O O9 0.397620 0.283279 0.806055
O O10 0.479907 0.000000 0.823129
O O11 0.352935 0.500000 0.641953
O O12 0.202235 0.711890 0.551603
O O13 0.354948 0.771376 0.580956
O O14 0.049454 0.656620 0.989621
O O15 0.616131 0.500000 0.038061
O O16 0.659902 0.223956 0.127559
O O17 0.704650 0.500000 0.199048
O O18 0.853897 0.000000 0.520204
#
# Coordination Sequence:
#
# PCOD9178299 Si02
#       8
#     8   8   8   8   2   8   8   8
#     4   9  16  32  54  72 102 142 184 229 283 336
#     4   8  16  33  55  81 111 144 185 228 279 324
#     4  11  20  32  55  82 110 145 184 238 281 332
#     4  10  20  32  46  71 105 144 187 228 288 345
#     4  12  22  36  68 102 116 148 192 226 274 338
#     4   9  20  40  62  91 123 152 186 232 272 329
#     4   9  20  37  55  80 114 151 182 222 283 336
#     4  10  19  30  47  73 103 138 183 243 288 329
#
# _framework density 22.594087999999999
#
# number of rings (size 3 to 8) (size 9 to 14) (size 15 to 20)
#    0.000    2.483    1.379    3.103    0.966    1.655 
#    6.207    0.690    0.000    4.966    0.000    0.000 
#    0.000    0.000    0.000    0.000    0.000    0.000 
#
# Total GULP energy -161477.416525 kJ/mol
# GULP energy per Si atom -5568.186777 kJ/mol
# Density = 2.254266 g / cm^3
# Si number density = 22.594088 Si / 1000 Ang^3
#
#
#
# Elastic Constant Matrix: (Units=GPa)
#
#
# Indices 1 2 3 4 5 6 
#
# 1 101.0744 1.7974 28.1268 0.0000 37.2513 0.0000
# 2 1.7974 67.6802 8.8112 0.0001 8.0034 0.0001
# 3 28.1268 8.8112 64.5835 0.0000 36.6145 0.0000
# 4 0.0000 0.0001 0.0000 -15.5344 0.0000 10.5545
# 5 37.2513 8.0034 36.6145 0.0000 37.1357 0.0000
# 6 0.0000 0.0001 0.0000 10.5545 0.0000 18.9714
#
#
#
# Elastic Compliance Matrix: (Units=1/GPa)
#
#
# Indices 1 2 3 4 5 6 
#
# 1 0.016509 0.001491 0.004938 0.000000 -0.021750 0.000000
# 2 0.001491 0.015303 -0.000044 0.000000 -0.004750 0.000000
# 3 0.004938 -0.000044 0.036601 0.000000 -0.041031 0.000000
# 4 0.000000 0.000000 0.000000 -0.046715 0.000000 0.025989
# 5 -0.021750 -0.004750 -0.041031 0.000000 0.090225 0.000000
# 6 0.000000 0.000000 0.000000 0.025989 0.000000 0.038252
#
#
# Mechanical properties :
#
#
# Convention : Reuss Voigt Hill
#
# Bulk Modulus (GPa) = 12.31798 34.53433 23.42615
# Shear Modulus (GPa) = 30.40104 21.08804 25.74454
#
# Velocity S-wave (km/s) = 3.67213 3.05838 3.37922
# Velocity P-wave (km/s) = 4.84180 5.27157 5.06125
#
# Compressibility (1/GPa) = 0.08118217
#
# Stress axis : x y z
#
# Youngs Moduli (GPa) = 60.57203 65.34567 27.32143
#
# Poissons Ratio (x) = -0.09742 -0.13490
# Poissons Ratio (y) = -0.09030 0.00121
# Poissons Ratio (z) = -0.29908 0.00288
#
# Static dielectric constant tensor:
#      x y z
#    x 1.878390 0.000000 0.048460 
#    y 0.000000 1.801420 0.000000 
#    z 0.048460 0.000000 1.932280 
# 
# From -- ./inp_files/380237.got.cif
#   From: 2010.05.17/outbox.cif.g08.bks.cpg/sg12_191_cif.got.tgz:380237.got - 2010.06.03 13:09:07.
