data_PCOD9178158
_publ_section_title
;
Structure prediction by ZEFSAII (Michael W. Deem and Ramdas Pophale) SiO2 
 PCOD9178158
Probable space group: C 2/M
;
_chemical_formula_sum "Si O2"
_cell_formula_units_Z 56
_cell_length_a 24.175991
_cell_length_b 9.171021
_cell_length_c 15.418491
_cell_angle_alpha 90.000000
_cell_angle_beta 60.888386
_cell_angle_gamma 90.000000
_cell_volume 2986.710091
_symmetry_space_group_name_H-M "C 2/M"
_symmetry_group_IT_number 12
_symmetry_cell_setting 'monoclinic'
loop_
_space_group_symop_operation_xyz
x,y,z
-x,y,-z
-x,-y,-z
x,-y,z
1/2+x,1/2+y,z
1/2-x,1/2+y,-z
1/2-x,1/2-y,-z
1/2+x,1/2-y,z
loop_
_atom_site_type_symbol
_atom_site_label
_atom_site_fract_x
_atom_site_fract_y
_atom_site_fract_z
Si Si1 0.787233 0.675149 0.391227
Si Si2 0.733771 0.167470 0.791297
Si Si3 0.439128 0.675894 0.819344
Si Si4 0.378582 0.666016 0.688880
Si Si5 0.806567 0.174511 0.012301
Si Si6 0.435323 0.171867 0.497561
Si Si7 0.065153 0.324512 0.700071
O O1 0.780698 0.500000 0.407881
O O2 0.750000 0.750000 0.500000
O O3 0.764328 0.711866 0.311236
O O4 0.862436 0.709664 0.331042
O O5 0.805673 0.164682 0.771099
O O6 0.697525 0.270330 0.885514
O O7 0.709473 0.000000 0.812731
O O8 0.445574 0.500000 0.813698
O O9 0.419936 0.725921 0.736430
O O10 0.505941 0.748624 0.792590
O O11 0.376667 0.711206 0.922811
O O12 0.398971 0.500000 0.657150
O O13 0.384012 0.752156 0.596033
O O14 0.798417 0.000000 0.012623
O O15 0.750000 0.250000 0.000000
O O16 0.500000 0.197759 0.500000
O O17 0.438878 0.224646 0.397231
O O18 0.423266 0.000000 0.503482
O O19 0.057142 0.500000 0.711353
#
# Coordination Sequence:
#
# PCOD9178158 Si02
#       7
#     8   8   8   8   8   8   8
#     4  10  22  40  63  87 118 156 199 246 290 345
#     4  10  21  39  59  84 116 152 195 244 292 343
#     4  10  21  36  54  81 114 146 184 233 288 348
#     4  10  19  32  51  77 110 143 182 228 280 343
#     4  11  22  38  60  88 120 153 193 242 295 352
#     4  10  19  30  46  74 110 142 179 226 279 339
#     4  10  21  37  55  80 114 152 193 238 288 344
#
# _framework density 18.749727
#
# number of rings (size 3 to 8) (size 9 to 14) (size 15 to 20)
#    0.000    1.857    2.857    1.286    0.000    3.714 
#    0.000    0.714    0.000    4.286    0.000    0.000 
#    0.000    0.000    0.000    0.000    0.000    0.000 
#
# Total GULP energy -156086.676987 kJ/mol
# GULP energy per Si atom -5574.524178 kJ/mol
# Density = 1.870705 g / cm^3
# Si number density = 18.749727 Si / 1000 Ang^3
#
#
#
# Elastic Constant Matrix: (Units=GPa)
#
#
# Indices 1 2 3 4 5 6 
#
# 1 115.0083 4.6176 25.3211 0.0000 -13.1767 0.0000
# 2 4.6176 59.7968 65.6906 0.0000 -12.4940 0.0000
# 3 25.3211 65.6906 130.9558 0.0000 -17.2691 0.0000
# 4 0.0000 0.0000 0.0000 33.7601 0.0000 -6.0270
# 5 -13.1767 -12.4940 -17.2691 0.0000 32.2538 0.0000
# 6 0.0000 0.0000 0.0000 -6.0270 0.0000 21.0103
#
#
#
# Elastic Compliance Matrix: (Units=1/GPa)
#
#
# Indices 1 2 3 4 5 6 
#
# 1 0.009655 0.003422 -0.003108 0.000000 0.003606 0.000000
# 2 0.003422 0.039156 -0.019495 0.000000 0.006128 0.000000
# 3 -0.003108 -0.019495 0.018133 0.000000 0.000887 0.000000
# 4 0.000000 0.000000 0.000000 0.031220 0.000000 0.008956
# 5 0.003606 0.006128 0.000887 0.000000 0.035326 0.000000
# 6 0.000000 0.000000 0.000000 0.008956 0.000000 0.050165
#
#
# Mechanical properties :
#
#
# Convention : Reuss Voigt Hill
#
# Bulk Modulus (GPa) = 34.98652 55.22440 45.10546
# Shear Modulus (GPa) = 21.59410 31.41362 26.50386
#
# Velocity S-wave (km/s) = 3.39736 4.09763 3.76381
# Velocity P-wave (km/s) = 5.83863 7.20450 6.55723
#
# Compressibility (1/GPa) = 0.02858243
#
# Stress axis : x y z
#
# Youngs Moduli (GPa) = 103.57286 25.53872 55.14669
#
# Poissons Ratio (x) = -0.08740 0.17140
# Poissons Ratio (y) = -0.35444 1.07510
# Poissons Ratio (z) = 0.32190 0.49789
#
# Static dielectric constant tensor:
#      x y z
#    x 1.674180 0.000000 -0.015230 
#    y 0.000000 1.644460 0.000000 
#    z -0.015230 0.000000 1.668050 
# 
# From -- ./inp_files/238385.got.cif
#   From: 2010.05.17/outbox.cif.g08.bks.cpg/sg12_120_cif.got.tgz:238385.got - 2010.06.03 13:09:07.
