data_PCOD9178253
_publ_section_title
;
Structure prediction by ZEFSAII (Michael W. Deem and Ramdas Pophale) SiO2 
 PCOD9178253
Probable space group: C 2/M
;
_chemical_formula_sum "Si O2"
_cell_formula_units_Z 48
_cell_length_a 17.406302
_cell_length_b 14.153404
_cell_length_c 12.737505
_cell_angle_alpha 90.000000
_cell_angle_beta 109.174809
_cell_angle_gamma 90.000000
_cell_volume 2963.898616
_symmetry_space_group_name_H-M "C 2/M"
_symmetry_group_IT_number 12
_symmetry_cell_setting 'monoclinic'
loop_
_space_group_symop_operation_xyz
x,y,z
-x,y,-z
-x,-y,-z
x,-y,z
1/2+x,1/2+y,z
1/2-x,1/2+y,-z
1/2-x,1/2-y,-z
1/2+x,1/2-y,z
loop_
_atom_site_type_symbol
_atom_site_label
_atom_site_fract_x
_atom_site_fract_y
_atom_site_fract_z
Si Si1 0.096381 0.611254 0.023585
Si Si2 0.082068 0.892316 0.743137
Si Si3 0.609683 0.389375 0.332798
Si Si4 0.697011 0.755646 0.228739
Si Si5 0.678787 0.224701 0.886890
Si Si6 0.694708 0.609292 0.591565
O O1 0.114927 0.500000 0.045046
O O2 0.147226 0.675031 0.128610
O O3 0.124382 0.646186 0.920328
O O4 0.000000 0.624812 0.000000
O O5 0.123995 0.816094 0.837011
O O6 0.123957 0.884865 0.647918
O O7 0.986220 0.876199 0.692014
O O8 0.096228 0.000000 0.786908
O O9 0.622747 0.500000 0.314214
O O10 0.640229 0.322619 0.254261
O O11 0.658416 0.368062 0.461693
O O12 0.771010 0.706459 0.197526
O O13 0.736288 0.820525 0.336878
O O14 0.750000 0.250000 0.000000
O O15 0.722954 0.500000 0.603390
#
# Coordination Sequence:
#
# PCOD9178253 Si02
#       6
#     8   8   8   8   8   8
#     4  10  20  34  51  68  88 119 159 199 234 273
#     4   9  17  31  50  71  96 125 157 192 230 275
#     4  10  19  30  47  72 100 127 154 189 233 279
#     4  10  19  32  49  70  97 125 154 191 236 282
#     4   9  19  32  48  69  91 119 154 192 233 275
#     4   9  17  30  49  72  96 125 160 193 227 271
#
# _framework density 16.194886
#
# number of rings (size 3 to 8) (size 9 to 14) (size 15 to 20)
#    0.000    2.500    0.000    2.500    0.000    6.667 
#    0.000    2.500    0.000    9.000    0.000    0.000 
#    0.000   24.000    0.000    0.000    0.000    0.000 
#
# Total GULP energy -133713.668725 kJ/mol
# GULP energy per Si atom -5571.402864 kJ/mol
# Density = 1.615803 g / cm^3
# Si number density = 16.194886 Si / 1000 Ang^3
#
#
#
# Elastic Constant Matrix: (Units=GPa)
#
#
# Indices 1 2 3 4 5 6 
#
# 1 60.4474 42.4404 7.9398 0.0000 -0.6251 0.0000
# 2 42.4404 73.9020 43.0548 0.0000 -4.3924 0.0000
# 3 7.9398 43.0548 55.8979 0.0000 6.0023 0.0000
# 4 0.0000 0.0000 0.0000 28.7026 0.0000 1.4841
# 5 -0.6251 -4.3924 6.0023 0.0000 16.6722 0.0000
# 6 0.0000 0.0000 0.0000 1.4841 0.0000 25.6819
#
#
#
# Elastic Compliance Matrix: (Units=1/GPa)
#
#
# Indices 1 2 3 4 5 6 
#
# 1 0.041905 -0.041701 0.028271 0.000000 -0.019593 0.000000
# 2 -0.041701 0.069533 -0.051421 0.000000 0.035268 0.000000
# 3 0.028271 -0.051421 0.057026 0.000000 -0.033018 0.000000
# 4 0.000000 0.000000 0.000000 0.034944 0.000000 -0.002019
# 5 -0.019593 0.035268 -0.033018 0.000000 0.080424 0.000000
# 6 0.000000 0.000000 0.000000 -0.002019 0.000000 0.039055
#
#
# Mechanical properties :
#
#
# Convention : Reuss Voigt Hill
#
# Bulk Modulus (GPa) = 25.79742 41.90192 33.84967
# Shear Modulus (GPa) = 10.74092 20.66549 15.70321
#
# Velocity S-wave (km/s) = 2.57812 3.57606 3.11728
# Velocity P-wave (km/s) = 4.98259 6.55596 5.82267
#
# Compressibility (1/GPa) = 0.03876357
#
# Stress axis : x y z
#
# Youngs Moduli (GPa) = 23.86327 14.38168 17.53583
#
# Poissons Ratio (x) = 0.59972 -0.49576
# Poissons Ratio (y) = 0.99511 0.90171
# Poissons Ratio (z) = -0.67464 0.73952
#
# Static dielectric constant tensor:
#      x y z
#    x 1.539740 0.000000 -0.011040 
#    y 0.000000 1.528280 0.000000 
#    z -0.011040 0.000000 1.533290 
# 
# From -- ./inp_files/142686.got.cif
#   From: 2010.05.17/outbox.cif.g08.bks.cpg/sg12_72_cif.got.tgz:142686.got - 2010.06.03 13:09:07.
