data_PCOD9178060
_publ_section_title
;
Structure prediction by ZEFSAII (Michael W. Deem and Ramdas Pophale) SiO2 
 PCOD9178060
Probable space group: C 2/M
;
_chemical_formula_sum "Si O2"
_cell_formula_units_Z 64
_cell_length_a 19.498277
_cell_length_b 7.725061
_cell_length_c 26.564300
_cell_angle_alpha 90.000000
_cell_angle_beta 124.361065
_cell_angle_gamma 90.000000
_cell_volume 3303.027189
_symmetry_space_group_name_H-M "C 2/M"
_symmetry_group_IT_number 12
_symmetry_cell_setting 'monoclinic'
loop_
_space_group_symop_operation_xyz
x,y,z
-x,y,-z
-x,-y,-z
x,-y,z
1/2+x,1/2+y,z
1/2-x,1/2+y,-z
1/2-x,1/2-y,-z
1/2+x,1/2-y,z
loop_
_atom_site_type_symbol
_atom_site_label
_atom_site_fract_x
_atom_site_fract_y
_atom_site_fract_z
Si Si1 0.074423 0.802364 0.311966
Si Si2 0.528353 0.711530 0.932434
Si Si3 0.870388 0.208103 0.932063
Si Si4 0.034155 0.787048 0.819915
Si Si5 0.158161 0.792613 0.443673
Si Si6 0.501157 0.796000 0.556475
Si Si7 0.810644 0.204589 0.182610
Si Si8 0.918440 0.704048 0.312513
O O1 0.138605 0.724661 0.378908
O O2 0.044675 0.727086 0.246320
O O3 0.988354 0.799549 0.308268
O O4 0.100769 0.000000 0.313207
O O5 0.529021 0.500000 0.931677
O O6 0.442580 0.765810 0.923591
O O7 0.533854 0.770112 0.877375
O O8 0.602111 0.767034 0.000711
O O9 0.779979 0.257911 0.875913
O O10 0.873749 0.000000 0.934186
O O11 0.118086 0.729856 0.826189
O O12 0.032726 0.000000 0.818689
O O13 0.250000 0.750000 0.500000
O O14 0.087457 0.725032 0.452412
O O15 0.148419 0.000000 0.437945
O O16 0.500000 0.718867 0.500000
O O17 0.569260 0.731867 0.625344
O O18 0.518533 0.000000 0.557807
O O19 0.832676 0.274541 0.247273
O O20 0.820462 0.000000 0.189865
O O21 0.939632 0.500000 0.320377
#
# Coordination Sequence:
#
# PCOD9178060 Si02
#       8
#     8   8   8   8   8   8   8   8
#     4   8  15  28  46  67  91 120 152 188 232 278
#     4   8  15  29  48  67  88 117 152 188 226 271
#     4   9  17  30  48  68  90 118 152 188 226 270
#     4   8  14  27  47  68  88 114 150 188 227 271
#     4  10  19  31  48  70  97 129 163 198 238 284
#     4   9  18  33  52  73  96 122 156 198 241 287
#     4  10  19  30  46  68  94 121 150 187 227 269
#     4   9  16  28  48  70  92 120 152 187 228 274
#
# _framework density 19.376165
#
# number of rings (size 3 to 8) (size 9 to 14) (size 15 to 20)
#    0.000    3.125    0.000    2.625    0.000    1.750 
#    0.000    2.500    0.000   11.250    0.000    0.000 
#    0.000    0.000    0.000    0.000    0.000    0.000 
#
# Total GULP energy -178169.478569 kJ/mol
# GULP energy per Si atom -5567.796205 kJ/mol
# Density = 1.933206 g / cm^3
# Si number density = 19.376165 Si / 1000 Ang^3
#
#
#
# Elastic Constant Matrix: (Units=GPa)
#
#
# Indices 1 2 3 4 5 6 
#
# 1 47.6049 -3.4072 84.0905 0.0000 -8.4697 0.0000
# 2 -3.4072 32.0673 3.1857 0.0000 -6.0868 0.0000
# 3 84.0905 3.1857 247.9350 0.0000 -10.8470 0.0000
# 4 0.0000 0.0000 0.0000 11.5598 0.0000 6.0075
# 5 -8.4697 -6.0868 -10.8470 0.0000 36.0356 0.0000
# 6 0.0000 0.0000 0.0000 6.0075 0.0000 13.1257
#
#
#
# Elastic Compliance Matrix: (Units=1/GPa)
#
#
# Indices 1 2 3 4 5 6 
#
# 1 0.057020 0.009718 -0.019057 0.000000 0.009307 0.000000
# 2 0.009718 0.033881 -0.003426 0.000000 0.006976 0.000000
# 3 -0.019057 -0.003426 0.010457 0.000000 -0.001910 0.000000
# 4 0.000000 0.000000 0.000000 0.113505 0.000000 -0.051951
# 5 0.009307 0.006976 -0.001910 0.000000 0.030541 0.000000
# 6 0.000000 0.000000 0.000000 -0.051951 0.000000 0.099964
#
#
# Mechanical properties :
#
#
# Convention : Reuss Voigt Hill
#
# Bulk Modulus (GPa) = 13.18759 55.03836 34.11298
# Shear Modulus (GPa) = 12.62068 28.39342 20.50705
#
# Velocity S-wave (km/s) = 2.55493 3.83218 3.25678
# Velocity P-wave (km/s) = 3.94010 6.93164 5.63791
#
# Compressibility (1/GPa) = 0.07582885
#
# Stress axis : x y z
#
# Youngs Moduli (GPa) = 17.53772 29.51473 95.62850
#
# Poissons Ratio (x) = -0.28683 1.82237
# Poissons Ratio (y) = -0.17043 0.32764
# Poissons Ratio (z) = 0.33421 0.10112
#
# Static dielectric constant tensor:
#      x y z
#    x 1.635020 0.000000 -0.015620 
#    y 0.000000 1.723930 0.000000 
#    z -0.015620 0.000000 1.748880 
# 
# From -- ./inp_files/365248.got.cif
#   From: 2010.05.17/outbox.cif.g08.bks.cpg/sg12_183_cif.got.tgz:365248.got - 2010.06.03 13:09:07.
