data_PCOD9178052
_publ_section_title
;
Structure prediction by ZEFSAII (Michael W. Deem and Ramdas Pophale) SiO2 
 PCOD9178052
Probable space group: C 2/M
;
_chemical_formula_sum "Si O2"
_cell_formula_units_Z 56
_cell_length_a 7.042420
_cell_length_b 17.919212
_cell_length_c 25.751552
_cell_angle_alpha 90.000000
_cell_angle_beta 133.379140
_cell_angle_gamma 90.000000
_cell_volume 2361.967733
_symmetry_space_group_name_H-M "C 2/M"
_symmetry_group_IT_number 12
_symmetry_cell_setting 'monoclinic'
loop_
_space_group_symop_operation_xyz
x,y,z
-x,y,-z
-x,-y,-z
x,-y,z
1/2+x,1/2+y,z
1/2-x,1/2+y,-z
1/2-x,1/2-y,-z
1/2+x,1/2-y,z
loop_
_atom_site_type_symbol
_atom_site_label
_atom_site_fract_x
_atom_site_fract_y
_atom_site_fract_z
Si Si1 0.330338 0.170745 0.269196
Si Si2 0.882094 0.087353 0.560519
Si Si3 0.041221 0.415441 0.152392
Si Si4 0.077198 0.587129 0.404581
Si Si5 0.746064 0.162555 0.987326
Si Si6 0.525135 0.586598 0.129137
Si Si7 0.160412 0.844466 0.704638
O O1 0.372172 0.135853 0.333945
O O2 0.091527 0.137641 0.191264
O O3 0.583507 0.147742 0.283519
O O4 0.338289 0.259532 0.275886
O O5 0.657693 0.111007 0.477837
O O6 0.150716 0.090869 0.577172
O O7 0.930240 0.132597 0.622230
O O8 0.842141 0.000000 0.565547
O O9 0.054759 0.500000 0.136192
O O10 0.281738 0.395483 0.234801
O O11 0.990828 0.361924 0.094117
O O12 0.785190 0.410055 0.141498
O O13 0.000180 0.500000 0.390851
O O14 0.750000 0.250000 0.000000
O O15 0.000000 0.146085 0.000000
O O16 0.795339 0.117931 0.049655
O O17 0.489103 0.500000 0.136348
#
# Coordination Sequence:
#
# PCOD9178052 Si02
#       7
#     8   8   8   8   8   8   8
#     4  10  19  30  46  68  93 119 147 183 226 268
#     4   8  14  26  45  67  88 113 150 191 223 255
#     4   9  17  30  49  70  89 115 155 193 219 252
#     4   8  14  26  45  67  88 113 150 191 223 255
#     4  10  19  31  49  71  95 120 146 182 226 268
#     4   9  17  30  49  70  89 115 155 193 219 252
#     4  10  19  30  46  68  93 119 147 183 226 268
#
# _framework density 23.709047000000002
#
# number of rings (size 3 to 8) (size 9 to 14) (size 15 to 20)
#    0.000    2.857    0.000    3.000    0.000    5.714 
#    0.000    0.000    0.000    6.857    0.000    2.000 
#    0.000    0.000    0.000    0.000    0.000    0.000 
#
# Total GULP energy -156589.199011 kJ/mol
# GULP energy per Si atom -5592.471393 kJ/mol
# Density = 2.365508 g / cm^3
# Si number density = 23.709047 Si / 1000 Ang^3
#
#
#
# Elastic Constant Matrix: (Units=GPa)
#
#
# Indices 1 2 3 4 5 6 
#
# 1 91.0662 -15.5051 25.6752 -0.0002 -9.1527 -0.0003
# 2 -15.5051 108.7378 86.2151 -0.0003 -16.2131 0.0000
# 3 25.6752 86.2151 195.9202 0.0002 -16.9155 -0.0001
# 4 -0.0002 -0.0003 0.0002 38.8427 -0.0001 -33.9259
# 5 -9.1527 -16.2131 -16.9155 -0.0001 38.9425 -0.0001
# 6 -0.0003 0.0000 -0.0001 -33.9259 -0.0001 53.6950
#
#
#
# Elastic Compliance Matrix: (Units=1/GPa)
#
#
# Indices 1 2 3 4 5 6 
#
# 1 0.013393 0.005538 -0.003866 0.000000 0.003774 0.000000
# 2 0.005538 0.016836 -0.007706 0.000000 0.004964 0.000000
# 3 -0.003866 -0.007706 0.008983 0.000000 -0.000215 0.000000
# 4 0.000000 0.000000 0.000000 0.057447 0.000000 0.036296
# 5 0.003774 0.004964 -0.000215 0.000000 0.028539 0.000000
# 6 0.000000 0.000000 0.000000 0.036296 0.000000 0.041557
#
#
# Mechanical properties :
#
#
# Convention : Reuss Voigt Hill
#
# Bulk Modulus (GPa) = 36.84041 65.38830 51.11436
# Shear Modulus (GPa) = 26.61393 46.25197 36.43295
#
# Velocity S-wave (km/s) = 3.35404 4.42159 3.92429
# Velocity P-wave (km/s) = 5.52917 7.32848 6.49147
#
# Compressibility (1/GPa) = 0.02714410
#
# Stress axis : x y z
#
# Youngs Moduli (GPa) = 74.66402 59.39647 111.31820
#
# Poissons Ratio (x) = -0.32894 0.43040
# Poissons Ratio (y) = -0.41349 0.85781
# Poissons Ratio (z) = 0.28868 0.45770
#
# Static dielectric constant tensor:
#      x y z
#    x 2.008470 0.000000 0.015970 
#    y 0.000000 1.817390 0.000000 
#    z 0.015970 0.000000 1.877920 
# 
# From -- ./inp_files/263831.got.cif
#   From: 2010.05.17/outbox.cif.g08.bks.cpg/sg12_132_cif.got.tgz:263831.got - 2010.06.03 13:09:07.
