data_PCOD9178481
_publ_section_title
;
Structure prediction by ZEFSAII (Michael W. Deem and Ramdas Pophale) SiO2 
 PCOD9178481
Probable space group: C 2/M
;
_chemical_formula_sum "Si O2"
_cell_formula_units_Z 52
_cell_length_a 20.880825
_cell_length_b 16.955397
_cell_length_c 9.296736
_cell_angle_alpha 90.000000
_cell_angle_beta 56.708056
_cell_angle_gamma 90.000000
_cell_volume 2751.264928
_symmetry_space_group_name_H-M "C 2/M"
_symmetry_group_IT_number 12
_symmetry_cell_setting 'monoclinic'
loop_
_space_group_symop_operation_xyz
x,y,z
-x,y,-z
-x,-y,-z
x,-y,z
1/2+x,1/2+y,z
1/2-x,1/2+y,-z
1/2-x,1/2-y,-z
1/2+x,1/2-y,z
loop_
_atom_site_type_symbol
_atom_site_label
_atom_site_fract_x
_atom_site_fract_y
_atom_site_fract_z
Si Si1 0.649069 0.200692 0.384548
Si Si2 0.944190 0.090007 0.339733
Si Si3 0.286699 0.370324 0.689332
Si Si4 0.691531 0.088061 0.552018
Si Si5 0.647401 0.592311 0.822284
Si Si6 0.733562 0.660414 0.968785
Si Si7 0.000000 0.795566 0.500000
O O1 0.703946 0.275949 0.347785
O O2 0.638507 0.153043 0.544119
O O3 0.690274 0.143880 0.218542
O O4 0.574051 0.240883 0.414844
O O5 0.864507 0.092671 0.529431
O O6 0.919403 0.114188 0.208473
O O7 0.998095 0.148671 0.361547
O O8 0.972248 0.000000 0.301976
O O9 0.214132 0.398650 0.688798
O O10 0.279331 0.385384 0.867569
O O11 0.773966 0.096161 0.368551
O O12 0.662829 0.000000 0.564403
O O13 0.636647 0.500000 0.874932
O O14 0.664399 0.644106 0.942388
O O15 0.750000 0.750000 0.000000
#
# Coordination Sequence:
#
# PCOD9178481 Si02
#       7
#     8   8   8   8   8   8   4
#     4   9  18  31  45  66  93 123 158 191 226 275
#     4   9  17  30  48  72  97 122 152 188 228 279
#     4   9  16  27  48  73  95 116 145 192 244 284
#     4   9  16  28  46  69  91 115 149 192 238 278
#     4   8  15  27  44  66  93 119 146 184 235 281
#     4   9  17  28  45  69  95 120 147 187 236 277
#     4  10  19  30  49  68  90 128 168 192 213 258
#
# _framework density 18.900397000000002
#
# number of rings (size 3 to 8) (size 9 to 14) (size 15 to 20)
#    0.000    3.077    0.000    2.077    0.000    4.923 
#    0.000    0.385    0.000   14.769    0.000   21.538 
#    0.000    0.000    0.000    0.000    0.000    0.000 
#
# Total GULP energy -144761.524665 kJ/mol
# GULP energy per Si atom -5567.750949 kJ/mol
# Density = 1.885738 g / cm^3
# Si number density = 18.900397 Si / 1000 Ang^3
#
#
#
# Elastic Constant Matrix: (Units=GPa)
#
#
# Indices 1 2 3 4 5 6 
#
# 1 102.2698 47.5181 31.2815 0.0000 37.4661 0.0000
# 2 47.5181 61.9093 11.8693 0.0000 20.2363 0.0000
# 3 31.2815 11.8693 63.2239 0.0000 26.8399 0.0000
# 4 0.0000 0.0000 0.0000 15.5843 0.0000 3.4505
# 5 37.4661 20.2363 26.8399 0.0000 33.2818 0.0000
# 6 0.0000 0.0000 0.0000 3.4505 0.0000 12.9105
#
#
#
# Elastic Compliance Matrix: (Units=1/GPa)
#
#
# Indices 1 2 3 4 5 6 
#
# 1 0.021055 -0.010651 -0.001680 0.000000 -0.015871 0.000000
# 2 -0.010651 0.025742 0.003029 0.000000 -0.006105 0.000000
# 3 -0.001680 0.003029 0.024418 0.000000 -0.019641 0.000000
# 4 0.000000 0.000000 0.000000 0.068203 0.000000 -0.018228
# 5 -0.015871 -0.006105 -0.019641 0.000000 0.067464 0.000000
# 6 0.000000 0.000000 0.000000 -0.018228 0.000000 0.082328
#
#
# Mechanical properties :
#
#
# Convention : Reuss Voigt Hill
#
# Bulk Modulus (GPa) = 19.00771 45.41565 32.21168
# Shear Modulus (GPa) = 15.36795 21.47094 18.41945
#
# Velocity S-wave (km/s) = 2.85459 3.37412 3.12517
# Velocity P-wave (km/s) = 4.57641 6.26584 5.48654
#
# Compressibility (1/GPa) = 0.05261023
#
# Stress axis : x y z
#
# Youngs Moduli (GPa) = 47.49470 38.84653 40.95364
#
# Poissons Ratio (x) = 0.41374 0.06882
# Poissons Ratio (y) = 0.50585 -0.12403
# Poissons Ratio (z) = 0.07981 -0.11765
#
# Static dielectric constant tensor:
#      x y z
#    x 1.682700 0.000000 0.013210 
#    y 0.000000 1.678030 0.000000 
#    z 0.013210 0.000000 1.737140 
# 
# From -- ./inp_files/87187.got.cif
#   From: 2010.05.17/outbox.cif.g08.bks.cpg/sg12_44_cif.got.tgz:87187.got - 2010.06.03 13:09:07.
