data_PCOD9178613
_publ_section_title
;
Structure prediction by ZEFSAII (Michael W. Deem and Ramdas Pophale) SiO2 
 PCOD9178613
Probable space group: C 2/M
;
_chemical_formula_sum "Si O2"
_cell_formula_units_Z 40
_cell_length_a 28.750014
_cell_length_b 9.133620
_cell_length_c 12.867486
_cell_angle_alpha 90.000000
_cell_angle_beta 43.990428
_cell_angle_gamma 90.000000
_cell_volume 2346.771645
_symmetry_space_group_name_H-M "C 2/M"
_symmetry_group_IT_number 12
_symmetry_cell_setting 'monoclinic'
loop_
_space_group_symop_operation_xyz
x,y,z
-x,y,-z
-x,-y,-z
x,-y,z
1/2+x,1/2+y,z
1/2-x,1/2+y,-z
1/2-x,1/2-y,-z
1/2+x,1/2-y,z
loop_
_atom_site_type_symbol
_atom_site_label
_atom_site_fract_x
_atom_site_fract_y
_atom_site_fract_z
Si Si1 0.056720 0.827274 0.679212
Si Si2 0.320032 0.174421 0.912907
Si Si3 0.080359 0.668695 0.850310
Si Si4 0.070054 0.674012 0.441748
Si Si5 0.602358 0.673329 0.024974
O O1 0.089399 0.745677 0.724859
O O2 0.078915 0.760326 0.534251
O O3 0.976051 0.806313 0.818557
O O4 0.069808 0.000000 0.663757
O O5 0.371040 0.198836 0.735196
O O6 0.352927 0.245093 0.962140
O O7 0.312434 0.000000 0.938710
O O8 0.250000 0.250000 0.000000
O O9 0.102340 0.500000 0.814017
O O10 0.111297 0.757567 0.896498
O O11 0.000000 0.669464 0.000000
O O12 0.066042 0.500000 0.470901
O O13 0.000000 0.717054 0.500000
O O14 0.615887 0.500000 0.002207
#
# Coordination Sequence:
#
# PCOD9178613 Si02
#       5
#     8   8   8   8   8
#     4  10  19  30  50  80 111 139 174 223 271 315
#     4  11  23  38  56  78 108 145 183 222 267 321
#     4   9  17  29  48  74 106 142 178 217 265 318
#     4  10  20  35  55  78 107 142 180 222 268 319
#     4  10  19  32  51  77 109 141 178 222 268 316
#
# _framework density 17.044691
#
# number of rings (size 3 to 8) (size 9 to 14) (size 15 to 20)
#    0.000    2.000    2.000    2.400    0.000    6.000 
#    0.000    0.000    0.000    1.200    0.000    0.000 
#    0.000    0.000    0.000    0.000    0.000    0.000 
#
# Total GULP energy -111641.163038 kJ/mol
# GULP energy per Si atom -5582.058152 kJ/mol
# Density = 1.700590 g / cm^3
# Si number density = 17.044691 Si / 1000 Ang^3
#
#
#
# Elastic Constant Matrix: (Units=GPa)
#
#
# Indices 1 2 3 4 5 6 
#
# 1 122.5255 101.1274 72.4898 0.0000 36.7733 0.0000
# 2 101.1274 132.3094 74.3043 0.0000 23.8050 0.0000
# 3 72.4898 74.3043 73.9267 0.0000 23.7593 0.0000
# 4 0.0000 0.0000 0.0000 24.3785 0.0000 7.5714
# 5 36.7733 23.8050 23.7593 0.0000 35.8224 0.0000
# 6 0.0000 0.0000 0.0000 7.5714 0.0000 33.9652
#
#
#
# Elastic Compliance Matrix: (Units=1/GPa)
#
#
# Indices 1 2 3 4 5 6 
#
# 1 0.032154 -0.015793 -0.010701 0.000000 -0.015415 0.000000
# 2 -0.015793 0.025110 -0.012201 0.000000 0.007618 0.000000
# 3 -0.010701 -0.012201 0.038314 0.000000 -0.006319 0.000000
# 4 0.000000 0.000000 0.000000 0.044071 0.000000 -0.009824
# 5 -0.015415 0.007618 -0.006319 0.000000 0.042868 0.000000
# 6 0.000000 0.000000 0.000000 -0.009824 0.000000 0.031632
#
#
# Mechanical properties :
#
#
# Convention : Reuss Voigt Hill
#
# Bulk Modulus (GPa) = 54.98006 91.62272 73.30139
# Shear Modulus (GPa) = 16.80091 24.22255 20.51173
#
# Velocity S-wave (km/s) = 3.14299 3.77386 3.47278
# Velocity P-wave (km/s) = 6.74519 8.53584 7.69279
#
# Compressibility (1/GPa) = 0.01818841
#
# Stress axis : x y z
#
# Youngs Moduli (GPa) = 31.10028 39.82413 26.09997
#
# Poissons Ratio (x) = 0.62894 0.27930
# Poissons Ratio (y) = 0.49117 0.31845
# Poissons Ratio (z) = 0.33281 0.48589
#
# Static dielectric constant tensor:
#      x y z
#    x 1.552440 0.000000 -0.000710 
#    y 0.000000 1.566650 0.000000 
#    z -0.000710 0.000000 1.555280 
# 
# From -- ./inp_files/151654.got.cif
#   From: 2010.05.17/outbox.cif.g08.bks.cpg/sg12_76_cif.got.tgz:151654.got - 2010.06.03 13:09:07.
