data_PCOD9178960
_publ_section_title
;
Structure prediction by ZEFSAII (Michael W. Deem and Ramdas Pophale) SiO2 
 PCOD9178960
Probable space group: C 2/M
;
_chemical_formula_sum "Si O2"
_cell_formula_units_Z 64
_cell_length_a 17.047760
_cell_length_b 22.093600
_cell_length_c 19.267299
_cell_angle_alpha 90.000000
_cell_angle_beta 154.940436
_cell_angle_gamma 90.000000
_cell_volume 3073.758988
_symmetry_space_group_name_H-M "C 2/M"
_symmetry_group_IT_number 12
_symmetry_cell_setting 'monoclinic'
loop_
_space_group_symop_operation_xyz
x,y,z
-x,y,-z
-x,-y,-z
x,-y,z
1/2+x,1/2+y,z
1/2-x,1/2+y,-z
1/2-x,1/2-y,-z
1/2+x,1/2-y,z
loop_
_atom_site_type_symbol
_atom_site_label
_atom_site_fract_x
_atom_site_fract_y
_atom_site_fract_z
Si Si1 0.445865 0.229922 0.625223
Si Si2 0.314407 0.251487 0.869386
Si Si3 0.292940 0.572263 0.045331
Si Si4 0.315884 0.737610 0.380539
Si Si5 0.018332 0.427036 0.435400
Si Si6 0.922598 0.357391 0.727314
Si Si7 0.338845 0.427586 0.584409
Si Si8 0.649358 0.385612 0.063144
O O1 0.250000 0.250000 0.500000
O O2 0.628708 0.271509 0.759089
O O3 0.381293 0.218260 0.494492
O O4 0.504266 0.180577 0.727965
O O5 0.254200 0.270698 0.743617
O O6 0.367350 0.312717 0.951757
O O7 0.500000 0.213966 0.000000
O O8 0.269573 0.500000 0.031492
O O9 0.364950 0.587383 0.025157
O O10 0.093503 0.604302 0.893853
O O11 0.453377 0.591159 0.228082
O O12 0.500000 0.703858 0.500000
O O13 0.168881 0.690214 0.293081
O O14 0.004170 0.500000 0.424873
O O15 0.206816 0.413626 0.544678
O O16 0.000000 0.406054 0.500000
O O17 0.847539 0.402760 0.253919
O O18 0.758085 0.396110 0.559333
O O19 0.336743 0.500000 0.572662
O O20 0.500000 0.408158 0.000000
#
# Coordination Sequence:
#
# PCOD9178960 Si02
#       8
#     8   8   8   8   8   8   8   8
#     4   9  18  36  58  82 113 150 202 247 294 351
#     4  10  20  36  55  82 119 154 193 244 302 350
#     4  11  22  37  57  88 123 155 197 244 290 348
#     4   9  21  40  61  83 114 152 194 248 302 353
#     4  10  19  31  47  75 113 156 200 240 282 338
#     4  11  20  39  61  87 116 155 198 241 301 354
#     4  10  21  36  57  85 118 154 195 243 292 346
#     4  11  21  32  53  79 119 160 199 235 288 345
#
# _framework density 20.821411999999999
#
# number of rings (size 3 to 8) (size 9 to 14) (size 15 to 20)
#    0.000    1.875    2.500    1.500    0.000    6.500 
#    6.750    1.250    0.000    1.500    0.000    1.750 
#    0.000    0.000    0.000    0.000    0.000    0.000 
#
# Total GULP energy -178248.633121 kJ/mol
# GULP energy per Si atom -5570.269785 kJ/mol
# Density = 2.077402 g / cm^3
# Si number density = 20.821412 Si / 1000 Ang^3
#
#
#
# Elastic Constant Matrix: (Units=GPa)
#
#
# Indices 1 2 3 4 5 6 
#
# 1 69.0162 21.7094 30.1540 -0.0004 20.5767 -0.0028
# 2 21.7094 55.7479 29.4540 -0.0075 13.9964 0.0062
# 3 30.1540 29.4540 143.2699 0.0057 25.5331 0.0135
# 4 -0.0004 -0.0075 0.0057 14.7208 -0.0035 7.5392
# 5 20.5767 13.9964 25.5331 -0.0035 33.2341 0.0116
# 6 -0.0028 0.0062 0.0135 7.5392 0.0116 18.1520
#
#
#
# Elastic Compliance Matrix: (Units=1/GPa)
#
#
# Indices 1 2 3 4 5 6 
#
# 1 0.019195 -0.004439 -0.001556 -0.000011 -0.008820 0.000016
# 2 -0.004439 0.022292 -0.002856 0.000017 -0.004445 -0.000010
# 3 -0.001556 -0.002856 0.008700 -0.000006 -0.004518 0.000000
# 4 -0.000011 0.000017 -0.000006 0.086285 0.000026 -0.035838
# 5 -0.008820 -0.004445 -0.004518 0.000026 0.040893 -0.000034
# 6 0.000016 -0.000010 0.000000 -0.035838 -0.000034 0.069975
#
#
# Mechanical properties :
#
#
# Convention : Reuss Voigt Hill
#
# Bulk Modulus (GPa) = 30.78347 47.85206 39.31776
# Shear Modulus (GPa) = 18.12455 25.66917 21.89686
#
# Velocity S-wave (km/s) = 2.95359 3.51497 3.24644
# Velocity P-wave (km/s) = 5.14278 6.28533 5.74254
#
# Compressibility (1/GPa) = 0.03248497
#
# Stress axis : x y z
#
# Youngs Moduli (GPa) = 52.09746 44.85991 114.94822
#
# Poissons Ratio (x) = 0.19911 0.17881
# Poissons Ratio (y) = 0.23124 0.32833
# Poissons Ratio (z) = 0.08104 0.12814
#
# Static dielectric constant tensor:
#      x y z
#    x 1.768380 -0.000010 0.070720 
#    y -0.000010 1.781530 -0.000020 
#    z 0.070720 -0.000020 1.886140 
# 
# From -- ./inp_files/318594.got.cif
#   From: 2010.05.17/outbox.cif.g08.bks.cpg/sg12_160_cif.got.tgz:318594.got - 2010.06.03 13:09:07.
