data_PCOD9178448
_publ_section_title
;
Structure prediction by ZEFSAII (Michael W. Deem and Ramdas Pophale) SiO2 
 PCOD9178448
Probable space group: C 2/M
;
_chemical_formula_sum "Si O2"
_cell_formula_units_Z 36
_cell_length_a 19.399688
_cell_length_b 7.606717
_cell_length_c 10.502891
_cell_angle_alpha 90.000000
_cell_angle_beta 69.047348
_cell_angle_gamma 90.000000
_cell_volume 1447.405425
_symmetry_space_group_name_H-M "C 2/M"
_symmetry_group_IT_number 12
_symmetry_cell_setting 'monoclinic'
loop_
_space_group_symop_operation_xyz
x,y,z
-x,y,-z
-x,-y,-z
x,-y,z
1/2+x,1/2+y,z
1/2-x,1/2+y,-z
1/2-x,1/2-y,-z
1/2+x,1/2-y,z
loop_
_atom_site_type_symbol
_atom_site_label
_atom_site_fract_x
_atom_site_fract_y
_atom_site_fract_z
Si Si1 0.529931 0.802637 0.271756
Si Si2 0.345988 0.792721 0.169645
Si Si3 0.686206 0.787758 0.253229
Si Si4 0.872385 0.713800 0.437995
Si Si5 0.000000 0.245999 0.000000
O O1 0.611604 0.726128 0.232228
O O2 0.457464 0.721173 0.384393
O O3 0.508275 0.817745 0.138219
O O4 0.536189 0.000000 0.322116
O O5 0.266490 0.775210 0.158109
O O6 0.339164 0.739457 0.322820
O O7 0.414839 0.684795 0.069896
O O8 0.367271 0.000000 0.146200
O O9 0.671831 0.730175 0.409026
O O10 0.689832 0.000000 0.243971
O O11 0.874822 0.500000 0.438545
#
# Coordination Sequence:
#
# PCOD9178448 Si02
#       5
#     8   8   8   8   4
#     4   9  16  28  49  72  94 123 159 197 230 270
#     4  10  19  32  51  70  93 127 161 193 229 277
#     4  10  19  30  48  76 101 119 149 197 244 277
#     4   8  15  29  49  72  96 124 158 191 227 276
#     4  10  19  34  51  68  91 126 169 198 225 274
#
# _framework density 24.872091999999999
#
# number of rings (size 3 to 8) (size 9 to 14) (size 15 to 20)
#    0.000    2.667    0.000    4.667    0.000    3.556 
#    0.000    0.556    0.000    8.000    0.000    0.000 
#    0.000    0.000    0.000    0.000    0.000    0.000 
#
# Total GULP energy -100248.660718 kJ/mol
# GULP energy per Si atom -5569.370040 kJ/mol
# Density = 2.481548 g / cm^3
# Si number density = 24.872092 Si / 1000 Ang^3
#
#
#
# Elastic Constant Matrix: (Units=GPa)
#
#
# Indices 1 2 3 4 5 6 
#
# 1 225.3985 10.1689 42.2603 0.0000 -56.7046 0.0000
# 2 10.1689 65.8652 8.2423 0.0000 -8.9944 0.0000
# 3 42.2603 8.2423 68.8624 0.0000 -20.7812 0.0000
# 4 0.0000 0.0000 0.0000 -22.2130 0.0000 -13.0542
# 5 -56.7046 -8.9944 -20.7812 0.0000 40.4237 0.0000
# 6 0.0000 0.0000 0.0000 -13.0542 0.0000 20.1668
#
#
#
# Elastic Compliance Matrix: (Units=1/GPa)
#
#
# Indices 1 2 3 4 5 6 
#
# 1 0.007006 0.000359 -0.001601 0.000000 0.009085 0.000000
# 2 0.000359 0.015732 -0.001059 0.000000 0.003460 0.000000
# 3 -0.001601 -0.001059 0.017615 0.000000 0.006574 0.000000
# 4 0.000000 0.000000 0.000000 -0.032612 0.000000 -0.021110
# 5 0.009085 0.003460 0.006574 0.000000 0.041631 0.000000
# 6 0.000000 0.000000 0.000000 -0.021110 0.000000 0.035921
#
#
# Mechanical properties :
#
#
# Convention : Reuss Voigt Hill
#
# Bulk Modulus (GPa) = 27.97135 53.49654 40.73395
# Shear Modulus (GPa) = 49.11005 27.63914 38.37460
#
# Velocity S-wave (km/s) = 4.44836 3.33716 3.93221
# Velocity P-wave (km/s) = 6.13632 6.03359 6.08517
#
# Compressibility (1/GPa) = 0.03575086
#
# Stress axis : x y z
#
# Youngs Moduli (GPa) = 142.73450 63.56432 56.76992
#
# Poissons Ratio (x) = -0.02284 0.09089
# Poissons Ratio (y) = -0.05128 0.06014
# Poissons Ratio (z) = 0.22852 0.06734
#
# Static dielectric constant tensor:
#      x y z
#    x 1.980890 0.000000 -0.011710 
#    y 0.000000 2.064540 0.000000 
#    z -0.011710 0.000000 1.926050 
# 
# From -- ./inp_files/140075.got.cif
#   From: 2010.05.17/outbox.cif.g08.bks.cpg/sg12_71_cif.got.tgz:140075.got - 2010.06.03 13:09:07.
