data_PCOD9178967
_publ_section_title
;
Structure prediction by ZEFSAII (Michael W. Deem and Ramdas Pophale) SiO2 
 PCOD9178967
Probable space group: C 2/M
;
_chemical_formula_sum "Si O2"
_cell_formula_units_Z 64
_cell_length_a 21.628839
_cell_length_b 24.083584
_cell_length_c 7.815585
_cell_angle_alpha 90.000000
_cell_angle_beta 122.292818
_cell_angle_gamma 90.000000
_cell_volume 3441.450163
_symmetry_space_group_name_H-M "C 2/M"
_symmetry_group_IT_number 12
_symmetry_cell_setting 'monoclinic'
loop_
_space_group_symop_operation_xyz
x,y,z
-x,y,-z
-x,-y,-z
x,-y,z
1/2+x,1/2+y,z
1/2-x,1/2+y,-z
1/2-x,1/2-y,-z
1/2+x,1/2-y,z
loop_
_atom_site_type_symbol
_atom_site_label
_atom_site_fract_x
_atom_site_fract_y
_atom_site_fract_z
Si Si1 0.396375 0.936824 0.154066
Si Si2 0.539159 0.247963 0.240823
Si Si3 0.891126 0.227650 0.142312
Si Si4 0.815527 0.227031 0.404338
Si Si5 0.192223 0.336811 0.072704
Si Si6 0.963263 0.380891 0.759143
Si Si7 0.233175 0.836072 0.193683
Si Si8 0.677239 0.936735 0.577386
O O1 0.476987 0.910612 0.271936
O O2 0.360847 0.936753 0.290171
O O3 0.399268 0.000000 0.095940
O O4 0.346868 0.895398 0.968561
O O5 0.477935 0.275482 0.269792
O O6 0.618758 0.275411 0.365127
O O7 0.549013 0.183404 0.307178
O O8 0.500000 0.249932 0.000000
O O9 0.857332 0.227778 0.282235
O O10 0.866844 0.286873 0.022144
O O11 0.849888 0.180277 0.972443
O O12 0.754970 0.179082 0.299666
O O13 0.770852 0.284637 0.348130
O O14 0.229137 0.335693 0.939263
O O15 0.886713 0.412409 0.635634
O O16 0.000000 0.382610 0.000000
O O17 0.255378 0.893895 0.311772
O O18 0.696732 0.000000 0.563850
#
# Coordination Sequence:
#
# PCOD9178967 Si02
#       8
#     8   8   8   8   8   8   8   8
#     4  10  19  31  48  67  88 117 152 187 218 253
#     4  11  21  30  42  67  95 119 148 184 223 258
#     4   9  16  29  49  65  84 116 148 181 220 267
#     4   9  16  29  49  65  84 116 148 181 220 267
#     4   8  15  28  46  68  87 109 147 186 220 260
#     4  11  22  32  41  60  94 129 155 181 211 252
#     4   8  15  28  46  68  87 109 147 186 220 260
#     4  10  19  31  48  67  88 117 152 187 218 253
#
# _framework density 18.596810999999999
#
# number of rings (size 3 to 8) (size 9 to 14) (size 15 to 20)
#    0.000    2.500    2.500    2.625    0.000    3.000 
#    0.000    3.750    0.000    0.000    0.000    0.875 
#    0.000    7.000    0.000    0.000    0.000    0.000 
#
# Total GULP energy -178648.141289 kJ/mol
# GULP energy per Si atom -5582.754415 kJ/mol
# Density = 1.855448 g / cm^3
# Si number density = 18.596811 Si / 1000 Ang^3
#
#
#
# Elastic Constant Matrix: (Units=GPa)
#
#
# Indices 1 2 3 4 5 6 
#
# 1 32.4925 6.0470 20.5410 0.0000 -1.4521 0.0000
# 2 6.0470 83.1882 51.4409 0.0000 12.6264 0.0000
# 3 20.5410 51.4409 96.8135 0.0000 23.8749 0.0000
# 4 0.0000 0.0000 0.0000 10.4011 0.0000 7.1350
# 5 -1.4521 12.6264 23.8749 0.0000 23.6310 0.0000
# 6 0.0000 0.0000 0.0000 7.1350 0.0000 11.8685
#
#
#
# Elastic Compliance Matrix: (Units=1/GPa)
#
#
# Indices 1 2 3 4 5 6 
#
# 1 0.039506 0.003458 -0.013801 0.000000 0.014523 0.000000
# 2 0.003458 0.018206 -0.010736 0.000000 0.001331 0.000000
# 3 -0.013801 -0.010736 0.023648 0.000000 -0.019004 0.000000
# 4 0.000000 0.000000 0.000000 0.163619 0.000000 -0.098363
# 5 0.014523 0.001331 -0.019004 0.000000 0.061699 0.000000
# 6 0.000000 0.000000 0.000000 -0.098363 0.000000 0.143389
#
#
# Mechanical properties :
#
#
# Convention : Reuss Voigt Hill
#
# Bulk Modulus (GPa) = 25.50801 40.95022 33.22911
# Shear Modulus (GPa) = 9.89526 18.14447 14.01987
#
# Velocity S-wave (km/s) = 2.30922 3.12697 2.74868
# Velocity P-wave (km/s) = 4.56685 5.92495 5.28967
#
# Compressibility (1/GPa) = 0.03920338
#
# Stress axis : x y z
#
# Youngs Moduli (GPa) = 25.31232 54.92668 42.28669
#
# Poissons Ratio (x) = -0.18994 0.58360
# Poissons Ratio (y) = -0.08753 0.45397
# Poissons Ratio (z) = 0.34934 0.58967
#
# Static dielectric constant tensor:
#      x y z
#    x 1.714910 0.000000 -0.057420 
#    y 0.000000 1.626190 0.000000 
#    z -0.057420 0.000000 1.695830 
# 
# From -- ./inp_files/78755.got.cif
#   From: 2010.05.17/outbox.cif.g08.bks.cpg/sg12_40_cif.got.tgz:78755.got - 2010.06.03 13:09:07.
