data_PCOD9178611
_publ_section_title
;
Structure prediction by ZEFSAII (Michael W. Deem and Ramdas Pophale) SiO2 
 PCOD9178611
Probable space group: C 2/M
;
_chemical_formula_sum "Si O2"
_cell_formula_units_Z 64
_cell_length_a 15.327787
_cell_length_b 18.612689
_cell_length_c 12.379746
_cell_angle_alpha 90.000000
_cell_angle_beta 91.662353
_cell_angle_gamma 90.000000
_cell_volume 3530.347814
_symmetry_space_group_name_H-M "C 2/M"
_symmetry_group_IT_number 12
_symmetry_cell_setting 'monoclinic'
loop_
_space_group_symop_operation_xyz
x,y,z
-x,y,-z
-x,-y,-z
x,-y,z
1/2+x,1/2+y,z
1/2-x,1/2+y,-z
1/2-x,1/2-y,-z
1/2+x,1/2-y,z
loop_
_atom_site_type_symbol
_atom_site_label
_atom_site_fract_x
_atom_site_fract_y
_atom_site_fract_z
Si Si1 0.738337 0.086062 0.426848
Si Si2 0.954836 0.348741 0.204231
Si Si3 0.093779 0.332496 0.561263
Si Si4 0.173154 0.649652 0.984588
Si Si5 0.365155 0.314836 0.958304
Si Si6 0.144737 0.583616 0.204679
Si Si7 0.532733 0.677222 0.824703
Si Si8 0.919273 0.838805 0.417169
O O1 0.670142 0.128578 0.499159
O O2 0.709510 0.104557 0.303045
O O3 0.836042 0.114087 0.445493
O O4 0.731969 0.000000 0.441853
O O5 0.911782 0.363172 0.318063
O O6 0.957316 0.262948 0.189253
O O7 0.053119 0.375920 0.209861
O O8 0.898734 0.377596 0.102170
O O9 0.105066 0.246039 0.570623
O O10 0.000000 0.344318 0.500000
O O11 0.142460 0.728277 0.027042
O O12 0.182511 0.600453 0.089009
O O13 0.267371 0.659170 0.933330
O O14 0.435680 0.334139 0.869461
O O15 0.401526 0.343061 0.075335
O O16 0.126504 0.500000 0.216231
O O17 0.553392 0.646891 0.706943
O O18 0.000000 0.852097 0.500000
#
# Coordination Sequence:
#
# PCOD9178611 Si02
#       8
#     8   8   8   8   8   8   8   8
#     4  11  24  40  59  81 112 157 196 228 281 351
#     4  10  19  33  50  78 109 140 178 226 278 329
#     4  10  20  38  60  85 115 144 187 239 286 343
#     4  10  19  30  50  80 109 139 181 225 275 331
#     4   9  17  30  53  78 107 143 174 225 282 330
#     4  11  22  35  53  75 111 154 184 218 266 336
#     4   9  17  33  53  79 110 138 178 226 285 338
#     4  10  22  37  60  88 113 144 188 247 292 323
#
# _framework density 18.128525
#
# number of rings (size 3 to 8) (size 9 to 14) (size 15 to 20)
#    0.000    2.000    2.500    1.500    0.000    4.000 
#    0.000    0.000    0.000    0.750    0.000    3.500 
#    0.000    0.000    0.000    0.000    0.000    0.000 
#
# Total GULP energy -178513.332679 kJ/mol
# GULP energy per Si atom -5578.541646 kJ/mol
# Density = 1.808726 g / cm^3
# Si number density = 18.128525 Si / 1000 Ang^3
#
#
#
# Elastic Constant Matrix: (Units=GPa)
#
#
# Indices 1 2 3 4 5 6 
#
# 1 104.0496 31.3589 39.9110 0.0000 1.9264 0.0000
# 2 31.3589 22.7116 24.8267 0.0000 2.6428 0.0000
# 3 39.9110 24.8267 99.0833 0.0000 -11.1747 0.0000
# 4 0.0000 0.0000 0.0000 14.8023 0.0000 2.1730
# 5 1.9264 2.6428 -11.1747 0.0000 23.8326 0.0000
# 6 0.0000 0.0000 0.0000 2.1730 0.0000 4.4401
#
#
#
# Elastic Compliance Matrix: (Units=1/GPa)
#
#
# Indices 1 2 3 4 5 6 
#
# 1 0.016586 -0.021646 -0.001201 0.000000 0.000496 0.000000
# 2 -0.021646 0.094132 -0.016732 0.000000 -0.016534 0.000000
# 3 -0.001201 -0.016732 0.015826 0.000000 0.009373 0.000000
# 4 0.000000 0.000000 0.000000 0.072787 0.000000 -0.035622
# 5 0.000496 -0.016534 0.009373 0.000000 0.048148 0.000000
# 6 0.000000 0.000000 0.000000 -0.035622 0.000000 0.242656
#
#
# Mechanical properties :
#
#
# Convention : Reuss Voigt Hill
#
# Bulk Modulus (GPa) = 21.10328 46.44863 33.77595
# Shear Modulus (GPa) = 8.54575 17.26483 12.90529
#
# Velocity S-wave (km/s) = 2.17353 3.08938 2.67100
# Velocity P-wave (km/s) = 4.23853 6.19703 5.30887
#
# Compressibility (1/GPa) = 0.04738600
#
# Stress axis : x y z
#
# Youngs Moduli (GPa) = 60.29154 10.62343 63.18765
#
# Poissons Ratio (x) = 0.22995 0.07591
# Poissons Ratio (y) = 1.30505 1.05724
# Poissons Ratio (z) = 0.07243 0.17775
#
# Static dielectric constant tensor:
#      x y z
#    x 1.625500 0.000000 0.002880 
#    y 0.000000 1.612780 0.000000 
#    z 0.002880 0.000000 1.637910 
# 
# From -- ./inp_files/146125.got.cif
#   From: 2010.05.17/outbox.cif.g08.bks.cpg/sg12_74_cif.got.tgz:146125.got - 2010.06.03 13:09:07.
