data_PCOD9178499
_publ_section_title
;
Structure prediction by ZEFSAII (Michael W. Deem and Ramdas Pophale) SiO2 
 PCOD9178499
Probable space group: C 2/M
;
_chemical_formula_sum "Si O2"
_cell_formula_units_Z 48
_cell_length_a 13.157970
_cell_length_b 30.342082
_cell_length_c 16.364197
_cell_angle_alpha 90.000000
_cell_angle_beta 25.350950
_cell_angle_gamma 90.000000
_cell_volume 2797.285083
_symmetry_space_group_name_H-M "C 2/M"
_symmetry_group_IT_number 12
_symmetry_cell_setting 'monoclinic'
loop_
_space_group_symop_operation_xyz
x,y,z
-x,y,-z
-x,-y,-z
x,-y,z
1/2+x,1/2+y,z
1/2-x,1/2+y,-z
1/2-x,1/2-y,-z
1/2+x,1/2-y,z
loop_
_atom_site_type_symbol
_atom_site_label
_atom_site_fract_x
_atom_site_fract_y
_atom_site_fract_z
Si Si1 0.207475 0.549700 0.916624
Si Si2 0.957603 0.623845 0.841072
Si Si3 0.170258 0.727685 0.304100
Si Si4 0.240253 0.671507 0.773123
Si Si5 0.788403 0.210448 0.039010
Si Si6 0.429030 0.591338 0.455895
O O1 0.183231 0.500000 0.966051
O O2 0.450991 0.555960 0.690370
O O3 0.000000 0.556951 0.000000
O O4 0.169696 0.587032 0.011716
O O5 0.146907 0.651910 0.756576
O O6 0.148593 0.598011 0.646370
O O7 0.777757 0.661534 0.943056
O O8 0.155274 0.780574 0.312968
O O9 0.136604 0.715518 0.233241
O O10 0.000000 0.710868 0.500000
O O11 0.437348 0.714732 0.135070
O O12 0.428391 0.636446 0.669234
O O13 0.000000 0.674934 0.000000
O O14 0.750000 0.250000 0.000000
O O15 0.500000 0.580874 0.500000
#
# Coordination Sequence:
#
# PCOD9178499 Si02
#       6
#     8   8   8   8   8   8
#     4  11  21  33  52  78 109 145 181 224 272 326
#     4  11  20  35  52  76 106 147 182 223 268 320
#     4  11  23  38  54  79 112 148 194 233 270 320
#     4  11  16  33  50  71 112 149 180 225 264 310
#     4  11  23  37  55  82 112 149 190 231 272 326
#     4  10  19  30  49  74 104 147 185 215 263 320
#
# _framework density 17.159496000000001
#
# number of rings (size 3 to 8) (size 9 to 14) (size 15 to 20)
#    0.000    1.167    8.333    1.500    0.000    3.000 
#    0.000    0.000    0.000    0.000    0.000    2.333 
#    0.000    6.667    0.000    0.000    0.000    0.000 
#
# Total GULP energy -133680.912374 kJ/mol
# GULP energy per Si atom -5570.038016 kJ/mol
# Density = 1.712044 g / cm^3
# Si number density = 17.159496 Si / 1000 Ang^3
#
#
#
# Elastic Constant Matrix: (Units=GPa)
#
#
# Indices 1 2 3 4 5 6 
#
# 1 49.9439 38.8414 21.4474 0.0086 11.9665 0.0013
# 2 38.8414 113.3411 25.4885 0.0022 13.4467 0.0001
# 3 21.4474 25.4885 96.3873 0.0046 26.2352 0.0006
# 4 0.0086 0.0022 0.0046 -4.7756 -0.0050 1.7136
# 5 11.9665 13.4467 26.2352 -0.0050 19.9868 -0.0009
# 6 0.0013 0.0001 0.0006 1.7136 -0.0009 19.3053
#
#
#
# Elastic Compliance Matrix: (Units=1/GPa)
#
#
# Indices 1 2 3 4 5 6 
#
# 1 0.029853 -0.008688 -0.001667 0.000056 -0.009841 -0.000007
# 2 -0.008688 0.012209 -0.000740 -0.000008 -0.002041 0.000001
# 3 -0.001667 -0.000740 0.016390 0.000032 -0.020018 -0.000004
# 4 0.000056 -0.000008 0.000032 -0.202934 -0.000120 0.018013
# 5 -0.009841 -0.002041 -0.020018 -0.000120 0.083574 0.000016
# 6 -0.000007 0.000001 -0.000004 0.018013 0.000016 0.050200
#
#
# Mechanical properties :
#
#
# Convention : Reuss Voigt Hill
#
# Bulk Modulus (GPa) = 27.57670 47.91409 37.74539
# Shear Modulus (GPa) = 212.14740 18.49632 115.32186
#
# Velocity S-wave (km/s) = 11.13108 3.28671 8.20681
# Velocity P-wave (km/s) = 13.46503 6.51050 10.57577
#
# Compressibility (1/GPa) = 0.03626250
#
# Stress axis : x y z
#
# Youngs Moduli (GPa) = 33.49781 81.90824 61.01305
#
# Poissons Ratio (x) = 0.71162 0.10169
# Poissons Ratio (y) = 0.29103 0.04513
# Poissons Ratio (z) = 0.05583 0.06059
#
# Static dielectric constant tensor:
#      x y z
#    x 1.585930 0.000000 0.041340 
#    y 0.000000 1.609560 0.000000 
#    z 0.041340 0.000000 1.696440 
# 
# From -- ./inp_files/209790.got.cif
#   From: 2010.05.17/outbox.cif.g08.bks.cpg/sg12_105_cif.got.tgz:209790.got - 2010.06.03 13:09:07.
