data_PCOD9178585
_publ_section_title
;
Structure prediction by ZEFSAII (Michael W. Deem and Ramdas Pophale) SiO2 
 PCOD9178585
Probable space group: C 2/M
;
_chemical_formula_sum "Si O2"
_cell_formula_units_Z 64
_cell_length_a 21.164343
_cell_length_b 14.258073
_cell_length_c 12.653028
_cell_angle_alpha 90.000000
_cell_angle_beta 121.519222
_cell_angle_gamma 90.000000
_cell_volume 3254.891844
_symmetry_space_group_name_H-M "C 2/M"
_symmetry_group_IT_number 12
_symmetry_cell_setting 'monoclinic'
loop_
_space_group_symop_operation_xyz
x,y,z
-x,y,-z
-x,-y,-z
x,-y,z
1/2+x,1/2+y,z
1/2-x,1/2+y,-z
1/2-x,1/2-y,-z
1/2+x,1/2-y,z
loop_
_atom_site_type_symbol
_atom_site_label
_atom_site_fract_x
_atom_site_fract_y
_atom_site_fract_z
Si Si1 0.831387 0.283198 0.604013
Si Si2 0.341858 0.798950 0.185575
Si Si3 0.328085 0.108791 0.396585
Si Si4 0.044664 0.302810 0.898246
Si Si5 0.786273 0.894086 0.062324
Si Si6 0.924270 0.898404 0.022507
Si Si7 0.149316 0.103024 0.271445
Si Si8 0.392898 0.889123 0.842289
O O1 0.750000 0.250000 0.500000
O O2 0.859717 0.342358 0.529533
O O3 0.872893 0.187858 0.672035
O O4 0.832234 0.345644 0.710909
O O5 0.350377 0.838017 0.309976
O O6 0.416575 0.804740 0.181297
O O7 0.307498 0.693347 0.156171
O O8 0.283680 0.862745 0.068999
O O9 0.237820 0.111493 0.325594
O O10 0.349487 0.000000 0.410778
O O11 0.030128 0.194242 0.912698
O O12 0.970962 0.363062 0.852818
O O13 0.101943 0.339966 0.038755
O O14 0.855111 0.897024 0.041580
O O15 0.776237 0.000000 0.097368
O O16 0.961591 0.000000 0.068629
O O17 0.890595 0.891707 0.876147
O O18 0.137066 0.000000 0.307512
O O19 0.385921 0.000000 0.848231
#
# Coordination Sequence:
#
# PCOD9178585 Si02
#       8
#     8   8   8   8   8   8   8   8
#     4  10  21  36  58  77 102 137 184 227 272 323
#     4  10  19  30  50  77 108 143 187 222 272 328
#     4  10  19  32  51  77 107 142 180 225 276 322
#     4  10  21  36  55  79 112 151 184 226 273 336
#     4   9  17  28  47  76 110 142 176 224 277 326
#     4   9  15  29  53  80 109 139 171 220 283 329
#     4   9  16  30  52  78 107 135 170 222 280 325
#     4  11  23  40  55  76 111 150 186 224 280 333
#
# _framework density 19.662711999999999
#
# number of rings (size 3 to 8) (size 9 to 14) (size 15 to 20)
#    0.000    2.250    2.500    1.500    0.000    2.500 
#    0.000    3.125    0.000    2.250    0.000    0.000 
#    0.000    5.000    0.000    0.000    0.000    0.000 
#
# Total GULP energy -178596.066776 kJ/mol
# GULP energy per Si atom -5581.127087 kJ/mol
# Density = 1.961796 g / cm^3
# Si number density = 19.662712 Si / 1000 Ang^3
#
#
#
# Elastic Constant Matrix: (Units=GPa)
#
#
# Indices 1 2 3 4 5 6 
#
# 1 29.8111 9.6123 7.3309 0.0000 -3.9267 0.0000
# 2 9.6123 181.5951 59.8649 0.0000 -14.6633 0.0000
# 3 7.3309 59.8649 98.0711 0.0000 -12.0290 0.0000
# 4 0.0000 0.0000 0.0000 24.7436 0.0000 -4.2254
# 5 -3.9267 -14.6633 -12.0290 0.0000 23.7312 0.0000
# 6 0.0000 0.0000 0.0000 -4.2254 0.0000 20.9276
#
#
#
# Elastic Compliance Matrix: (Units=1/GPa)
#
#
# Indices 1 2 3 4 5 6 
#
# 1 0.034806 -0.001011 -0.001445 0.000000 0.004402 0.000000
# 2 -0.001011 0.007040 -0.003955 0.000000 0.002178 0.000000
# 3 -0.001445 -0.003955 0.013211 0.000000 0.004014 0.000000
# 4 0.000000 0.000000 0.000000 0.041858 0.000000 0.008451
# 5 0.004402 0.002178 0.004014 0.000000 0.046247 0.000000
# 6 0.000000 0.000000 0.000000 0.008451 0.000000 0.049490
#
#
# Mechanical properties :
#
#
# Convention : Reuss Voigt Hill
#
# Bulk Modulus (GPa) = 23.67628 51.45484 37.56556
# Shear Modulus (GPa) = 22.77381 29.39176 26.08279
#
# Velocity S-wave (km/s) = 3.40696 3.87045 3.64608
# Velocity P-wave (km/s) = 5.24822 6.79702 6.07220
#
# Compressibility (1/GPa) = 0.04223636
#
# Stress axis : x y z
#
# Youngs Moduli (GPa) = 28.73101 142.04971 75.69471
#
# Poissons Ratio (x) = 0.14355 0.10937
# Poissons Ratio (y) = 0.02903 0.29934
# Poissons Ratio (z) = 0.04151 0.56174
#
# Static dielectric constant tensor:
#      x y z
#    x 1.732570 0.000000 0.023580 
#    y 0.000000 1.732200 0.000000 
#    z 0.023580 0.000000 1.671330 
# 
# From -- ./inp_files/176157.got.cif
#   From: 2010.05.17/outbox.cif.g08.bks.cpg/sg12_89_cif.got.tgz:176157.got - 2010.06.03 13:09:07.
