data_PCOD9178605
_publ_section_title
;
Structure prediction by ZEFSAII (Michael W. Deem and Ramdas Pophale) SiO2 
 PCOD9178605
Probable space group: C 2/M
;
_chemical_formula_sum "Si O2"
_cell_formula_units_Z 56
_cell_length_a 26.102085
_cell_length_b 11.106381
_cell_length_c 9.793688
_cell_angle_alpha 90.000000
_cell_angle_beta 83.515008
_cell_angle_gamma 90.000000
_cell_volume 2821.020608
_symmetry_space_group_name_H-M "C 2/M"
_symmetry_group_IT_number 12
_symmetry_cell_setting 'monoclinic'
loop_
_space_group_symop_operation_xyz
x,y,z
-x,y,-z
-x,-y,-z
x,-y,z
1/2+x,1/2+y,z
1/2-x,1/2+y,-z
1/2-x,1/2-y,-z
1/2+x,1/2-y,z
loop_
_atom_site_type_symbol
_atom_site_label
_atom_site_fract_x
_atom_site_fract_y
_atom_site_fract_z
Si Si1 0.866085 0.142886 0.120519
Si Si2 0.166720 0.134746 0.159303
Si Si3 0.698453 0.129002 0.514193
Si Si4 0.889140 0.786851 0.562997
Si Si5 0.459291 0.359014 0.295111
Si Si6 0.972468 0.634796 0.655841
Si Si7 0.758173 0.760551 0.260144
O O1 0.916267 0.173337 0.194243
O O2 0.812890 0.203112 0.183825
O O3 0.860133 0.000000 0.142542
O O4 0.869309 0.167702 0.957833
O O5 0.135353 0.135454 0.309821
O O6 0.214776 0.223713 0.165309
O O7 0.186537 0.000000 0.126483
O O8 0.656735 0.234563 0.515380
O O9 0.734100 0.140835 0.369914
O O10 0.732198 0.150032 0.638367
O O11 0.672469 0.000000 0.527382
O O12 0.930565 0.848706 0.451409
O O13 0.914881 0.674549 0.634617
O O14 0.476088 0.500000 0.272231
O O15 0.501554 0.251884 0.280397
O O16 0.976066 0.500000 0.717001
O O17 0.000000 0.627163 0.500000
#
# Coordination Sequence:
#
# PCOD9178605 Si02
#       7
#     8   8   8   8   8   8   8
#     4  10  20  36  53  74 108 146 182 223 273 321
#     4  10  21  34  52  78 109 143 181 225 270 321
#     4  10  19  30  50  79 106 136 177 222 273 319
#     4  10  19  34  55  80 108 138 177 224 272 323
#     4  10  20  35  57  82 108 140 182 227 273 326
#     4   9  19  35  57  84 111 139 175 224 279 330
#     4  10  19  33  50  75 104 143 180 224 265 316
#
# _framework density 19.850971999999999
#
# number of rings (size 3 to 8) (size 9 to 14) (size 15 to 20)
#    0.000    2.143    1.429    2.143    0.000    3.714 
#    0.000    0.714    0.000   11.143    0.000    0.000 
#    0.000    0.000    0.000    0.000    0.000    0.000 
#
# Total GULP energy -156005.391206 kJ/mol
# GULP energy per Si atom -5571.621115 kJ/mol
# Density = 1.980579 g / cm^3
# Si number density = 19.850972 Si / 1000 Ang^3
#
#
#
# Elastic Constant Matrix: (Units=GPa)
#
#
# Indices 1 2 3 4 5 6 
#
# 1 37.1939 15.7800 8.9139 0.0000 20.6818 0.0000
# 2 15.7800 84.6956 18.7662 0.0000 18.4551 0.0000
# 3 8.9139 18.7662 78.2782 0.0000 24.0708 0.0000
# 4 0.0000 0.0000 0.0000 5.5351 0.0000 10.7641
# 5 20.6818 18.4551 24.0708 0.0000 23.9216 0.0000
# 6 0.0000 0.0000 0.0000 10.7641 0.0000 13.4605
#
#
#
# Elastic Compliance Matrix: (Units=1/GPa)
#
#
# Indices 1 2 3 4 5 6 
#
# 1 0.059899 0.000113 0.013182 0.000000 -0.065138 0.000000
# 2 0.000113 0.014193 -0.000027 0.000000 -0.011020 0.000000
# 3 0.013182 -0.000027 0.021400 0.000000 -0.032910 0.000000
# 4 0.000000 0.000000 0.000000 -0.325441 0.000000 0.260249
# 5 -0.065138 -0.011020 -0.032910 0.000000 0.139737 0.000000
# 6 0.000000 0.000000 0.000000 0.260249 0.000000 -0.133825
#
#
# Mechanical properties :
#
#
# Convention : Reuss Voigt Hill
#
# Bulk Modulus (GPa) = 8.19477 31.89866 20.04671
# Shear Modulus (GPa) = -23.82134 19.03063 -2.39535
#
# Velocity S-wave (km/s) = -3.46787 3.09961 -1.09968
# Velocity P-wave (km/s) = 3.44931 5.37718 2.91687
#
# Compressibility (1/GPa) = 0.12202910
#
# Stress axis : x y z
#
# Youngs Moduli (GPa) = 16.69467 70.45607 46.72864
#
# Poissons Ratio (x) = -0.00794 -0.61599
# Poissons Ratio (y) = -0.00188 0.00125
# Poissons Ratio (z) = -0.22007 0.00188
#
# Static dielectric constant tensor:
#      x y z
#    x 1.695430 0.000000 0.007910 
#    y 0.000000 1.708670 0.000000 
#    z 0.007910 0.000000 1.710650 
# 
# From -- ./inp_files/110074.got.cif
#   From: 2010.05.17/outbox.cif.g08.bks.cpg/sg12_56_cif.got.tgz:110074.got - 2010.06.03 13:09:07.
