data_PCOD9178071
_publ_section_title
;
Structure prediction by ZEFSAII (Michael W. Deem and Ramdas Pophale) SiO2 
 PCOD9178071
Probable space group: C 2/M
;
_chemical_formula_sum "Si O2"
_cell_formula_units_Z 56
_cell_length_a 19.588687
_cell_length_b 7.369025
_cell_length_c 19.267789
_cell_angle_alpha 90.000000
_cell_angle_beta 120.007087
_cell_angle_gamma 90.000000
_cell_volume 2408.501113
_symmetry_space_group_name_H-M "C 2/M"
_symmetry_group_IT_number 12
_symmetry_cell_setting 'monoclinic'
loop_
_space_group_symop_operation_xyz
x,y,z
-x,y,-z
-x,-y,-z
x,-y,z
1/2+x,1/2+y,z
1/2-x,1/2+y,-z
1/2-x,1/2-y,-z
1/2+x,1/2-y,z
loop_
_atom_site_type_symbol
_atom_site_label
_atom_site_fract_x
_atom_site_fract_y
_atom_site_fract_z
Si Si1 0.008747 0.279290 0.684809
Si Si2 0.994249 0.205664 0.155747
Si Si3 0.317480 0.793587 0.243528
Si Si4 0.676605 0.716052 0.913243
Si Si5 0.425808 0.221098 0.507178
Si Si6 0.246330 0.284090 0.579866
Si Si7 0.663637 0.722988 0.244714
O O1 0.010613 0.500000 0.691174
O O2 0.998771 0.204288 0.756609
O O3 0.943158 0.227732 0.595703
O O4 0.094742 0.218436 0.700326
O O5 0.077936 0.287819 0.176248
O O6 0.907322 0.286095 0.099749
O O7 0.991601 0.000000 0.127059
O O8 0.309101 0.793748 0.155994
O O9 0.238530 0.717264 0.237306
O O10 0.321752 0.000000 0.272526
O O11 0.667313 0.500000 0.899233
O O12 0.750000 0.750000 0.000000
O O13 0.500000 0.281714 0.500000
O O14 0.339922 0.282719 0.439926
O O15 0.425636 0.000000 0.504617
O O16 0.246761 0.500000 0.588255
O O17 0.250000 0.250000 0.500000
O O18 0.314648 0.217627 0.665705
O O19 0.659101 0.500000 0.240282
#
# Coordination Sequence:
#
# PCOD9178071 Si02
#       7
#     8   8   8   8   8   8   8
#     4   9  16  27  45  68  92 121 160 201 237 274
#     4   9  18  32  50  70  93 123 156 189 228 279
#     4   9  17  31  52  74  96 126 162 199 237 277
#     4  10  20  35  55  77  99 123 152 188 233 286
#     4   9  16  26  42  65  91 121 161 204 239 273
#     4  10  19  30  46  68  96 131 167 204 244 282
#     4   9  17  31  50  71  96 128 166 201 235 281
#
# _framework density 23.250976000000001
#
# number of rings (size 3 to 8) (size 9 to 14) (size 15 to 20)
#    0.000    2.714    0.000    2.143    0.000    4.000 
#    0.000    2.143    0.000    7.714    0.000    0.000 
#    0.000    0.000    0.000    0.000    0.000    0.000 
#
# Total GULP energy -156307.282048 kJ/mol
# GULP energy per Si atom -5582.402930 kJ/mol
# Density = 2.319806 g / cm^3
# Si number density = 23.250976 Si / 1000 Ang^3
#
#
#
# Elastic Constant Matrix: (Units=GPa)
#
#
# Indices 1 2 3 4 5 6 
#
# 1 119.2299 -3.4738 16.2021 0.0000 34.4680 0.0000
# 2 -3.4738 90.4939 -6.4561 0.0000 3.4924 0.0000
# 3 16.2021 -6.4561 84.2105 0.0000 38.0970 0.0000
# 4 0.0000 0.0000 0.0000 9.7487 0.0000 -7.3943
# 5 34.4680 3.4924 38.0970 0.0000 39.4501 0.0000
# 6 0.0000 0.0000 0.0000 -7.3943 0.0000 1.0148
#
#
#
# Elastic Compliance Matrix: (Units=1/GPa)
#
#
# Indices 1 2 3 4 5 6 
#
# 1 0.012223 0.001396 0.004693 0.000000 -0.015335 0.000000
# 2 0.001396 0.011504 0.002887 0.000000 -0.005026 0.000000
# 3 0.004693 0.002887 0.023377 0.000000 -0.026931 0.000000
# 4 0.000000 0.000000 0.000000 -0.022662 0.000000 -0.165118
# 5 -0.015335 -0.005026 -0.026931 0.000000 0.065199 0.000000
# 6 0.000000 0.000000 0.000000 -0.165118 0.000000 -0.217693
#
#
# Mechanical properties :
#
#
# Convention : Reuss Voigt Hill
#
# Bulk Modulus (GPa) = 15.37127 34.05318 24.71222
# Shear Modulus (GPa) = -40.21962 29.22020 -5.49971
#
# Velocity S-wave (km/s) = -4.16360 3.54888 -1.53964
# Velocity P-wave (km/s) = 4.06063 5.60986 2.73695
#
# Compressibility (1/GPa) = 0.06505645
#
# Stress axis : x y z
#
# Youngs Moduli (GPa) = 81.81083 86.92616 42.77687
#
# Poissons Ratio (x) = -0.12134 -0.20075
# Poissons Ratio (y) = -0.11419 -0.12351
# Poissons Ratio (z) = -0.38393 -0.25098
#
# Static dielectric constant tensor:
#      x y z
#    x 1.917710 0.000000 0.023380 
#    y 0.000000 1.938080 0.000000 
#    z 0.023380 0.000000 1.829110 
# 
# From -- ./inp_files/314354.got.cif
#   From: 2010.05.17/outbox.cif.g08.bks.cpg/sg12_158_cif.got.tgz:314354.got - 2010.06.03 13:09:07.
