data_PCOD9178785
_publ_section_title
;
Structure prediction by ZEFSAII (Michael W. Deem and Ramdas Pophale) SiO2 
 PCOD9178785
Probable space group: C 2/M
;
_chemical_formula_sum "Si O2"
_cell_formula_units_Z 50
_cell_length_a 14.762872
_cell_length_b 14.981170
_cell_length_c 8.570520
_cell_angle_alpha 90.000000
_cell_angle_beta 65.488299
_cell_angle_gamma 90.000000
_cell_volume 1724.670908
_symmetry_space_group_name_H-M "C 2/M"
_symmetry_group_IT_number 12
_symmetry_cell_setting 'monoclinic'
loop_
_space_group_symop_operation_xyz
x,y,z
-x,y,-z
-x,-y,-z
x,-y,z
1/2+x,1/2+y,z
1/2-x,1/2+y,-z
1/2-x,1/2-y,-z
1/2+x,1/2-y,z
loop_
_atom_site_type_symbol
_atom_site_label
_atom_site_fract_x
_atom_site_fract_y
_atom_site_fract_z
Si Si1 0.120707 0.893774 0.331535
Si Si2 0.136163 0.393790 0.831647
Si Si3 0.000000 0.500000 0.500000
Si Si4 0.634130 0.391180 0.656054
Si Si5 0.827446 0.679018 0.873662
Si Si6 0.361524 0.163512 0.505405
Si Si7 0.376279 0.601728 0.006585
O O1 0.242366 0.893042 0.251340
O O2 0.086245 0.862651 0.527244
O O3 0.095695 0.000000 0.344234
O O4 0.093976 0.858050 0.179613
O O5 0.107789 0.500000 0.833892
O O6 0.108328 0.331486 0.701924
O O7 0.107782 0.356919 0.025655
O O8 0.920246 0.575736 0.507773
O O9 0.641142 0.500000 0.651150
O O10 0.743463 0.349053 0.574211
O O11 0.590083 0.361723 0.851939
O O12 0.869700 0.709645 0.674285
O O13 0.745177 0.601925 0.895690
O O14 0.750000 0.750000 0.000000
O O15 0.408312 0.500000 0.976807
#
# Coordination Sequence:
#
# PCOD9178785 Si02
#       7
#     8   8   2   8   8   8   8
#     4   7  10  16  29  48  67  91 130 170 214 266
#     4   9  16  29  48  67  91 130 170 214 266 306
#     4  12  20  32  54  80  96 138 182 234 268 290
#     4   8  11  19  33  49  70 100 128 175 226 262
#     4  10  20  30  45  66  93 133 172 214 265 318
#     4  10  19  31  46  67 100 124 174 222 263 303
#     4   8  13  21  36  53  72 102 144 184 228 273
#
# _framework density 28.991038
#
# number of rings (size 3 to 8) (size 9 to 14) (size 15 to 20)
#    0.000    3.200    1.600    2.400    2.240    0.640 
#    0.000    1.600    0.000    0.000    0.000    0.000 
#    0.000    0.000    0.000    2.880    0.000   10.880 
#
# Total GULP energy -139250.310398 kJ/mol
# GULP energy per Si atom -5570.012416 kJ/mol
# Density = 2.892505 g / cm^3
# Si number density = 28.991038 Si / 1000 Ang^3
#
#
#
# Elastic Constant Matrix: (Units=GPa)
#
#
# Indices 1 2 3 4 5 6 
#
# 1 80.1066 16.2299 81.2694 0.0000 26.3326 0.0000
# 2 16.2299 98.1323 63.6798 0.0000 21.9545 0.0000
# 3 81.2694 63.6798 353.7508 0.0000 83.9059 0.0000
# 4 0.0000 0.0000 0.0000 4.8169 0.0000 7.6709
# 5 26.3326 21.9545 83.9059 0.0000 72.8124 0.0000
# 6 0.0000 0.0000 0.0000 7.6709 0.0000 11.5864
#
#
#
# Elastic Compliance Matrix: (Units=1/GPa)
#
#
# Indices 1 2 3 4 5 6 
#
# 1 0.016532 -0.000132 -0.003255 0.000000 -0.002188 0.000000
# 2 -0.000132 0.011658 -0.001714 0.000000 -0.001492 0.000000
# 3 -0.003255 -0.001714 0.004791 0.000000 -0.003827 0.000000
# 4 0.000000 0.000000 0.000000 -3.820694 0.000000 2.529533
# 5 -0.002188 -0.001492 -0.003827 0.000000 0.019385 0.000000
# 6 0.000000 0.000000 0.000000 2.529533 0.000000 -1.588397
#
#
# Mechanical properties :
#
#
# Convention : Reuss Voigt Hill
#
# Bulk Modulus (GPa) = 43.90360 94.92754 69.41557
# Shear Modulus (GPa) = -0.93652 42.56384 20.81366
#
# Velocity S-wave (km/s) = -0.56898 3.83583 2.68234
# Velocity P-wave (km/s) = 3.83993 7.24106 5.79560
#
# Compressibility (1/GPa) = 0.02277717
#
# Stress axis : x y z
#
# Youngs Moduli (GPa) = 60.48955 85.77439 208.72570
#
# Poissons Ratio (x) = 0.01135 0.67945
# Poissons Ratio (y) = 0.00801 0.35785
# Poissons Ratio (z) = 0.19691 0.14706
#
# Static dielectric constant tensor:
#      x y z
#    x 2.532000 0.000000 0.013620 
#    y 0.000000 2.218360 0.000000 
#    z 0.013620 0.000000 2.329080 
# 
# From -- ./inp_files/75161.got.cif
#   From: 2010.05.17/outbox.cif.g08.bks.cpg/sg12_38_cif.got.tgz:75161.got - 2010.06.03 13:09:07.
