data_PCOD9178271
_publ_section_title
;
Structure prediction by ZEFSAII (Michael W. Deem and Ramdas Pophale) SiO2 
 PCOD9178271
Probable space group: C 2/M
;
_chemical_formula_sum "Si O2"
_cell_formula_units_Z 60
_cell_length_a 18.152094
_cell_length_b 13.859155
_cell_length_c 14.764132
_cell_angle_alpha 90.000000
_cell_angle_beta 101.814640
_cell_angle_gamma 90.000000
_cell_volume 3635.566273
_symmetry_space_group_name_H-M "C 2/M"
_symmetry_group_IT_number 12
_symmetry_cell_setting 'monoclinic'
loop_
_space_group_symop_operation_xyz
x,y,z
-x,y,-z
-x,-y,-z
x,-y,z
1/2+x,1/2+y,z
1/2-x,1/2+y,-z
1/2-x,1/2-y,-z
1/2+x,1/2-y,z
loop_
_atom_site_type_symbol
_atom_site_label
_atom_site_fract_x
_atom_site_fract_y
_atom_site_fract_z
Si Si1 0.000000 0.754868 0.000000
Si Si2 0.230081 0.384383 0.814335
Si Si3 0.587170 0.111104 0.898066
Si Si4 0.429171 0.199848 0.546523
Si Si5 0.936361 0.609489 0.745521
Si Si6 0.704658 0.113810 0.600373
Si Si7 0.381856 0.610918 0.626652
Si Si8 0.388535 0.697904 0.824178
O O1 0.060951 0.684601 0.968172
O O2 0.955998 0.813389 0.912238
O O3 0.244088 0.500000 0.817872
O O4 0.166146 0.363922 0.871654
O O5 0.200633 0.360385 0.705789
O O6 0.308621 0.330007 0.846573
O O7 0.521487 0.114756 0.805389
O O8 0.589811 0.000000 0.931847
O O9 0.500000 0.181952 0.500000
O O10 0.434324 0.137374 0.639674
O O11 0.353582 0.172525 0.474032
O O12 0.424541 0.310761 0.577460
O O13 0.909427 0.500000 0.752684
O O14 0.891293 0.691478 0.789146
O O15 0.791743 0.126902 0.594172
O O16 0.686950 0.000000 0.587405
O O17 0.398751 0.500000 0.610003
O O18 0.398381 0.633640 0.736437
#
# Coordination Sequence:
#
# PCOD9178271 Si02
#       8
#     4   8   8   8   8   8   8   8
#     4  10  19  30  47  72  96 118 152 194 238 284
#     4   9  17  31  50  70  93 125 161 192 226 271
#     4   9  17  30  48  69  96 127 155 187 231 282
#     4  11  20  28  46  75 100 123 155 195 232 268
#     4   9  18  31  46  69 101 130 152 184 236 284
#     4   9  17  30  49  70  93 124 159 192 226 270
#     4   9  19  36  51  64  90 127 162 192 228 277
#     4   9  18  32  50  71  91 119 157 196 238 279
#
# _framework density 16.503619
#
# number of rings (size 3 to 8) (size 9 to 14) (size 15 to 20)
#    0.000    2.667    0.000    3.000    0.000    3.467 
#    0.000    1.333    0.000    0.000    0.000   12.133 
#    0.000    0.000    0.000    0.000    0.000    0.000 
#
# Total GULP energy -167243.596429 kJ/mol
# GULP energy per Si atom -5574.786548 kJ/mol
# Density = 1.646606 g / cm^3
# Si number density = 16.503619 Si / 1000 Ang^3
#
#
#
# Elastic Constant Matrix: (Units=GPa)
#
#
# Indices 1 2 3 4 5 6 
#
# 1 56.6907 19.6413 21.9468 0.0000 -2.9879 0.0000
# 2 19.6413 49.5580 13.6879 0.0000 6.0087 0.0000
# 3 21.9468 13.6879 63.5645 0.0000 13.9321 0.0000
# 4 0.0000 0.0000 0.0000 10.7668 0.0000 1.6595
# 5 -2.9879 6.0087 13.9321 0.0000 17.9237 0.0000
# 6 0.0000 0.0000 0.0000 1.6595 0.0000 18.7537
#
#
#
# Elastic Compliance Matrix: (Units=1/GPa)
#
#
# Indices 1 2 3 4 5 6 
#
# 1 0.025569 -0.009167 -0.010199 0.000000 0.015264 0.000000
# 2 -0.009167 0.025025 -0.000060 0.000000 -0.009871 0.000000
# 3 -0.010199 -0.000060 0.023667 0.000000 -0.020076 0.000000
# 4 0.000000 0.000000 0.000000 0.094162 0.000000 -0.008333
# 5 0.015264 -0.009871 -0.020076 0.000000 0.077251 0.000000
# 6 0.000000 0.000000 0.000000 -0.008333 0.000000 0.054060
#
#
# Mechanical properties :
#
#
# Convention : Reuss Voigt Hill
#
# Bulk Modulus (GPa) = 28.24315 31.15170 29.69742
# Shear Modulus (GPa) = 14.26978 17.12464 15.69721
#
# Velocity S-wave (km/s) = 2.94368 3.22472 3.08740
# Velocity P-wave (km/s) = 5.35762 5.72553 5.54463
#
# Compressibility (1/GPa) = 0.03540681
#
# Stress axis : x y z
#
# Youngs Moduli (GPa) = 39.11030 39.95995 42.25304
#
# Poissons Ratio (x) = 0.36632 0.43096
# Poissons Ratio (y) = 0.35853 0.00254
# Poissons Ratio (z) = 0.39891 0.00241
#
# Static dielectric constant tensor:
#      x y z
#    x 1.536450 0.000000 -0.002910 
#    y 0.000000 1.552540 0.000000 
#    z -0.002910 0.000000 1.555850 
# 
# From -- ./inp_files/224860.got.cif
#   From: 2010.05.17/outbox.cif.g08.bks.cpg/sg12_113_cif.got.tgz:224860.got - 2010.06.03 13:09:07.
