data_PCOD9178685
_publ_section_title
;
Structure prediction by ZEFSAII (Michael W. Deem and Ramdas Pophale) SiO2 
 PCOD9178685
Probable space group: C 2/M
;
_chemical_formula_sum "Si O2"
_cell_formula_units_Z 64
_cell_length_a 20.814633
_cell_length_b 7.596625
_cell_length_c 21.988239
_cell_angle_alpha 90.000000
_cell_angle_beta 62.206068
_cell_angle_gamma 90.000000
_cell_volume 3075.684167
_symmetry_space_group_name_H-M "C 2/M"
_symmetry_group_IT_number 12
_symmetry_cell_setting 'monoclinic'
loop_
_space_group_symop_operation_xyz
x,y,z
-x,y,-z
-x,-y,-z
x,-y,z
1/2+x,1/2+y,z
1/2-x,1/2+y,-z
1/2-x,1/2-y,-z
1/2+x,1/2-y,z
loop_
_atom_site_type_symbol
_atom_site_label
_atom_site_fract_x
_atom_site_fract_y
_atom_site_fract_z
Si Si1 0.170071 0.788152 0.559735
Si Si2 0.281095 0.703983 0.084821
Si Si3 0.744322 0.216510 0.232403
Si Si4 0.344297 0.706240 0.296578
Si Si5 0.855707 0.791142 0.932151
Si Si6 0.966242 0.794358 0.453572
Si Si7 0.492403 0.210090 0.798405
Si Si8 0.076909 0.713454 0.298453
O O1 0.250000 0.750000 0.500000
O O2 0.159577 0.719434 0.633276
O O3 0.108030 0.718313 0.541580
O O4 0.160359 0.000000 0.566564
O O5 0.302206 0.500000 0.081935
O O6 0.279268 0.778930 0.153327
O O7 0.199442 0.711837 0.093341
O O8 0.331664 0.779298 0.008926
O O9 0.788167 0.278952 0.271895
O O10 0.660087 0.268304 0.270229
O O11 0.745730 0.000000 0.230781
O O12 0.326303 0.500000 0.310289
O O13 0.425920 0.721488 0.235531
O O14 0.938045 0.759341 0.876547
O O15 0.841637 0.000000 0.937803
O O16 0.000000 0.715084 0.500000
O O17 0.025800 0.780885 0.374460
O O18 0.951035 0.000000 0.473697
O O19 0.455067 0.273061 0.752162
O O20 0.496419 0.000000 0.794100
O O21 0.074913 0.500000 0.300169
#
# Coordination Sequence:
#
# PCOD9178685 Si02
#       8
#     8   8   8   8   8   8   8   8
#     4  10  22  38  56  79 108 142 178 216 263 322
#     4   9  17  33  53  79 113 144 179 225 272 323
#     4   9  18  35  57  81 109 141 178 224 274 319
#     4  10  21  38  59  80 107 142 182 226 269 323
#     4  10  19  30  53  83 110 144 183 223 272 324
#     4  10  22  39  56  79 112 144 174 220 275 319
#     4  11  21  36  57  80 109 145 183 227 273 319
#     4  10  20  35  58  82 105 140 184 226 266 313
#
# _framework density 20.808377
#
# number of rings (size 3 to 8) (size 9 to 14) (size 15 to 20)
#    0.000    2.125    2.500    0.750    1.750    2.250 
#    0.000    1.875    0.000    3.750    0.000    0.000 
#    0.000    0.000    0.000    0.000    0.000    0.000 
#
# Total GULP energy -178673.506970 kJ/mol
# GULP energy per Si atom -5583.547093 kJ/mol
# Density = 2.076102 g / cm^3
# Si number density = 20.808377 Si / 1000 Ang^3
#
#
#
# Elastic Constant Matrix: (Units=GPa)
#
#
# Indices 1 2 3 4 5 6 
#
# 1 145.8767 -2.0026 58.7592 -0.0004 13.2275 -0.0007
# 2 -2.0026 44.8701 -9.1014 -0.0009 13.2057 -0.0013
# 3 58.7592 -9.1014 104.0820 0.0000 -1.4993 -0.0003
# 4 -0.0004 -0.0009 0.0000 16.5805 0.0002 -9.2850
# 5 13.2275 13.2057 -1.4993 0.0002 26.6631 -0.0005
# 6 -0.0007 -0.0013 -0.0003 -9.2850 -0.0005 10.8751
#
#
#
# Elastic Compliance Matrix: (Units=1/GPa)
#
#
# Indices 1 2 3 4 5 6 
#
# 1 0.009534 0.000955 -0.005378 0.000001 -0.005505 0.000001
# 2 0.000955 0.026651 0.001596 0.000006 -0.013583 0.000008
# 3 -0.005378 0.001596 0.012821 0.000000 0.002599 0.000000
# 4 0.000001 0.000006 0.000000 0.115566 -0.000003 0.098669
# 5 -0.005505 -0.013583 0.002599 -0.000003 0.047110 -0.000002
# 6 0.000001 0.000008 0.000000 0.098669 -0.000002 0.176195
#
#
# Mechanical properties :
#
#
# Convention : Reuss Voigt Hill
#
# Bulk Modulus (GPa) = 23.06791 43.34881 33.20836
# Shear Modulus (GPa) = 12.25546 27.30197 19.77871
#
# Velocity S-wave (km/s) = 2.42950 3.62617 3.08639
# Velocity P-wave (km/s) = 4.35659 6.19756 5.35676
#
# Compressibility (1/GPa) = 0.04335027
#
# Stress axis : x y z
#
# Youngs Moduli (GPa) = 104.89183 37.52257 77.99759
#
# Poissons Ratio (x) = -0.03583 0.41947
# Poissons Ratio (y) = -0.10015 -0.12447
# Poissons Ratio (z) = 0.56411 -0.05988
#
# Static dielectric constant tensor:
#      x y z
#    x 1.721780 0.000000 0.024590 
#    y 0.000000 1.784170 0.000000 
#    z 0.024590 0.000000 1.737990 
# 
# From -- ./inp_files/319896.got.cif
#   From: 2010.05.17/outbox.cif.g08.bks.cpg/sg12_160_cif.got.tgz:319896.got - 2010.06.03 13:09:07.
