data_PCOD9178783
_publ_section_title
;
Structure prediction by ZEFSAII (Michael W. Deem and Ramdas Pophale) SiO2 
 PCOD9178783
Probable space group: C 2/M
;
_chemical_formula_sum "Si O2"
_cell_formula_units_Z 64
_cell_length_a 20.986612
_cell_length_b 7.386264
_cell_length_c 24.414398
_cell_angle_alpha 90.000000
_cell_angle_beta 122.786096
_cell_angle_gamma 90.000000
_cell_volume 3181.655928
_symmetry_space_group_name_H-M "C 2/M"
_symmetry_group_IT_number 12
_symmetry_cell_setting 'monoclinic'
loop_
_space_group_symop_operation_xyz
x,y,z
-x,y,-z
-x,-y,-z
x,-y,z
1/2+x,1/2+y,z
1/2-x,1/2+y,-z
1/2-x,1/2-y,-z
1/2+x,1/2-y,z
loop_
_atom_site_type_symbol
_atom_site_label
_atom_site_fract_x
_atom_site_fract_y
_atom_site_fract_z
Si Si1 0.520573 0.784381 0.925220
Si Si2 0.968360 0.220072 0.672724
Si Si3 0.378217 0.221235 0.927229
Si Si4 0.088196 0.778892 0.542889
Si Si5 0.661628 0.283813 0.464507
Si Si6 0.291711 0.721224 0.175880
Si Si7 0.119296 0.219535 0.677166
Si Si8 0.440692 0.284118 0.182301
O O1 0.438457 0.720833 0.908636
O O2 0.540050 0.749467 0.871552
O O3 0.518729 0.000000 0.930897
O O4 0.584546 0.720105 0.997831
O O5 0.890081 0.284156 0.609825
O O6 0.036909 0.267487 0.663344
O O7 0.995571 0.283147 0.745190
O O8 0.965463 0.000000 0.673627
O O9 0.292491 0.282691 0.878057
O O10 0.375874 0.000000 0.925915
O O11 0.130057 0.715637 0.507829
O O12 0.124788 0.718834 0.617278
O O13 0.000000 0.726953 0.500000
O O14 0.089635 0.000000 0.543673
O O15 0.650842 0.500000 0.460518
O O16 0.750000 0.250000 0.500000
O O17 0.290847 0.500000 0.174858
O O18 0.319072 0.777413 0.249319
O O19 0.358215 0.780235 0.164989
O O20 0.121635 0.000000 0.677570
O O21 0.438270 0.500000 0.187922
#
# Coordination Sequence:
#
# PCOD9178783 Si02
#       8
#     8   8   8   8   8   8   8   8
#     4   9  17  30  47  65  90 123 150 173 215 272
#     4   8  14  27  45  63  88 121 146 174 224 274
#     4   8  15  29  45  61  87 123 152 175 215 270
#     4   9  14  23  43  67  86 109 148 192 222 249
#     4  10  19  31  46  66  94 121 146 181 225 268
#     4   8  14  25  43  65  88 113 146 188 223 255
#     4   8  12  21  40  66  87 106 144 194 229 248
#     4   9  17  29  47  69  88 112 151 188 219 260
#
# _framework density 20.115310999999998
#
# number of rings (size 3 to 8) (size 9 to 14) (size 15 to 20)
#    0.000    3.375    1.250    2.250    0.000    0.500 
#    2.250    1.875    0.000    1.125    0.000    0.875 
#    0.000    0.000    0.000    0.000    0.000    0.000 
#
# Total GULP energy -178404.287128 kJ/mol
# GULP energy per Si atom -5575.133973 kJ/mol
# Density = 2.006953 g / cm^3
# Si number density = 20.115311 Si / 1000 Ang^3
#
#
#
# Elastic Constant Matrix: (Units=GPa)
#
#
# Indices 1 2 3 4 5 6 
#
# 1 160.9763 2.4929 144.7368 0.0000 4.8752 0.0000
# 2 2.4929 66.0383 5.2559 0.0001 1.4131 -0.0002
# 3 144.7368 5.2559 212.3045 0.0000 3.8340 0.0000
# 4 0.0000 0.0001 0.0000 153.9092 0.0000 -277.3587
# 5 4.8752 1.4131 3.8340 0.0000 37.4113 -0.0001
# 6 0.0000 -0.0002 0.0000 -277.3587 -0.0001 496.0003
#
#
#
# Elastic Compliance Matrix: (Units=1/GPa)
#
#
# Indices 1 2 3 4 5 6 
#
# 1 0.016091 0.000286 -0.010959 0.000000 -0.000985 0.000000
# 2 0.000286 0.015188 -0.000561 0.000000 -0.000553 0.000000
# 3 -0.010959 -0.000561 0.012192 0.000000 0.000200 0.000000
# 4 0.000000 0.000000 0.000000 -0.842350 0.000000 -0.471034
# 5 -0.000985 -0.000553 0.000200 0.000000 0.026859 0.000000
# 6 0.000000 0.000000 0.000000 -0.471034 0.000000 -0.261382
#
#
# Mechanical properties :
#
#
# Convention : Reuss Voigt Hill
#
# Bulk Modulus (GPa) = 47.61266 82.69894 65.15580
# Shear Modulus (GPa) = -4.98042 156.58639 75.80298
#
# Velocity S-wave (km/s) = -1.57522 8.83252 6.14541
# Velocity P-wave (km/s) = 4.51806 12.05071 9.10034
#
# Compressibility (1/GPa) = 0.02100282
#
# Stress axis : x y z
#
# Youngs Moduli (GPa) = 62.14542 65.83959 82.02118
#
# Poissons Ratio (x) = -0.01882 0.89890
# Poissons Ratio (y) = -0.01777 0.04601
# Poissons Ratio (z) = 0.68108 0.03693
#
# Static dielectric constant tensor:
#      x y z
#    x 1.676920 0.000000 -0.003850 
#    y 0.000000 1.799670 0.000000 
#    z -0.003850 0.000000 1.721620 
# 
# From -- ./inp_files/345622.got.cif
#   From: 2010.05.17/outbox.cif.g08.bks.cpg/sg12_173_cif.got.tgz:345622.got - 2010.06.03 13:09:07.
