data_PCOD9178717
_publ_section_title
;
Structure prediction by ZEFSAII (Michael W. Deem and Ramdas Pophale) SiO2 
 PCOD9178717
Probable space group: C 2/M
;
_chemical_formula_sum "Si O2"
_cell_formula_units_Z 48
_cell_length_a 9.274074
_cell_length_b 25.124955
_cell_length_c 9.916812
_cell_angle_alpha 90.000000
_cell_angle_beta 77.791872
_cell_angle_gamma 90.000000
_cell_volume 2258.468313
_symmetry_space_group_name_H-M "C 2/M"
_symmetry_group_IT_number 12
_symmetry_cell_setting 'monoclinic'
loop_
_space_group_symop_operation_xyz
x,y,z
-x,y,-z
-x,-y,-z
x,-y,z
1/2+x,1/2+y,z
1/2-x,1/2+y,-z
1/2-x,1/2-y,-z
1/2+x,1/2-y,z
loop_
_atom_site_type_symbol
_atom_site_label
_atom_site_fract_x
_atom_site_fract_y
_atom_site_fract_z
Si Si1 0.325634 0.941203 0.563688
Si Si2 0.240221 0.146129 0.910514
Si Si3 0.555601 0.060880 0.168240
Si Si4 0.217544 0.373947 0.676054
Si Si5 0.494467 0.783190 0.167895
Si Si6 0.033519 0.836398 0.197843
O O1 0.500000 0.944672 0.500000
O O2 0.338517 0.934048 0.720841
O O3 0.271071 0.892875 0.481818
O O4 0.260538 0.000000 0.544644
O O5 0.351757 0.100637 0.943083
O O6 0.349776 0.189486 0.825797
O O7 0.106153 0.133258 0.836493
O O8 0.155584 0.169037 0.055739
O O9 0.393171 0.081465 0.238656
O O10 0.552175 0.000000 0.128640
O O11 0.380559 0.367163 0.702938
O O12 0.130137 0.320321 0.738510
O O13 0.484373 0.724223 0.229545
O O14 0.500000 0.782129 0.000000
#
# Coordination Sequence:
#
# PCOD9178717 Si02
#       6
#     8   8   8   8   8   8
#     4   8  15  33  58  78  96 127 174 221 260 299
#     4  10  20  32  52  77 109 136 172 210 259 304
#     4   9  19  37  58  76  98 135 179 218 258 304
#     4  10  19  30  56  81 102 130 180 214 251 305
#     4  11  18  32  54  78 102 139 180 204 246 308
#     4  11  20  32  49  79 109 141 167 209 258 310
#
# _framework density 21.253342
#
# number of rings (size 3 to 8) (size 9 to 14) (size 15 to 20)
#    0.000    2.167    3.333    3.000    0.000    0.000 
#    0.000    6.667    0.000   29.000    0.000    0.000 
#    0.000    0.000    0.000    0.000    0.000    0.000 
#
# Total GULP energy -133645.005201 kJ/mol
# GULP energy per Si atom -5568.541883 kJ/mol
# Density = 2.120497 g / cm^3
# Si number density = 21.253342 Si / 1000 Ang^3
#
#
#
# Elastic Constant Matrix: (Units=GPa)
#
#
# Indices 1 2 3 4 5 6 
#
# 1 87.9033 23.2546 18.2746 0.0000 24.8556 0.0000
# 2 23.2546 97.7514 10.8616 0.0000 10.7214 0.0000
# 3 18.2746 10.8616 62.9237 0.0000 30.8351 0.0000
# 4 0.0000 0.0000 0.0000 16.4072 0.0000 14.5752
# 5 24.8556 10.7214 30.8351 0.0000 37.3198 0.0000
# 6 0.0000 0.0000 0.0000 14.5752 0.0000 13.1806
#
#
#
# Elastic Compliance Matrix: (Units=1/GPa)
#
#
# Indices 1 2 3 4 5 6 
#
# 1 0.014615 -0.002509 0.001017 0.000000 -0.009853 0.000000
# 2 -0.002509 0.011006 -0.000740 0.000000 -0.000879 0.000000
# 3 0.001017 -0.000740 0.026806 0.000000 -0.022613 0.000000
# 4 0.000000 0.000000 0.000000 3.450670 0.000000 -3.815769
# 5 -0.009853 -0.000879 -0.022613 0.000000 0.052294 0.000000
# 6 0.000000 0.000000 0.000000 -3.815769 0.000000 4.295366
#
#
# Mechanical properties :
#
#
# Convention : Reuss Voigt Hill
#
# Bulk Modulus (GPa) = 20.85011 39.26221 30.05616
# Shear Modulus (GPa) = 0.63523 26.46069 13.54796
#
# Velocity S-wave (km/s) = 0.54730 3.53230 2.52752
# Velocity P-wave (km/s) = 3.19859 5.92872 4.76344
#
# Compressibility (1/GPa) = 0.04796138
#
# Stress axis : x y z
#
# Youngs Moduli (GPa) = 68.42510 90.86290 37.30534
#
# Poissons Ratio (x) = 0.22798 -0.03794
# Poissons Ratio (y) = 0.17168 0.02762
# Poissons Ratio (z) = -0.06959 0.06727
#
# Static dielectric constant tensor:
#      x y z
#    x 1.762480 0.000000 0.061960 
#    y 0.000000 1.802800 0.000000 
#    z 0.061960 0.000000 1.961820 
# 
# From -- ./inp_files/123038.got.cif
#   From: 2010.05.17/outbox.cif.g08.bks.cpg/sg12_62_cif.got.tgz:123038.got - 2010.06.03 13:09:07.
