data_PCOD9178212
_publ_section_title
;
Structure prediction by ZEFSAII (Michael W. Deem and Ramdas Pophale) SiO2 
 PCOD9178212
Probable space group: C 2/M
;
_chemical_formula_sum "Si O2"
_cell_formula_units_Z 56
_cell_length_a 31.088191
_cell_length_b 14.101308
_cell_length_c 15.053753
_cell_angle_alpha 90.000000
_cell_angle_beta 32.944753
_cell_angle_gamma 90.000000
_cell_volume 3588.912563
_symmetry_space_group_name_H-M "C 2/M"
_symmetry_group_IT_number 12
_symmetry_cell_setting 'monoclinic'
loop_
_space_group_symop_operation_xyz
x,y,z
-x,y,-z
-x,-y,-z
x,-y,z
1/2+x,1/2+y,z
1/2-x,1/2+y,-z
1/2-x,1/2-y,-z
1/2+x,1/2-y,z
loop_
_atom_site_type_symbol
_atom_site_label
_atom_site_fract_x
_atom_site_fract_y
_atom_site_fract_z
Si Si1 0.405403 0.111324 0.660508
Si Si2 0.594835 0.395508 0.122853
Si Si3 0.089944 0.889965 0.600399
Si Si4 0.684193 0.779376 0.043269
Si Si5 0.796693 0.109313 0.240243
Si Si6 0.084903 0.115401 0.814143
Si Si7 0.689410 0.757015 0.316534
O O1 0.500000 0.128247 0.500000
O O2 0.366278 0.137823 0.823558
O O3 0.361758 0.178362 0.663522
O O4 0.391994 0.000000 0.663611
O O5 0.612173 0.500000 0.131808
O O6 0.502264 0.387447 0.265668
O O7 0.627353 0.310223 0.124975
O O8 0.639712 0.391591 0.950626
O O9 0.096243 0.858017 0.692128
O O10 0.137322 0.822797 0.452692
O O11 0.115868 0.000000 0.549954
O O12 0.750000 0.750000 0.000000
O O13 0.736295 0.790974 0.864082
O O14 0.843549 0.144596 0.245615
O O15 0.726201 0.174077 0.327390
O O16 0.771629 0.000000 0.297450
O O17 0.082975 0.000000 0.820338
O O18 0.000000 0.147509 0.000000
#
# Coordination Sequence:
#
# PCOD9178212 Si02
#       7
#     8   8   8   8   8   8   8
#     4  10  20  35  53  68  87 121 164 202 232 271
#     4   9  16  29  49  70  92 122 159 196 234 275
#     4  10  19  30  47  71 100 129 155 190 235 284
#     4   9  19  32  47  68  93 120 151 194 239 281
#     4   9  16  28  48  71  96 125 159 198 233 269
#     4   9  15  27  47  72  98 125 159 194 230 273
#     4  10  20  32  47  72 101 124 153 193 240 291
#
# _framework density 15.603612999999999
#
# number of rings (size 3 to 8) (size 9 to 14) (size 15 to 20)
#    0.000    2.571    1.429    1.286    0.000    4.571 
#    0.000    2.143    0.000    7.714    0.000    0.000 
#    0.000    1.714    0.000    0.000    0.000    0.000 
#
# Total GULP energy -155915.387116 kJ/mol
# GULP energy per Si atom -5568.406683 kJ/mol
# Density = 1.556810 g / cm^3
# Si number density = 15.603613 Si / 1000 Ang^3
#
#
#
# Elastic Constant Matrix: (Units=GPa)
#
#
# Indices 1 2 3 4 5 6 
#
# 1 84.5122 40.3446 21.4077 0.0000 -2.0692 0.0000
# 2 40.3446 71.8003 48.9547 0.0000 2.6206 0.0000
# 3 21.4077 48.9547 64.6990 0.0000 -4.0219 0.0000
# 4 0.0000 0.0000 0.0000 19.1863 0.0000 0.0792
# 5 -2.0692 2.6206 -4.0219 0.0000 17.6527 0.0000
# 6 0.0000 0.0000 0.0000 0.0792 0.0000 14.9703
#
#
#
# Elastic Compliance Matrix: (Units=1/GPa)
#
#
# Indices 1 2 3 4 5 6 
#
# 1 0.016855 -0.012488 0.004169 0.000000 0.004779 0.000000
# 2 -0.012488 0.039633 -0.026692 0.000000 -0.013429 0.000000
# 3 0.004169 -0.026692 0.035046 0.000000 0.012436 0.000000
# 4 0.000000 0.000000 0.000000 0.052122 0.000000 -0.000276
# 5 0.004779 -0.013429 0.012436 0.000000 0.062036 0.000000
# 6 0.000000 0.000000 0.000000 -0.000276 0.000000 0.066800
#
#
# Mechanical properties :
#
#
# Convention : Reuss Voigt Hill
#
# Bulk Modulus (GPa) = 46.48175 49.15839 47.82007
# Shear Modulus (GPa) = 14.29863 17.71550 16.00707
#
# Velocity S-wave (km/s) = 3.03044 3.37315 3.20637
# Velocity P-wave (km/s) = 6.48834 6.83694 6.66492
#
# Compressibility (1/GPa) = 0.02151382
#
# Stress axis : x y z
#
# Youngs Moduli (GPa) = 59.32950 25.23128 28.53390
#
# Poissons Ratio (x) = 0.31508 -0.11896
# Poissons Ratio (y) = 0.74090 0.76161
# Poissons Ratio (z) = -0.24735 0.67346
#
# Static dielectric constant tensor:
#      x y z
#    x 1.516500 0.000000 0.010670 
#    y 0.000000 1.509950 0.000000 
#    z 0.010670 0.000000 1.516670 
# 
# From -- ./inp_files/214195.got.cif
#   From: 2010.05.17/outbox.cif.g08.bks.cpg/sg12_108_cif.got.tgz:214195.got - 2010.06.03 13:09:07.
