data_PCOD9178535
_publ_section_title
;
Structure prediction by ZEFSAII (Michael W. Deem and Ramdas Pophale) SiO2 
 PCOD9178535
Probable space group: C 2/M
;
_chemical_formula_sum "Si O2"
_cell_formula_units_Z 64
_cell_length_a 34.156348
_cell_length_b 9.432816
_cell_length_c 14.570830
_cell_angle_alpha 90.000000
_cell_angle_beta 47.304498
_cell_angle_gamma 90.000000
_cell_volume 3450.367982
_symmetry_space_group_name_H-M "C 2/M"
_symmetry_group_IT_number 12
_symmetry_cell_setting 'monoclinic'
loop_
_space_group_symop_operation_xyz
x,y,z
-x,y,-z
-x,-y,-z
x,-y,z
1/2+x,1/2+y,z
1/2-x,1/2+y,-z
1/2-x,1/2-y,-z
1/2+x,1/2-y,z
loop_
_atom_site_type_symbol
_atom_site_label
_atom_site_fract_x
_atom_site_fract_y
_atom_site_fract_z
Si Si1 0.942001 0.833006 0.634526
Si Si2 0.522210 0.667063 0.219013
Si Si3 0.170578 0.834581 0.574600
Si Si4 0.547991 0.168301 0.994301
Si Si5 0.584031 0.839783 0.614963
Si Si6 0.829646 0.667433 0.249967
Si Si7 0.149269 0.339696 0.322019
Si Si8 0.736027 0.664440 0.279606
O O1 0.944293 0.818142 0.740824
O O2 0.892376 0.746474 0.673770
O O3 0.000000 0.788924 0.500000
O O4 0.936064 0.000000 0.620345
O O5 0.512916 0.500000 0.219083
O O6 0.467591 0.749517 0.325045
O O7 0.544117 0.740209 0.092801
O O8 0.117760 0.745688 0.635418
O O9 0.191791 0.762745 0.633011
O O10 0.206512 0.824272 0.425963
O O11 0.159750 0.000000 0.607032
O O12 0.607315 0.189542 0.860749
O O13 0.542550 0.000000 0.023260
O O14 0.500000 0.205018 0.000000
O O15 0.619533 0.848111 0.467530
O O16 0.571657 0.000000 0.665573
O O17 0.820228 0.500000 0.284717
O O18 0.796795 0.700442 0.209327
O O19 0.157625 0.500000 0.275125
O O20 0.204408 0.260074 0.257557
O O21 0.732579 0.500000 0.256784
#
# Coordination Sequence:
#
# PCOD9178535 Si02
#       8
#     8   8   8   8   8   8   8   8
#     4  10  20  35  55  80 114 148 176 215 272 335
#     4  11  22  35  55  81 108 143 184 224 269 320
#     4  10  19  30  49  77 107 139 177 224 273 318
#     4  10  22  39  57  78 108 147 186 226 272 318
#     4  10  19  31  48  73 108 144 176 214 262 321
#     4  10  20  35  54  75 103 143 186 224 271 328
#     4  10  20  32  51  80 110 141 176 217 266 320
#     4   9  19  34  52  75 107 145 181 220 271 330
#
# _framework density 18.548746999999999
#
# number of rings (size 3 to 8) (size 9 to 14) (size 15 to 20)
#    0.000    2.000    1.250    2.625    0.000    5.000 
#    0.000    0.000    0.000    0.750    0.000    0.000 
#    0.000    0.000    0.000    0.000    0.000    0.000 
#
# Total GULP energy -178495.274533 kJ/mol
# GULP energy per Si atom -5577.977329 kJ/mol
# Density = 1.850653 g / cm^3
# Si number density = 18.548747 Si / 1000 Ang^3
#
#
#
# Elastic Constant Matrix: (Units=GPa)
#
#
# Indices 1 2 3 4 5 6 
#
# 1 142.8783 83.4393 18.9792 0.0000 -8.5244 0.0000
# 2 83.4393 103.6699 25.8533 0.0000 5.0110 0.0001
# 3 18.9792 25.8533 33.0656 0.0000 0.0101 0.0000
# 4 0.0000 0.0000 0.0000 17.5487 0.0000 6.3744
# 5 -8.5244 5.0110 0.0101 0.0000 22.5919 0.0000
# 6 0.0000 0.0001 0.0000 6.3744 0.0000 29.9474
#
#
#
# Elastic Compliance Matrix: (Units=1/GPa)
#
#
# Indices 1 2 3 4 5 6 
#
# 1 0.014614 -0.012510 0.001390 0.000000 0.008288 0.000000
# 2 -0.012510 0.022852 -0.010684 0.000000 -0.009784 0.000000
# 3 0.001390 -0.010684 0.037798 0.000000 0.002877 0.000000
# 4 0.000000 0.000000 0.000000 0.061759 0.000000 -0.013146
# 5 0.008288 -0.009784 0.002877 0.000000 0.049560 0.000000
# 6 0.000000 0.000000 0.000000 -0.013146 0.000000 0.036190
#
#
# Mechanical properties :
#
#
# Convention : Reuss Voigt Hill
#
# Bulk Modulus (GPa) = 31.58890 59.57305 45.58098
# Shear Modulus (GPa) = 18.05496 24.10707 21.08101
#
# Velocity S-wave (km/s) = 3.12329 3.60899 3.37489
# Velocity P-wave (km/s) = 5.48395 7.03940 6.30979
#
# Compressibility (1/GPa) = 0.03165669
#
# Stress axis : x y z
#
# Youngs Moduli (GPa) = 68.42588 43.76015 26.45668
#
# Poissons Ratio (x) = 0.54743 -0.03678
# Poissons Ratio (y) = 0.85599 0.28266
# Poissons Ratio (z) = -0.09512 0.46753
#
# Static dielectric constant tensor:
#      x y z
#    x 1.659020 0.000000 -0.009100 
#    y 0.000000 1.629320 0.000000 
#    z -0.009100 0.000000 1.659150 
# 
# From -- ./inp_files/249065.got.cif
#   From: 2010.05.17/outbox.cif.g08.bks.cpg/sg12_125_cif.got.tgz:249065.got - 2010.06.03 13:09:07.
