data_PCOD9178131
_publ_section_title
;
Structure prediction by ZEFSAII (Michael W. Deem and Ramdas Pophale) SiO2 
 PCOD9178131
Probable space group: C 2/M
;
_chemical_formula_sum "Si O2"
_cell_formula_units_Z 64
_cell_length_a 31.671410
_cell_length_b 14.210914
_cell_length_c 13.022575
_cell_angle_alpha 90.000000
_cell_angle_beta 145.222239
_cell_angle_gamma 90.000000
_cell_volume 3343.195974
_symmetry_space_group_name_H-M "C 2/M"
_symmetry_group_IT_number 12
_symmetry_cell_setting 'monoclinic'
loop_
_space_group_symop_operation_xyz
x,y,z
-x,y,-z
-x,-y,-z
x,-y,z
1/2+x,1/2+y,z
1/2-x,1/2+y,-z
1/2-x,1/2-y,-z
1/2+x,1/2-y,z
loop_
_atom_site_type_symbol
_atom_site_label
_atom_site_fract_x
_atom_site_fract_y
_atom_site_fract_z
Si Si1 0.452329 0.106518 0.582687
Si Si2 0.116389 0.205899 0.045331
Si Si3 0.127850 0.392447 0.966467
Si Si4 0.440046 0.295304 0.651741
Si Si5 0.077627 0.113366 0.602293
Si Si6 0.588937 0.608828 0.198422
Si Si7 0.305053 0.613887 0.989903
Si Si8 0.158040 0.613926 0.805521
O O1 0.541012 0.105548 0.761435
O O2 0.426974 0.184028 0.613540
O O3 0.418568 0.135126 0.405162
O O4 0.426826 0.000000 0.553683
O O5 0.134517 0.316467 0.069455
O O6 0.029340 0.192218 0.841784
O O7 0.125242 0.163787 0.176084
O O8 0.164590 0.153415 0.055860
O O9 0.149976 0.500000 0.034749
O O10 0.166508 0.354837 0.939787
O O11 0.416448 0.343182 0.498320
O O12 0.401779 0.341164 0.673590
O O13 0.000000 0.139822 0.500000
O O14 0.078875 0.000000 0.594625
O O15 0.141280 0.141502 0.808807
O O16 0.612213 0.500000 0.247686
O O17 0.500000 0.609771 0.000000
O O18 0.306462 0.500000 0.986477
O O19 0.223309 0.644132 0.860393
O O20 0.160987 0.500000 0.820511
#
# Coordination Sequence:
#
# PCOD9178131 Si02
#       8
#     8   8   8   8   8   8   8   8
#     4   9  18  32  51  73  99 132 171 213 253 295
#     4  10  19  31  50  74 101 132 171 208 252 300
#     4   9  18  32  50  73 102 134 171 211 255 300
#     4  10  19  31  51  74 101 132 172 208 252 300
#     4  10  19  30  46  71 106 138 165 202 254 308
#     4   9  18  32  51  75 102 133 169 211 251 295
#     4  10  20  32  48  75 106 136 167 204 255 310
#     4   9  18  32  49  73 104 137 170 207 252 305
#
# _framework density 19.143359
#
# number of rings (size 3 to 8) (size 9 to 14) (size 15 to 20)
#    0.000    2.500    1.250    1.125    1.750    3.000 
#    0.000    0.625    0.000    4.500    0.000    0.000 
#    0.000    0.000    0.000    0.000    0.000    0.000 
#
# Total GULP energy -178542.834125 kJ/mol
# GULP energy per Si atom -5579.463566 kJ/mol
# Density = 1.909979 g / cm^3
# Si number density = 19.143359 Si / 1000 Ang^3
#
#
#
# Elastic Constant Matrix: (Units=GPa)
#
#
# Indices 1 2 3 4 5 6 
#
# 1 129.8655 72.9270 30.3131 0.0000 -38.9361 0.0000
# 2 72.9270 105.3273 21.4439 0.0000 -25.3435 0.0000
# 3 30.3131 21.4439 22.6161 0.0000 -14.6308 0.0000
# 4 0.0000 0.0000 0.0000 16.4220 0.0000 -8.8002
# 5 -38.9361 -25.3435 -14.6308 0.0000 31.0491 0.0000
# 6 0.0000 0.0000 0.0000 -8.8002 0.0000 28.4369
#
#
#
# Elastic Compliance Matrix: (Units=1/GPa)
#
#
# Indices 1 2 3 4 5 6 
#
# 1 0.017436 -0.007495 -0.008741 0.000000 0.011628 0.000000
# 2 -0.007495 0.015896 -0.003903 0.000000 0.001738 0.000000
# 3 -0.008741 -0.003903 0.072617 0.000000 0.020072 0.000000
# 4 0.000000 0.000000 0.000000 0.073000 0.000000 0.022591
# 5 0.011628 0.001738 0.020072 0.000000 0.057666 0.000000
# 6 0.000000 0.000000 0.000000 0.022591 0.000000 0.042157
#
#
# Mechanical properties :
#
#
# Convention : Reuss Voigt Hill
#
# Bulk Modulus (GPa) = 15.22712 56.35300 35.79006
# Shear Modulus (GPa) = 14.66544 24.05658 19.36101
#
# Velocity S-wave (km/s) = 2.77083 3.54878 3.18365
# Velocity P-wave (km/s) = 4.26710 6.80390 5.67896
#
# Compressibility (1/GPa) = 0.06567231
#
# Stress axis : x y z
#
# Youngs Moduli (GPa) = 57.35405 62.90882 13.77089
#
# Poissons Ratio (x) = 0.47148 0.12037
# Poissons Ratio (y) = 0.42984 0.05375
# Poissons Ratio (z) = 0.50131 0.24552
#
# Static dielectric constant tensor:
#      x y z
#    x 1.644880 0.000000 0.021090 
#    y 0.000000 1.717600 0.000000 
#    z 0.021090 0.000000 1.655100 
# 
# From -- ./inp_files/189499.got.cif
#   From: 2010.05.17/outbox.cif.g08.bks.cpg/sg12_95_cif.got.tgz:189499.got - 2010.06.03 13:09:07.
