data_PCOD9178370
_publ_section_title
;
Structure prediction by ZEFSAII (Michael W. Deem and Ramdas Pophale) SiO2 
 PCOD9178370
Probable space group: C 2/M
;
_chemical_formula_sum "Si O2"
_cell_formula_units_Z 64
_cell_length_a 25.655941
_cell_length_b 7.782639
_cell_length_c 19.371896
_cell_angle_alpha 90.000000
_cell_angle_beta 117.759847
_cell_angle_gamma 90.000000
_cell_volume 3422.826529
_symmetry_space_group_name_H-M "C 2/M"
_symmetry_group_IT_number 12
_symmetry_cell_setting 'monoclinic'
loop_
_space_group_symop_operation_xyz
x,y,z
-x,y,-z
-x,-y,-z
x,-y,z
1/2+x,1/2+y,z
1/2-x,1/2+y,-z
1/2-x,1/2-y,-z
1/2+x,1/2-y,z
loop_
_atom_site_type_symbol
_atom_site_label
_atom_site_fract_x
_atom_site_fract_y
_atom_site_fract_z
Si Si1 0.993139 0.289431 0.319187
Si Si2 0.254111 0.204588 0.283730
Si Si3 0.513476 0.795309 0.177437
Si Si4 0.440191 0.801046 0.008663
Si Si5 0.871696 0.200261 0.837593
Si Si6 0.384584 0.210357 0.338435
Si Si7 0.418340 0.800178 0.509762
Si Si8 0.212282 0.203887 0.543285
O O1 0.996852 0.500000 0.320633
O O2 0.010261 0.228800 0.253384
O O3 0.037011 0.226727 0.406478
O O4 0.927327 0.242902 0.302406
O O5 0.193014 0.275627 0.216274
O O6 0.316983 0.271141 0.294303
O O7 0.256626 0.233985 0.367421
O O8 0.254505 0.000000 0.270772
O O9 0.576543 0.772891 0.179214
O O10 0.503422 0.000000 0.174025
O O11 0.462303 0.725031 0.094926
O O12 0.391754 0.718440 0.929443
O O13 0.423209 0.000000 0.007594
O O14 0.500000 0.798258 0.000000
O O15 0.869514 0.000000 0.818885
O O16 0.413354 0.270698 0.428883
O O17 0.383011 0.000000 0.340926
O O18 0.352226 0.787713 0.498244
O O19 0.435071 0.000000 0.511772
O O20 0.250000 0.250000 0.500000
O O21 0.204503 0.000000 0.542582
#
# Coordination Sequence:
#
# PCOD9178370 Si02
#       8
#     8   8   8   8   8   8   8   8
#     4   9  16  27  49  75  94 121 161 202 239 277
#     4   9  19  34  50  71  95 122 160 200 234 278
#     4   9  18  30  45  71 100 123 155 194 236 286
#     4   8  15  29  46  65  94 126 154 191 233 280
#     4  10  19  30  48  72  96 122 155 193 235 289
#     4   8  14  28  49  70  94 122 159 204 239 268
#     4   9  17  30  48  72  96 121 160 202 238 278
#     4  11  22  34  48  66  95 131 161 193 236 282
#
# _framework density 18.697997999999998
#
# number of rings (size 3 to 8) (size 9 to 14) (size 15 to 20)
#    0.000    2.875    0.000    3.375    1.750    4.750 
#    0.000    0.000    0.000    9.750    0.000    0.000 
#    0.000    0.000    0.000    0.000    0.000    1.250 
#
# Total GULP energy -178289.683843 kJ/mol
# GULP energy per Si atom -5571.552620 kJ/mol
# Density = 1.865544 g / cm^3
# Si number density = 18.697998 Si / 1000 Ang^3
#
#
#
# Elastic Constant Matrix: (Units=GPa)
#
#
# Indices 1 2 3 4 5 6 
#
# 1 77.4366 5.9403 84.0545 0.0000 5.4445 0.0000
# 2 5.9403 14.7354 0.4919 0.0000 -2.3093 0.0000
# 3 84.0545 0.4919 128.4995 0.0000 21.9650 0.0000
# 4 0.0000 0.0000 0.0000 11.6546 0.0000 1.3477
# 5 5.4445 -2.3093 21.9650 0.0000 22.7035 0.0000
# 6 0.0000 0.0000 0.0000 1.3477 0.0000 1.3596
#
#
#
# Elastic Compliance Matrix: (Units=1/GPa)
#
#
# Indices 1 2 3 4 5 6 
#
# 1 0.059331 -0.018466 -0.043117 0.000000 0.025608 0.000000
# 2 -0.018466 0.075041 0.011658 0.000000 0.000782 0.000001
# 3 -0.043117 0.011658 0.040702 0.000000 -0.027853 0.000000
# 4 0.000000 0.000000 0.000000 0.096912 0.000000 -0.096067
# 5 0.025608 0.000782 -0.027853 0.000000 0.064932 0.000000
# 6 0.000000 0.000001 0.000000 -0.096067 0.000000 0.830743
#
#
# Mechanical properties :
#
#
# Convention : Reuss Voigt Hill
#
# Bulk Modulus (GPa) = 13.29334 44.62720 28.96027
# Shear Modulus (GPa) = 3.86821 15.82251 9.84536
#
# Velocity S-wave (km/s) = 1.43989 2.91213 2.29715
# Velocity P-wave (km/s) = 3.14473 5.93519 4.74952
#
# Compressibility (1/GPa) = 0.07522565
#
# Stress axis : x y z
#
# Youngs Moduli (GPa) = 16.85447 13.32603 24.56870
#
# Poissons Ratio (x) = 0.24608 1.05932
# Poissons Ratio (y) = 0.31123 -0.28642
# Poissons Ratio (z) = 0.72671 -0.15535
#
# Static dielectric constant tensor:
#      x y z
#    x 1.645870 0.000000 0.016660 
#    y 0.000000 1.691040 0.000000 
#    z 0.016660 0.000000 1.669220 
# 
# From -- ./inp_files/323771.got.cif
#   From: 2010.05.17/outbox.cif.g08.bks.cpg/sg12_162_cif.got.tgz:323771.got - 2010.06.03 13:09:07.
