data_PCOD9178485
_publ_section_title
;
Structure prediction by ZEFSAII (Michael W. Deem and Ramdas Pophale) SiO2 
 PCOD9178485
Probable space group: C 2/M
;
_chemical_formula_sum "Si O2"
_cell_formula_units_Z 48
_cell_length_a 17.778840
_cell_length_b 22.046738
_cell_length_c 8.003062
_cell_angle_alpha 90.000000
_cell_angle_beta 57.654435
_cell_angle_gamma 90.000000
_cell_volume 2650.187938
_symmetry_space_group_name_H-M "C 2/M"
_symmetry_group_IT_number 12
_symmetry_cell_setting 'monoclinic'
loop_
_space_group_symop_operation_xyz
x,y,z
-x,y,-z
-x,-y,-z
x,-y,z
1/2+x,1/2+y,z
1/2-x,1/2+y,-z
1/2-x,1/2-y,-z
1/2+x,1/2-y,z
loop_
_atom_site_type_symbol
_atom_site_label
_atom_site_fract_x
_atom_site_fract_y
_atom_site_fract_z
Si Si1 0.678790 0.662806 0.682568
Si Si2 0.601983 0.336175 0.151904
Si Si3 0.220521 0.311628 0.936866
Si Si4 0.037500 0.697882 0.274075
Si Si5 0.040267 0.068898 0.762292
Si Si6 0.644800 0.795751 0.655424
O O1 0.635002 0.603010 0.657638
O O2 0.645812 0.723158 0.623697
O O3 0.785379 0.670053 0.547691
O O4 0.639591 0.665787 0.916521
O O5 0.688439 0.348699 0.162329
O O6 0.560588 0.269843 0.234415
O O7 0.527795 0.387507 0.253645
O O8 0.186541 0.301509 0.789922
O O9 0.250000 0.250000 0.000000
O O10 0.131284 0.334896 0.131984
O O11 0.000000 0.685138 0.500000
O O12 0.956626 0.684129 0.244180
O O13 0.045275 0.000000 0.696531
O O14 0.000000 0.067482 0.000000
#
# Coordination Sequence:
#
# PCOD9178485 Si02
#       6
#     8   8   8   8   8   8
#     4  10  19  30  49  70  98 133 168 209 249 297
#     4  10  19  32  46  70 103 132 166 212 243 294
#     4  10  20  30  44  69  99 132 166 195 251 303
#     4  11  21  30  46  70  99 133 165 198 249 306
#     4   9  18  32  52  74  98 135 177 209 242 283
#     4  11  20  31  48  70 100 136 165 203 259 306
#
# _framework density 18.111923000000001
#
# number of rings (size 3 to 8) (size 9 to 14) (size 15 to 20)
#    0.000    1.833    5.000    1.500    7.000    0.000 
#    0.000    0.000    0.000    4.500    0.000    1.167 
#    0.000    9.333    0.000    0.000    0.000    0.000 
#
# Total GULP energy -133772.042368 kJ/mol
# GULP energy per Si atom -5573.835099 kJ/mol
# Density = 1.807070 g / cm^3
# Si number density = 18.111923 Si / 1000 Ang^3
#
#
#
# Elastic Constant Matrix: (Units=GPa)
#
#
# Indices 1 2 3 4 5 6 
#
# 1 112.8799 12.6604 9.4173 0.0000 -18.7969 0.0000
# 2 12.6604 57.6174 -6.9608 0.0000 -5.9540 0.0000
# 3 9.4173 -6.9608 56.1025 0.0000 -3.1945 0.0000
# 4 0.0000 0.0000 0.0000 12.9118 0.0000 -4.5351
# 5 -18.7969 -5.9540 -3.1945 0.0000 30.4798 0.0000
# 6 0.0000 0.0000 0.0000 -4.5351 0.0000 15.3317
#
#
#
# Elastic Compliance Matrix: (Units=1/GPa)
#
#
# Indices 1 2 3 4 5 6 
#
# 1 0.010153 -0.001832 -0.001605 0.000000 0.005736 0.000000
# 2 -0.001832 0.018374 0.002744 0.000000 0.002747 0.000000
# 3 -0.001605 0.002744 0.018519 0.000000 0.001487 0.000000
# 4 0.000000 0.000000 0.000000 0.086428 0.000000 0.025565
# 5 0.005736 0.002747 0.001487 0.000000 0.037038 0.000000
# 6 0.000000 0.000000 0.000000 0.025565 0.000000 0.072787
#
#
# Mechanical properties :
#
#
# Convention : Reuss Voigt Hill
#
# Bulk Modulus (GPa) = 21.90156 28.53707 25.21932
# Shear Modulus (GPa) = 19.23774 25.84351 22.54062
#
# Velocity S-wave (km/s) = 3.26261 3.78150 3.53160
# Velocity P-wave (km/s) = 5.12947 5.90394 5.53028
#
# Compressibility (1/GPa) = 0.04565884
#
# Stress axis : x y z
#
# Youngs Moduli (GPa) = 98.48847 54.42537 53.99850
#
# Poissons Ratio (x) = 0.09972 0.08667
# Poissons Ratio (y) = 0.18046 -0.14815
# Poissons Ratio (z) = 0.15808 -0.14932
#
# Static dielectric constant tensor:
#      x y z
#    x 1.691030 0.000000 0.005990 
#    y 0.000000 1.600550 0.000000 
#    z 0.005990 0.000000 1.705840 
# 
# From -- ./inp_files/78643.got.cif
#   From: 2010.05.17/outbox.cif.g08.bks.cpg/sg12_40_cif.got.tgz:78643.got - 2010.06.03 13:09:07.
