data_PCOD9178330
_publ_section_title
;
Structure prediction by ZEFSAII (Michael W. Deem and Ramdas Pophale) SiO2 
 PCOD9178330
Probable space group: C 2/M
;
_chemical_formula_sum "Si O2"
_cell_formula_units_Z 32
_cell_length_a 18.884098
_cell_length_b 12.465249
_cell_length_c 12.566748
_cell_angle_alpha 90.000000
_cell_angle_beta 27.970720
_cell_angle_gamma 90.000000
_cell_volume 1387.432099
_symmetry_space_group_name_H-M "C 2/M"
_symmetry_group_IT_number 12
_symmetry_cell_setting 'monoclinic'
loop_
_space_group_symop_operation_xyz
x,y,z
-x,y,-z
-x,-y,-z
x,-y,z
1/2+x,1/2+y,z
1/2-x,1/2+y,-z
1/2-x,1/2-y,-z
1/2+x,1/2-y,z
loop_
_atom_site_type_symbol
_atom_site_label
_atom_site_fract_x
_atom_site_fract_y
_atom_site_fract_z
Si Si1 0.928414 0.325187 0.780785
Si Si2 0.491057 0.619616 0.185355
Si Si3 0.332596 0.324434 0.729087
Si Si4 0.758132 0.168069 0.316381
O O1 0.967405 0.212401 0.787853
O O2 0.090322 0.378643 0.551239
O O3 0.864687 0.286888 0.752107
O O4 0.798386 0.377146 0.025858
O O5 0.468400 0.500000 0.259706
O O6 0.345853 0.658138 0.310728
O O7 0.628198 0.615436 0.918663
O O8 0.500000 0.374365 0.500000
O O9 0.268215 0.286895 0.700577
#
# Coordination Sequence:
#
# PCOD9178330 Si02
#       4
#     8   8   8   8
#     4   9  16  28  48  71  95 128 165 197 233 285
#     4  10  19  30  47  75 106 126 149 199 254 287
#     4   8  15  27  46  69  91 118 163 206 228 264
#     4   9  16  28  47  71  94 126 164 195 228 281
#
# _framework density 23.064191999999998
#
# number of rings (size 3 to 8) (size 9 to 14) (size 15 to 20)
#    0.000    3.000    0.000    2.250    0.000    0.000 
#    0.000    0.000    0.000  142.500    0.000   57.750 
#    0.000    0.000    0.000    0.000    0.000    0.000 
#
# Total GULP energy -89143.743063 kJ/mol
# GULP energy per Si atom -5571.483941 kJ/mol
# Density = 2.301170 g / cm^3
# Si number density = 23.064192 Si / 1000 Ang^3
#
#
#
# Elastic Constant Matrix: (Units=GPa)
#
#
# Indices 1 2 3 4 5 6 
#
# 1 74.3856 25.7114 9.0079 0.0000 -21.8842 0.0000
# 2 25.7114 93.2238 5.0899 0.0000 -5.3030 0.0000
# 3 9.0079 5.0899 206.9107 0.0000 -5.0979 0.0000
# 4 0.0000 0.0000 0.0000 -14.0025 0.0000 14.1029
# 5 -21.8842 -5.3030 -5.0979 0.0000 45.1613 0.0000
# 6 0.0000 0.0000 0.0000 14.1029 0.0000 -21.0414
#
#
#
# Elastic Compliance Matrix: (Units=1/GPa)
#
#
# Indices 1 2 3 4 5 6 
#
# 1 0.017284 -0.004297 -0.000454 0.000000 0.007820 0.000000
# 2 -0.004297 0.011879 -0.000122 0.000000 -0.000701 0.000000
# 3 -0.000454 -0.000122 0.004864 0.000000 0.000315 0.000000
# 4 0.000000 0.000000 0.000000 -0.219774 0.000000 -0.147302
# 5 0.007820 -0.000701 0.000315 0.000000 0.025885 0.000000
# 6 0.000000 0.000000 0.000000 -0.147302 0.000000 -0.146253
#
#
# Mechanical properties :
#
#
# Convention : Reuss Voigt Hill
#
# Bulk Modulus (GPa) = 41.18801 50.45983 45.82392
# Shear Modulus (GPa) = -17.34461 24.33753 3.49646
#
# Velocity S-wave (km/s) = -2.74526 3.25192 1.23258
# Velocity P-wave (km/s) = 2.80145 6.00212 4.68367
#
# Compressibility (1/GPa) = 0.02427891
#
# Stress axis : x y z
#
# Youngs Moduli (GPa) = 57.85552 84.18279 205.61176
#
# Poissons Ratio (x) = 0.36177 0.09337
# Poissons Ratio (y) = 0.24863 0.02517
# Poissons Ratio (z) = 0.02627 0.01030
#
# Static dielectric constant tensor:
#      x y z
#    x 1.880190 0.000000 0.010220 
#    y 0.000000 1.826780 0.000000 
#    z 0.010220 0.000000 1.967480 
# 
# From -- ./inp_files/45311.got.cif
#   From: 2010.05.17/outbox.cif.g08.bks.cpg/sg12_23_cif.got.tgz:45311.got - 2010.06.03 13:09:07.
