data_PCOD9178021
_publ_section_title
;
Structure prediction by ZEFSAII (Michael W. Deem and Ramdas Pophale) SiO2 
 PCOD9178021
Probable space group: C 2/M
;
_chemical_formula_sum "Si O2"
_cell_formula_units_Z 40
_cell_length_a 17.496287
_cell_length_b 14.396157
_cell_length_c 12.756648
_cell_angle_alpha 90.000000
_cell_angle_beta 121.167914
_cell_angle_gamma 90.000000
_cell_volume 2749.332964
_symmetry_space_group_name_H-M "C 2/M"
_symmetry_group_IT_number 12
_symmetry_cell_setting 'monoclinic'
loop_
_space_group_symop_operation_xyz
x,y,z
-x,y,-z
-x,-y,-z
x,-y,z
1/2+x,1/2+y,z
1/2-x,1/2+y,-z
1/2-x,1/2-y,-z
1/2+x,1/2-y,z
loop_
_atom_site_type_symbol
_atom_site_label
_atom_site_fract_x
_atom_site_fract_y
_atom_site_fract_z
Si Si1 0.134126 0.393100 0.922171
Si Si2 0.075256 0.608734 0.273198
Si Si3 0.250949 0.889552 0.203398
Si Si4 0.904115 0.612825 0.475968
Si Si5 0.104616 0.736270 0.096364
O O1 0.145656 0.500000 0.966129
O O2 0.202368 0.375076 0.876445
O O3 0.033036 0.386727 0.805694
O O4 0.140529 0.323464 0.023485
O O5 0.098740 0.500000 0.273249
O O6 0.106928 0.639507 0.410633
O O7 0.109198 0.672534 0.203266
O O8 0.323270 0.860498 0.342761
O O9 0.162803 0.828305 0.149523
O O10 0.234370 0.000000 0.202843
O O11 0.907543 0.500000 0.477271
O O12 0.000000 0.645346 0.500000
O O13 0.000000 0.755412 0.000000
#
# Coordination Sequence:
#
# PCOD9178021 Si02
#       5
#     8   8   8   8   8
#     4   9  16  29  48  67  87 112 144 183 223 257
#     4   9  16  28  47  69  91 111 136 180 231 264
#     4  10  19  30  46  65  87 119 152 178 208 254
#     4   9  15  27  47  68  87 108 140 183 226 260
#     4  10  20  30  42  65  95 120 144 174 213 260
#
# _framework density 14.548983
#
# number of rings (size 3 to 8) (size 9 to 14) (size 15 to 20)
#    0.000    2.600    2.000    1.200    0.000    3.600 
#    0.000    0.000    0.000    0.000    0.000    0.000 
#    0.000    2.400    0.000    0.000    0.000    0.000 
#
# Total GULP energy -111421.956724 kJ/mol
# GULP energy per Si atom -5571.097836 kJ/mol
# Density = 1.451587 g / cm^3
# Si number density = 14.548983 Si / 1000 Ang^3
#
#
#
# Elastic Constant Matrix: (Units=GPa)
#
#
# Indices 1 2 3 4 5 6 
#
# 1 73.7131 56.5838 55.5357 0.0000 -7.8260 0.0000
# 2 56.5838 65.5783 52.1938 0.0000 -1.8933 0.0000
# 3 55.5357 52.1938 109.7491 0.0000 -11.4085 0.0000
# 4 0.0000 0.0000 0.0000 11.6452 0.0000 8.7947
# 5 -7.8260 -1.8933 -11.4085 0.0000 15.2825 0.0000
# 6 0.0000 0.0000 0.0000 8.7947 0.0000 19.1209
#
#
#
# Elastic Compliance Matrix: (Units=1/GPa)
#
#
# Indices 1 2 3 4 5 6 
#
# 1 0.046097 -0.035479 -0.004831 0.000000 0.015604 0.000000
# 2 -0.035479 0.052387 -0.008863 0.000000 -0.018294 0.000000
# 3 -0.004831 -0.008863 0.016696 0.000000 0.008891 0.000000
# 4 0.000000 0.000000 0.000000 0.131578 0.000000 -0.060520
# 5 0.015604 -0.018294 0.008891 0.000000 0.077796 0.000000
# 6 0.000000 0.000000 0.000000 -0.060520 0.000000 0.080135
#
#
# Mechanical properties :
#
#
# Convention : Reuss Voigt Hill
#
# Bulk Modulus (GPa) = 59.40249 64.18523 61.79386
# Shear Modulus (GPa) = 9.83003 14.85817 12.34410
#
# Velocity S-wave (km/s) = 2.60215 3.19917 2.91598
# Velocity P-wave (km/s) = 7.06726 7.60649 7.34183
#
# Compressibility (1/GPa) = 0.01683431
#
# Stress axis : x y z
#
# Youngs Moduli (GPa) = 21.69342 19.08871 59.89609
#
# Poissons Ratio (x) = 0.67724 0.28938
# Poissons Ratio (y) = 0.76965 0.53083
# Poissons Ratio (z) = 0.10481 0.16917
#
# Static dielectric constant tensor:
#      x y z
#    x 1.466790 0.000000 -0.009870 
#    y 0.000000 1.457880 0.000000 
#    z -0.009870 0.000000 1.482730 
# 
# From -- ./inp_files/221232.got.cif
#   From: 2010.05.17/outbox.cif.g08.bks.cpg/sg12_111_cif.got.tgz:221232.got - 2010.06.03 13:09:07.
