data_PCOD9178954
_publ_section_title
;
Structure prediction by ZEFSAII (Michael W. Deem and Ramdas Pophale) SiO2 
 PCOD9178954
Probable space group: C 2/M
;
_chemical_formula_sum "Si O2"
_cell_formula_units_Z 52
_cell_length_a 5.504172
_cell_length_b 19.141536
_cell_length_c 24.267388
_cell_angle_alpha 90.000000
_cell_angle_beta 123.708070
_cell_angle_gamma 90.000000
_cell_volume 2126.916262
_symmetry_space_group_name_H-M "C 2/M"
_symmetry_group_IT_number 12
_symmetry_cell_setting 'monoclinic'
loop_
_space_group_symop_operation_xyz
x,y,z
-x,y,-z
-x,-y,-z
x,-y,z
1/2+x,1/2+y,z
1/2-x,1/2+y,-z
1/2-x,1/2-y,-z
1/2+x,1/2-y,z
loop_
_atom_site_type_symbol
_atom_site_label
_atom_site_fract_x
_atom_site_fract_y
_atom_site_fract_z
Si Si1 0.149512 0.840503 0.958942
Si Si2 0.871659 0.084389 0.423492
Si Si3 0.766645 0.079867 0.632910
Si Si4 0.873451 0.258128 0.288699
Si Si5 0.744100 0.111309 0.218819
Si Si6 0.652138 0.500000 0.959966
Si Si7 0.370083 0.367537 0.826475
O O1 0.976557 0.809839 0.885329
O O2 0.084885 0.921325 0.932587
O O3 0.500000 0.828578 0.000000
O O4 0.000000 0.828478 0.000000
O O5 0.536099 0.109937 0.381563
O O6 0.000000 0.096667 0.500000
O O7 0.084045 0.112344 0.402395
O O8 0.862764 0.000000 0.412873
O O9 0.022051 0.078559 0.710313
O O10 0.687358 0.000000 0.608027
O O11 0.716828 0.250434 0.326916
O O12 0.752370 0.193525 0.236007
O O13 0.768852 0.326289 0.243432
O O14 0.411587 0.089141 0.187967
O O15 0.851278 0.098625 0.170057
O O16 0.500000 0.500000 0.000000
O O17 0.000000 0.500000 0.000000
#
# Coordination Sequence:
#
# PCOD9178954 Si02
#       7
#     8   8   8   8   8   4   8
#     4  10  19  33  51  70  94 124 161 204 248 296
#     4   9  17  30  49  71 101 142 174 199 235 280
#     4  10  19  31  47  73 108 135 166 204 237 287
#     4   8  16  30  50  66  89 119 159 197 244 286
#     4  10  19  33  49  70 100 133 158 202 248 289
#     4   8  16  30  46  64  88 118 154 190 223 278
#     4  10  19  33  52  73  94 126 162 209 248 303
#
# _framework density 24.448542
#
# number of rings (size 3 to 8) (size 9 to 14) (size 15 to 20)
#    0.000    2.615    0.000    2.308    0.000    1.846 
#    2.769    0.000    0.000   24.923    0.000    0.000 
#    0.000  110.769    0.000    0.000    0.000    0.000 
#
# Total GULP energy -144862.130732 kJ/mol
# GULP energy per Si atom -5571.620413 kJ/mol
# Density = 2.439290 g / cm^3
# Si number density = 24.448542 Si / 1000 Ang^3
#
#
#
# Elastic Constant Matrix: (Units=GPa)
#
#
# Indices 1 2 3 4 5 6 
#
# 1 238.3518 -7.4904 37.0077 0.0000 -14.7931 0.0000
# 2 -7.4904 50.5992 -5.5848 0.0000 2.9575 0.0000
# 3 37.0077 -5.5848 62.4036 0.0000 -1.7493 0.0000
# 4 0.0000 0.0000 0.0000 6.6341 0.0000 5.2309
# 5 -14.7931 2.9575 -1.7493 0.0000 48.9268 0.0000
# 6 0.0000 0.0000 0.0000 5.2309 0.0000 3.2925
#
#
#
# Elastic Compliance Matrix: (Units=1/GPa)
#
#
# Indices 1 2 3 4 5 6 
#
# 1 0.004710 0.000320 -0.002728 0.000000 0.001307 0.000000
# 2 0.000320 0.020046 0.001575 0.000000 -0.001059 0.000000
# 3 -0.002728 0.001575 0.017776 0.000000 -0.000284 0.000000
# 4 0.000000 0.000000 0.000000 -0.596530 0.000000 0.947728
# 5 0.001307 -0.001059 -0.000284 0.000000 0.020888 0.000000
# 6 0.000000 0.000000 0.000000 0.947728 0.000000 -1.201964
#
#
# Mechanical properties :
#
#
# Convention : Reuss Voigt Hill
#
# Bulk Modulus (GPa) = 24.47100 44.35772 34.41436
# Shear Modulus (GPa) = -2.90734 33.59881 15.34574
#
# Velocity S-wave (km/s) = -1.09167 3.71113 2.50806
# Velocity P-wave (km/s) = 2.90550 6.04533 4.74278
#
# Compressibility (1/GPa) = 0.04086470
#
# Stress axis : x y z
#
# Youngs Moduli (GPa) = 212.30343 49.88483 56.25715
#
# Poissons Ratio (x) = -0.01595 0.15347
# Poissons Ratio (y) = -0.06789 -0.08859
# Poissons Ratio (z) = 0.57918 -0.07855
#
# Static dielectric constant tensor:
#      x y z
#    x 2.104740 0.000000 -0.042270 
#    y 0.000000 2.335670 0.000000 
#    z -0.042270 0.000000 2.185510 
# 
# From -- ./inp_files/253600.got.cif
#   From: 2010.05.17/outbox.cif.g08.bks.cpg/sg12_127_cif.got.tgz:253600.got - 2010.06.03 13:09:07.
