data_PCOD9178820
_publ_section_title
;
Structure prediction by ZEFSAII (Michael W. Deem and Ramdas Pophale) SiO2 
 PCOD9178820
Probable space group: C 2/M
;
_chemical_formula_sum "Si O2"
_cell_formula_units_Z 44
_cell_length_a 19.686197
_cell_length_b 24.378929
_cell_length_c 14.725906
_cell_angle_alpha 90.000000
_cell_angle_beta 21.113856
_cell_angle_gamma 90.000000
_cell_volume 2545.828877
_symmetry_space_group_name_H-M "C 2/M"
_symmetry_group_IT_number 12
_symmetry_cell_setting 'monoclinic'
loop_
_space_group_symop_operation_xyz
x,y,z
-x,y,-z
-x,-y,-z
x,-y,z
1/2+x,1/2+y,z
1/2-x,1/2+y,-z
1/2-x,1/2-y,-z
1/2+x,1/2-y,z
loop_
_atom_site_type_symbol
_atom_site_label
_atom_site_fract_x
_atom_site_fract_y
_atom_site_fract_z
Si Si1 0.746965 0.669581 0.927491
Si Si2 0.150547 0.831739 0.674694
Si Si3 0.836568 0.208972 0.776373
Si Si4 0.935744 0.711318 0.176231
Si Si5 0.000000 0.589623 0.500000
Si Si6 0.717642 0.558865 0.700479
O O1 0.857330 0.727585 0.780815
O O2 0.890572 0.624827 0.712450
O O3 0.565280 0.663012 0.088886
O O4 0.671092 0.670574 0.125337
O O5 0.146814 0.773385 0.732807
O O6 0.278134 0.821242 0.427338
O O7 0.229836 0.884269 0.628981
O O8 0.000000 0.195600 0.500000
O O9 0.626820 0.210278 0.996240
O O10 0.000000 0.688801 0.000000
O O11 0.155862 0.560178 0.366814
O O12 0.758996 0.500000 0.601194
O O13 0.500000 0.558108 0.000000
#
# Coordination Sequence:
#
# PCOD9178820 Si02
#       6
#     8   8   8   8   4   8
#     4  10  20  31  51  75 106 150 179 227 275 323
#     4  10  20  36  53  78 112 144 184 224 276 325
#     4  10  19  31  46  75 111 143 187 219 268 334
#     4  10  20  31  54  79 109 148 179 223 273 331
#     4  12  21  36  56  80 110 144 186 230 277 330
#     4  11  23  38  57  80 110 145 186 231 277 326
#
# _framework density 17.283173000000001
#
# number of rings (size 3 to 8) (size 9 to 14) (size 15 to 20)
#    0.000    1.636    2.727    3.000    2.545    2.909 
#    0.000    0.000    0.000    0.545    0.000    0.000 
#    0.000    7.273    0.000    0.000    0.000    0.000 
#
# Total GULP energy -122569.115506 kJ/mol
# GULP energy per Si atom -5571.323432 kJ/mol
# Density = 1.724384 g / cm^3
# Si number density = 17.283173 Si / 1000 Ang^3
#
#
#
# Elastic Constant Matrix: (Units=GPa)
#
#
# Indices 1 2 3 4 5 6 
#
# 1 72.3140 39.6796 19.7267 0.1207 -2.6755 -0.1103
# 2 39.6796 92.6155 26.9040 -0.1171 2.1288 0.0832
# 3 19.7267 26.9040 95.6176 0.0812 7.4177 -0.0798
# 4 0.1207 -0.1171 0.0812 73.2655 -0.0794 -43.2122
# 5 -2.6755 2.1288 7.4177 -0.0794 37.2866 0.0745
# 6 -0.1103 0.0832 -0.0798 -43.2122 0.0745 49.1335
#
#
#
# Elastic Compliance Matrix: (Units=1/GPa)
#
#
# Indices 1 2 3 4 5 6 
#
# 1 0.018497 -0.007424 -0.001892 -0.000020 0.002127 0.000030
# 2 -0.007424 0.014738 -0.002548 0.000024 -0.000867 -0.000024
# 3 -0.001892 -0.002548 0.011746 -0.000006 -0.002327 0.000017
# 4 -0.000020 0.000024 -0.000006 0.028360 0.000009 0.024942
# 5 0.002127 -0.000867 -0.002327 0.000009 0.027484 -0.000031
# 6 0.000030 -0.000024 0.000017 0.024942 -0.000031 0.042289
#
#
# Mechanical properties :
#
#
# Convention : Reuss Voigt Hill
#
# Bulk Modulus (GPa) = 47.05222 48.12975 47.59099
# Shear Modulus (GPa) = 28.74748 43.55290 36.15019
#
# Velocity S-wave (km/s) = 4.08281 5.02537 4.57841
# Velocity P-wave (km/s) = 7.03628 7.84733 7.45284
#
# Compressibility (1/GPa) = 0.02125298
#
# Stress axis : x y z
#
# Youngs Moduli (GPa) = 54.06201 67.85068 85.13406
#
# Poissons Ratio (x) = 0.50373 0.16109
# Poissons Ratio (y) = 0.40136 0.21692
# Poissons Ratio (z) = 0.10230 0.17288
#
# Static dielectric constant tensor:
#      x y z
#    x 1.627320 -0.000040 -0.013900 
#    y -0.000040 1.605190 0.000030 
#    z -0.013900 0.000030 1.579320 
# 
# From -- ./inp_files/235412.got.cif
#   From: 2010.05.17/outbox.cif.g08.bks.cpg/sg12_118_cif.got.tgz:235412.got - 2010.06.03 13:09:07.
