data_PCOD9178037
_publ_section_title
;
Structure prediction by ZEFSAII (Michael W. Deem and Ramdas Pophale) SiO2 
 PCOD9178037
Probable space group: C 2/M
;
_chemical_formula_sum "Si O2"
_cell_formula_units_Z 64
_cell_length_a 23.449854
_cell_length_b 9.262520
_cell_length_c 15.160821
_cell_angle_alpha 90.000000
_cell_angle_beta 115.874710
_cell_angle_gamma 90.000000
_cell_volume 2962.880361
_symmetry_space_group_name_H-M "C 2/M"
_symmetry_group_IT_number 12
_symmetry_cell_setting 'monoclinic'
loop_
_space_group_symop_operation_xyz
x,y,z
-x,y,-z
-x,-y,-z
x,-y,z
1/2+x,1/2+y,z
1/2-x,1/2+y,-z
1/2-x,1/2-y,-z
1/2+x,1/2-y,z
loop_
_atom_site_type_symbol
_atom_site_label
_atom_site_fract_x
_atom_site_fract_y
_atom_site_fract_z
Si Si1 0.083795 0.662040 0.794068
Si Si2 0.255758 0.828927 0.363395
Si Si3 0.157473 0.824661 0.430915
Si Si4 0.505149 0.333612 0.146739
Si Si5 0.157428 0.161549 0.696591
Si Si6 0.552193 0.662092 0.474471
Si Si7 0.606547 0.333662 0.077471
Si Si8 0.805036 0.336374 0.986051
O O1 0.070346 0.500000 0.753959
O O2 0.022581 0.737418 0.794268
O O3 0.116640 0.755928 0.741158
O O4 0.136382 0.655289 0.906370
O O5 0.184978 0.800822 0.351807
O O6 0.299225 0.768305 0.473015
O O7 0.280962 0.747425 0.294535
O O8 0.264708 0.000000 0.359131
O O9 0.085652 0.784298 0.408153
O O10 0.164273 0.000000 0.450813
O O11 0.515544 0.500000 0.181685
O O12 0.567876 0.282139 0.137456
O O13 0.448232 0.336480 0.035379
O O14 0.111376 0.151158 0.580938
O O15 0.172725 0.000000 0.735889
O O16 0.500000 0.739664 0.500000
O O17 0.526928 0.500000 0.437293
O O18 0.626489 0.500000 0.105646
O O19 0.664866 0.243000 0.078511
O O20 0.784517 0.500000 0.952857
O O21 0.750000 0.250000 0.000000
#
# Coordination Sequence:
#
# PCOD9178037 Si02
#       8
#     8   8   8   8   8   8   8   8
#     4  10  20  32  47  69  95 122 153 190 231 274
#     4   9  15  24  40  62  88 114 144 186 228 264
#     4   8  14  24  40  63  87 113 146 182 222 266
#     4   8  14  26  45  68  92 119 151 187 227 269
#     4  10  19  30  46  67  90 119 153 186 226 275
#     4   8  14  26  45  68  91 114 145 184 221 262
#     4   8  14  26  45  68  93 119 150 189 228 268
#     4  10  20  32  48  70  95 123 154 190 233 278
#
# _framework density 21.600601999999999
#
# number of rings (size 3 to 8) (size 9 to 14) (size 15 to 20)
#    0.000    3.125    0.000    3.000    0.000    2.500 
#    0.000    2.500    0.000   10.875    0.000    8.750 
#    0.000    0.000    0.000    0.000    0.000    0.000 
#
# Total GULP energy -178341.343029 kJ/mol
# GULP energy per Si atom -5573.166970 kJ/mol
# Density = 2.155144 g / cm^3
# Si number density = 21.600602 Si / 1000 Ang^3
#
#
#
# Elastic Constant Matrix: (Units=GPa)
#
#
# Indices 1 2 3 4 5 6 
#
# 1 184.0788 87.7326 52.1414 0.0000 -72.3901 0.0000
# 2 87.7326 131.6888 44.0265 0.0000 -52.3542 0.0000
# 3 52.1414 44.0265 55.0506 0.0000 -20.7145 0.0000
# 4 0.0000 0.0000 0.0000 18.2692 0.0000 -18.0715
# 5 -72.3901 -52.3542 -20.7145 0.0000 70.1076 0.0000
# 6 0.0000 0.0000 0.0000 -18.0715 0.0000 25.9083
#
#
#
# Elastic Compliance Matrix: (Units=1/GPa)
#
#
# Indices 1 2 3 4 5 6 
#
# 1 0.011528 -0.002388 -0.005852 0.000000 0.008391 0.000000
# 2 -0.002388 0.013665 -0.006475 0.000000 0.005826 0.000000
# 3 -0.005852 -0.006475 0.027894 0.000000 -0.002636 0.000000
# 4 0.000000 0.000000 0.000000 0.176552 0.000000 0.123148
# 5 0.008391 0.005826 -0.002636 0.000000 0.026500 0.000000
# 6 0.000000 0.000000 0.000000 0.123148 0.000000 0.124496
#
#
# Mechanical properties :
#
#
# Convention : Reuss Voigt Hill
#
# Bulk Modulus (GPa) = 42.26786 82.06880 62.16833
# Shear Modulus (GPa) = 11.96314 35.31820 23.64067
#
# Velocity S-wave (km/s) = 2.35592 4.04797 3.31183
# Velocity P-wave (km/s) = 5.19720 7.74108 6.59300
#
# Compressibility (1/GPa) = 0.02365864
#
# Stress axis : x y z
#
# Youngs Moduli (GPa) = 86.74698 73.17747 35.84984
#
# Poissons Ratio (x) = 0.17472 0.20978
# Poissons Ratio (y) = 0.20712 0.23213
# Poissons Ratio (z) = 0.50761 0.47383
#
# Static dielectric constant tensor:
#      x y z
#    x 1.831560 0.000000 0.013830 
#    y 0.000000 1.766120 0.000000 
#    z 0.013830 0.000000 1.884950 
# 
# From -- ./inp_files/287664.got.cif
#   From: 2010.05.17/outbox.cif.g08.bks.cpg/sg12_144_cif.got.tgz:287664.got - 2010.06.03 13:09:07.
