data_PCOD9178387
_publ_section_title
;
Structure prediction by ZEFSAII (Michael W. Deem and Ramdas Pophale) SiO2 
 PCOD9178387
Probable space group: C 2/M
;
_chemical_formula_sum "Si O2"
_cell_formula_units_Z 48
_cell_length_a 35.043711
_cell_length_b 10.098764
_cell_length_c 8.460892
_cell_angle_alpha 90.000000
_cell_angle_beta 50.647830
_cell_angle_gamma 90.000000
_cell_volume 2315.377407
_symmetry_space_group_name_H-M "C 2/M"
_symmetry_group_IT_number 12
_symmetry_cell_setting 'monoclinic'
loop_
_space_group_symop_operation_xyz
x,y,z
-x,y,-z
-x,-y,-z
x,-y,z
1/2+x,1/2+y,z
1/2-x,1/2+y,-z
1/2-x,1/2-y,-z
1/2+x,1/2-y,z
loop_
_atom_site_type_symbol
_atom_site_label
_atom_site_fract_x
_atom_site_fract_y
_atom_site_fract_z
Si Si1 0.672839 0.151818 0.772139
Si Si2 0.971631 0.851687 0.920382
Si Si3 0.888649 0.351707 0.576727
Si Si4 0.936648 0.351363 0.778955
Si Si5 0.718820 0.148882 0.979520
Si Si6 0.633263 0.649692 0.640338
O O1 0.709321 0.184775 0.821207
O O2 0.671755 0.259266 0.635864
O O3 0.682398 0.000000 0.693609
O O4 0.617546 0.150600 0.994042
O O5 0.914903 0.863564 0.123257
O O6 0.991065 0.000000 0.836028
O O7 0.970546 0.755070 0.775547
O O8 0.000000 0.798597 0.000000
O O9 0.898199 0.500000 0.483643
O O10 0.925977 0.327429 0.622895
O O11 0.885314 0.235166 0.459436
O O12 0.835048 0.356391 0.799429
O O13 0.956151 0.500000 0.748500
O O14 0.739739 0.000000 0.930310
O O15 0.750000 0.250000 0.000000
O O16 0.650136 0.500000 0.558308
#
# Coordination Sequence:
#
# PCOD9178387 Si02
#       6
#     8   8   8   8   8   8
#     4   8  15  30  49  67  91 123 154 187 231 276
#     4   9  18  32  48  68  96 125 152 189 237 280
#     4   9  18  33  50  69  96 126 153 188 236 279
#     4   8  15  29  49  69  88 118 160 193 221 271
#     4   9  18  32  51  73  95 122 155 190 232 279
#     4  10  19  30  48  73  94 119 159 196 227 272
#
# _framework density 20.730961000000001
#
# number of rings (size 3 to 8) (size 9 to 14) (size 15 to 20)
#    0.000    3.167    0.000    2.500    0.000    3.000 
#    0.000    5.000    0.000    5.000    0.000    0.000 
#    0.000    0.000    0.000    0.000    0.000    0.000 
#
# Total GULP energy -133853.092714 kJ/mol
# GULP energy per Si atom -5577.212196 kJ/mol
# Density = 2.068378 g / cm^3
# Si number density = 20.730961 Si / 1000 Ang^3
#
#
#
# Elastic Constant Matrix: (Units=GPa)
#
#
# Indices 1 2 3 4 5 6 
#
# 1 107.6635 96.7944 14.4203 0.0000 34.1372 0.0000
# 2 96.7944 177.9119 45.7380 0.0000 59.3351 0.0000
# 3 14.4203 45.7380 38.1903 0.0000 10.1065 0.0000
# 4 0.0000 0.0000 0.0000 3.3699 0.0000 10.2881
# 5 34.1372 59.3351 10.1065 0.0000 41.2954 0.0000
# 6 0.0000 0.0000 0.0000 10.2881 0.0000 34.2086
#
#
#
# Elastic Compliance Matrix: (Units=1/GPa)
#
#
# Indices 1 2 3 4 5 6 
#
# 1 0.019663 -0.012766 0.007818 0.000000 0.000175 0.000000
# 2 -0.012766 0.023585 -0.018445 0.000000 -0.018821 0.000000
# 3 0.007818 -0.018445 0.042792 0.000000 0.009567 0.000000
# 4 0.000000 0.000000 0.000000 3.626447 0.000000 -1.090641
# 5 0.000175 -0.018821 0.009567 0.000000 0.048772 0.000000
# 6 0.000000 0.000000 0.000000 -1.090641 0.000000 0.357239
#
#
# Mechanical properties :
#
#
# Convention : Reuss Voigt Hill
#
# Bulk Modulus (GPa) = 25.47567 70.85235 48.16401
# Shear Modulus (GPa) = 1.19664 26.89562 14.04613
#
# Velocity S-wave (km/s) = 0.76058 3.60580 2.60579
# Velocity P-wave (km/s) = 3.61755 7.18241 5.68655
#
# Compressibility (1/GPa) = 0.03925314
#
# Stress axis : x y z
#
# Youngs Moduli (GPa) = 50.85757 42.39977 23.36910
#
# Poissons Ratio (x) = 0.54127 -0.18270
# Poissons Ratio (y) = 0.64925 0.43105
# Poissons Ratio (z) = -0.39762 0.78208
#
# Static dielectric constant tensor:
#      x y z
#    x 1.737250 0.000000 -0.032300 
#    y 0.000000 1.759110 0.000000 
#    z -0.032300 0.000000 1.777190 
# 
# From -- ./inp_files/109357.got.cif
#   From: 2010.05.17/outbox.cif.g08.bks.cpg/sg12_55_cif.got.tgz:109357.got - 2010.06.03 13:09:07.
