data_PCOD9178929
_publ_section_title
;
Structure prediction by ZEFSAII (Michael W. Deem and Ramdas Pophale) SiO2 
 PCOD9178929
Probable space group: C 2/M
;
_chemical_formula_sum "Si O2"
_cell_formula_units_Z 64
_cell_length_a 26.101717
_cell_length_b 8.721275
_cell_length_c 21.856110
_cell_angle_alpha 90.000000
_cell_angle_beta 53.452189
_cell_angle_gamma 90.000000
_cell_volume 3996.982541
_symmetry_space_group_name_H-M "C 2/M"
_symmetry_group_IT_number 12
_symmetry_cell_setting 'monoclinic'
loop_
_space_group_symop_operation_xyz
x,y,z
-x,y,-z
-x,-y,-z
x,-y,z
1/2+x,1/2+y,z
1/2-x,1/2+y,-z
1/2-x,1/2-y,-z
1/2+x,1/2-y,z
loop_
_atom_site_type_symbol
_atom_site_label
_atom_site_fract_x
_atom_site_fract_y
_atom_site_fract_z
Si Si1 0.541856 0.313395 0.912693
Si Si2 0.988402 0.183687 0.818612
Si Si3 0.765288 0.316501 0.086508
Si Si4 0.892812 0.315765 0.334369
Si Si5 0.694093 0.183716 0.496833
Si Si6 0.651403 0.183510 0.089944
Si Si7 0.230367 0.683477 0.661458
Si Si8 0.189465 0.815868 0.817535
O O1 0.541425 0.500000 0.913566
O O2 0.511809 0.265138 0.869569
O O3 0.615300 0.265337 0.866145
O O4 0.500000 0.260551 0.000000
O O5 0.919938 0.255475 0.853626
O O6 0.043063 0.235798 0.732922
O O7 0.983304 0.000000 0.822376
O O8 0.763457 0.500000 0.092891
O O9 0.699120 0.255997 0.105534
O O10 0.781473 0.243477 0.139941
O O11 0.819198 0.274987 0.997612
O O12 0.899968 0.500000 0.325430
O O13 0.869580 0.277404 0.419734
O O14 0.834564 0.272835 0.329675
O O15 0.750000 0.250000 0.500000
O O16 0.709840 0.252598 0.419627
O O17 0.699022 0.000000 0.491043
O O18 0.652971 0.000000 0.094271
O O19 0.233076 0.500000 0.660603
O O20 0.224851 0.750323 0.732982
O O21 0.191157 0.000000 0.814824
#
# Coordination Sequence:
#
# PCOD9178929 Si02
#       8
#     8   8   8   8   8   8   8   8
#     4   9  18  30  44  67  99 133 167 201 243 297
#     4  11  20  31  50  74 101 134 170 209 250 299
#     4  10  21  37  55  75  98 128 170 217 260 302
#     4   9  18  31  46  68 101 135 166 206 250 298
#     4   9  17  29  46  68  96 132 170 206 250 299
#     4  10  21  37  55  74  98 130 169 215 262 303
#     4  10  19  31  47  70 102 136 170 209 249 297
#     4  11  20  32  51  74 103 136 169 208 253 303
#
# _framework density 16.012079
#
# number of rings (size 3 to 8) (size 9 to 14) (size 15 to 20)
#    0.000    2.125    1.250    3.750    0.000    5.000 
#    0.000    0.000    0.000    3.000    0.000    0.875 
#    0.000    7.000    0.000    0.000    0.000    0.000 
#
# Total GULP energy -178524.180474 kJ/mol
# GULP energy per Si atom -5578.880640 kJ/mol
# Density = 1.597564 g / cm^3
# Si number density = 16.012079 Si / 1000 Ang^3
#
#
#
# Elastic Constant Matrix: (Units=GPa)
#
#
# Indices 1 2 3 4 5 6 
#
# 1 72.6057 28.5683 57.3379 -0.0046 -5.3366 0.0027
# 2 28.5683 46.8545 41.7905 -0.0067 -2.4707 0.0066
# 3 57.3379 41.7905 139.1407 -0.0059 -5.9346 0.0052
# 4 -0.0046 -0.0067 -0.0059 27.2939 -0.0023 0.7932
# 5 -5.3366 -2.4707 -5.9346 -0.0023 17.5460 0.0014
# 6 0.0027 0.0066 0.0052 0.7932 0.0014 21.5664
#
#
#
# Elastic Compliance Matrix: (Units=1/GPa)
#
#
# Indices 1 2 3 4 5 6 
#
# 1 0.022315 -0.007312 -0.006853 0.000001 0.003439 0.000001
# 2 -0.007312 0.031572 -0.006468 0.000005 0.000034 -0.000007
# 3 -0.006853 -0.006468 0.011999 0.000000 0.001063 0.000000
# 4 0.000001 0.000005 0.000000 0.036677 0.000006 -0.001349
# 5 0.003439 0.000034 0.001063 0.000006 0.058404 -0.000005
# 6 0.000001 -0.000007 0.000000 -0.001349 -0.000005 0.046418
#
#
# Mechanical properties :
#
#
# Convention : Reuss Voigt Hill
#
# Bulk Modulus (GPa) = 40.61790 57.11045 48.86418
# Shear Modulus (GPa) = 19.46615 22.00820 20.73717
#
# Velocity S-wave (km/s) = 3.49050 3.71141 3.60265
# Velocity P-wave (km/s) = 6.45499 7.35599 6.92017
#
# Compressibility (1/GPa) = 0.02461969
#
# Stress axis : x y z
#
# Youngs Moduli (GPa) = 44.81366 31.67402 83.34228
#
# Poissons Ratio (x) = 0.23161 0.57111
# Poissons Ratio (y) = 0.32770 0.53903
# Poissons Ratio (z) = 0.30709 0.20486
#
# Static dielectric constant tensor:
#      x y z
#    x 1.494060 0.000000 -0.005340 
#    y 0.000000 1.531690 0.000000 
#    z -0.005340 0.000000 1.542680 
# 
# From -- ./inp_files/319958.got.cif
#   From: 2010.05.17/outbox.cif.g08.bks.cpg/sg12_160_cif.got.tgz:319958.got - 2010.06.03 13:09:07.
