data_PCOD9178919
_publ_section_title
;
Structure prediction by ZEFSAII (Michael W. Deem and Ramdas Pophale) SiO2 
 PCOD9178919
Probable space group: C 2/M
;
_chemical_formula_sum "Si O2"
_cell_formula_units_Z 58
_cell_length_a 19.522219
_cell_length_b 7.750469
_cell_length_c 22.496106
_cell_angle_alpha 90.000000
_cell_angle_beta 55.056011
_cell_angle_gamma 90.000000
_cell_volume 2790.140038
_symmetry_space_group_name_H-M "C 2/M"
_symmetry_group_IT_number 12
_symmetry_cell_setting 'monoclinic'
loop_
_space_group_symop_operation_xyz
x,y,z
-x,y,-z
-x,-y,-z
x,-y,z
1/2+x,1/2+y,z
1/2-x,1/2+y,-z
1/2-x,1/2-y,-z
1/2+x,1/2-y,z
loop_
_atom_site_type_symbol
_atom_site_label
_atom_site_fract_x
_atom_site_fract_y
_atom_site_fract_z
Si Si1 0.779059 0.800611 0.693144
Si Si2 0.000000 0.500000 0.500000
Si Si3 0.096795 0.798795 0.768704
Si Si4 0.178743 0.206465 0.989088
Si Si5 0.504065 0.710450 0.929206
Si Si6 0.780761 0.709019 0.828920
Si Si7 0.033323 0.299085 0.266247
Si Si8 0.469048 0.701350 0.598304
O O1 0.695371 0.719791 0.708335
O O2 0.770975 0.780090 0.768086
O O3 0.872690 0.735840 0.633401
O O4 0.778473 0.000000 0.676987
O O5 0.978134 0.344406 0.462053
O O6 0.072213 0.730763 0.847017
O O7 0.038354 0.721498 0.746788
O O8 0.075986 0.000000 0.779455
O O9 0.086305 0.263896 0.051565
O O10 0.173586 0.000000 0.987106
O O11 0.250000 0.250000 0.000000
O O12 0.211004 0.271239 0.909308
O O13 0.511917 0.500000 0.928680
O O14 0.500000 0.768543 0.000000
O O15 0.774187 0.500000 0.828686
O O16 0.874749 0.755573 0.803093
O O17 0.041576 0.500000 0.277152
O O18 0.018190 0.208030 0.336840
O O19 0.478298 0.500000 0.576352
#
# Coordination Sequence:
#
# PCOD9178919 Si02
#       8
#     8   2   8   8   8   8   8   8
#     4  10  21  36  56  84 113 146 191 241 286 338
#     4  12  22  40  72 102 128 164 186 230 288 342
#     4  11  21  32  54  81 111 158 202 252 307 356
#     4  10  19  31  47  69  99 140 184 239 299 357
#     4   9  18  32  48  70 103 146 201 251 303 363
#     4   9  18  32  53  74 103 143 191 246 300 350
#     4  10  19  35  56  85 119 153 199 252 300 352
#     4  10  22  40  65  99 128 158 198 236 285 349
#
# _framework density 20.787488
#
# number of rings (size 3 to 8) (size 9 to 14) (size 15 to 20)
#    0.000    2.069    0.690    3.103    1.931    3.310 
#    0.000    0.690    0.000    3.724    0.000    0.000 
#    0.000    0.000    0.000    0.000    0.000    0.000 
#
# Total GULP energy -161525.681268 kJ/mol
# GULP energy per Si atom -5569.851078 kJ/mol
# Density = 2.074017 g / cm^3
# Si number density = 20.787488 Si / 1000 Ang^3
#
#
#
# Elastic Constant Matrix: (Units=GPa)
#
#
# Indices 1 2 3 4 5 6 
#
# 1 88.6724 1.3893 8.8203 -0.0004 -2.7849 -0.0013
# 2 1.3893 60.5513 10.0179 -0.0014 3.1523 -0.0034
# 3 8.8203 10.0179 56.5454 0.0001 10.1934 -0.0003
# 4 -0.0004 -0.0014 0.0001 7.0710 0.0000 10.8354
# 5 -2.7849 3.1523 10.1934 0.0000 13.4107 -0.0004
# 6 -0.0013 -0.0034 -0.0003 10.8354 -0.0004 25.4911
#
#
#
# Elastic Compliance Matrix: (Units=1/GPa)
#
#
# Indices 1 2 3 4 5 6 
#
# 1 0.011677 -0.000067 -0.002607 -0.000001 0.004422 0.000001
# 2 -0.000067 0.017059 -0.002650 0.000000 -0.002010 0.000002
# 3 -0.002607 -0.002650 0.021491 -0.000001 -0.016254 0.000000
# 4 -0.000001 0.000000 -0.000001 0.405654 -0.000004 -0.172431
# 5 0.004422 -0.002010 -0.016254 -0.000004 0.088313 0.000003
# 6 0.000001 0.000002 0.000000 -0.172431 0.000003 0.112524
#
#
# Mechanical properties :
#
#
# Convention : Reuss Voigt Hill
#
# Bulk Modulus (GPa) = 25.26474 27.35825 26.31149
# Shear Modulus (GPa) = 7.34691 21.56398 14.45545
#
# Velocity S-wave (km/s) = 1.88201 3.22429 2.63989
# Velocity P-wave (km/s) = 4.11131 5.20105 4.68795
#
# Compressibility (1/GPa) = 0.03958085
#
# Stress axis : x y z
#
# Youngs Moduli (GPa) = 85.64077 58.61853 46.53117
#
# Poissons Ratio (x) = 0.00392 0.12129
# Poissons Ratio (y) = 0.00573 0.12329
# Poissons Ratio (z) = 0.22324 0.15531
#
# Static dielectric constant tensor:
#      x y z
#    x 1.839900 -0.000020 -0.118270 
#    y -0.000020 2.248180 0.000020 
#    z -0.118270 0.000020 1.897330 
# 
# From -- ./inp_files/314785.got.cif
#   From: 2010.05.17/outbox.cif.g08.bks.cpg/sg12_158_cif.got.tgz:314785.got - 2010.06.03 13:09:07.
