data_PCOD9178281
_publ_section_title
;
Structure prediction by ZEFSAII (Michael W. Deem and Ramdas Pophale) SiO2 
 PCOD9178281
Probable space group: C 2/M
;
_chemical_formula_sum "Si O2"
_cell_formula_units_Z 40
_cell_length_a 16.068932
_cell_length_b 9.235688
_cell_length_c 13.544254
_cell_angle_alpha 90.000000
_cell_angle_beta 61.662802
_cell_angle_gamma 90.000000
_cell_volume 1769.202768
_symmetry_space_group_name_H-M "C 2/M"
_symmetry_group_IT_number 12
_symmetry_cell_setting 'monoclinic'
loop_
_space_group_symop_operation_xyz
x,y,z
-x,y,-z
-x,-y,-z
x,-y,z
1/2+x,1/2+y,z
1/2-x,1/2+y,-z
1/2-x,1/2-y,-z
1/2+x,1/2-y,z
loop_
_atom_site_type_symbol
_atom_site_label
_atom_site_fract_x
_atom_site_fract_y
_atom_site_fract_z
Si Si1 0.117611 0.327558 0.543400
Si Si2 0.891888 0.326310 0.669758
Si Si3 0.222073 0.831370 0.882573
Si Si4 0.557065 0.835911 0.072071
Si Si5 0.610243 0.333203 0.737269
O O1 0.136640 0.500000 0.538722
O O2 0.140531 0.273599 0.420239
O O3 0.155610 0.245817 0.617616
O O4 0.003546 0.305542 0.614498
O O5 0.877338 0.500000 0.675655
O O6 0.826568 0.275017 0.796276
O O7 0.171456 0.827728 0.802938
O O8 0.221886 0.000000 0.914815
O O9 0.157598 0.734737 0.989653
O O10 0.488625 0.742210 0.178833
O O11 0.566015 0.000000 0.104878
O O12 0.500000 0.842163 0.000000
O O13 0.595534 0.500000 0.719933
#
# Coordination Sequence:
#
# PCOD9178281 Si02
#       5
#     8   8   8   8   8
#     4   9  17  32  52  70  92 125 162 194 227 274
#     4   8  16  32  52  70  91 125 162 193 230 275
#     4   9  17  31  50  71  96 124 155 192 234 279
#     4   9  17  30  48  70  95 123 156 193 233 277
#     4  10  19  30  47  72  99 125 153 190 237 282
#
# _framework density 22.609052999999999
#
# number of rings (size 3 to 8) (size 9 to 14) (size 15 to 20)
#    0.000    3.000    0.000    2.400    0.000    4.000 
#    0.000    5.000    0.000    0.000    0.000    0.000 
#    0.000    0.000    0.000    0.000    0.000    0.000 
#
# Total GULP energy -111751.742352 kJ/mol
# GULP energy per Si atom -5587.587118 kJ/mol
# Density = 2.255759 g / cm^3
# Si number density = 22.609053 Si / 1000 Ang^3
#
#
#
# Elastic Constant Matrix: (Units=GPa)
#
#
# Indices 1 2 3 4 5 6 
#
# 1 65.7558 9.8475 9.8530 0.0000 -2.9999 0.0000
# 2 9.8475 73.1790 29.3821 0.0000 3.2801 0.0000
# 3 9.8530 29.3821 119.8462 0.0000 0.2573 0.0000
# 4 0.0000 0.0000 0.0000 27.9125 0.0000 5.0353
# 5 -2.9999 3.2801 0.2573 0.0000 49.3276 0.0000
# 6 0.0000 0.0000 0.0000 5.0353 0.0000 11.8130
#
#
#
# Elastic Compliance Matrix: (Units=1/GPa)
#
#
# Indices 1 2 3 4 5 6 
#
# 1 0.015655 -0.001816 -0.000844 0.000000 0.001077 0.000000
# 2 -0.001816 0.015416 -0.003628 0.000000 -0.001117 0.000000
# 3 -0.000844 -0.003628 0.009303 0.000000 0.000141 0.000000
# 4 0.000000 0.000000 0.000000 0.038810 0.000000 -0.016543
# 5 0.001077 -0.001117 0.000141 0.000000 0.020412 0.000000
# 6 0.000000 0.000000 0.000000 -0.016543 0.000000 0.091704
#
#
# Mechanical properties :
#
#
# Convention : Reuss Voigt Hill
#
# Bulk Modulus (GPa) = 35.97375 39.66069 37.81722
# Shear Modulus (GPa) = 23.45851 31.79053 27.62452
#
# Velocity S-wave (km/s) = 3.22463 3.75386 3.49927
# Velocity P-wave (km/s) = 5.45986 6.03065 5.75234
#
# Compressibility (1/GPa) = 0.02779804
#
# Stress axis : x y z
#
# Youngs Moduli (GPa) = 63.87581 64.86703 107.49757
#
# Poissons Ratio (x) = 0.11780 0.09075
# Poissons Ratio (y) = 0.11600 0.38998
# Poissons Ratio (z) = 0.05392 0.23532
#
# Static dielectric constant tensor:
#      x y z
#    x 1.986010 0.000000 0.002140 
#    y 0.000000 1.756430 0.000000 
#    z 0.002140 0.000000 1.833850 
# 
# From -- ./inp_files/220583.got.cif
#   From: 2010.05.17/outbox.cif.g08.bks.cpg/sg12_111_cif.got.tgz:220583.got - 2010.06.03 13:09:07.
