data_PCOD9178001
_publ_section_title
;
Structure prediction by ZEFSAII (Michael W. Deem and Ramdas Pophale) SiO2 
 PCOD9178001
Probable space group: C 2/M
;
_chemical_formula_sum "Si O2"
_cell_formula_units_Z 58
_cell_length_a 24.977886
_cell_length_b 7.798326
_cell_length_c 11.989316
_cell_angle_alpha 90.000000
_cell_angle_beta 112.730008
_cell_angle_gamma 90.000000
_cell_volume 2153.974520
_symmetry_space_group_name_H-M "C 2/M"
_symmetry_group_IT_number 12
_symmetry_cell_setting 'monoclinic'
loop_
_space_group_symop_operation_xyz
x,y,z
-x,y,-z
-x,-y,-z
x,-y,z
1/2+x,1/2+y,z
1/2-x,1/2+y,-z
1/2-x,1/2-y,-z
1/2+x,1/2-y,z
loop_
_atom_site_type_symbol
_atom_site_label
_atom_site_fract_x
_atom_site_fract_y
_atom_site_fract_z
Si Si1 0.813474 0.796655 0.657310
Si Si2 0.056264 0.207469 0.152823
Si Si3 0.010204 0.692414 0.344896
Si Si4 0.779765 0.700738 0.863220
Si Si5 0.000000 0.000000 0.500000
Si Si6 0.095588 0.801500 0.951127
Si Si7 0.154544 0.800077 0.792602
Si Si8 0.356451 0.193139 0.461914
O O1 0.879264 0.753080 0.749314
O O2 0.775766 0.714448 0.724914
O O3 0.813713 0.743341 0.528312
O O4 0.805785 0.000000 0.656512
O O5 0.013413 0.276248 0.213984
O O6 0.059323 0.270043 0.027165
O O7 0.051525 0.000000 0.147018
O O8 0.989814 0.500000 0.355640
O O9 0.984948 0.849192 0.394558
O O10 0.078361 0.701933 0.437453
O O11 0.786313 0.500000 0.895664
O O12 0.837601 0.795871 0.948815
O O13 0.719319 0.772858 0.861238
O O14 0.077146 0.000000 0.926078
O O15 0.106523 0.722634 0.837077
O O16 0.143191 0.794781 0.652247
O O17 0.158033 0.000000 0.825435
O O18 0.342713 0.000000 0.418531
#
# Coordination Sequence:
#
# PCOD9178001 Si02
#       8
#     8   8   8   8   2   8   8   8
#     4   9  17  30  50  68  92 135 177 218 269 321
#     4   8  14  29  51  74 102 137 174 216 266 310
#     4  10  21  36  57  89 117 139 171 208 256 327
#     4  10  19  30  45  69 100 133 179 237 281 311
#     4  12  22  36  64  90 118 148 158 204 280 320
#     4   9  18  32  50  71  98 138 186 229 268 310
#     4  10  21  33  47  69 100 142 185 223 269 320
#     4  10  21  35  52  74 103 136 174 217 260 318
#
# _framework density 26.926967000000001
#
# number of rings (size 3 to 8) (size 9 to 14) (size 15 to 20)
#    0.000    2.483    0.690    2.690    1.931    5.517 
#    0.000    0.000    0.000    0.000    0.000    1.931 
#    0.000    3.310    0.000    0.000    0.000    0.000 
#
# Total GULP energy -162064.413189 kJ/mol
# GULP energy per Si atom -5588.428041 kJ/mol
# Density = 2.686568 g / cm^3
# Si number density = 26.926967 Si / 1000 Ang^3
#
#
#
# Elastic Constant Matrix: (Units=GPa)
#
#
# Indices 1 2 3 4 5 6 
#
# 1 144.7182 14.5727 40.2904 0.0000 -42.9966 0.0000
# 2 14.5727 89.9179 41.9855 0.0000 -22.0854 0.0000
# 3 40.2904 41.9855 209.9520 0.0000 -32.0890 0.0000
# 4 0.0000 0.0000 0.0000 24.2854 0.0000 -4.0854
# 5 -42.9966 -22.0854 -32.0890 0.0000 55.1964 0.0000
# 6 0.0000 0.0000 0.0000 -4.0854 0.0000 7.3083
#
#
#
# Elastic Compliance Matrix: (Units=1/GPa)
#
#
# Indices 1 2 3 4 5 6 
#
# 1 0.009117 0.000590 -0.000819 0.000000 0.006862 0.000000
# 2 0.000590 0.013086 -0.002041 0.000000 0.004509 0.000000
# 3 -0.000819 -0.002041 0.005604 0.000000 0.001803 0.000000
# 4 0.000000 0.000000 0.000000 0.045451 0.000000 0.025408
# 5 0.006862 0.004509 0.001803 0.000000 0.026315 0.000000
# 6 0.000000 0.000000 0.000000 0.025408 0.000000 0.151033
#
#
# Mechanical properties :
#
#
# Convention : Reuss Voigt Hill
#
# Bulk Modulus (GPa) = 42.97710 70.92058 56.94884
# Shear Modulus (GPa) = 19.01844 40.54066 29.77955
#
# Velocity S-wave (km/s) = 2.66051 3.88439 3.32917
# Velocity P-wave (km/s) = 5.04311 6.82006 5.99776
#
# Compressibility (1/GPa) = 0.02326821
#
# Stress axis : x y z
#
# Youngs Moduli (GPa) = 109.68105 76.41654 178.44680
#
# Poissons Ratio (x) = -0.04510 0.14612
# Poissons Ratio (y) = -0.06474 0.36421
# Poissons Ratio (z) = 0.08981 0.15597
#
# Static dielectric constant tensor:
#      x y z
#    x 2.219880 0.000000 0.065240 
#    y 0.000000 2.007060 0.000000 
#    z 0.065240 0.000000 2.223470 
# 
# From -- ./inp_files/186653.got.cif
#   From: 2010.05.17/outbox.cif.g08.bks.cpg/sg12_94_cif.got.tgz:186653.got - 2010.06.03 13:09:07.
