data_PCOD9178747
_publ_section_title
;
Structure prediction by ZEFSAII (Michael W. Deem and Ramdas Pophale) SiO2 
 PCOD9178747
Probable space group: C 2/M
;
_chemical_formula_sum "Si O2"
_cell_formula_units_Z 64
_cell_length_a 28.129236
_cell_length_b 9.215373
_cell_length_c 21.200596
_cell_angle_alpha 90.000000
_cell_angle_beta 128.977328
_cell_angle_gamma 90.000000
_cell_volume 4272.289025
_symmetry_space_group_name_H-M "C 2/M"
_symmetry_group_IT_number 12
_symmetry_cell_setting 'monoclinic'
loop_
_space_group_symop_operation_xyz
x,y,z
-x,y,-z
-x,-y,-z
x,-y,z
1/2+x,1/2+y,z
1/2-x,1/2+y,-z
1/2-x,1/2-y,-z
1/2+x,1/2-y,z
loop_
_atom_site_type_symbol
_atom_site_label
_atom_site_fract_x
_atom_site_fract_y
_atom_site_fract_z
Si Si1 0.795072 0.333192 0.449826
Si Si2 0.890221 0.326943 0.764510
Si Si3 0.878239 0.671980 0.024343
Si Si4 0.497639 0.327894 0.073062
Si Si5 0.694734 0.172723 0.916708
Si Si6 0.252118 0.326562 0.150808
Si Si7 0.157907 0.832804 0.394907
Si Si8 0.243856 0.327217 0.290452
O O1 0.814660 0.500000 0.461223
O O2 0.836970 0.243338 0.533009
O O3 0.726997 0.332673 0.424078
O O4 0.786073 0.258500 0.374740
O O5 0.898096 0.500000 0.766741
O O6 0.881416 0.257302 0.688123
O O7 0.826839 0.298878 0.749440
O O8 0.946252 0.253707 0.847077
O O9 0.890543 0.500000 0.026103
O O10 0.934395 0.765069 0.046981
O O11 0.862914 0.697398 0.085473
O O12 0.816031 0.705070 0.933287
O O13 0.502034 0.500000 0.088025
O O14 0.500000 0.302708 0.000000
O O15 0.698964 0.242006 0.851207
O O16 0.704846 0.000000 0.922441
O O17 0.750000 0.250000 0.000000
O O18 0.260794 0.500000 0.150712
O O19 0.254465 0.289573 0.226439
O O20 0.138215 0.000000 0.382889
O O21 0.253458 0.500000 0.306447
#
# Coordination Sequence:
#
# PCOD9178747 Si02
#       8
#     8   8   8   8   8   8   8   8
#     4   9  16  25  39  60  84 112 144 175 211 255
#     4  10  19  31  46  61  82 115 151 183 215 253
#     4   9  18  32  47  62  82 112 148 182 216 256
#     4  11  23  34  44  62  87 114 147 185 220 253
#     4   9  17  29  45  64  84 107 139 177 217 260
#     4   9  17  29  45  65  88 113 143 177 216 262
#     4   9  16  27  42  59  82 110 142 180 216 252
#     4   9  17  28  42  62  88 117 146 176 213 257
#
# _framework density 14.980259999999999
#
# number of rings (size 3 to 8) (size 9 to 14) (size 15 to 20)
#    0.000    2.625    0.000    3.375    0.000    8.500 
#    0.000    0.000    0.000    0.000    0.000    0.000 
#    0.000    1.000    0.000   10.500    0.000    6.250 
#
# Total GULP energy -178312.573313 kJ/mol
# GULP energy per Si atom -5572.267916 kJ/mol
# Density = 1.494616 g / cm^3
# Si number density = 14.980260 Si / 1000 Ang^3
#
#
#
# Elastic Constant Matrix: (Units=GPa)
#
#
# Indices 1 2 3 4 5 6 
#
# 1 80.2290 60.4784 48.9143 0.0000 -23.4858 0.0000
# 2 60.4784 92.7360 68.5914 0.0000 -16.5710 0.0000
# 3 48.9143 68.5914 105.5426 0.0000 -26.4054 0.0000
# 4 0.0000 0.0000 0.0000 26.6331 0.0000 -3.5380
# 5 -23.4858 -16.5710 -26.4054 0.0000 23.5507 0.0000
# 6 0.0000 0.0000 0.0000 -3.5380 0.0000 22.5454
#
#
#
# Elastic Compliance Matrix: (Units=1/GPa)
#
#
# Indices 1 2 3 4 5 6 
#
# 1 0.030746 -0.018574 0.003090 0.000000 0.021056 0.000000
# 2 -0.018574 0.031994 -0.015548 0.000000 -0.013443 0.000000
# 3 0.003090 -0.015548 0.022490 0.000000 0.017357 0.000000
# 4 0.000000 0.000000 0.000000 0.038347 0.000000 0.006018
# 5 0.021056 -0.013443 0.017357 0.000000 0.073462 0.000000
# 6 0.000000 0.000000 0.000000 0.006018 0.000000 0.045299
#
#
# Mechanical properties :
#
#
# Convention : Reuss Voigt Hill
#
# Bulk Modulus (GPa) = 43.16719 70.49731 56.83225
# Shear Modulus (GPa) = 16.01933 21.24742 18.63337
#
# Velocity S-wave (km/s) = 3.27366 3.77020 3.53067
# Velocity P-wave (km/s) = 6.57022 8.13110 7.39197
#
# Compressibility (1/GPa) = 0.02316574
#
# Stress axis : x y z
#
# Youngs Moduli (GPa) = 32.52476 31.25597 44.46449
#
# Poissons Ratio (x) = 0.58054 -0.13738
# Poissons Ratio (y) = 0.60411 0.69132
# Poissons Ratio (z) = -0.10049 0.48596
#
# Static dielectric constant tensor:
#      x y z
#    x 1.489450 0.000000 -0.020030 
#    y 0.000000 1.499500 0.000000 
#    z -0.020030 0.000000 1.486710 
# 
# From -- ./inp_files/326966.got.cif
#   From: 2010.05.17/outbox.cif.g08.bks.cpg/sg12_164_cif.got.tgz:326966.got - 2010.06.03 13:09:07.
