data_PCOD9178373
_publ_section_title
;
Structure prediction by ZEFSAII (Michael W. Deem and Ramdas Pophale) SiO2 
 PCOD9178373
Probable space group: C 2/M
;
_chemical_formula_sum "Si O2"
_cell_formula_units_Z 40
_cell_length_a 10.945005
_cell_length_b 29.484329
_cell_length_c 7.552613
_cell_angle_alpha 90.000000
_cell_angle_beta 37.775467
_cell_angle_gamma 90.000000
_cell_volume 1492.997993
_symmetry_space_group_name_H-M "C 2/M"
_symmetry_group_IT_number 12
_symmetry_cell_setting 'monoclinic'
loop_
_space_group_symop_operation_xyz
x,y,z
-x,y,-z
-x,-y,-z
x,-y,z
1/2+x,1/2+y,z
1/2-x,1/2+y,-z
1/2-x,1/2-y,-z
1/2+x,1/2-y,z
loop_
_atom_site_type_symbol
_atom_site_label
_atom_site_fract_x
_atom_site_fract_y
_atom_site_fract_z
Si Si1 0.258210 0.449410 0.083515
Si Si2 0.291966 0.587778 0.387851
Si Si3 0.794076 0.313171 0.626617
Si Si4 0.743773 0.621727 0.198484
Si Si5 0.233844 0.781908 0.284716
O O1 0.233636 0.500000 0.042858
O O2 0.496266 0.436715 0.819447
O O3 0.187948 0.409738 0.037177
O O4 0.187701 0.444574 0.366224
O O5 0.300875 0.637058 0.280772
O O6 0.196988 0.599612 0.683780
O O7 0.696202 0.269203 0.837097
O O8 0.781014 0.295425 0.435810
O O9 0.000000 0.319321 0.500000
O O10 0.500000 0.623682 0.500000
O O11 0.810035 0.673510 0.096087
O O12 0.000000 0.779783 0.500000
#
# Coordination Sequence:
#
# PCOD9178373 Si02
#       5
#     8   8   8   8   8
#     4  10  19  30  48  72  96 126 170 219 253 282
#     4   9  17  29  45  69  97 125 159 203 249 296
#     4   9  16  27  48  74 101 134 164 197 250 306
#     4   8  15  27  45  68  94 121 154 200 247 288
#     4   8  14  27  47  72  99 130 168 204 240 292
#
# _framework density 26.791730999999999
#
# number of rings (size 3 to 8) (size 9 to 14) (size 15 to 20)
#    0.000    3.200    0.000    2.400    0.000    4.400 
#    0.000    1.000    0.000    7.200    0.000    5.600 
#    0.000    0.000    0.000    0.000    0.000    0.000 
#
# Total GULP energy -111683.852273 kJ/mol
# GULP energy per Si atom -5584.192614 kJ/mol
# Density = 2.673075 g / cm^3
# Si number density = 26.791731 Si / 1000 Ang^3
#
#
#
# Elastic Constant Matrix: (Units=GPa)
#
#
# Indices 1 2 3 4 5 6 
#
# 1 165.1720 -2.4870 42.5183 0.0000 -11.3437 0.0000
# 2 -2.4870 181.2134 19.0763 0.0000 26.7510 0.0000
# 3 42.5183 19.0763 74.1164 0.0000 3.9716 0.0000
# 4 0.0000 0.0000 0.0000 -3.5690 0.0000 82.5109
# 5 -11.3437 26.7510 3.9716 0.0000 52.1342 0.0000
# 6 0.0000 0.0000 0.0000 82.5109 0.0000 -140.1176
#
#
#
# Elastic Compliance Matrix: (Units=1/GPa)
#
#
# Indices 1 2 3 4 5 6 
#
# 1 0.007303 0.000298 -0.004361 0.000000 0.001768 0.000000
# 2 0.000298 0.006126 -0.001589 0.000000 -0.002958 0.000000
# 3 -0.004361 -0.001589 0.016478 0.000000 -0.001389 0.000000
# 4 0.000000 0.000000 0.000000 0.022213 0.000000 0.013080
# 5 0.001768 -0.002958 -0.001389 0.000000 0.021189 0.000000
# 6 0.000000 0.000000 0.000000 0.013080 0.000000 0.000566
#
#
# Mechanical properties :
#
#
# Convention : Reuss Voigt Hill
#
# Bulk Modulus (GPa) = 53.75614 59.85742 56.80678
# Shear Modulus (GPa) = 54.71680 5.78248 30.24964
#
# Velocity S-wave (km/s) = 4.52409 1.47071 3.36380
# Velocity P-wave (km/s) = 6.88461 5.02735 6.02794
#
# Compressibility (1/GPa) = 0.01860253
#
# Stress axis : x y z
#
# Youngs Moduli (GPa) = 136.93386 163.22875 60.68876
#
# Poissons Ratio (x) = -0.04869 0.26466
# Poissons Ratio (y) = -0.04084 0.09646
# Poissons Ratio (z) = 0.59716 0.25944
#
# Static dielectric constant tensor:
#      x y z
#    x 2.189410 0.000000 -0.075420 
#    y 0.000000 2.001120 0.000000 
#    z -0.075420 0.000000 2.122510 
# 
# From -- ./inp_files/53676.got.cif
#   From: 2010.05.17/outbox.cif.g08.bks.cpg/sg12_27_cif.got.tgz:53676.got - 2010.06.03 13:09:07.
