data_PCOD9178776
_publ_section_title
;
Structure prediction by ZEFSAII (Michael W. Deem and Ramdas Pophale) SiO2 
 PCOD9178776
Probable space group: C 2/M
;
_chemical_formula_sum "Si O2"
_cell_formula_units_Z 56
_cell_length_a 24.007743
_cell_length_b 16.084689
_cell_length_c 7.749075
_cell_angle_alpha 90.000000
_cell_angle_beta 54.460581
_cell_angle_gamma 90.000000
_cell_volume 2434.930773
_symmetry_space_group_name_H-M "C 2/M"
_symmetry_group_IT_number 12
_symmetry_cell_setting 'monoclinic'
loop_
_space_group_symop_operation_xyz
x,y,z
-x,y,-z
-x,-y,-z
x,-y,z
1/2+x,1/2+y,z
1/2-x,1/2+y,-z
1/2-x,1/2-y,-z
1/2+x,1/2-y,z
loop_
_atom_site_type_symbol
_atom_site_label
_atom_site_fract_x
_atom_site_fract_y
_atom_site_fract_z
Si Si1 0.725021 0.823668 0.276070
Si Si2 0.157845 0.589340 0.846593
Si Si3 0.020003 0.588965 0.265351
Si Si4 0.573684 0.655563 0.323739
Si Si5 0.082056 0.280348 0.613901
Si Si6 0.282625 0.370773 0.824258
Si Si7 0.132499 0.214036 0.848130
O O1 0.649178 0.839315 0.479920
O O2 0.719183 0.727270 0.224132
O O3 0.791162 0.825783 0.281778
O O4 0.743994 0.877068 0.076236
O O5 0.145816 0.500000 0.773452
O O6 0.235918 0.587078 0.767788
O O7 0.145339 0.686330 0.822965
O O8 0.101206 0.587713 0.100524
O O9 0.994736 0.500000 0.242697
O O10 0.000000 0.594878 0.500000
O O11 0.983621 0.663660 0.231381
O O12 0.500000 0.616477 0.500000
O O13 0.427532 0.738313 0.555266
O O14 0.639251 0.606317 0.279366
O O15 0.592485 0.681775 0.091632
O O16 0.094252 0.207968 0.733783
#
# Coordination Sequence:
#
# PCOD9178776 Si02
#       7
#     8   8   8   8   8   8   8
#     4   8  15  29  47  69  94 120 156 196 231 273
#     4  10  19  31  46  65  93 127 160 193 226 269
#     4  10  20  31  44  66  96 129 165 196 223 267
#     4  10  20  33  49  72  97 119 151 196 241 283
#     4  11  19  30  50  69  95 131 157 188 236 277
#     4   8  15  30  50  67  89 123 156 190 237 279
#     4  10  20  32  48  72  97 124 159 194 230 280
#
# _framework density 22.998601000000001
#
# number of rings (size 3 to 8) (size 9 to 14) (size 15 to 20)
#    0.000    2.429    0.000    6.000    0.000    2.857 
#    0.000    1.429    0.000    0.429    0.000    0.000 
#    0.000    0.000    0.000   19.429    0.000    0.571 
#
# Total GULP energy -155908.126567 kJ/mol
# GULP energy per Si atom -5568.147377 kJ/mol
# Density = 2.294626 g / cm^3
# Si number density = 22.998601 Si / 1000 Ang^3
#
#
#
# Elastic Constant Matrix: (Units=GPa)
#
#
# Indices 1 2 3 4 5 6 
#
# 1 91.7515 -9.7311 57.9383 0.0000 -24.8255 0.0000
# 2 -9.7311 27.0193 -10.3421 0.0000 -3.2815 0.0000
# 3 57.9383 -10.3421 83.0992 0.0000 -16.4503 0.0000
# 4 0.0000 0.0000 0.0000 -0.9864 0.0000 -1.3411
# 5 -24.8255 -3.2815 -16.4503 0.0000 39.1390 0.0000
# 6 0.0000 0.0000 0.0000 -1.3411 0.0000 0.6610
#
#
#
# Elastic Compliance Matrix: (Units=1/GPa)
#
#
# Indices 1 2 3 4 5 6 
#
# 1 0.021944 0.003963 -0.013073 0.000000 0.008756 0.000000
# 2 0.003963 0.040811 0.003808 0.000000 0.007536 0.000000
# 3 -0.013073 0.003808 0.021863 0.000000 0.001216 0.000000
# 4 0.000000 0.000000 0.000000 -0.269752 0.000000 -0.547252
# 5 0.008756 0.007536 0.001216 0.000000 0.032247 0.000000
# 6 0.000000 0.000000 0.000000 -0.547252 0.000000 0.402535
#
#
# Mechanical properties :
#
#
# Convention : Reuss Voigt Hill
#
# Bulk Modulus (GPa) = 13.51116 30.84447 22.17782
# Shear Modulus (GPa) = 17.54859 18.69639 18.12249
#
# Velocity S-wave (km/s) = 2.76529 2.85430 2.81015
# Velocity P-wave (km/s) = 4.01040 4.92983 4.49369
#
# Compressibility (1/GPa) = 0.07401288
#
# Stress axis : x y z
#
# Youngs Moduli (GPa) = 45.57124 24.50344 45.73883
#
# Poissons Ratio (x) = -0.09710 0.59794
# Poissons Ratio (y) = -0.18058 -0.17417
# Poissons Ratio (z) = 0.59575 -0.09331
#
# Static dielectric constant tensor:
#      x y z
#    x 1.979210 0.000000 0.012260 
#    y 0.000000 1.885410 0.000000 
#    z 0.012260 0.000000 1.896290 
# 
# From -- ./inp_files/98813.got.cif
#   From: 2010.05.17/outbox.cif.g08.bks.cpg/sg12_50_cif.got.tgz:98813.got - 2010.06.03 13:09:07.
