data_PCOD9178559
_publ_section_title
;
Structure prediction by ZEFSAII (Michael W. Deem and Ramdas Pophale) SiO2 
 PCOD9178559
Probable space group: C 2/M
;
_chemical_formula_sum "Si O2"
_cell_formula_units_Z 48
_cell_length_a 18.750979
_cell_length_b 22.479488
_cell_length_c 13.531375
_cell_angle_alpha 90.000000
_cell_angle_beta 159.698289
_cell_angle_gamma 90.000000
_cell_volume 1978.956656
_symmetry_space_group_name_H-M "C 2/M"
_symmetry_group_IT_number 12
_symmetry_cell_setting 'monoclinic'
loop_
_space_group_symop_operation_xyz
x,y,z
-x,y,-z
-x,-y,-z
x,-y,z
1/2+x,1/2+y,z
1/2-x,1/2+y,-z
1/2-x,1/2-y,-z
1/2+x,1/2-y,z
loop_
_atom_site_type_symbol
_atom_site_label
_atom_site_fract_x
_atom_site_fract_y
_atom_site_fract_z
Si Si1 0.267142 0.566307 0.661689
Si Si2 0.540977 0.257570 0.794837
Si Si3 0.492938 0.873078 0.803578
Si Si4 0.142988 0.151586 0.589908
Si Si5 0.320498 0.430345 0.079338
Si Si6 0.222475 0.342915 0.773270
O O1 0.177239 0.500000 0.560600
O O2 0.201769 0.621220 0.645486
O O3 0.215353 0.589141 0.483605
O O4 0.500000 0.561058 0.000000
O O5 0.463457 0.193494 0.725084
O O6 0.384639 0.295909 0.525593
O O7 0.750000 0.250000 0.000000
O O8 0.607880 0.293990 0.980002
O O9 0.629525 0.863559 0.078229
O O10 0.648502 0.910225 0.934912
O O11 0.000000 0.166954 0.500000
O O12 0.032386 0.094510 0.398743
O O13 0.324471 0.500000 0.067751
O O14 0.265408 0.394259 0.909476
O O15 0.000000 0.314155 0.500000
#
# Coordination Sequence:
#
# PCOD9178559 Si02
#       6
#     8   8   8   8   8   8
#     4  11  25  43  60  84 119 159 202 247 301 352
#     4  11  19  32  54  87 122 152 187 238 298 350
#     4  11  21  32  56  81 114 155 191 235 292 354
#     4   9  19  30  46  79 115 150 183 225 291 349
#     4  10  19  30  49  82 116 145 186 239 287 341
#     4  11  21  34  61  88 115 154 196 245 291 349
#
# _framework density 24.255206000000001
#
# number of rings (size 3 to 8) (size 9 to 14) (size 15 to 20)
#    0.000    1.500    6.667    1.000    4.667    4.333 
#    0.000    0.833    0.000    3.000    0.000   10.500 
#    0.000    0.000    0.000    0.000    0.000    0.000 
#
# Total GULP energy -134145.275805 kJ/mol
# GULP energy per Si atom -5589.386492 kJ/mol
# Density = 2.420000 g / cm^3
# Si number density = 24.255206 Si / 1000 Ang^3
#
#
#
# Elastic Constant Matrix: (Units=GPa)
#
#
# Indices 1 2 3 4 5 6 
#
# 1 45.8641 10.5312 28.0483 0.0000 -9.5591 0.0000
# 2 10.5312 157.4564 65.4435 0.0000 -23.6400 0.0000
# 3 28.0483 65.4435 175.5592 0.0001 -52.5026 0.0000
# 4 0.0000 0.0000 0.0001 5.0200 0.0000 -10.2439
# 5 -9.5591 -23.6400 -52.5026 0.0000 30.5361 0.0000
# 6 0.0000 0.0000 0.0000 -10.2439 0.0000 2.7693
#
#
#
# Elastic Compliance Matrix: (Units=1/GPa)
#
#
# Indices 1 2 3 4 5 6 
#
# 1 0.024219 0.000045 -0.003311 0.000000 0.001924 0.000000
# 2 0.000045 0.007579 -0.002210 0.000000 0.002082 0.000000
# 3 -0.003311 -0.002210 0.012818 0.000000 0.019292 0.000000
# 4 0.000000 0.000000 0.000000 -0.030420 0.000000 -0.112526
# 5 0.001924 0.002082 0.019292 0.000000 0.068132 0.000000
# 6 0.000000 0.000000 0.000000 -0.112526 0.000000 -0.055142
#
#
# Mechanical properties :
#
#
# Convention : Reuss Voigt Hill
#
# Bulk Modulus (GPa) = 29.70421 65.21397 47.45909
# Shear Modulus (GPa) = 101.29882 25.98886 63.64384
#
# Velocity S-wave (km/s) = 6.46950 3.27689 5.12798
# Velocity P-wave (km/s) = 8.25100 6.42357 7.39396
#
# Compressibility (1/GPa) = 0.03366526
#
# Stress axis : x y z
#
# Youngs Moduli (GPa) = 41.29005 131.94368 78.01395
#
# Poissons Ratio (x) = -0.00595 0.25828
# Poissons Ratio (y) = -0.00186 0.17239
# Poissons Ratio (z) = 0.13670 0.29156
#
# Static dielectric constant tensor:
#      x y z
#    x 2.008440 0.000000 0.046720 
#    y 0.000000 1.886590 0.000000 
#    z 0.046720 0.000000 2.040030 
# 
# From -- ./inp_files/235561.got.cif
#   From: 2010.05.17/outbox.cif.g08.bks.cpg/sg12_118_cif.got.tgz:235561.got - 2010.06.03 13:09:07.
