data_PCOD9178005
_publ_section_title
;
Structure prediction by ZEFSAII (Michael W. Deem and Ramdas Pophale) SiO2 
 PCOD9178005
Probable space group: C 2/M
;
_chemical_formula_sum "Si O2"
_cell_formula_units_Z 64
_cell_length_a 32.377129
_cell_length_b 8.714783
_cell_length_c 12.585694
_cell_angle_alpha 90.000000
_cell_angle_beta 98.189080
_cell_angle_gamma 90.000000
_cell_volume 3514.965133
_symmetry_space_group_name_H-M "C 2/M"
_symmetry_group_IT_number 12
_symmetry_cell_setting 'monoclinic'
loop_
_space_group_symop_operation_xyz
x,y,z
-x,y,-z
-x,-y,-z
x,-y,z
1/2+x,1/2+y,z
1/2-x,1/2+y,-z
1/2-x,1/2-y,-z
1/2+x,1/2-y,z
loop_
_atom_site_type_symbol
_atom_site_label
_atom_site_fract_x
_atom_site_fract_y
_atom_site_fract_z
Si Si1 0.962702 0.167491 0.403328
Si Si2 0.509777 0.676229 0.197272
Si Si3 0.570594 0.183581 0.919238
Si Si4 0.633328 0.316765 0.111487
Si Si5 0.885524 0.678249 0.455188
Si Si6 0.642181 0.185535 0.776431
Si Si7 0.204106 0.816468 0.969295
Si Si8 0.598307 0.815966 0.300962
O O1 0.931550 0.301729 0.422403
O O2 0.000000 0.169432 0.500000
O O3 0.983839 0.177261 0.297547
O O4 0.940974 0.000000 0.404416
O O5 0.516532 0.500000 0.166114
O O6 0.476975 0.761046 0.108900
O O7 0.553817 0.752090 0.243252
O O8 0.599979 0.226962 0.827767
O O9 0.571652 0.000000 0.928965
O O10 0.594047 0.259023 0.027341
O O11 0.631135 0.500000 0.121771
O O12 0.631093 0.237703 0.224721
O O13 0.674267 0.276244 0.058226
O O14 0.874310 0.500000 0.462829
O O15 0.858567 0.741368 0.346221
O O16 0.889246 0.742292 0.576206
O O17 0.680450 0.250121 0.857871
O O18 0.643714 0.000000 0.776025
O O19 0.205624 0.000000 0.962559
O O20 0.250000 0.750000 0.000000
O O21 0.595310 0.000000 0.303954
#
# Coordination Sequence:
#
# PCOD9178005 Si02
#       8
#     8   8   8   8   8   8   8   8
#     4  10  19  30  45  69 101 141 188 235 276 313
#     4  11  21  32  48  72 105 145 190 236 279 318
#     4  10  19  33  54  77 104 140 184 232 279 321
#     4  10  22  40  58  79 109 141 176 217 268 325
#     4  10  20  33  51  76 107 144 184 226 271 315
#     4   9  18  33  54  82 114 142 171 217 271 318
#     4  10  21  38  64  93 114 135 164 207 262 322
#     4  11  23  36  52  75 106 148 193 229 266 316
#
# _framework density 18.207861000000001
#
# number of rings (size 3 to 8) (size 9 to 14) (size 15 to 20)
#    0.000    1.875    2.500    1.875    0.000    4.250 
#    0.000    2.500    0.000    0.750    0.000    0.000 
#    0.000    0.000    0.000    0.000    0.000    0.000 
#
# Total GULP energy -178465.138957 kJ/mol
# GULP energy per Si atom -5577.035592 kJ/mol
# Density = 1.816642 g / cm^3
# Si number density = 18.207861 Si / 1000 Ang^3
#
#
#
# Elastic Constant Matrix: (Units=GPa)
#
#
# Indices 1 2 3 4 5 6 
#
# 1 87.2505 27.0334 63.2776 0.0000 19.2184 0.0000
# 2 27.0334 37.5936 27.5275 0.0000 3.6895 0.0000
# 3 63.2776 27.5275 120.6875 0.0000 0.9755 0.0000
# 4 0.0000 0.0000 0.0000 14.3341 0.0000 -3.1147
# 5 19.2184 3.6895 0.9755 0.0000 16.4317 0.0000
# 6 0.0000 0.0000 0.0000 -3.1147 0.0000 23.8930
#
#
#
# Elastic Compliance Matrix: (Units=1/GPa)
#
#
# Indices 1 2 3 4 5 6 
#
# 1 0.032983 -0.009330 -0.014877 0.000000 -0.035598 0.000000
# 2 -0.009330 0.035337 -0.003194 0.000000 0.003168 0.000000
# 3 -0.014877 -0.003194 0.016676 0.000000 0.017127 0.000000
# 4 0.000000 0.000000 0.000000 0.071797 0.000000 0.009360
# 5 -0.035598 0.003168 0.017127 0.000000 0.100765 0.000000
# 6 0.000000 0.000000 0.000000 0.009360 0.000000 0.043073
#
#
# Mechanical properties :
#
#
# Convention : Reuss Voigt Hill
#
# Bulk Modulus (GPa) = 33.11958 53.46763 43.29360
# Shear Modulus (GPa) = 13.67990 19.44464 16.56227
#
# Velocity S-wave (km/s) = 2.74399 3.27146 3.01927
# Velocity P-wave (km/s) = 5.31682 6.61051 5.99864
#
# Compressibility (1/GPa) = 0.03019362
#
# Stress axis : x y z
#
# Youngs Moduli (GPa) = 30.31875 28.29864 59.96576
#
# Poissons Ratio (x) = 0.26404 0.89213
# Poissons Ratio (y) = 0.28289 0.19151
# Poissons Ratio (z) = 0.45106 0.09038
#
# Static dielectric constant tensor:
#      x y z
#    x 1.596800 0.000000 -0.000360 
#    y 0.000000 1.646650 0.000000 
#    z -0.000360 0.000000 1.677110 
# 
# From -- ./inp_files/187505.got.cif
#   From: 2010.05.17/outbox.cif.g08.bks.cpg/sg12_94_cif.got.tgz:187505.got - 2010.06.03 13:09:07.
