data_PCOD9178761
_publ_section_title
;
Structure prediction by ZEFSAII (Michael W. Deem and Ramdas Pophale) SiO2 
 PCOD9178761
Probable space group: C 2/M
;
_chemical_formula_sum "Si O2"
_cell_formula_units_Z 40
_cell_length_a 25.422318
_cell_length_b 7.518903
_cell_length_c 12.635867
_cell_angle_alpha 90.000000
_cell_angle_beta 62.955895
_cell_angle_gamma 90.000000
_cell_volume 2151.221142
_symmetry_space_group_name_H-M "C 2/M"
_symmetry_group_IT_number 12
_symmetry_cell_setting 'monoclinic'
loop_
_space_group_symop_operation_xyz
x,y,z
-x,y,-z
-x,-y,-z
x,-y,z
1/2+x,1/2+y,z
1/2-x,1/2+y,-z
1/2-x,1/2-y,-z
1/2+x,1/2-y,z
loop_
_atom_site_type_symbol
_atom_site_label
_atom_site_fract_x
_atom_site_fract_y
_atom_site_fract_z
Si Si1 0.212658 0.286730 0.429991
Si Si2 0.581377 0.783328 0.514020
Si Si3 0.843960 0.286489 0.913703
Si Si4 0.455014 0.216515 0.691397
Si Si5 0.246566 0.787678 0.834019
O O1 0.209041 0.500000 0.424374
O O2 0.250000 0.250000 0.500000
O O3 0.144988 0.220848 0.495208
O O4 0.243165 0.220030 0.293772
O O5 0.571406 0.735834 0.399838
O O6 0.522962 0.723251 0.630261
O O7 0.581404 0.000000 0.517069
O O8 0.844934 0.500000 0.904138
O O9 0.909072 0.222535 0.822476
O O10 0.797073 0.218828 0.868459
O O11 0.816045 0.245696 0.052885
O O12 0.456490 0.000000 0.692920
O O13 0.254045 0.000000 0.823765
#
# Coordination Sequence:
#
# PCOD9178761 Si02
#       5
#     8   8   8   8   8
#     4  10  19  31  46  64  89 119 150 180 211 254
#     4   8  13  23  41  65  89 111 139 177 222 261
#     4   9  15  25  44  68  90 110 137 177 219 262
#     4   8  12  21  42  68  89 108 135 178 225 263
#     4   9  17  28  41  62  91 118 142 171 214 262
#
# _framework density 18.594090999999999
#
# number of rings (size 3 to 8) (size 9 to 14) (size 15 to 20)
#    0.000    3.200    2.000    1.200    0.000    0.800 
#    0.000    0.000    0.000    2.400    0.000   11.200 
#    0.000    0.000    0.000    0.000    0.000    0.000 
#
# Total GULP energy -111416.981910 kJ/mol
# GULP energy per Si atom -5570.849096 kJ/mol
# Density = 1.855177 g / cm^3
# Si number density = 18.594091 Si / 1000 Ang^3
#
#
#
# Elastic Constant Matrix: (Units=GPa)
#
#
# Indices 1 2 3 4 5 6 
#
# 1 133.7875 3.7767 101.4585 0.0000 -26.0544 0.0000
# 2 3.7767 45.9337 4.6852 0.0000 -1.8314 0.0000
# 3 101.4585 4.6852 168.0053 0.0000 -33.9378 0.0000
# 4 0.0000 0.0000 0.0000 15.6109 0.0000 0.5266
# 5 -26.0544 -1.8314 -33.9378 0.0000 32.0840 0.0000
# 6 0.0000 0.0000 0.0000 0.5266 0.0000 11.5850
#
#
#
# Elastic Compliance Matrix: (Units=1/GPa)
#
#
# Indices 1 2 3 4 5 6 
#
# 1 0.014029 -0.000231 -0.007843 0.000000 0.003083 0.000000
# 2 -0.000231 0.021851 -0.000326 0.000000 0.000716 0.000000
# 3 -0.007843 -0.000326 0.011964 0.000000 0.006267 0.000000
# 4 0.000000 0.000000 0.000000 0.064156 0.000000 -0.002916
# 5 0.003083 0.000716 0.006267 0.000000 0.040342 0.000000
# 6 0.000000 0.000000 0.000000 -0.002916 0.000000 0.086451
#
#
# Mechanical properties :
#
#
# Convention : Reuss Voigt Hill
#
# Bulk Modulus (GPa) = 32.21033 63.06304 47.63669
# Shear Modulus (GPa) = 18.80116 27.70970 23.25543
#
# Velocity S-wave (km/s) = 3.18329 3.86455 3.54035
# Velocity P-wave (km/s) = 5.55622 7.34182 6.51053
#
# Compressibility (1/GPa) = 0.03104594
#
# Stress axis : x y z
#
# Youngs Moduli (GPa) = 71.27918 45.76402 83.58611
#
# Poissons Ratio (x) = 0.01055 0.65557
# Poissons Ratio (y) = 0.01644 0.02721
# Poissons Ratio (z) = 0.55905 0.01490
#
# Static dielectric constant tensor:
#      x y z
#    x 1.627880 0.000000 -0.045210 
#    y 0.000000 1.727710 0.000000 
#    z -0.045210 0.000000 1.661600 
# 
# From -- ./inp_files/83571.got.cif
#   From: 2010.05.17/outbox.cif.g08.bks.cpg/sg12_42_cif.got.tgz:83571.got - 2010.06.03 13:09:07.
