data_PCOD9178927
_publ_section_title
;
Structure prediction by ZEFSAII (Michael W. Deem and Ramdas Pophale) SiO2 
 PCOD9178927
Probable space group: C 2/M
;
_chemical_formula_sum "Si O2"
_cell_formula_units_Z 50
_cell_length_a 18.716890
_cell_length_b 7.865218
_cell_length_c 21.764663
_cell_angle_alpha 90.000000
_cell_angle_beta 42.921149
_cell_angle_gamma 90.000000
_cell_volume 2181.915418
_symmetry_space_group_name_H-M "C 2/M"
_symmetry_group_IT_number 12
_symmetry_cell_setting 'monoclinic'
loop_
_space_group_symop_operation_xyz
x,y,z
-x,y,-z
-x,-y,-z
x,-y,z
1/2+x,1/2+y,z
1/2-x,1/2+y,-z
1/2-x,1/2-y,-z
1/2+x,1/2-y,z
loop_
_atom_site_type_symbol
_atom_site_label
_atom_site_fract_x
_atom_site_fract_y
_atom_site_fract_z
Si Si1 0.137739 0.802209 0.595679
Si Si2 0.882433 0.687881 0.018467
Si Si3 0.556572 0.294611 0.777009
Si Si4 0.076094 0.297580 0.305941
Si Si5 0.000000 0.000000 0.000000
Si Si6 0.164535 0.299088 0.116661
Si Si7 0.797899 0.206556 0.201961
O O1 0.250000 0.750000 0.500000
O O2 0.102911 0.724790 0.683301
O O3 0.039869 0.772377 0.611622
O O4 0.145496 0.000000 0.602338
O O5 0.928305 0.500000 0.980527
O O6 0.777719 0.709992 0.042127
O O7 0.833457 0.698410 0.118592
O O8 0.959259 0.849315 0.976676
O O9 0.551888 0.500000 0.777837
O O10 0.437551 0.232162 0.860885
O O11 0.635309 0.246557 0.781374
O O12 0.065358 0.500000 0.309924
O O13 0.116866 0.240253 0.213045
O O14 0.173873 0.263239 0.288880
O O15 0.186117 0.500000 0.107132
O O16 0.815291 0.000000 0.177006
#
# Coordination Sequence:
#
# PCOD9178927 Si02
#       7
#     8   8   8   8   2   8   8
#     4  10  19  31  47  70 101 140 182 224 273 330
#     4  11  21  35  59  85 110 146 182 221 270 325
#     4   9  18  31  53  80 104 139 183 227 271 327
#     4   8  15  28  49  70  98 134 172 220 271 314
#     4  12  22  40  56  86 116 144 180 222 270 326
#     4   9  16  31  51  78 108 136 178 227 268 306
#     4   9  17  34  54  80 111 136 172 232 279 313
#
# _framework density 22.915645999999999
#
# number of rings (size 3 to 8) (size 9 to 14) (size 15 to 20)
#    0.000    2.560    1.600    2.160    0.000    5.120 
#    0.000    0.800    0.000    5.760    0.000    0.000 
#    0.000    0.000    0.000    0.000    0.000    0.000 
#
# Total GULP energy -139433.758351 kJ/mol
# GULP energy per Si atom -5577.350334 kJ/mol
# Density = 2.286349 g / cm^3
# Si number density = 22.915646 Si / 1000 Ang^3
#
#
#
# Elastic Constant Matrix: (Units=GPa)
#
#
# Indices 1 2 3 4 5 6 
#
# 1 150.7225 41.3021 49.3385 0.0000 -31.9587 -0.0001
# 2 41.3021 88.6407 29.5226 0.0003 -19.9136 -0.0005
# 3 49.3385 29.5226 144.9776 0.0000 -37.6246 0.0000
# 4 0.0000 0.0003 0.0000 28.9001 0.0000 -10.2538
# 5 -31.9587 -19.9136 -37.6246 0.0000 28.7967 0.0001
# 6 -0.0001 -0.0005 0.0000 -10.2538 0.0001 30.5302
#
#
#
# Elastic Compliance Matrix: (Units=1/GPa)
#
#
# Indices 1 2 3 4 5 6 
#
# 1 0.009102 -0.002305 -0.000636 0.000000 0.007677 0.000000
# 2 -0.002305 0.013963 -0.000328 0.000000 0.006669 0.000000
# 3 -0.000636 -0.000328 0.010499 0.000000 0.012784 0.000000
# 4 0.000000 0.000000 0.000000 0.039283 0.000000 0.013193
# 5 0.007677 0.006669 0.012784 0.000000 0.064561 0.000000
# 6 0.000000 0.000000 0.000000 0.013193 0.000000 0.037186
#
#
# Mechanical properties :
#
#
# Convention : Reuss Voigt Hill
#
# Bulk Modulus (GPa) = 37.00147 69.40748 53.20447
# Shear Modulus (GPa) = 26.29633 35.25724 30.77678
#
# Velocity S-wave (km/s) = 3.39119 3.92671 3.66874
# Velocity P-wave (km/s) = 5.61386 7.13532 6.41982
#
# Compressibility (1/GPa) = 0.02702595
#
# Stress axis : x y z
#
# Youngs Moduli (GPa) = 109.86284 71.61820 95.24981
#
# Poissons Ratio (x) = 0.16506 0.06058
# Poissons Ratio (y) = 0.25320 0.03127
# Poissons Ratio (z) = 0.06987 0.02351
#
# Static dielectric constant tensor:
#      x y z
#    x 2.015950 0.000000 -0.038140 
#    y 0.000000 1.846000 0.000000 
#    z -0.038140 0.000000 2.352500 
# 
# From -- ./inp_files/362656.got.cif
#   From: 2010.05.17/outbox.cif.g08.bks.cpg/sg12_182_cif.got.tgz:362656.got - 2010.06.03 13:09:07.
