data_PCOD9178558
_publ_section_title
;
Structure prediction by ZEFSAII (Michael W. Deem and Ramdas Pophale) SiO2 
 PCOD9178558
Probable space group: C 2/M
;
_chemical_formula_sum "Si O2"
_cell_formula_units_Z 64
_cell_length_a 31.497392
_cell_length_b 16.879551
_cell_length_c 21.296132
_cell_angle_alpha 90.000000
_cell_angle_beta 17.977135
_cell_angle_gamma 90.000000
_cell_volume 3494.498131
_symmetry_space_group_name_H-M "C 2/M"
_symmetry_group_IT_number 12
_symmetry_cell_setting 'monoclinic'
loop_
_space_group_symop_operation_xyz
x,y,z
-x,y,-z
-x,-y,-z
x,-y,z
1/2+x,1/2+y,z
1/2-x,1/2+y,-z
1/2-x,1/2-y,-z
1/2+x,1/2-y,z
loop_
_atom_site_type_symbol
_atom_site_label
_atom_site_fract_x
_atom_site_fract_y
_atom_site_fract_z
Si Si1 0.285730 0.911808 0.746109
Si Si2 0.845303 0.260109 0.197896
Si Si3 0.358092 0.254504 0.028135
Si Si4 0.668390 0.591305 0.093662
Si Si5 0.162937 0.917002 0.779633
Si Si6 0.954661 0.677994 0.669383
Si Si7 0.550831 0.717146 0.648198
Si Si8 0.871650 0.159225 0.718249
O O1 0.209824 0.841038 0.888454
O O2 0.206203 0.918405 0.791508
O O3 0.434782 0.877774 0.519332
O O4 0.290299 0.000000 0.767518
O O5 0.854145 0.255251 0.109262
O O6 0.809706 0.173212 0.278102
O O7 0.709630 0.306120 0.411967
O O8 0.000000 0.283763 0.000000
O O9 0.259314 0.187162 0.137905
O O10 0.500989 0.258000 0.788308
O O11 0.658391 0.500000 0.089621
O O12 0.546190 0.644784 0.237417
O O13 0.663265 0.601748 0.176035
O O14 0.813940 0.630995 0.872917
O O15 0.221263 0.000000 0.669588
O O16 0.000000 0.921488 0.000000
O O17 0.927809 0.758357 0.669073
O O18 0.012033 0.710150 0.655419
O O19 0.000000 0.125516 0.500000
#
# Coordination Sequence:
#
# PCOD9178558 Si02
#       8
#     8   8   8   8   8   8   8   8
#     4  10  19  30  49  82 115 145 183 226 284 344
#     4  10  21  37  58  85 110 144 197 242 285 340
#     4  11  19  34  56  79 114 157 183 231 282 334
#     4  11  23  36  54  83 117 152 192 236 277 331
#     4   8  14  27  48  73 105 140 172 218 278 331
#     4  11  18  35  54  80 113 156 180 225 283 339
#     4  11  20  37  59  80 115 155 192 228 287 341
#     4  11  19  34  55  74 111 155 197 225 272 333
#
# _framework density 18.314505
#
# number of rings (size 3 to 8) (size 9 to 14) (size 15 to 20)
#    0.000    1.625    6.250    1.875    0.000    1.250 
#    0.000    0.625    0.000    0.375    0.000    0.000 
#    0.000    0.000    0.000    0.000    0.000    0.000 
#
# Total GULP energy -178207.924818 kJ/mol
# GULP energy per Si atom -5568.997651 kJ/mol
# Density = 1.827282 g / cm^3
# Si number density = 18.314505 Si / 1000 Ang^3
#
#
#
# Elastic Constant Matrix: (Units=GPa)
#
#
# Indices 1 2 3 4 5 6 
#
# 1 43.1592 -0.1569 57.1820 -0.0002 9.3874 0.0000
# 2 -0.1569 50.2555 20.3517 0.0003 -2.7202 0.0002
# 3 57.1820 20.3517 141.8580 0.0001 1.5598 0.0002
# 4 -0.0002 0.0003 0.0001 -15.6220 0.0002 -3.1122
# 5 9.3874 -2.7202 1.5598 0.0002 27.5079 -0.0001
# 6 0.0000 0.0002 0.0002 -3.1122 -0.0001 15.2101
#
#
#
# Elastic Compliance Matrix: (Units=1/GPa)
#
#
# Indices 1 2 3 4 5 6 
#
# 1 0.061930 0.009776 -0.026161 -0.000001 -0.018684 0.000000
# 2 0.009776 0.022811 -0.007206 0.000000 -0.000672 0.000000
# 3 -0.026161 -0.007206 0.018550 0.000000 0.007163 0.000000
# 4 -0.000001 0.000000 0.000000 -0.061505 0.000001 -0.012585
# 5 -0.018684 -0.000672 0.007163 0.000001 0.042257 0.000000
# 6 0.000000 0.000000 0.000000 -0.012585 0.000000 0.063171
#
#
# Mechanical properties :
#
#
# Convention : Reuss Voigt Hill
#
# Bulk Modulus (GPa) = 17.82234 43.33627 30.57931
# Shear Modulus (GPa) = 23.46355 15.94559 19.70457
#
# Velocity S-wave (km/s) = 3.58319 2.95389 3.28365
# Velocity P-wave (km/s) = 5.18377 5.94538 5.57759
#
# Compressibility (1/GPa) = 0.05610935
#
# Stress axis : x y z
#
# Youngs Moduli (GPa) = 16.14726 43.83931 53.90975
#
# Poissons Ratio (x) = -0.42858 1.41032
# Poissons Ratio (y) = -0.15786 0.38846
# Poissons Ratio (z) = 0.42242 0.31590
#
# Static dielectric constant tensor:
#      x y z
#    x 1.671410 0.000000 0.005670 
#    y 0.000000 1.662360 0.000000 
#    z 0.005670 0.000000 1.634610 
# 
# From -- ./inp_files/330487.got.cif
#   From: 2010.05.17/outbox.cif.g08.bks.cpg/sg12_166_cif.got.tgz:330487.got - 2010.06.03 13:09:07.
