data_PCOD9178945
_publ_section_title
;
Structure prediction by ZEFSAII (Michael W. Deem and Ramdas Pophale) SiO2 
 PCOD9178945
Probable space group: C 2/M
;
_chemical_formula_sum "Si O2"
_cell_formula_units_Z 56
_cell_length_a 18.861198
_cell_length_b 21.962986
_cell_length_c 26.006014
_cell_angle_alpha 90.000000
_cell_angle_beta 161.626931
_cell_angle_gamma 90.000000
_cell_volume 3395.664621
_symmetry_space_group_name_H-M "C 2/M"
_symmetry_group_IT_number 12
_symmetry_cell_setting 'monoclinic'
loop_
_space_group_symop_operation_xyz
x,y,z
-x,y,-z
-x,-y,-z
x,-y,z
1/2+x,1/2+y,z
1/2-x,1/2+y,-z
1/2-x,1/2-y,-z
1/2+x,1/2-y,z
loop_
_atom_site_type_symbol
_atom_site_label
_atom_site_fract_x
_atom_site_fract_y
_atom_site_fract_z
Si Si1 0.597577 0.678389 0.321012
Si Si2 0.871937 0.647519 0.030715
Si Si3 0.526976 0.724452 0.957591
Si Si4 0.067374 0.165493 0.421827
Si Si5 0.545576 0.786616 0.591374
Si Si6 0.169416 0.571078 0.164563
Si Si7 0.468922 0.816240 0.213353
O O1 0.584558 0.682193 0.373633
O O2 0.540011 0.745010 0.258220
O O3 0.852568 0.667475 0.478681
O O4 0.392799 0.636210 0.161801
O O5 0.935025 0.709218 0.042388
O O6 0.914135 0.659914 0.119320
O O7 0.032263 0.595512 0.119144
O O8 0.302569 0.695617 0.778756
O O9 0.500000 0.731968 0.000000
O O10 0.747083 0.685319 0.095593
O O11 0.316626 0.151230 0.614033
O O12 0.983997 0.224470 0.396117
O O13 0.889218 0.112002 0.307278
O O14 0.500000 0.775013 0.500000
O O15 0.223772 0.500000 0.205844
O O16 0.000000 0.580207 0.000000
#
# Coordination Sequence:
#
# PCOD9178945 Si02
#       7
#     8   8   8   8   8   8   8
#     4  10  19  31  47  71  98 144 174 202 246 317
#     4  11  19  34  49  70 105 141 169 216 260 293
#     4  11  18  29  48  72 104 141 172 197 246 316
#     4  11  20  34  49  70 104 140 170 216 252 295
#     4  11  19  28  47  74 107 134 173 203 247 309
#     4  11  23  38  57  77  97 138 189 220 248 302
#     4  10  21  30  47  73 105 135 175 203 259 317
#
# _framework density 16.491616
#
# number of rings (size 3 to 8) (size 9 to 14) (size 15 to 20)
#    0.000    1.286    2.857    9.000    0.000    0.000 
#    0.000    1.429    0.000    0.000    0.000    0.000 
#    0.000   22.857    0.000    0.000    0.000    0.000 
#
# Total GULP energy -156270.767235 kJ/mol
# GULP energy per Si atom -5581.098830 kJ/mol
# Density = 1.645408 g / cm^3
# Si number density = 16.491616 Si / 1000 Ang^3
#
#
#
# Elastic Constant Matrix: (Units=GPa)
#
#
# Indices 1 2 3 4 5 6 
#
# 1 88.0027 21.8689 32.2813 0.1801 -7.3717 -0.0718
# 2 21.8689 29.6407 17.8230 0.0860 6.4007 -0.0319
# 3 32.2813 17.8230 122.1068 0.3733 13.8935 -0.1229
# 4 0.1801 0.0860 0.3733 -9.5178 -0.0124 13.9192
# 5 -7.3717 6.4007 13.8935 -0.0124 41.1127 -0.0137
# 6 -0.0718 -0.0319 -0.1229 13.9192 -0.0137 2.9595
#
#
#
# Elastic Compliance Matrix: (Units=1/GPa)
#
#
# Indices 1 2 3 4 5 6 
#
# 1 0.015708 -0.010871 -0.003202 0.000037 0.005591 -0.000020
# 2 -0.010871 0.045181 -0.002807 0.000026 -0.008035 -0.000053
# 3 -0.003202 -0.002807 0.009839 0.000092 -0.003462 -0.000146
# 4 0.000037 0.000026 0.000092 -0.013335 -0.000011 0.062722
# 5 0.005591 -0.008035 -0.003462 -0.000011 0.027747 0.000087
# 6 -0.000020 -0.000053 -0.000146 0.062722 0.000087 0.042893
#
#
# Mechanical properties :
#
#
# Convention : Reuss Voigt Hill
#
# Bulk Modulus (GPa) = 27.05053 42.63295 34.84174
# Shear Modulus (GPa) = 28.71666 18.09602 23.40634
#
# Velocity S-wave (km/s) = 4.17740 3.31612 3.77143
# Velocity P-wave (km/s) = 6.30125 6.36943 6.33543
#
# Compressibility (1/GPa) = 0.03696785
#
# Stress axis : x y z
#
# Youngs Moduli (GPa) = 63.66321 22.13338 101.63344
#
# Poissons Ratio (x) = 0.24061 0.32545
# Poissons Ratio (y) = 0.69209 0.28524
# Poissons Ratio (z) = 0.20386 0.06212
#
# Static dielectric constant tensor:
#      x y z
#    x 1.566890 0.000000 0.027610 
#    y 0.000000 1.513800 -0.000040 
#    z 0.027610 -0.000040 1.621820 
# 
# From -- ./inp_files/77622.got.cif
#   From: 2010.05.17/outbox.cif.g08.bks.cpg/sg12_39_cif.got.tgz:77622.got - 2010.06.03 13:09:07.
