data_PCOD9178570
_publ_section_title
;
Structure prediction by ZEFSAII (Michael W. Deem and Ramdas Pophale) SiO2 
 PCOD9178570
Probable space group: C 2/M
;
_chemical_formula_sum "Si O2"
_cell_formula_units_Z 56
_cell_length_a 19.838229
_cell_length_b 7.725076
_cell_length_c 22.790889
_cell_angle_alpha 90.000000
_cell_angle_beta 56.674850
_cell_angle_gamma 90.000000
_cell_volume 2918.420282
_symmetry_space_group_name_H-M "C 2/M"
_symmetry_group_IT_number 12
_symmetry_cell_setting 'monoclinic'
loop_
_space_group_symop_operation_xyz
x,y,z
-x,y,-z
-x,-y,-z
x,-y,z
1/2+x,1/2+y,z
1/2-x,1/2+y,-z
1/2-x,1/2-y,-z
1/2+x,1/2-y,z
loop_
_atom_site_type_symbol
_atom_site_label
_atom_site_fract_x
_atom_site_fract_y
_atom_site_fract_z
Si Si1 0.961217 0.800178 0.077347
Si Si2 0.677092 0.291108 0.490749
Si Si3 0.288242 0.709123 0.199401
Si Si4 0.241151 0.709123 0.096576
Si Si5 0.000865 0.799879 0.428172
Si Si6 0.674630 0.293654 0.358434
Si Si7 0.381798 0.795273 0.941495
O O1 0.879096 0.726983 0.143157
O O2 0.033191 0.793365 0.089244
O O3 0.941791 0.000000 0.071050
O O4 0.000000 0.718414 0.000000
O O5 0.671794 0.500000 0.491781
O O6 0.750000 0.250000 0.500000
O O7 0.586020 0.226510 0.550181
O O8 0.691723 0.229931 0.416496
O O9 0.289432 0.500000 0.200557
O O10 0.239120 0.764234 0.164796
O O11 0.246495 0.765795 0.278902
O O12 0.240583 0.500000 0.095165
O O13 0.168711 0.770828 0.090012
O O14 0.323862 0.764821 0.025299
O O15 0.089364 0.721828 0.373580
O O16 0.000000 0.800453 0.500000
O O17 0.001629 0.000000 0.407501
O O18 0.662212 0.500000 0.369971
O O19 0.394950 0.000000 0.929105
#
# Coordination Sequence:
#
# PCOD9178570 Si02
#       7
#     8   8   8   8   8   8   8
#     4  10  19  34  52  68  95 136 172 207 255 311
#     4   9  17  31  53  79 105 133 164 200 242 291
#     4  10  20  34  52  71  96 134 171 204 252 308
#     4   9  18  34  50  67  95 129 160 197 253 308
#     4   7  12  27  50  71  93 126 163 193 230 282
#     4   9  18  33  52  74 100 130 166 210 250 284
#     4  10  19  30  50  75  95 118 160 215 255 293
#
# _framework density 19.188462999999999
#
# number of rings (size 3 to 8) (size 9 to 14) (size 15 to 20)
#    0.000    2.857    1.429    2.143    0.000    2.571 
#    0.000    2.143    0.000    9.429    0.000    0.000 
#    0.000    0.000    0.000    0.000    0.000    0.000 
#
# Total GULP energy -155936.631407 kJ/mol
# GULP energy per Si atom -5569.165407 kJ/mol
# Density = 1.914479 g / cm^3
# Si number density = 19.188463 Si / 1000 Ang^3
#
#
#
# Elastic Constant Matrix: (Units=GPa)
#
#
# Indices 1 2 3 4 5 6 
#
# 1 156.8834 3.9541 73.8069 -0.0003 -9.7064 0.0000
# 2 3.9541 30.8825 4.5284 -0.0011 -0.5318 -0.0010
# 3 73.8069 4.5284 115.2635 0.0000 -14.2444 0.0000
# 4 -0.0003 -0.0011 0.0000 15.9033 0.0000 1.7074
# 5 -9.7064 -0.5318 -14.2444 0.0000 25.5596 -0.0001
# 6 0.0000 -0.0010 0.0000 1.7074 -0.0001 20.2097
#
#
#
# Elastic Compliance Matrix: (Units=1/GPa)
#
#
# Indices 1 2 3 4 5 6 
#
# 1 0.009126 -0.000314 -0.005804 0.000000 0.000225 0.000000
# 2 -0.000314 0.032579 -0.001085 0.000002 -0.000046 0.000001
# 3 -0.005804 -0.001085 0.013059 0.000000 0.005051 0.000000
# 4 0.000000 0.000002 0.000000 0.063456 0.000000 -0.005361
# 5 0.000225 -0.000046 0.005051 0.000000 0.042024 0.000000
# 6 0.000000 0.000001 0.000000 -0.005361 0.000000 0.049934
#
#
# Mechanical properties :
#
#
# Convention : Reuss Voigt Hill
#
# Bulk Modulus (GPa) = 24.77689 51.95647 38.36668
# Shear Modulus (GPa) = 21.00522 27.05052 24.02787
#
# Velocity S-wave (km/s) = 3.31218 3.75871 3.54249
# Velocity P-wave (km/s) = 5.25051 6.78033 6.06386
#
# Compressibility (1/GPa) = 0.04036019
#
# Stress axis : x y z
#
# Youngs Moduli (GPa) = 109.57180 30.69438 76.57548
#
# Poissons Ratio (x) = 0.00963 0.44443
# Poissons Ratio (y) = 0.03436 0.08307
# Poissons Ratio (z) = 0.63594 0.03330
#
# Static dielectric constant tensor:
#      x y z
#    x 1.709280 0.000000 -0.011730 
#    y 0.000000 1.725980 0.000000 
#    z -0.011730 0.000000 1.660860 
# 
# From -- ./inp_files/319046.got.cif
#   From: 2010.05.17/outbox.cif.g08.bks.cpg/sg12_160_cif.got.tgz:319046.got - 2010.06.03 13:09:07.
