data_PCOD9178467
_publ_section_title
;
Structure prediction by ZEFSAII (Michael W. Deem and Ramdas Pophale) SiO2 
 PCOD9178467
Probable space group: C 2/M
;
_chemical_formula_sum "Si O2"
_cell_formula_units_Z 64
_cell_length_a 19.519663
_cell_length_b 19.849349
_cell_length_c 26.426902
_cell_angle_alpha 90.000000
_cell_angle_beta 159.654341
_cell_angle_gamma 90.000000
_cell_volume 3559.985466
_symmetry_space_group_name_H-M "C 2/M"
_symmetry_group_IT_number 12
_symmetry_cell_setting 'monoclinic'
loop_
_space_group_symop_operation_xyz
x,y,z
-x,y,-z
-x,-y,-z
x,-y,z
1/2+x,1/2+y,z
1/2-x,1/2+y,-z
1/2-x,1/2-y,-z
1/2+x,1/2-y,z
loop_
_atom_site_type_symbol
_atom_site_label
_atom_site_fract_x
_atom_site_fract_y
_atom_site_fract_z
Si Si1 0.653688 0.922765 0.152486
Si Si2 0.692536 0.789368 0.663488
Si Si3 0.844972 0.217262 0.167722
Si Si4 0.545579 0.334349 0.971662
Si Si5 0.867529 0.695331 0.697793
Si Si6 0.662266 0.922901 0.890369
Si Si7 0.971774 0.805244 0.364934
Si Si8 0.281297 0.925520 0.956714
O O1 0.830019 0.870034 0.272804
O O2 0.514828 0.918624 0.105893
O O3 0.722455 0.000000 0.195414
O O4 0.500000 0.909386 0.000000
O O5 0.500000 0.817975 0.500000
O O6 0.783215 0.731385 0.689555
O O7 0.613380 0.752040 0.657995
O O8 0.862384 0.836344 0.805233
O O9 0.960196 0.220387 0.299982
O O10 0.970842 0.252655 0.211557
O O11 0.643132 0.259610 0.034090
O O12 0.813181 0.139327 0.133766
O O13 0.500000 0.344864 0.000000
O O14 0.707451 0.386636 0.062264
O O15 0.690432 0.684192 0.536114
O O16 0.977046 0.624217 0.775198
O O17 0.768373 0.924252 0.018515
O O18 0.614013 0.000000 0.843607
O O19 0.226395 0.000000 0.898414
#
# Coordination Sequence:
#
# PCOD9178467 Si02
#       8
#     8   8   8   8   8   8   8   8
#     4  10  19  30  48  77 110 144 181 221 269 329
#     4  10  21  36  55  86 119 143 176 230 287 337
#     4  11  20  33  56  82 113 142 187 236 270 326
#     4  11  21  36  62  87 107 146 194 234 283 326
#     4  10  22  36  52  80 113 148 186 223 288 330
#     4  10  22  39  57  79 110 148 192 236 276 330
#     4  11  20  32  53  80 112 146 176 229 279 333
#     4  10  20  34  55  82 112 144 181 224 273 327
#
# _framework density 17.977602000000001
#
# number of rings (size 3 to 8) (size 9 to 14) (size 15 to 20)
#    0.000    1.625    2.500    3.375    0.000    2.750 
#    0.000    0.000    0.000    4.875    0.000    0.000 
#    0.000    0.000    0.000    0.000    0.000    0.000 
#
# Total GULP energy -178367.600063 kJ/mol
# GULP energy per Si atom -5573.987502 kJ/mol
# Density = 1.793668 g / cm^3
# Si number density = 17.977602 Si / 1000 Ang^3
#
#
#
# Elastic Constant Matrix: (Units=GPa)
#
#
# Indices 1 2 3 4 5 6 
#
# 1 64.9277 17.8415 2.0126 0.0298 -5.0031 0.0179
# 2 17.8415 65.1491 5.0419 -0.0402 2.1583 -0.0373
# 3 2.0126 5.0419 50.7271 -0.0773 -1.6870 -0.0606
# 4 0.0298 -0.0402 -0.0773 12.4245 0.0024 -4.4423
# 5 -5.0031 2.1583 -1.6870 0.0024 19.1197 -0.0040
# 6 0.0179 -0.0373 -0.0606 -4.4423 -0.0040 10.5552
#
#
#
# Elastic Compliance Matrix: (Units=1/GPa)
#
#
# Indices 1 2 3 4 5 6 
#
# 1 0.017124 -0.004854 -0.000030 -0.000087 0.005026 -0.000081
# 2 -0.004854 0.016912 -0.001599 0.000091 -0.003320 0.000096
# 3 -0.000030 -0.001599 0.019938 0.000186 0.001932 0.000188
# 4 -0.000087 0.000091 0.000186 0.094745 -0.000021 0.039877
# 5 0.005026 -0.003320 0.001932 -0.000021 0.054162 0.000003
# 6 -0.000081 0.000096 0.000188 0.039877 0.000003 0.111524
#
#
# Mechanical properties :
#
#
# Convention : Reuss Voigt Hill
#
# Bulk Modulus (GPa) = 24.38449 25.62178 25.00314
# Shear Modulus (GPa) = 14.66099 18.81374 16.73737
#
# Velocity S-wave (km/s) = 2.85882 3.23849 3.05456
# Velocity P-wave (km/s) = 4.94878 5.31665 5.13601
#
# Compressibility (1/GPa) = 0.04100967
#
# Stress axis : x y z
#
# Youngs Moduli (GPa) = 58.39825 59.12797 50.15510
#
# Poissons Ratio (x) = 0.28699 0.00151
# Poissons Ratio (y) = 0.28345 0.08018
# Poissons Ratio (z) = 0.00176 0.09452
#
# Static dielectric constant tensor:
#      x y z
#    x 1.642930 -0.000020 -0.008230 
#    y -0.000020 1.613700 -0.000010 
#    z -0.008230 -0.000010 1.659960 
# 
# From -- ./inp_files/366822.got.cif
#   From: 2010.05.17/outbox.cif.g08.bks.cpg/sg12_184_cif.got.tgz:366822.got - 2010.06.03 13:09:07.
