data_PCOD9178757
_publ_section_title
;
Structure prediction by ZEFSAII (Michael W. Deem and Ramdas Pophale) SiO2 
 PCOD9178757
Probable space group: C 2/M
;
_chemical_formula_sum "Si O2"
_cell_formula_units_Z 56
_cell_length_a 19.104466
_cell_length_b 26.051680
_cell_length_c 5.788817
_cell_angle_alpha 90.000000
_cell_angle_beta 52.459665
_cell_angle_gamma 90.000000
_cell_volume 2284.506216
_symmetry_space_group_name_H-M "C 2/M"
_symmetry_group_IT_number 12
_symmetry_cell_setting 'monoclinic'
loop_
_space_group_symop_operation_xyz
x,y,z
-x,y,-z
-x,-y,-z
x,-y,z
1/2+x,1/2+y,z
1/2-x,1/2+y,-z
1/2-x,1/2-y,-z
1/2+x,1/2-y,z
loop_
_atom_site_type_symbol
_atom_site_label
_atom_site_fract_x
_atom_site_fract_y
_atom_site_fract_z
Si Si1 0.378487 0.000000 0.373116
Si Si2 0.824836 0.384723 0.484777
Si Si3 0.617453 0.643016 0.390727
Si Si4 0.176663 0.614540 0.013175
Si Si5 0.348862 0.759511 0.211430
Si Si6 0.617076 0.642995 0.892430
Si Si7 0.096655 0.266591 0.396590
Si Si8 0.880964 0.500000 0.867443
O O1 0.324038 0.946926 0.485129
O O2 0.425705 0.000000 0.526177
O O3 0.424704 0.000000 0.031364
O O4 0.865617 0.370920 0.653941
O O5 0.723874 0.365031 0.683631
O O6 0.864587 0.371103 0.152772
O O7 0.585262 0.623887 0.706218
O O8 0.605672 0.704573 0.406796
O O9 0.722057 0.631621 0.185650
O O10 0.584809 0.623500 0.206392
O O11 0.174389 0.552509 0.019829
O O12 0.250000 0.750000 0.500000
O O13 0.396564 0.704504 0.084247
O O14 0.389205 0.784165 0.365094
O O15 0.344541 0.779457 0.952701
O O16 0.000000 0.279404 0.500000
#
# Coordination Sequence:
#
# PCOD9178757 Si02
#       8
#     4   8   8   8   8   8   8   4
#     4   8  12  16  24  38  58  82 109 142 179 218
#     4   8  12  18  27  41  61  85 112 145 182 221
#     4   8  14  23  35  50  69  92 120 154 194 233
#     4   8  12  18  27  41  60  83 111 145 185 227
#     4  10  19  31  46  64  85 109 136 169 206 245
#     4   8  14  23  35  50  70  94 121 154 191 230
#     4  10  19  31  46  64  84 107 135 169 206 245
#     4   8  12  16  24  38  57  80 108 142 182 224
#
# _framework density 24.512955000000002
#
# number of rings (size 3 to 8) (size 9 to 14) (size 15 to 20)
#    0.000    3.429    0.000    0.857    0.000    0.000 
#    0.000    0.000    0.000    0.000    0.000    0.500 
#    0.000    0.000    0.000   65.143    0.000   12.000 
#
# Total GULP energy -155937.215656 kJ/mol
# GULP energy per Si atom -5569.186273 kJ/mol
# Density = 2.445716 g / cm^3
# Si number density = 24.512955 Si / 1000 Ang^3
#
#
#
# Elastic Constant Matrix: (Units=GPa)
#
#
# Indices 1 2 3 4 5 6 
#
# 1 141.8269 36.0828 75.0495 0.0000 63.9030 0.0000
# 2 36.0828 66.7183 36.4827 0.0000 16.9724 0.0000
# 3 75.0495 36.4827 213.0878 0.0000 76.9742 0.0000
# 4 0.0000 0.0000 0.0000 15.4570 0.0000 33.8079
# 5 63.9030 16.9724 76.9742 0.0000 75.3382 0.0000
# 6 0.0000 0.0000 0.0000 33.8079 0.0000 7.1662
#
#
#
# Elastic Compliance Matrix: (Units=1/GPa)
#
#
# Indices 1 2 3 4 5 6 
#
# 1 0.012489 -0.004213 -0.000307 0.000000 -0.009331 0.000000
# 2 -0.004213 0.018041 -0.002263 0.000000 0.001821 0.000000
# 3 -0.000307 -0.002263 0.007783 0.000000 -0.007182 0.000000
# 4 0.000000 0.000000 0.000000 -0.006943 0.000000 0.032753
# 5 -0.009331 0.001821 -0.007182 0.000000 0.028116 0.000000
# 6 0.000000 0.000000 0.000000 0.032753 0.000000 -0.014975
#
#
# Mechanical properties :
#
#
# Convention : Reuss Voigt Hill
#
# Bulk Modulus (GPa) = 40.40786 79.65143 60.02964
# Shear Modulus (GPa) = 75.38554 37.86014 56.62284
#
# Velocity S-wave (km/s) = 5.55159 3.93427 4.81137
# Velocity P-wave (km/s) = 7.59036 7.29398 7.44364
#
# Compressibility (1/GPa) = 0.02474766
#
# Stress axis : x y z
#
# Youngs Moduli (GPa) = 80.06808 55.42933 128.49189
#
# Poissons Ratio (x) = 0.23353 0.03941
# Poissons Ratio (y) = 0.33733 0.29076
# Poissons Ratio (z) = 0.02456 0.12543
#
# Static dielectric constant tensor:
#      x y z
#    x 1.891830 0.000000 -0.207810 
#    y 0.000000 1.998690 0.000000 
#    z -0.207810 0.000000 1.123930 
# 
# From -- ./inp_files/18258.got.cif
#   From: 2010.05.17/outbox.cif.g08.bks.cpg/sg12_10_cif.got.tgz:18258.got - 2010.06.03 13:09:07.
