data_PCOD9178130
_publ_section_title
;
Structure prediction by ZEFSAII (Michael W. Deem and Ramdas Pophale) SiO2 
 PCOD9178130
Probable space group: C 2/M
;
_chemical_formula_sum "Si O2"
_cell_formula_units_Z 64
_cell_length_a 25.601206
_cell_length_b 7.620734
_cell_length_c 16.887635
_cell_angle_alpha 90.000000
_cell_angle_beta 61.387249
_cell_angle_gamma 90.000000
_cell_volume 2892.407280
_symmetry_space_group_name_H-M "C 2/M"
_symmetry_group_IT_number 12
_symmetry_cell_setting 'monoclinic'
loop_
_space_group_symop_operation_xyz
x,y,z
-x,y,-z
-x,-y,-z
x,-y,z
1/2+x,1/2+y,z
1/2-x,1/2+y,-z
1/2-x,1/2-y,-z
1/2+x,1/2-y,z
loop_
_atom_site_type_symbol
_atom_site_label
_atom_site_fract_x
_atom_site_fract_y
_atom_site_fract_z
Si Si1 0.069322 0.792492 0.678819
Si Si2 0.069164 0.710424 0.941698
Si Si3 0.152765 0.800231 0.748023
Si Si4 0.261067 0.284525 0.174959
Si Si5 0.445522 0.292764 0.487533
Si Si6 0.128855 0.712288 0.315307
Si Si7 0.560606 0.204241 0.217355
Si Si8 0.154526 0.199131 0.020494
O O1 0.125040 0.717845 0.688579
O O2 0.063166 0.719778 0.594163
O O3 0.002901 0.777167 0.764530
O O4 0.081683 0.000000 0.664803
O O5 0.080657 0.500000 0.931772
O O6 0.094388 0.797982 0.845252
O O7 0.104444 0.792851 0.988726
O O8 0.000000 0.736937 0.000000
O O9 0.201061 0.724716 0.775207
O O10 0.172642 0.000000 0.717185
O O11 0.265286 0.500000 0.169979
O O12 0.193498 0.232624 0.238020
O O13 0.289430 0.225091 0.070179
O O14 0.500000 0.216464 0.500000
O O15 0.457270 0.500000 0.469244
O O16 0.388089 0.269992 0.584707
O O17 0.128101 0.500000 0.313883
O O18 0.079705 0.779608 0.288616
O O19 0.548708 0.000000 0.234728
O O20 0.619149 0.219470 0.119677
O O21 0.169028 0.000000 0.032154
#
# Coordination Sequence:
#
# PCOD9178130 Si02
#       8
#     8   8   8   8   8   8   8   8
#     4  10  20  35  56  81 108 140 176 218 267 319
#     4  10  19  30  46  71 105 139 173 218 268 310
#     4   9  18  33  54  75  99 137 180 216 257 312
#     4   8  17  36  56  75 102 140 183 220 254 306
#     4  10  20  36  57  81 110 138 172 219 267 315
#     4  10  21  37  57  78 105 141 178 217 267 322
#     4  11  22  33  50  80 112 139 174 222 271 316
#     4  10  20  34  53  74 102 143 184 218 257 310
#
# _framework density 22.126898000000001
#
# number of rings (size 3 to 8) (size 9 to 14) (size 15 to 20)
#    0.000    2.250    1.250    2.625    0.000    5.250 
#    0.000    3.750    0.000    0.000    0.000    0.000 
#    0.000    0.000    0.000    0.000    0.000    0.000 
#
# Total GULP energy -178414.915894 kJ/mol
# GULP energy per Si atom -5575.466122 kJ/mol
# Density = 2.207654 g / cm^3
# Si number density = 22.126898 Si / 1000 Ang^3
#
#
#
# Elastic Constant Matrix: (Units=GPa)
#
#
# Indices 1 2 3 4 5 6 
#
# 1 49.7956 -2.9624 11.8941 0.0028 4.4421 0.0019
# 2 -2.9624 46.0419 -7.7260 0.0081 1.6593 0.0051
# 3 11.8941 -7.7260 89.3912 -0.0016 4.0627 -0.0011
# 4 0.0028 0.0081 -0.0016 -330.1669 -0.0008 -252.6850
# 5 4.4421 1.6593 4.0627 -0.0008 36.1313 -0.0006
# 6 0.0019 0.0051 -0.0011 -252.6850 -0.0006 -164.6284
#
#
#
# Elastic Compliance Matrix: (Units=1/GPa)
#
#
# Indices 1 2 3 4 5 6 
#
# 1 0.020970 0.000997 -0.002598 0.000000 -0.002332 0.000000
# 2 0.000997 0.022141 0.001842 0.000000 -0.001347 0.000001
# 3 -0.002598 0.001842 0.011741 0.000000 -0.001085 0.000000
# 4 0.000000 0.000000 0.000000 0.017339 0.000000 -0.026613
# 5 -0.002332 -0.001347 -0.001085 0.000000 0.028147 0.000000
# 6 0.000000 0.000001 0.000000 -0.026613 0.000000 0.034773
#
#
# Mechanical properties :
#
#
# Convention : Reuss Voigt Hill
#
# Bulk Modulus (GPa) = 18.07175 20.84891 19.46033
# Shear Modulus (GPa) = 32.66404 -79.46460 -23.40028
#
# Velocity S-wave (km/s) = 3.84632 -5.99926 -3.25553
# Velocity P-wave (km/s) = 5.28305 6.20848 2.30593
#
# Compressibility (1/GPa) = 0.05533499
#
# Stress axis : x y z
#
# Youngs Moduli (GPa) = 47.68723 45.16473 85.17159
#
# Poissons Ratio (x) = -0.04504 0.22128
# Poissons Ratio (y) = -0.04756 -0.15690
# Poissons Ratio (z) = 0.12389 -0.08320
#
# Static dielectric constant tensor:
#      x y z
#    x 1.775640 0.000000 -0.064280 
#    y 0.000000 1.822960 0.000000 
#    z -0.064280 0.000000 1.663840 
# 
# From -- ./inp_files/249118.got.cif
#   From: 2010.05.17/outbox.cif.g08.bks.cpg/sg12_125_cif.got.tgz:249118.got - 2010.06.03 13:09:07.
