data_PCOD9178955
_publ_section_title
;
Structure prediction by ZEFSAII (Michael W. Deem and Ramdas Pophale) SiO2 
 PCOD9178955
Probable space group: C 2/M
;
_chemical_formula_sum "Si O2"
_cell_formula_units_Z 64
_cell_length_a 24.269547
_cell_length_b 25.619801
_cell_length_c 12.382684
_cell_angle_alpha 90.000000
_cell_angle_beta 26.561289
_cell_angle_gamma 90.000000
_cell_volume 3442.787138
_symmetry_space_group_name_H-M "C 2/M"
_symmetry_group_IT_number 12
_symmetry_cell_setting 'monoclinic'
loop_
_space_group_symop_operation_xyz
x,y,z
-x,y,-z
-x,-y,-z
x,-y,z
1/2+x,1/2+y,z
1/2-x,1/2+y,-z
1/2-x,1/2-y,-z
1/2+x,1/2-y,z
loop_
_atom_site_type_symbol
_atom_site_label
_atom_site_fract_x
_atom_site_fract_y
_atom_site_fract_z
Si Si1 0.179291 0.398497 0.709011
Si Si2 0.633334 0.059420 0.012712
Si Si3 0.686153 0.561889 0.915773
Si Si4 0.158536 0.279883 0.804842
Si Si5 0.061446 0.060383 0.775264
Si Si6 0.407121 0.235752 0.326947
Si Si7 0.640554 0.436613 0.238976
Si Si8 0.111680 0.614233 0.587991
O O1 0.139882 0.342002 0.823682
O O2 0.325685 0.400785 0.434238
O O3 0.121151 0.408208 0.693823
O O4 0.150950 0.438613 0.853182
O O5 0.514534 0.094497 0.244080
O O6 0.610942 0.000000 0.087900
O O7 0.759622 0.079005 0.846217
O O8 0.714617 0.500000 0.854746
O O9 0.775552 0.593480 0.680777
O O10 0.545183 0.568432 0.124851
O O11 0.692129 0.577013 0.030426
O O12 0.302731 0.268661 0.572129
O O13 0.126339 0.258214 0.741644
O O14 0.055583 0.257043 0.066922
O O15 0.105410 0.000000 0.689477
O O16 0.000000 0.065920 0.000000
O O17 0.384111 0.176151 0.403136
O O18 0.500000 0.417675 0.500000
O O19 0.634017 0.500000 0.255019
#
# Coordination Sequence:
#
# PCOD9178955 Si02
#       8
#     8   8   8   8   8   8   8   8
#     4  11  20  33  51  77 111 147 183 221 269 333
#     4  11  22  33  52  78 110 151 186 218 267 327
#     4  10  20  34  52  75 109 148 187 229 269 318
#     4   9  18  33  52  72 105 146 184 226 276 327
#     4  10  19  31  47  73 109 144 179 218 262 318
#     4   9  18  34  51  74 106 143 182 227 275 333
#     4   9  19  37  55  72 101 144 193 237 267 305
#     4  11  21  33  50  77 116 143 174 222 279 335
#
# _framework density 18.589589
#
# number of rings (size 3 to 8) (size 9 to 14) (size 15 to 20)
#    0.000    2.000    2.500    1.875    0.000    5.500 
#    2.250    1.875    0.000    0.000    0.000    0.875 
#    3.750    0.000    0.000    0.000    0.000    0.000 
#
# Total GULP energy -178398.744450 kJ/mol
# GULP energy per Si atom -5574.960764 kJ/mol
# Density = 1.854728 g / cm^3
# Si number density = 18.589589 Si / 1000 Ang^3
#
#
#
# Elastic Constant Matrix: (Units=GPa)
#
#
# Indices 1 2 3 4 5 6 
#
# 1 68.4626 16.0641 27.6170 -0.0005 -6.1941 -0.0001
# 2 16.0641 11.9317 25.5371 -0.0028 -3.8622 0.0014
# 3 27.6170 25.5371 114.3654 -0.0047 -13.3365 0.0022
# 4 -0.0005 -0.0028 -0.0047 25.1993 0.0016 -4.2527
# 5 -6.1941 -3.8622 -13.3365 0.0016 18.6899 -0.0004
# 6 -0.0001 0.0014 0.0022 -4.2527 -0.0004 5.6406
#
#
#
# Elastic Compliance Matrix: (Units=1/GPa)
#
#
# Indices 1 2 3 4 5 6 
#
# 1 0.021775 -0.034311 0.002637 -0.000002 0.002008 0.000007
# 2 -0.034311 0.215777 -0.039292 0.000010 0.005181 -0.000032
# 3 0.002637 -0.039292 0.017491 -0.000001 0.005236 0.000003
# 4 -0.000002 0.000010 -0.000001 0.045469 -0.000002 0.034281
# 5 0.002008 0.005181 0.005236 -0.000002 0.058977 -0.000001
# 6 0.000007 -0.000032 0.000003 0.034281 -0.000001 0.203133
#
#
# Mechanical properties :
#
#
# Convention : Reuss Voigt Hill
#
# Bulk Modulus (GPa) = 8.84083 37.02180 22.93131
# Shear Modulus (GPa) = 6.73619 18.27539 12.50579
#
# Velocity S-wave (km/s) = 1.90565 3.13884 2.59652
# Velocity P-wave (km/s) = 3.09970 5.75283 4.62078
#
# Compressibility (1/GPa) = 0.11311161
#
# Stress axis : x y z
#
# Youngs Moduli (GPa) = 45.92393 4.63441 57.17151
#
# Poissons Ratio (x) = 0.15901 -0.15079
# Poissons Ratio (y) = 1.57572 2.24639
# Poissons Ratio (z) = -0.12112 0.18210
#
# Static dielectric constant tensor:
#      x y z
#    x 1.639090 0.000000 -0.018220 
#    y 0.000000 1.637740 0.000000 
#    z -0.018220 0.000000 1.696950 
# 
# From -- ./inp_files/170601.got.cif
#   From: 2010.05.17/outbox.cif.g08.bks.cpg/sg12_86_cif.got.tgz:170601.got - 2010.06.03 13:09:07.
