data_PCOD9178222
_publ_section_title
;
Structure prediction by ZEFSAII (Michael W. Deem and Ramdas Pophale) SiO2 
 PCOD9178222
Probable space group: C 2/M
;
_chemical_formula_sum "Si O2"
_cell_formula_units_Z 64
_cell_length_a 32.297250
_cell_length_b 7.611596
_cell_length_c 15.246656
_cell_angle_alpha 90.000000
_cell_angle_beta 61.641593
_cell_angle_gamma 90.000000
_cell_volume 3298.339808
_symmetry_space_group_name_H-M "C 2/M"
_symmetry_group_IT_number 12
_symmetry_cell_setting 'monoclinic'
loop_
_space_group_symop_operation_xyz
x,y,z
-x,y,-z
-x,-y,-z
x,-y,z
1/2+x,1/2+y,z
1/2-x,1/2+y,-z
1/2-x,1/2-y,-z
1/2+x,1/2-y,z
loop_
_atom_site_type_symbol
_atom_site_label
_atom_site_fract_x
_atom_site_fract_y
_atom_site_fract_z
Si Si1 0.067961 0.792611 0.287103
Si Si2 0.618492 0.298986 0.402763
Si Si3 0.466746 0.785569 0.183518
Si Si4 0.301766 0.790738 0.344570
Si Si5 0.383938 0.784660 0.137746
Si Si6 0.040149 0.703583 0.612483
Si Si7 0.805311 0.787248 0.538344
Si Si8 0.425774 0.787788 0.917979
O O1 0.103202 0.719588 0.325187
O O2 0.084761 0.767710 0.170538
O O3 0.015677 0.713996 0.347978
O O4 0.062364 0.000000 0.308888
O O5 0.633131 0.500000 0.370332
O O6 0.571590 0.298563 0.509430
O O7 0.659385 0.220720 0.422519
O O8 0.429521 0.730639 0.148445
O O9 0.452480 0.728655 0.295893
O O10 0.520618 0.730314 0.114455
O O11 0.467000 0.000000 0.184131
O O12 0.337635 0.722838 0.235416
O O13 0.248265 0.722370 0.395137
O O14 0.320437 0.760723 0.424405
O O15 0.298732 0.000000 0.335338
O O16 0.383305 0.000000 0.139085
O O17 0.391467 0.728627 0.029999
O O18 0.054358 0.500000 0.595413
O O19 0.805143 0.000000 0.541313
O O20 0.426201 0.000000 0.917685
#
# Coordination Sequence:
#
# PCOD9178222 Si02
#       8
#     8   8   8   8   8   8   8   8
#     4  10  20  33  46  61  88 125 158 187 223 269
#     4  10  20  32  46  64  89 124 158 185 222 272
#     4   8  14  24  40  65  93 116 139 172 218 269
#     4   9  17  30  49  72  95 119 148 184 229 277
#     4   9  15  25  45  69  90 115 149 186 224 269
#     4  10  19  30  47  71  95 118 148 188 228 266
#     4   9  18  32  48  68  95 122 149 184 225 272
#     4   9  17  29  45  65  89 118 153 191 225 259
#
# _framework density 19.403701999999999
#
# number of rings (size 3 to 8) (size 9 to 14) (size 15 to 20)
#    0.000    2.750    0.000    3.000    0.000    5.500 
#    0.000    0.625    0.000    7.500    0.000    0.000 
#    0.000    0.000    0.000    0.000    0.000    0.125 
#
# Total GULP energy -178531.705614 kJ/mol
# GULP energy per Si atom -5579.115800 kJ/mol
# Density = 1.935954 g / cm^3
# Si number density = 19.403702 Si / 1000 Ang^3
#
#
#
# Elastic Constant Matrix: (Units=GPa)
#
#
# Indices 1 2 3 4 5 6 
#
# 1 112.0705 -5.4749 69.1278 0.0000 23.0963 0.0000
# 2 -5.4749 41.7472 -3.1109 0.0000 -1.8895 0.0000
# 3 69.1278 -3.1109 138.0943 0.0000 5.0891 0.0000
# 4 0.0000 0.0000 0.0000 15.8539 0.0000 5.6238
# 5 23.0963 -1.8895 5.0891 0.0000 19.2215 0.0000
# 6 0.0000 0.0000 0.0000 5.6238 0.0000 12.1559
#
#
#
# Elastic Compliance Matrix: (Units=1/GPa)
#
#
# Indices 1 2 3 4 5 6 
#
# 1 0.018121 0.000874 -0.008333 0.000000 -0.019481 0.000000
# 2 0.000874 0.024132 0.000058 0.000000 0.001307 0.000000
# 3 -0.008333 0.000058 0.011154 0.000000 0.007066 0.000000
# 4 0.000000 0.000000 0.000000 0.075460 0.000000 -0.034910
# 5 -0.019481 0.001307 0.007066 0.000000 0.073691 0.000000
# 6 0.000000 0.000000 0.000000 -0.034910 0.000000 0.098415
#
#
# Mechanical properties :
#
#
# Convention : Reuss Voigt Hill
#
# Bulk Modulus (GPa) = 25.90454 45.88846 35.89650
# Shear Modulus (GPa) = 15.21406 24.87092 20.04249
#
# Velocity S-wave (km/s) = 2.80318 3.58405 3.21740
# Velocity P-wave (km/s) = 4.88430 6.38967 5.68702
#
# Compressibility (1/GPa) = 0.03860326
#
# Stress axis : x y z
#
# Youngs Moduli (GPa) = 55.18561 41.43912 89.65504
#
# Poissons Ratio (x) = -0.03620 0.74712
# Poissons Ratio (y) = -0.04821 -0.00521
# Poissons Ratio (z) = 0.45988 -0.00241
#
# Static dielectric constant tensor:
#      x y z
#    x 1.685000 0.000000 0.011230 
#    y 0.000000 1.736170 0.000000 
#    z 0.011230 0.000000 1.673120 
# 
# From -- ./inp_files/249082.got.cif
#   From: 2010.05.17/outbox.cif.g08.bks.cpg/sg12_125_cif.got.tgz:249082.got - 2010.06.03 13:09:07.
