data_PCOD9178310
_publ_section_title
;
Structure prediction by ZEFSAII (Michael W. Deem and Ramdas Pophale) SiO2 
 PCOD9178310
Probable space group: C 2/M
;
_chemical_formula_sum "Si O2"
_cell_formula_units_Z 48
_cell_length_a 28.512003
_cell_length_b 8.613445
_cell_length_c 12.187761
_cell_angle_alpha 90.000000
_cell_angle_beta 71.471471
_cell_angle_gamma 90.000000
_cell_volume 2838.002092
_symmetry_space_group_name_H-M "C 2/M"
_symmetry_group_IT_number 12
_symmetry_cell_setting 'monoclinic'
loop_
_space_group_symop_operation_xyz
x,y,z
-x,y,-z
-x,-y,-z
x,-y,z
1/2+x,1/2+y,z
1/2-x,1/2+y,-z
1/2-x,1/2-y,-z
1/2+x,1/2-y,z
loop_
_atom_site_type_symbol
_atom_site_label
_atom_site_fract_x
_atom_site_fract_y
_atom_site_fract_z
Si Si1 0.302691 0.684866 0.001863
Si Si2 0.374342 0.316596 0.399818
Si Si3 0.290056 0.181909 0.610304
Si Si4 0.361588 0.181406 0.762823
Si Si5 0.682189 0.689599 0.761093
Si Si6 0.556422 0.187398 0.468425
O O1 0.297635 0.500000 0.010796
O O2 0.344564 0.730100 0.883250
O O3 0.250000 0.750000 0.000000
O O4 0.316648 0.741575 0.113767
O O5 0.383261 0.500000 0.391672
O O6 0.324068 0.280571 0.504523
O O7 0.362580 0.261367 0.284891
O O8 0.417503 0.237808 0.438024
O O9 0.316489 0.188682 0.709320
O O10 0.234191 0.236504 0.667027
O O11 0.290951 0.000000 0.575669
O O12 0.408935 0.240531 0.658837
O O13 0.369396 0.000000 0.783862
O O14 0.682290 0.500000 0.761302
O O15 0.500000 0.240375 0.500000
O O16 0.557393 0.000000 0.464608
#
# Coordination Sequence:
#
# PCOD9178310 Si02
#       6
#     8   8   8   8   8   8
#     4  11  20  32  48  68  99 138 173 198 231 279
#     4  10  19  30  47  73  99 123 159 205 247 287
#     4   9  16  30  47  64  97 137 165 194 236 287
#     4   9  17  31  50  73  98 124 162 205 242 283
#     4   9  18  31  45  64  99 139 164 193 239 284
#     4   9  19  37  58  74  94 126 158 198 256 307
#
# _framework density 16.913308000000001
#
# number of rings (size 3 to 8) (size 9 to 14) (size 15 to 20)
#    0.000    2.500    1.667    2.500    0.000    3.000 
#    0.000    4.167    0.000    1.000    0.000    7.000 
#    0.000    0.000    0.000    0.000    0.000    0.000 
#
# Total GULP energy -133765.423465 kJ/mol
# GULP energy per Si atom -5573.559311 kJ/mol
# Density = 1.687481 g / cm^3
# Si number density = 16.913308 Si / 1000 Ang^3
#
#
#
# Elastic Constant Matrix: (Units=GPa)
#
#
# Indices 1 2 3 4 5 6 
#
# 1 121.0517 14.3911 65.2731 0.0000 7.0343 0.0000
# 2 14.3911 12.1086 14.0984 0.0000 2.3942 0.0000
# 3 65.2731 14.0984 102.1491 0.0000 23.2394 0.0000
# 4 0.0000 0.0000 0.0000 21.4105 0.0000 -1.6170
# 5 7.0343 2.3942 23.2394 0.0000 16.0357 0.0000
# 6 0.0000 0.0000 0.0000 -1.6170 0.0000 18.5120
#
#
#
# Elastic Compliance Matrix: (Units=1/GPa)
#
#
# Indices 1 2 3 4 5 6 
#
# 1 0.014008 -0.006644 -0.010237 0.000000 0.009683 0.000000
# 2 -0.006644 0.102149 -0.010512 0.000000 0.002898 0.000000
# 3 -0.010237 -0.010512 0.024472 0.000000 -0.029405 0.000000
# 4 0.000000 0.000000 0.000000 0.047016 0.000000 0.004107
# 5 0.009683 0.002898 -0.029405 0.000000 0.100295 0.000000
# 6 0.000000 0.000000 0.000000 0.004107 0.000000 0.054378
#
#
# Mechanical properties :
#
#
# Convention : Reuss Voigt Hill
#
# Bulk Modulus (GPa) = 11.64926 46.98162 29.31544
# Shear Modulus (GPa) = 11.74484 20.62808 16.18646
#
# Velocity S-wave (km/s) = 2.63803 3.49612 3.09694
# Velocity P-wave (km/s) = 4.02263 6.64344 5.49167
#
# Compressibility (1/GPa) = 0.08584236
#
# Stress axis : x y z
#
# Youngs Moduli (GPa) = 71.38709 9.78963 40.86342
#
# Poissons Ratio (x) = 0.06504 0.41832
# Poissons Ratio (y) = 0.47429 0.42956
# Poissons Ratio (z) = 0.73080 0.10291
#
# Static dielectric constant tensor:
#      x y z
#    x 1.568070 0.000000 0.013540 
#    y 0.000000 1.576810 0.000000 
#    z 0.013540 0.000000 1.591820 
# 
# From -- ./inp_files/172333.got.cif
#   From: 2010.05.17/outbox.cif.g08.bks.cpg/sg12_87_cif.got.tgz:172333.got - 2010.06.03 13:09:07.
