data_PCOD9178758
_publ_section_title
;
Structure prediction by ZEFSAII (Michael W. Deem and Ramdas Pophale) SiO2 
 PCOD9178758
Probable space group: C 2/M
;
_chemical_formula_sum "Si O2"
_cell_formula_units_Z 52
_cell_length_a 19.035836
_cell_length_b 7.406029
_cell_length_c 14.675469
_cell_angle_alpha 90.000000
_cell_angle_beta 107.942137
_cell_angle_gamma 90.000000
_cell_volume 1968.330131
_symmetry_space_group_name_H-M "C 2/M"
_symmetry_group_IT_number 12
_symmetry_cell_setting 'monoclinic'
loop_
_space_group_symop_operation_xyz
x,y,z
-x,y,-z
-x,-y,-z
x,-y,z
1/2+x,1/2+y,z
1/2-x,1/2+y,-z
1/2-x,1/2-y,-z
1/2+x,1/2-y,z
loop_
_atom_site_type_symbol
_atom_site_label
_atom_site_fract_x
_atom_site_fract_y
_atom_site_fract_z
Si Si1 0.860084 0.293050 0.563059
Si Si2 0.358902 0.293815 0.012231
Si Si3 0.480847 0.286141 0.336802
Si Si4 0.829506 0.792774 0.757795
Si Si5 0.488723 0.279426 0.856469
Si Si6 0.739010 0.500000 0.904360
Si Si7 0.679130 0.216738 0.646522
O O1 0.837873 0.500000 0.564373
O O2 0.845580 0.205991 0.655026
O O3 0.821442 0.215405 0.458006
O O4 0.948362 0.288125 0.581209
O O5 0.357937 0.500000 0.973964
O O6 0.442776 0.228331 0.053167
O O7 0.303309 0.158374 0.942049
O O8 0.325393 0.341222 0.099610
O O9 0.491582 0.500000 0.340815
O O10 0.489066 0.221056 0.236555
O O11 0.400449 0.250093 0.343341
O O12 0.748263 0.704464 0.731221
O O13 0.903996 0.718016 0.832819
O O14 0.822039 0.000000 0.781500
O O15 0.486973 0.500000 0.858574
O O16 0.687920 0.000000 0.645271
#
# Coordination Sequence:
#
# PCOD9178758 Si02
#       7
#     8   8   8   8   8   4   8
#     4  10  19  31  46  64  86 112 147 198 243 269
#     4   8  13  25  41  64  98 120 142 180 225 265
#     4  10  20  32  46  64  85 118 157 186 229 278
#     4   9  18  32  47  64  86 118 154 183 231 281
#     4   8  15  29  46  62  89 120 143 179 223 267
#     4   8  14  22  42  70  92 120 144 178 220 270
#     4  10  20  32  45  62  89 117 149 195 235 270
#
# _framework density 26.418330999999998
#
# number of rings (size 3 to 8) (size 9 to 14) (size 15 to 20)
#    0.462    2.462    0.000    2.769    0.000    3.692 
#    6.923    0.000    0.000    0.000    0.000    0.000 
#    0.000    7.385    0.000    0.000    0.000    0.000 
#
# Total GULP energy -144843.019861 kJ/mol
# GULP energy per Si atom -5570.885379 kJ/mol
# Density = 2.635820 g / cm^3
# Si number density = 26.418331 Si / 1000 Ang^3
#
#
#
# Elastic Constant Matrix: (Units=GPa)
#
#
# Indices 1 2 3 4 5 6 
#
# 1 177.6577 -2.1213 43.3915 0.0000 38.6518 0.0000
# 2 -2.1213 108.7360 5.3147 0.0000 14.2258 0.0000
# 3 43.3915 5.3147 109.3331 0.0000 32.2257 0.0000
# 4 0.0000 0.0000 0.0000 -10.8109 0.0000 15.8079
# 5 38.6518 14.2258 32.2257 0.0000 52.7875 0.0000
# 6 0.0000 0.0000 0.0000 15.8079 0.0000 7.1674
#
#
#
# Elastic Compliance Matrix: (Units=1/GPa)
#
#
# Indices 1 2 3 4 5 6 
#
# 1 0.006961 0.000784 -0.001507 0.000000 -0.004388 0.000000
# 2 0.000784 0.009632 0.000189 0.000000 -0.003285 0.000000
# 3 -0.001507 0.000189 0.011493 0.000000 -0.005964 0.000000
# 4 0.000000 0.000000 0.000000 -0.021893 0.000000 0.048287
# 5 -0.004388 -0.003285 -0.005964 0.000000 0.026683 0.000000
# 6 0.000000 0.000000 0.000000 0.048287 0.000000 0.033023
#
#
# Mechanical properties :
#
#
# Convention : Reuss Voigt Hill
#
# Bulk Modulus (GPa) = 37.01390 54.32182 45.66786
# Shear Modulus (GPa) = 65.81201 33.10492 49.45846
#
# Velocity S-wave (km/s) = 4.99656 3.54376 4.33150
# Velocity P-wave (km/s) = 6.87957 6.11156 6.50691
#
# Compressibility (1/GPa) = 0.02701687
#
# Stress axis : x y z
#
# Youngs Moduli (GPa) = 143.65834 103.81622 87.00822
#
# Poissons Ratio (x) = -0.08134 0.13116
# Poissons Ratio (y) = -0.11256 -0.01645
# Poissons Ratio (z) = 0.21655 -0.01963
#
# Static dielectric constant tensor:
#      x y z
#    x 2.124010 0.000000 -0.066760 
#    y 0.000000 2.035530 0.000000 
#    z -0.066760 0.000000 2.149970 
# 
# From -- ./inp_files/313358.got.cif
#   From: 2010.05.17/outbox.cif.g08.bks.cpg/sg12_157_cif.got.tgz:313358.got - 2010.06.03 13:09:07.
