data_PCOD9178733
_publ_section_title
;
Structure prediction by ZEFSAII (Michael W. Deem and Ramdas Pophale) SiO2 
 PCOD9178733
Probable space group: C 2/M
;
_chemical_formula_sum "Si O2"
_cell_formula_units_Z 64
_cell_length_a 30.548000
_cell_length_b 7.582029
_cell_length_c 14.682189
_cell_angle_alpha 90.000000
_cell_angle_beta 87.990996
_cell_angle_gamma 90.000000
_cell_volume 3398.537010
_symmetry_space_group_name_H-M "C 2/M"
_symmetry_group_IT_number 12
_symmetry_cell_setting 'monoclinic'
loop_
_space_group_symop_operation_xyz
x,y,z
-x,y,-z
-x,-y,-z
x,-y,z
1/2+x,1/2+y,z
1/2-x,1/2+y,-z
1/2-x,1/2-y,-z
1/2+x,1/2-y,z
loop_
_atom_site_type_symbol
_atom_site_label
_atom_site_fract_x
_atom_site_fract_y
_atom_site_fract_z
Si Si1 0.698269 0.287348 0.515821
Si Si2 0.453280 0.790576 0.973248
Si Si3 0.627794 0.714734 0.890724
Si Si4 0.754534 0.214816 0.805902
Si Si5 0.612821 0.791200 0.165796
Si Si6 0.833756 0.796953 0.289004
Si Si7 0.164086 0.788188 0.327276
Si Si8 0.306700 0.297806 0.967091
O O1 0.695213 0.500000 0.519018
O O2 0.750000 0.250000 0.500000
O O3 0.678482 0.217399 0.612250
O O4 0.671805 0.223688 0.429075
O O5 0.431305 0.726527 0.880283
O O6 0.459340 0.000000 0.960987
O O7 0.500000 0.715041 0.000000
O O8 0.416276 0.763024 0.053048
O O9 0.630584 0.500000 0.890899
O O10 0.631682 0.778185 0.786409
O O11 0.669410 0.784322 0.947076
O O12 0.710951 0.291190 0.766104
O O13 0.793885 0.268800 0.735448
O O14 0.767342 0.274712 0.907282
O O15 0.752081 0.000000 0.806315
O O16 0.621586 0.762683 0.271724
O O17 0.652855 0.702354 0.108631
O O18 0.616783 0.000000 0.148096
O O19 0.846518 0.000000 0.304447
O O20 0.165064 0.000000 0.329978
O O21 0.296476 0.500000 0.987547
#
# Coordination Sequence:
#
# PCOD9178733 Si02
#       8
#     8   8   8   8   8   8   8   8
#     4  10  19  31  45  62  86 121 161 200 236 263
#     4   9  18  33  52  74  97 117 139 173 221 276
#     4   9  18  32  46  64  91 120 148 181 221 267
#     4   9  16  26  40  58  81 117 158 188 220 261
#     4   9  16  26  44  69  91 112 142 180 220 264
#     4  10  20  30  42  62  88 117 154 196 229 257
#     4   9  17  29  43  60  88 122 154 191 232 265
#     4   8  15  28  42  56  84 120 149 179 217 261
#
# _framework density 18.831634000000001
#
# number of rings (size 3 to 8) (size 9 to 14) (size 15 to 20)
#    0.000    2.875    1.250    1.125    0.000    4.250 
#    0.000    0.000    0.000    0.000    0.000    0.875 
#    0.000    7.000    0.000    0.000    0.000    0.000 
#
# Total GULP energy -178327.972056 kJ/mol
# GULP energy per Si atom -5572.749127 kJ/mol
# Density = 1.878877 g / cm^3
# Si number density = 18.831634 Si / 1000 Ang^3
#
#
#
# Elastic Constant Matrix: (Units=GPa)
#
#
# Indices 1 2 3 4 5 6 
#
# 1 88.4777 0.4665 48.7646 0.0000 20.7721 0.0000
# 2 0.4665 48.9072 1.3574 0.0000 4.9672 0.0000
# 3 48.7646 1.3574 167.6855 0.0000 16.4652 0.0000
# 4 0.0000 0.0000 0.0000 -12.4868 0.0000 3.4063
# 5 20.7721 4.9672 16.4652 0.0000 19.8408 0.0000
# 6 0.0000 0.0000 0.0000 3.4063 0.0000 8.5371
#
#
#
# Elastic Compliance Matrix: (Units=1/GPa)
#
#
# Indices 1 2 3 4 5 6 
#
# 1 0.016691 0.001461 -0.003390 0.000000 -0.015027 0.000000
# 2 0.001461 0.021130 0.000080 0.000000 -0.006886 0.000000
# 3 -0.003390 0.000080 0.007188 0.000000 -0.002436 0.000000
# 4 0.000000 0.000000 0.000000 -0.072223 0.000000 0.028817
# 5 -0.015027 -0.006886 -0.002436 0.000000 0.069879 0.000000
# 6 0.000000 0.000000 0.000000 0.028817 0.000000 0.105638
#
#
# Mechanical properties :
#
#
# Convention : Reuss Voigt Hill
#
# Bulk Modulus (GPa) = 24.20649 45.13861 34.67255
# Shear Modulus (GPa) = 30.16220 20.14368 25.15294
#
# Velocity S-wave (km/s) = 4.00644 3.27413 3.65865
# Velocity P-wave (km/s) = 5.85527 6.18990 6.02491
#
# Compressibility (1/GPa) = 0.04131123
#
# Stress axis : x y z
#
# Youngs Moduli (GPa) = 59.91261 47.32583 139.12113
#
# Poissons Ratio (x) = -0.06915 0.47165
# Poissons Ratio (y) = -0.08754 -0.01116
# Poissons Ratio (z) = 0.20312 -0.00380
#
# Static dielectric constant tensor:
#      x y z
#    x 1.658660 0.000000 0.012170 
#    y 0.000000 1.702800 0.000000 
#    z 0.012170 0.000000 1.728430 
# 
# From -- ./inp_files/248417.got.cif
#   From: 2010.05.17/outbox.cif.g08.bks.cpg/sg12_125_cif.got.tgz:248417.got - 2010.06.03 13:09:07.
