data_PCOD9178171
_publ_section_title
;
Structure prediction by ZEFSAII (Michael W. Deem and Ramdas Pophale) SiO2 
 PCOD9178171
Probable space group: C 2/M
;
_chemical_formula_sum "Si O2"
_cell_formula_units_Z 56
_cell_length_a 26.822164
_cell_length_b 23.890348
_cell_length_c 17.743644
_cell_angle_alpha 90.000000
_cell_angle_beta 160.891878
_cell_angle_gamma 90.000000
_cell_volume 3721.978854
_symmetry_space_group_name_H-M "C 2/M"
_symmetry_group_IT_number 12
_symmetry_cell_setting 'monoclinic'
loop_
_space_group_symop_operation_xyz
x,y,z
-x,y,-z
-x,-y,-z
x,-y,z
1/2+x,1/2+y,z
1/2-x,1/2+y,-z
1/2-x,1/2-y,-z
1/2+x,1/2-y,z
loop_
_atom_site_type_symbol
_atom_site_label
_atom_site_fract_x
_atom_site_fract_y
_atom_site_fract_z
Si Si1 0.983475 0.670914 0.101518
Si Si2 0.383256 0.758784 0.266513
Si Si3 0.888086 0.063396 0.508865
Si Si4 0.247390 0.170914 0.629347
Si Si5 0.646529 0.063395 0.025750
Si Si6 0.045681 0.250000 0.795681
Si Si7 0.380618 0.376219 0.261236
O O1 0.970777 0.708987 0.157032
O O2 0.132559 0.682708 0.265118
O O3 0.837673 0.679673 0.837673
O O4 0.977460 0.606348 0.119302
O O5 0.500000 0.770407 0.500000
O O6 0.443896 0.778733 0.272092
O O7 0.368340 0.690748 0.236680
O O8 0.212495 0.778733 0.040691
O O9 0.806224 0.106348 0.448065
O O10 0.774343 0.060245 0.274343
O O11 0.041363 0.093382 0.697928
O O12 0.912997 0.000000 0.570737
O O13 0.098268 0.208987 0.412014
O O14 0.728233 0.093381 0.071668
O O15 0.597518 0.000000 0.939778
O O16 0.500000 0.384048 0.500000
#
# Coordination Sequence:
#
# PCOD9178171 Si02
#       7
#     8   8   8   8   8   8   8
#     4  10  20  32  45  64  94 128 159 190 220 259
#     4  10  19  30  47  68  92 120 150 189 234 275
#     4   9  16  26  42  63  89 122 153 180 218 270
#     4  10  20  32  45  64  94 128 159 190 220 259
#     4   9  16  26  42  63  89 122 153 180 218 270
#     4  11  19  30  48  66  89 123 160 186 230 273
#     4   9  14  25  41  60  87 116 146 180 221 265
#
# _framework density 15.04576
#
# number of rings (size 3 to 8) (size 9 to 14) (size 15 to 20)
#    0.000    2.286    2.857    1.714    0.000    2.286 
#    0.000    2.857    0.000    0.000    0.000    0.000 
#    0.000    5.714    0.000   14.000    0.000    1.143 
#
# Total GULP energy -155878.793507 kJ/mol
# GULP energy per Si atom -5567.099768 kJ/mol
# Density = 1.501152 g / cm^3
# Si number density = 15.045760 Si / 1000 Ang^3
#
#
#
# Elastic Constant Matrix: (Units=GPa)
#
#
# Indices 1 2 3 4 5 6 
#
# 1 97.8722 37.3316 41.4620 0.0000 3.3888 0.0000
# 2 37.3316 59.8587 28.4241 0.0000 7.8327 0.0000
# 3 41.4620 28.4241 82.0648 0.0000 10.5115 0.0000
# 4 0.0000 0.0000 0.0000 13.2760 0.0000 1.3499
# 5 3.3888 7.8327 10.5115 0.0000 20.0148 0.0000
# 6 0.0000 0.0000 0.0000 1.3499 0.0000 14.8110
#
#
#
# Elastic Compliance Matrix: (Units=1/GPa)
#
#
# Indices 1 2 3 4 5 6 
#
# 1 0.015252 -0.007273 -0.005597 0.000000 0.003203 0.000000
# 2 -0.007273 0.023847 -0.003803 0.000000 -0.006104 0.000000
# 3 -0.005597 -0.003803 0.017174 0.000000 -0.006584 0.000000
# 4 0.000000 0.000000 0.000000 0.076028 0.000000 -0.006929
# 5 0.003203 -0.006104 -0.006584 0.000000 0.055267 0.000000
# 6 0.000000 0.000000 0.000000 -0.006929 0.000000 0.068149
#
#
# Mechanical properties :
#
#
# Convention : Reuss Voigt Hill
#
# Bulk Modulus (GPa) = 43.61926 50.47011 47.04469
# Shear Modulus (GPa) = 16.85176 18.45889 17.65533
#
# Velocity S-wave (km/s) = 3.35032 3.50644 3.42927
# Velocity P-wave (km/s) = 6.63477 7.07183 6.85678
#
# Compressibility (1/GPa) = 0.02292565
#
# Stress axis : x y z
#
# Youngs Moduli (GPa) = 65.56587 41.93447 58.22860
#
# Poissons Ratio (x) = 0.30501 0.32590
# Poissons Ratio (y) = 0.47689 0.22144
# Poissons Ratio (z) = 0.36696 0.15948
#
# Static dielectric constant tensor:
#      x y z
#    x 1.522850 0.000000 0.014840 
#    y 0.000000 1.509130 0.000000 
#    z 0.014840 0.000000 1.505980 
# 
# From -- ./inp_files/184587.got.cif
#   From: 2010.05.17/outbox.cif.g08.bks.cpg/sg12_93_cif.got.tgz:184587.got - 2010.06.03 13:09:07.
