data_PCOD9178438
_publ_section_title
;
Structure prediction by ZEFSAII (Michael W. Deem and Ramdas Pophale) SiO2 
 PCOD9178438
Probable space group: C 2/M
;
_chemical_formula_sum "Si O2"
_cell_formula_units_Z 42
_cell_length_a 5.010724
_cell_length_b 13.679620
_cell_length_c 29.313112
_cell_angle_alpha 90.000000
_cell_angle_beta 114.715586
_cell_angle_gamma 90.000000
_cell_volume 1825.201956
_symmetry_space_group_name_H-M "C 2/M"
_symmetry_group_IT_number 12
_symmetry_cell_setting 'monoclinic'
loop_
_space_group_symop_operation_xyz
x,y,z
-x,y,-z
-x,-y,-z
x,-y,z
1/2+x,1/2+y,z
1/2-x,1/2+y,-z
1/2-x,1/2-y,-z
1/2+x,1/2-y,z
loop_
_atom_site_type_symbol
_atom_site_label
_atom_site_fract_x
_atom_site_fract_y
_atom_site_fract_z
Si Si1 0.598964 0.316109 0.438409
Si Si2 0.500000 0.500000 0.500000
Si Si3 0.397949 0.381864 0.325771
Si Si4 0.188653 0.187238 0.842432
Si Si5 0.308592 0.180802 0.947391
Si Si6 0.254099 0.883644 0.265678
O O1 0.915532 0.272977 0.447442
O O2 0.589281 0.412492 0.469010
O O3 0.442785 0.342506 0.379406
O O4 0.401212 0.500000 0.329377
O O5 0.651940 0.353031 0.308794
O O6 0.087315 0.351484 0.281357
O O7 0.502267 0.216737 0.844372
O O8 0.236947 0.131345 0.893820
O O9 0.981580 0.142512 0.789361
O O10 0.514683 0.273670 0.947838
O O11 0.500000 0.128083 0.000000
O O12 0.262507 0.000000 0.267288
#
# Coordination Sequence:
#
# PCOD9178438 Si02
#       6
#     8   2   8   8   8   8
#     4  12  27  46  74 104 129 173 217 254 317 372
#     4  12  28  54  72 100 148 166 208 278 298 372
#     4  10  21  41  60  86 120 160 193 247 299 352
#     4  10  19  30  48  75 104 137 182 238 284 332
#     4   8  14  25  41  63  93 130 174 225 283 338
#     4  10  21  35  57  80 117 156 189 228 299 358
#
# _framework density 23.011154000000001
#
# number of rings (size 3 to 8) (size 9 to 14) (size 15 to 20)
#    0.000    1.905    0.952    2.857    0.000    6.095 
#    0.000    0.000    0.000    0.571    0.000    0.000 
#    0.000   19.810    0.000    0.000    0.000    3.048 
#
# Total GULP energy -117065.069557 kJ/mol
# GULP energy per Si atom -5574.527122 kJ/mol
# Density = 2.295878 g / cm^3
# Si number density = 23.011154 Si / 1000 Ang^3
#
#
#
# Elastic Constant Matrix: (Units=GPa)
#
#
# Indices 1 2 3 4 5 6 
#
# 1 80.8906 -11.8657 -12.6430 0.0000 -5.7018 0.0000
# 2 -11.8657 87.0572 4.2013 0.0000 -12.4411 0.0000
# 3 -12.6430 4.2013 105.8892 0.0000 -23.3555 0.0000
# 4 0.0000 0.0000 0.0000 -2.4760 0.0000 8.2521
# 5 -5.7018 -12.4411 -23.3555 0.0000 34.5085 0.0000
# 6 0.0000 0.0000 0.0000 8.2521 0.0000 2.1537
#
#
#
# Elastic Compliance Matrix: (Units=1/GPa)
#
#
# Indices 1 2 3 4 5 6 
#
# 1 0.013458 0.002401 0.002578 0.000000 0.004834 0.000000
# 2 0.002401 0.012568 0.001028 0.000000 0.005624 0.000000
# 3 0.002578 0.001028 0.011621 0.000000 0.008662 0.000000
# 4 0.000000 0.000000 0.000000 -0.029331 0.000000 0.112381
# 5 0.004834 0.005624 0.008662 0.000000 0.037667 0.000000
# 6 0.000000 0.000000 0.000000 0.112381 0.000000 0.033719
#
#
# Mechanical properties :
#
#
# Convention : Reuss Voigt Hill
#
# Bulk Modulus (GPa) = 20.13636 25.91357 23.02497
# Shear Modulus (GPa) = 59.35213 26.44687 42.89950
#
# Velocity S-wave (km/s) = 5.08417 3.39382 4.32243
# Velocity P-wave (km/s) = 6.57531 5.16170 5.91091
#
# Compressibility (1/GPa) = 0.04966141
#
# Stress axis : x y z
#
# Youngs Moduli (GPa) = 74.30426 79.56743 86.04823
#
# Poissons Ratio (x) = -0.19102 -0.22182
# Poissons Ratio (y) = -0.17838 -0.08849
# Poissons Ratio (z) = -0.19154 -0.08183
#
# Static dielectric constant tensor:
#      x y z
#    x 1.825810 0.000000 0.004360 
#    y 0.000000 1.856970 0.000000 
#    z 0.004360 0.000000 1.926900 
# 
# From -- ./inp_files/354768.got.cif
#   From: 2010.05.17/outbox.cif.g08.bks.cpg/sg12_178_cif.got.tgz:354768.got - 2010.06.03 13:09:07.
