data_PCOD9178797
_publ_section_title
;
Structure prediction by ZEFSAII (Michael W. Deem and Ramdas Pophale) SiO2 
 PCOD9178797
Probable space group: C 2/M
;
_chemical_formula_sum "Si O2"
_cell_formula_units_Z 56
_cell_length_a 14.024355
_cell_length_b 33.622278
_cell_length_c 8.536702
_cell_angle_alpha 90.000000
_cell_angle_beta 52.777802
_cell_angle_gamma 90.000000
_cell_volume 3205.342775
_symmetry_space_group_name_H-M "C 2/M"
_symmetry_group_IT_number 12
_symmetry_cell_setting 'monoclinic'
loop_
_space_group_symop_operation_xyz
x,y,z
-x,y,-z
-x,-y,-z
x,-y,z
1/2+x,1/2+y,z
1/2-x,1/2+y,-z
1/2-x,1/2-y,-z
1/2+x,1/2-y,z
loop_
_atom_site_type_symbol
_atom_site_label
_atom_site_fract_x
_atom_site_fract_y
_atom_site_fract_z
Si Si1 0.138566 0.869386 0.552330
Si Si2 0.651026 0.455264 0.673943
Si Si3 0.145468 0.125044 0.176993
Si Si4 0.759780 0.303269 0.925416
Si Si5 0.176599 0.785095 0.658925
Si Si6 0.445473 0.743941 0.727199
Si Si7 0.861510 0.957049 0.946550
O O1 0.185063 0.913089 0.560230
O O2 0.153864 0.865273 0.351206
O O3 0.193123 0.829782 0.575262
O O4 0.994584 0.868566 0.730429
O O5 0.693930 0.500000 0.580326
O O6 0.506530 0.457035 0.800261
O O7 0.674914 0.451795 0.836117
O O8 0.176759 0.079277 0.120528
O O9 0.231113 0.151060 0.982708
O O10 0.714070 0.288477 0.801935
O O11 0.895182 0.288102 0.808559
O O12 0.673651 0.282494 0.138933
O O13 0.250000 0.750000 0.500000
O O14 0.040396 0.772348 0.757145
O O15 0.500000 0.740801 0.500000
O O16 0.819769 0.000000 0.932086
#
# Coordination Sequence:
#
# PCOD9178797 Si02
#       7
#     8   8   8   8   8   8   8
#     4  10  20  30  45  68 101 131 169 215 248 304
#     4   8  14  26  43  64  91 128 166 203 249 305
#     4  10  19  31  46  68  99 132 170 211 254 305
#     4  11  23  35  57  73  99 140 170 219 261 306
#     4  12  23  36  55  74 101 140 177 216 261 309
#     4  11  22  39  53  75 101 128 178 217 262 305
#     4   8  14  25  43  64  92 127 164 203 249 306
#
# _framework density 17.470829999999999
#
# number of rings (size 3 to 8) (size 9 to 14) (size 15 to 20)
#    0.000    2.000    2.857    3.000    2.000    1.714 
#    0.000    2.857    0.000    0.000    0.000    0.000 
#    0.000    1.714    0.000    2.714    0.000    1.000 
#
# Total GULP energy -155954.261878 kJ/mol
# GULP energy per Si atom -5569.795067 kJ/mol
# Density = 1.743107 g / cm^3
# Si number density = 17.470830 Si / 1000 Ang^3
#
#
#
# Elastic Constant Matrix: (Units=GPa)
#
#
# Indices 1 2 3 4 5 6 
#
# 1 32.1262 32.7071 10.1241 0.0000 5.2599 0.0000
# 2 32.7071 148.4643 46.0969 0.0000 13.9922 0.0000
# 3 10.1241 46.0969 55.0649 0.0000 9.4637 0.0000
# 4 0.0000 0.0000 0.0000 29.3950 0.0000 6.8888
# 5 5.2599 13.9922 9.4637 0.0000 9.1919 0.0000
# 6 0.0000 0.0000 0.0000 6.8888 0.0000 21.9721
#
#
#
# Elastic Compliance Matrix: (Units=1/GPa)
#
#
# Indices 1 2 3 4 5 6 
#
# 1 0.041216 -0.008403 0.001594 0.000000 -0.012435 0.000000
# 2 -0.008403 0.011236 -0.006984 0.000000 -0.005106 0.000000
# 3 0.001594 -0.006984 0.026783 0.000000 -0.017855 0.000000
# 4 0.000000 0.000000 0.000000 0.036717 0.000000 -0.011512
# 5 -0.012435 -0.005106 -0.017855 0.000000 0.142062 0.000000
# 6 0.000000 0.000000 0.000000 -0.011512 0.000000 0.049122
#
#
# Mechanical properties :
#
#
# Convention : Reuss Voigt Hill
#
# Bulk Modulus (GPa) = 19.36179 45.94573 32.65376
# Shear Modulus (GPa) = 14.20703 21.89360 18.05031
#
# Velocity S-wave (km/s) = 2.85473 3.54383 3.21778
# Velocity P-wave (km/s) = 4.68748 6.56510 5.70408
#
# Compressibility (1/GPa) = 0.05164811
#
# Stress axis : x y z
#
# Youngs Moduli (GPa) = 24.26264 88.99602 37.33748
#
# Poissons Ratio (x) = 0.74781 -0.05950
# Poissons Ratio (y) = 0.20387 0.26077
# Poissons Ratio (z) = -0.03866 0.62156
#
# Static dielectric constant tensor:
#      x y z
#    x 1.593100 0.000000 0.001650 
#    y 0.000000 1.683210 0.000000 
#    z 0.001650 0.000000 1.602850 
# 
# From -- ./inp_files/68106.got.cif
#   From: 2010.05.17/outbox.cif.g08.bks.cpg/sg12_35_cif.got.tgz:68106.got - 2010.06.03 13:09:07.
