data_PCOD9178553
_publ_section_title
;
Structure prediction by ZEFSAII (Michael W. Deem and Ramdas Pophale) SiO2 
 PCOD9178553
Probable space group: C 2/M
;
_chemical_formula_sum "Si O2"
_cell_formula_units_Z 64
_cell_length_a 23.666150
_cell_length_b 8.532270
_cell_length_c 21.855016
_cell_angle_alpha 90.000000
_cell_angle_beta 127.445470
_cell_angle_gamma 90.000000
_cell_volume 3503.699356
_symmetry_space_group_name_H-M "C 2/M"
_symmetry_group_IT_number 12
_symmetry_cell_setting 'monoclinic'
loop_
_space_group_symop_operation_xyz
x,y,z
-x,y,-z
-x,-y,-z
x,-y,z
1/2+x,1/2+y,z
1/2-x,1/2+y,-z
1/2-x,1/2-y,-z
1/2+x,1/2-y,z
loop_
_atom_site_type_symbol
_atom_site_label
_atom_site_fract_x
_atom_site_fract_y
_atom_site_fract_z
Si Si1 0.227214 0.313041 0.628204
Si Si2 0.509614 0.688679 0.773450
Si Si3 0.902906 0.810647 0.526596
Si Si4 0.714598 0.687499 0.748617
Si Si5 0.360314 0.813198 0.072622
Si Si6 0.856942 0.809354 0.632338
Si Si7 0.258763 0.686914 0.906963
Si Si8 0.054521 0.190273 0.664781
O O1 0.226763 0.500000 0.625868
O O2 0.149308 0.250934 0.559406
O O3 0.247865 0.256945 0.709225
O O4 0.284665 0.254017 0.616153
O O5 0.513421 0.500000 0.781041
O O6 0.560546 0.763269 0.857184
O O7 0.426830 0.735403 0.717361
O O8 0.539259 0.731561 0.725455
O O9 0.870489 0.760266 0.571243
O O10 0.985414 0.758894 0.580652
O O11 0.902645 0.000000 0.524310
O O12 0.713989 0.500000 0.744203
O O13 0.751522 0.737884 0.835793
O O14 0.632352 0.745763 0.697444
O O15 0.307912 0.761921 0.093944
O O16 0.355020 0.000000 0.064016
O O17 0.328337 0.737065 0.990593
O O18 0.855812 0.000000 0.630322
O O19 0.256073 0.500000 0.899452
O O20 0.055442 0.000000 0.662619
#
# Coordination Sequence:
#
# PCOD9178553 Si02
#       8
#     8   8   8   8   8   8   8   8
#     4  11  22  35  49  73 104 137 171 211 258 305
#     4   9  15  30  54  77  99 131 170 211 252 297
#     4   9  17  34  56  76  95 126 172 220 258 300
#     4  11  21  35  53  73 100 138 175 210 249 302
#     4  10  19  30  49  80 111 135 162 201 250 301
#     4   8  17  33  55  76  99 131 173 215 255 302
#     4  10  20  33  50  75 107 140 168 201 244 298
#     4   8  16  30  51  74  98 128 168 210 253 300
#
# _framework density 18.266407000000001
#
# number of rings (size 3 to 8) (size 9 to 14) (size 15 to 20)
#    0.000    2.500    1.250    3.375    0.000    1.500 
#    0.000    8.125    0.000    0.750    0.000    5.250 
#    0.000    0.000    0.000    0.000    0.000    0.000 
#
# Total GULP energy -178502.964573 kJ/mol
# GULP energy per Si atom -5578.217643 kJ/mol
# Density = 1.822483 g / cm^3
# Si number density = 18.266407 Si / 1000 Ang^3
#
#
#
# Elastic Constant Matrix: (Units=GPa)
#
#
# Indices 1 2 3 4 5 6 
#
# 1 8.7452 0.2812 4.7695 0.0000 -1.0213 0.0000
# 2 0.2812 19.1554 7.4005 0.0000 -1.8949 0.0000
# 3 4.7695 7.4005 98.9290 0.0000 1.2806 0.0000
# 4 0.0000 0.0000 0.0000 30.1214 0.0000 -1.1681
# 5 -1.0213 -1.8949 1.2806 0.0000 21.9538 0.0000
# 6 0.0000 0.0000 0.0000 -1.1681 0.0000 14.9630
#
#
#
# Elastic Compliance Matrix: (Units=1/GPa)
#
#
# Indices 1 2 3 4 5 6 
#
# 1 0.118202 0.001115 -0.005859 0.000000 0.005937 0.000000
# 2 0.001115 0.054296 -0.004180 0.000000 0.004982 0.000000
# 3 -0.005859 -0.004180 0.010720 0.000000 -0.001259 0.000000
# 4 0.000000 0.000000 0.000000 0.033300 0.000000 0.002599
# 5 0.005937 0.004982 -0.001259 0.000000 0.046330 0.000000
# 6 0.000000 0.000000 0.000000 0.002599 0.000000 0.067034
#
#
# Mechanical properties :
#
#
# Convention : Reuss Voigt Hill
#
# Bulk Modulus (GPa) = 6.04703 16.85910 11.45307
# Shear Modulus (GPa) = 12.41153 21.03288 16.72220
#
# Velocity S-wave (km/s) = 2.60950 3.39699 3.02894
# Velocity P-wave (km/s) = 3.52093 4.96343 4.30306
#
# Compressibility (1/GPa) = 0.16537040
#
# Stress axis : x y z
#
# Youngs Moduli (GPa) = 8.46013 18.41758 93.28623
#
# Poissons Ratio (x) = -0.02054 0.54655
# Poissons Ratio (y) = -0.00944 0.38993
# Poissons Ratio (z) = 0.04957 0.07698
#
# Static dielectric constant tensor:
#      x y z
#    x 1.634520 0.000000 0.010300 
#    y 0.000000 1.620750 0.000000 
#    z 0.010300 0.000000 1.621030 
# 
# From -- ./inp_files/324083.got.cif
#   From: 2010.05.17/outbox.cif.g08.bks.cpg/sg12_163_cif.got.tgz:324083.got - 2010.06.03 13:09:07.
