data_PCOD9178779
_publ_section_title
;
Structure prediction by ZEFSAII (Michael W. Deem and Ramdas Pophale) SiO2 
 PCOD9178779
Probable space group: C 2/M
;
_chemical_formula_sum "Si O2"
_cell_formula_units_Z 44
_cell_length_a 42.280767
_cell_length_b 7.397405
_cell_length_c 14.286185
_cell_angle_alpha 90.000000
_cell_angle_beta 141.624779
_cell_angle_gamma 90.000000
_cell_volume 2773.935661
_symmetry_space_group_name_H-M "C 2/M"
_symmetry_group_IT_number 12
_symmetry_cell_setting 'monoclinic'
loop_
_space_group_symop_operation_xyz
x,y,z
-x,y,-z
-x,-y,-z
x,-y,z
1/2+x,1/2+y,z
1/2-x,1/2+y,-z
1/2-x,1/2-y,-z
1/2+x,1/2-y,z
loop_
_atom_site_type_symbol
_atom_site_label
_atom_site_fract_x
_atom_site_fract_y
_atom_site_fract_z
Si Si1 0.452039 0.000000 0.526679
Si Si2 0.955218 0.218088 0.029303
Si Si3 0.935176 0.500000 0.141082
Si Si4 0.125604 0.500000 0.817465
Si Si5 0.309808 0.288516 0.141316
Si Si6 0.429708 0.717690 0.766869
Si Si7 0.384779 0.283973 0.476294
O O1 0.428791 0.825236 0.525211
O O2 0.512060 0.000000 0.678265
O O3 0.426109 0.000000 0.364777
O O4 0.936411 0.327121 0.075174
O O5 0.014492 0.265173 0.144867
O O6 0.952099 0.000000 0.033835
O O7 0.926340 0.275628 0.866609
O O8 0.889778 0.500000 0.110354
O O9 0.159065 0.670245 0.860947
O O10 0.318467 0.500000 0.144858
O O11 0.333912 0.243780 0.299384
O O12 0.250000 0.250000 0.000000
O O13 0.429556 0.500000 0.771674
O O14 0.388407 0.771413 0.593459
O O15 0.393514 0.500000 0.492000
#
# Coordination Sequence:
#
# PCOD9178779 Si02
#       7
#     4   8   4   4   8   8   8
#     4  10  19  31  46  66 101 138 164 196 226 277
#     4   9  18  29  44  66  99 136 166 201 231 272
#     4  12  21  30  48  69 100 144 169 191 230 282
#     4  10  23  36  47  74 100 127 169 197 239 299
#     4  10  19  35  57  75  96 118 151 208 260 294
#     4   8  14  28  45  67  99 131 166 199 235 275
#     4   9  17  29  48  73  99 126 158 198 244 289
#
# _framework density 15.861939
#
# number of rings (size 3 to 8) (size 9 to 14) (size 15 to 20)
#    0.000    2.545    2.727    1.364    0.000    2.909 
#    0.000    0.000    0.000    5.455    0.000    1.273 
#    0.000    0.000    0.000    0.000    0.000    0.000 
#
# Total GULP energy -122525.382274 kJ/mol
# GULP energy per Si atom -5569.335558 kJ/mol
# Density = 1.582584 g / cm^3
# Si number density = 15.861939 Si / 1000 Ang^3
#
#
#
# Elastic Constant Matrix: (Units=GPa)
#
#
# Indices 1 2 3 4 5 6 
#
# 1 101.8988 39.9086 68.5690 0.0000 -21.0217 0.0000
# 2 39.9086 78.8276 33.6633 0.0001 -6.8276 0.0001
# 3 68.5690 33.6633 109.2080 0.0000 -8.3603 0.0000
# 4 0.0000 0.0001 0.0000 11.7285 0.0000 -7.8328
# 5 -21.0217 -6.8276 -8.3603 0.0000 19.4743 0.0000
# 6 0.0000 0.0001 0.0000 -7.8328 0.0000 14.0746
#
#
#
# Elastic Compliance Matrix: (Units=1/GPa)
#
#
# Indices 1 2 3 4 5 6 
#
# 1 0.023692 -0.005340 -0.011803 0.000000 0.018635 0.000000
# 2 -0.005340 0.016020 -0.001651 0.000000 -0.000857 0.000000
# 3 -0.011803 -0.001651 0.016602 0.000000 -0.006192 0.000000
# 4 0.000000 0.000000 0.000000 0.135697 0.000000 0.075518
# 5 0.018635 -0.000857 -0.006192 0.000000 0.068507 0.000000
# 6 0.000000 0.000000 0.000000 0.075518 0.000000 0.113078
#
#
# Mechanical properties :
#
#
# Convention : Reuss Voigt Hill
#
# Bulk Modulus (GPa) = 53.39925 63.80180 58.60053
# Shear Modulus (GPa) = 11.97817 18.90837 15.44327
#
# Velocity S-wave (km/s) = 2.75098 3.45637 3.12365
# Velocity P-wave (km/s) = 6.62032 7.49928 7.07346
#
# Compressibility (1/GPa) = 0.01872685
#
# Stress axis : x y z
#
# Youngs Moduli (GPa) = 42.20852 62.42067 60.23223
#
# Poissons Ratio (x) = 0.33334 0.71091
# Poissons Ratio (y) = 0.22540 0.09944
# Poissons Ratio (z) = 0.49818 0.10305
#
# Static dielectric constant tensor:
#      x y z
#    x 1.479730 0.000000 -0.036570 
#    y 0.000000 1.601610 0.000000 
#    z -0.036570 0.000000 1.573810 
# 
# From -- ./inp_files/186995.got.cif
#   From: 2010.05.17/outbox.cif.g08.bks.cpg/sg12_94_cif.got.tgz:186995.got - 2010.06.03 13:09:07.
