data_PCOD9178022
_publ_section_title
;
Structure prediction by ZEFSAII (Michael W. Deem and Ramdas Pophale) SiO2 
 PCOD9178022
Probable space group: C 2/M
;
_chemical_formula_sum "Si O2"
_cell_formula_units_Z 48
_cell_length_a 14.087539
_cell_length_b 7.357103
_cell_length_c 17.371051
_cell_angle_alpha 90.000000
_cell_angle_beta 103.656629
_cell_angle_gamma 90.000000
_cell_volume 1749.495516
_symmetry_space_group_name_H-M "C 2/M"
_symmetry_group_IT_number 12
_symmetry_cell_setting 'monoclinic'
loop_
_space_group_symop_operation_xyz
x,y,z
-x,y,-z
-x,-y,-z
x,-y,z
1/2+x,1/2+y,z
1/2-x,1/2+y,-z
1/2-x,1/2-y,-z
1/2+x,1/2-y,z
loop_
_atom_site_type_symbol
_atom_site_label
_atom_site_fract_x
_atom_site_fract_y
_atom_site_fract_z
Si Si1 0.152875 0.707286 0.147485
Si Si2 0.755053 0.777310 0.311652
Si Si3 0.354004 0.286488 0.476845
Si Si4 0.051932 0.707391 0.805807
Si Si5 0.135750 0.715747 0.977803
Si Si6 0.448859 0.784897 0.648060
O O1 0.181806 0.500000 0.133718
O O2 0.239153 0.781605 0.219376
O O3 0.059362 0.699653 0.184165
O O4 0.112343 0.786559 0.059261
O O5 0.838316 0.711377 0.387259
O O6 0.654736 0.719887 0.336374
O O7 0.755742 0.000000 0.309645
O O8 0.364002 0.500000 0.468876
O O9 0.250000 0.250000 0.500000
O O10 0.436873 0.236768 0.554546
O O11 0.088032 0.500000 0.805688
O O12 0.103299 0.793805 0.889480
O O13 0.036446 0.791740 0.718163
O O14 0.107718 0.500000 0.970165
O O15 0.250000 0.750000 0.000000
O O16 0.452525 0.000000 0.661813
#
# Coordination Sequence:
#
# PCOD9178022 Si02
#       6
#     8   8   8   8   8   8
#     4   8  13  24  44  66  83 106 146 183 205 238
#     4   7  11  19  33  55  80 103 130 168 205 233
#     4   9  14  20  32  53  83 112 134 162 203 247
#     4   8  14  26  45  66  84 108 146 183 209 240
#     4  10  19  30  46  66  87 111 139 175 217 260
#     4   8  13  22  36  55  80 106 134 170 207 242
#
# _framework density 27.436481000000001
#
# number of rings (size 3 to 8) (size 9 to 14) (size 15 to 20)
#    0.000    3.667    0.000    4.000    0.000    2.000 
#    0.000    0.833    0.000   12.000    0.000    1.167 
#    0.000    9.333    0.000    0.000    0.000    0.000 
#
# Total GULP energy -133781.140036 kJ/mol
# GULP energy per Si atom -5574.214168 kJ/mol
# Density = 2.737403 g / cm^3
# Si number density = 27.436481 Si / 1000 Ang^3
#
#
#
# Elastic Constant Matrix: (Units=GPa)
#
#
# Indices 1 2 3 4 5 6 
#
# 1 55.9847 2.7348 54.5093 0.0000 -1.3109 0.0000
# 2 2.7348 108.2119 18.9542 0.0000 6.0992 0.0000
# 3 54.5093 18.9542 401.5561 0.0000 44.2585 0.0000
# 4 0.0000 0.0000 0.0000 3.1290 0.0000 3.5879
# 5 -1.3109 6.0992 44.2585 0.0000 67.2991 0.0000
# 6 0.0000 0.0000 0.0000 3.5879 0.0000 11.5046
#
#
#
# Elastic Compliance Matrix: (Units=1/GPa)
#
#
# Indices 1 2 3 4 5 6 
#
# 1 0.020954 -0.000124 -0.003110 0.000000 0.002465 0.000000
# 2 -0.000124 0.009341 -0.000356 0.000000 -0.000615 0.000000
# 3 -0.003110 -0.000356 0.003162 0.000000 -0.002107 0.000000
# 4 0.000000 0.000000 0.000000 0.497501 0.000000 -0.155156
# 5 0.002465 -0.000615 -0.002107 0.000000 0.016349 0.000000
# 6 0.000000 0.000000 0.000000 -0.155156 0.000000 0.135310
#
#
# Mechanical properties :
#
#
# Convention : Reuss Voigt Hill
#
# Bulk Modulus (GPa) = 38.05707 79.79439 58.92573
# Shear Modulus (GPa) = 7.15762 49.02349 28.09055
#
# Velocity S-wave (km/s) = 1.61693 4.23164 3.20322
# Velocity P-wave (km/s) = 4.16978 7.28163 5.93335
#
# Compressibility (1/GPa) = 0.02627632
#
# Stress axis : x y z
#
# Youngs Moduli (GPa) = 47.72344 107.05124 316.29398
#
# Poissons Ratio (x) = 0.01324 0.98375
# Poissons Ratio (y) = 0.00590 0.11273
# Poissons Ratio (z) = 0.14843 0.03815
#
# Static dielectric constant tensor:
#      x y z
#    x 2.071900 0.000000 0.071540 
#    y 0.000000 2.547800 0.000000 
#    z 0.071540 0.000000 2.241840 
# 
# From -- ./inp_files/276141.got.cif
#   From: 2010.05.17/outbox.cif.g08.bks.cpg/sg12_139_cif.got.tgz:276141.got - 2010.06.03 13:09:07.
