data_PCOD9178898
_publ_section_title
;
Structure prediction by ZEFSAII (Michael W. Deem and Ramdas Pophale) SiO2 
 PCOD9178898
Probable space group: C 2/M
;
_chemical_formula_sum "Si O2"
_cell_formula_units_Z 64
_cell_length_a 30.862469
_cell_length_b 8.962119
_cell_length_c 23.761954
_cell_angle_alpha 90.000000
_cell_angle_beta 39.257399
_cell_angle_gamma 90.000000
_cell_volume 4159.045288
_symmetry_space_group_name_H-M "C 2/M"
_symmetry_group_IT_number 12
_symmetry_cell_setting 'monoclinic'
loop_
_space_group_symop_operation_xyz
x,y,z
-x,y,-z
-x,-y,-z
x,-y,z
1/2+x,1/2+y,z
1/2-x,1/2+y,-z
1/2-x,1/2-y,-z
1/2+x,1/2-y,z
loop_
_atom_site_type_symbol
_atom_site_label
_atom_site_fract_x
_atom_site_fract_y
_atom_site_fract_z
Si Si1 0.357842 0.179639 0.576132
Si Si2 0.148467 0.821111 0.627421
Si Si3 0.503943 0.321232 0.247281
Si Si4 0.643270 0.177671 0.087733
Si Si5 0.144046 0.679469 0.291698
Si Si6 0.269706 0.322015 0.568855
Si Si7 0.778854 0.822284 0.885404
Si Si8 0.501642 0.820781 0.373273
O O1 0.351971 0.224000 0.647166
O O2 0.301249 0.251963 0.593037
O O3 0.432737 0.218915 0.476216
O O4 0.352066 0.000000 0.579121
O O5 0.196000 0.741685 0.625300
O O6 0.180032 0.782867 0.534229
O O7 0.068743 0.780111 0.707373
O O8 0.154421 0.000000 0.627893
O O9 0.509201 0.500000 0.242917
O O10 0.569941 0.250852 0.151243
O O11 0.503395 0.260665 0.311729
O O12 0.673672 0.245237 0.114992
O O13 0.636351 0.000000 0.101247
O O14 0.700764 0.208101 0.982738
O O15 0.152043 0.500000 0.280284
O O16 0.199456 0.757518 0.196246
O O17 0.069184 0.715167 0.341403
O O18 0.267394 0.500000 0.575532
O O19 0.789652 0.000000 0.876586
O O20 0.501407 0.000000 0.364058
#
# Coordination Sequence:
#
# PCOD9178898 Si02
#       8
#     8   8   8   8   8   8   8   8
#     4  10  20  33  49  69  98 135 170 202 240 285
#     4   9  19  33  48  69  98 126 158 200 246 293
#     4  11  20  31  49  74 101 128 160 199 245 290
#     4  10  20  33  49  70  97 128 162 198 243 296
#     4  10  20  33  49  70  97 133 172 204 238 285
#     4  10  19  32  49  70  95 126 165 204 242 285
#     4  10  20  33  49  70  96 127 163 205 245 282
#     4  10  19  31  47  68  98 134 170 201 233 279
#
# _framework density 15.388147
#
# number of rings (size 3 to 8) (size 9 to 14) (size 15 to 20)
#    0.000    2.000    2.500    1.875    0.000    5.000 
#    0.000    0.000    0.000    2.250    0.000    0.875 
#    0.000    7.000    0.000    0.000    0.000    0.000 
#
# Total GULP energy -178580.377795 kJ/mol
# GULP energy per Si atom -5580.636806 kJ/mol
# Density = 1.535312 g / cm^3
# Si number density = 15.388147 Si / 1000 Ang^3
#
#
#
# Elastic Constant Matrix: (Units=GPa)
#
#
# Indices 1 2 3 4 5 6 
#
# 1 119.4082 47.3973 72.1172 -0.0001 -13.1504 0.0001
# 2 47.3973 37.5982 45.9315 0.0009 -7.6946 0.0037
# 3 72.1172 45.9315 106.8255 -0.0017 -12.9007 0.0018
# 4 -0.0001 0.0009 -0.0017 25.1271 0.0026 -0.6300
# 5 -13.1504 -7.6946 -12.9007 0.0026 25.3378 0.0004
# 6 0.0001 0.0037 0.0018 -0.6300 0.0004 23.2728
#
#
#
# Elastic Compliance Matrix: (Units=1/GPa)
#
#
# Indices 1 2 3 4 5 6 
#
# 1 0.018046 -0.016342 -0.004927 0.000000 0.001894 0.000003
# 2 -0.016342 0.071439 -0.019274 -0.000004 0.003400 -0.000010
# 3 -0.004927 -0.019274 0.021266 0.000002 0.002417 0.000001
# 4 0.000000 -0.000004 0.000002 0.039825 -0.000004 0.001078
# 5 0.001894 0.003400 0.002417 -0.000004 0.042713 -0.000002
# 6 0.000003 -0.000010 0.000001 0.001078 -0.000002 0.042998
#
#
# Mechanical properties :
#
#
# Convention : Reuss Voigt Hill
#
# Bulk Modulus (GPa) = 33.70891 66.08043 49.89467
# Shear Modulus (GPa) = 15.27831 21.30662 18.29246
#
# Velocity S-wave (km/s) = 3.15439 3.72507 3.45155
# Velocity P-wave (km/s) = 5.93466 7.84457 6.95548
#
# Compressibility (1/GPa) = 0.02966574
#
# Stress axis : x y z
#
# Youngs Moduli (GPa) = 55.41451 13.99794 47.02235
#
# Poissons Ratio (x) = 0.22875 0.23170
# Poissons Ratio (y) = 0.90557 0.90629
# Poissons Ratio (z) = 0.27305 0.26979
#
# Static dielectric constant tensor:
#      x y z
#    x 1.488440 0.000000 -0.016230 
#    y 0.000000 1.512050 0.000000 
#    z -0.016230 0.000000 1.510480 
# 
# From -- ./inp_files/326862.got.cif
#   From: 2010.05.17/outbox.cif.g08.bks.cpg/sg12_164_cif.got.tgz:326862.got - 2010.06.03 13:09:07.
