data_PCOD9178084
_publ_section_title
;
Structure prediction by ZEFSAII (Michael W. Deem and Ramdas Pophale) SiO2 
 PCOD9178084
Probable space group: C 2/M
;
_chemical_formula_sum "Si O2"
_cell_formula_units_Z 56
_cell_length_a 14.265963
_cell_length_b 9.551321
_cell_length_c 18.561732
_cell_angle_alpha 90.000000
_cell_angle_beta 86.995355
_cell_angle_gamma 90.000000
_cell_volume 2525.722260
_symmetry_space_group_name_H-M "C 2/M"
_symmetry_group_IT_number 12
_symmetry_cell_setting 'monoclinic'
loop_
_space_group_symop_operation_xyz
x,y,z
-x,y,-z
-x,-y,-z
x,-y,z
1/2+x,1/2+y,z
1/2-x,1/2+y,-z
1/2-x,1/2-y,-z
1/2+x,1/2-y,z
loop_
_atom_site_type_symbol
_atom_site_label
_atom_site_fract_x
_atom_site_fract_y
_atom_site_fract_z
Si Si1 0.885617 0.664084 0.696513
Si Si2 0.652730 0.661120 0.590289
Si Si3 0.376632 0.842215 0.541562
Si Si4 0.068170 0.654015 0.145096
Si Si5 0.199673 0.667818 0.722780
Si Si6 0.888317 0.159564 0.982861
Si Si7 0.648951 0.157934 0.884806
O O1 0.850636 0.500000 0.697785
O O2 0.928897 0.681283 0.615484
O O3 0.940575 0.678488 0.769065
O O4 0.805303 0.780626 0.705040
O O5 0.624536 0.500000 0.601411
O O6 0.607688 0.732512 0.522097
O O7 0.765413 0.662484 0.567504
O O8 0.641715 0.751655 0.663386
O O9 0.394405 0.000000 0.514628
O O10 0.112515 0.500000 0.133155
O O11 0.963603 0.647287 0.118674
O O12 0.119760 0.769711 0.095396
O O13 0.187178 0.500000 0.717753
O O14 0.180160 0.712960 0.805632
O O15 0.836184 0.247086 0.046616
O O16 0.858181 0.000000 0.983881
O O17 0.000000 0.159860 0.000000
O O18 0.685177 0.000000 0.892323
#
# Coordination Sequence:
#
# PCOD9178084 Si02
#       7
#     8   8   8   8   8   8   8
#     4   9  18  31  48  70  94 121 151 187 231 272
#     4   9  16  26  42  64  89 119 154 188 224 265
#     4   8  14  25  41  63  89 115 148 188 226 265
#     4   9  17  32  52  70  91 119 153 190 226 269
#     4  10  19  30  46  69  96 122 150 187 229 272
#     4   9  17  29  47  71  94 117 150 190 228 267
#     4   9  18  32  50  70  91 120 155 188 225 269
#
# _framework density 22.171875
#
# number of rings (size 3 to 8) (size 9 to 14) (size 15 to 20)
#    0.000    3.000    0.000    2.143    0.000    6.857 
#    0.000    0.714    0.000    0.857    0.000    6.000 
#    0.000    0.000    0.000    0.000    0.000    0.000 
#
# Total GULP energy -156236.663907 kJ/mol
# GULP energy per Si atom -5579.880854 kJ/mol
# Density = 2.212141 g / cm^3
# Si number density = 22.171875 Si / 1000 Ang^3
#
#
#
# Elastic Constant Matrix: (Units=GPa)
#
#
# Indices 1 2 3 4 5 6 
#
# 1 33.6020 9.1219 22.2926 0.0000 4.8075 0.0000
# 2 9.1219 111.8877 103.8479 0.0000 4.9096 0.0000
# 3 22.2926 103.8479 181.6340 0.0000 18.1356 0.0000
# 4 0.0000 0.0000 0.0000 37.7589 0.0000 -1.8423
# 5 4.8075 4.9096 18.1356 0.0000 35.3234 0.0000
# 6 0.0000 0.0000 0.0000 -1.8423 0.0000 -1.7173
#
#
#
# Elastic Compliance Matrix: (Units=1/GPa)
#
#
# Indices 1 2 3 4 5 6 
#
# 1 0.032821 0.002036 -0.004973 0.000000 -0.002197 0.000000
# 2 0.002036 0.019497 -0.011699 0.000000 0.003019 0.000000
# 3 -0.004973 -0.011699 0.013254 0.000000 -0.004502 0.000000
# 4 0.000000 0.000000 0.000000 0.025166 0.000000 -0.026999
# 5 -0.002197 0.003019 -0.004502 0.000000 0.030501 0.000000
# 6 0.000000 0.000000 0.000000 -0.026999 0.000000 -0.553350
#
#
# Mechanical properties :
#
#
# Convention : Reuss Voigt Hill
#
# Bulk Modulus (GPa) = 27.54726 66.40538 46.97632
# Shear Modulus (GPa) = -12.79625 27.06376 7.13375
#
# Velocity S-wave (km/s) = -2.40498 3.49755 1.79568
# Velocity P-wave (km/s) = 2.17704 6.80630 5.05298
#
# Compressibility (1/GPa) = 0.03630125
#
# Stress axis : x y z
#
# Youngs Moduli (GPa) = 30.46830 51.28952 75.44802
#
# Poissons Ratio (x) = -0.10445 0.37522
# Poissons Ratio (y) = -0.06205 0.88265
# Poissons Ratio (z) = 0.15153 0.60002
#
# Static dielectric constant tensor:
#      x y z
#    x 1.895200 0.000000 0.022470 
#    y 0.000000 1.774390 0.000000 
#    z 0.022470 0.000000 1.821830 
# 
# From -- ./inp_files/280297.got.cif
#   From: 2010.05.17/outbox.cif.g08.bks.cpg/sg12_141_cif.got.tgz:280297.got - 2010.06.03 13:09:07.
