data_PCOD9178593
_publ_section_title
;
Structure prediction by ZEFSAII (Michael W. Deem and Ramdas Pophale) SiO2 
 PCOD9178593
Probable space group: C 2/M
;
_chemical_formula_sum "Si O2"
_cell_formula_units_Z 56
_cell_length_a 20.361908
_cell_length_b 14.054677
_cell_length_c 13.146031
_cell_angle_alpha 90.000000
_cell_angle_beta 63.345290
_cell_angle_gamma 90.000000
_cell_volume 3362.315941
_symmetry_space_group_name_H-M "C 2/M"
_symmetry_group_IT_number 12
_symmetry_cell_setting 'monoclinic'
loop_
_space_group_symop_operation_xyz
x,y,z
-x,y,-z
-x,-y,-z
x,-y,z
1/2+x,1/2+y,z
1/2-x,1/2+y,-z
1/2-x,1/2-y,-z
1/2+x,1/2-y,z
loop_
_atom_site_type_symbol
_atom_site_label
_atom_site_fract_x
_atom_site_fract_y
_atom_site_fract_z
Si Si1 0.642675 0.237811 0.000065
Si Si2 0.791274 0.113347 0.896326
Si Si3 0.365167 0.218374 0.221955
Si Si4 0.010138 0.390077 0.170318
Si Si5 0.208778 0.888440 0.335169
Si Si6 0.163168 0.233242 0.544230
Si Si7 0.452429 0.889157 0.435179
O O1 0.659529 0.328177 0.058773
O O2 0.572243 0.179807 0.086532
O O3 0.711428 0.164146 0.958106
O O4 0.634114 0.266981 0.888192
O O5 0.818779 0.127239 0.761008
O O6 0.786521 0.000000 0.918791
O O7 0.432146 0.144275 0.180350
O O8 0.288743 0.161029 0.283579
O O9 0.368829 0.283865 0.320280
O O10 0.024916 0.500000 0.133664
O O11 0.000949 0.382817 0.298898
O O12 0.159114 0.845172 0.458962
O O13 0.218280 0.000000 0.344052
O O14 0.250000 0.250000 0.500000
O O15 0.119200 0.325038 0.533658
O O16 0.500000 0.859836 0.500000
O O17 0.431604 0.000000 0.462681
#
# Coordination Sequence:
#
# PCOD9178593 Si02
#       7
#     8   8   8   8   8   8   8
#     4  10  19  31  52  74 102 132 167 205 248 303
#     4   9  19  34  50  72 100 131 168 210 251 293
#     4   9  18  32  47  75 106 132 161 206 257 299
#     4  10  19  30  50  78 104 131 164 204 254 308
#     4   9  17  31  53  74  97 131 171 210 249 294
#     4   9  18  31  51  73 101 136 174 207 250 304
#     4   9  19  34  51  76 109 139 167 210 268 316
#
# _framework density 16.655187000000002
#
# number of rings (size 3 to 8) (size 9 to 14) (size 15 to 20)
#    0.000    2.714    0.000    1.286    2.000    5.714 
#    0.000    0.714    0.000    5.571    0.000    0.000 
#    0.000    0.000    0.000    0.000    0.000    0.000 
#
# Total GULP energy -155915.524171 kJ/mol
# GULP energy per Si atom -5568.411578 kJ/mol
# Density = 1.661728 g / cm^3
# Si number density = 16.655187 Si / 1000 Ang^3
#
#
#
# Elastic Constant Matrix: (Units=GPa)
#
#
# Indices 1 2 3 4 5 6 
#
# 1 63.2153 23.5497 47.7019 0.0000 15.7989 0.0000
# 2 23.5497 67.9458 64.6855 0.0000 14.5246 0.0000
# 3 47.7019 64.6855 106.7954 0.0000 23.8829 0.0000
# 4 0.0000 0.0000 0.0000 25.0782 0.0000 -0.0601
# 5 15.7989 14.5246 23.8829 0.0000 27.8297 0.0000
# 6 0.0000 0.0000 0.0000 -0.0601 0.0000 17.8060
#
#
#
# Elastic Compliance Matrix: (Units=1/GPa)
#
#
# Indices 1 2 3 4 5 6 
#
# 1 0.025163 0.004686 -0.012791 0.000000 -0.005754 0.000000
# 2 0.004686 0.035636 -0.023417 0.000000 -0.001162 0.000000
# 3 -0.012791 -0.023417 0.030818 0.000000 -0.006964 0.000000
# 4 0.000000 0.000000 0.000000 0.039876 0.000000 0.000135
# 5 -0.005754 -0.001162 -0.006964 0.000000 0.045783 0.000000
# 6 0.000000 0.000000 0.000000 0.000135 0.000000 0.056161
#
#
# Mechanical properties :
#
#
# Convention : Reuss Voigt Hill
#
# Bulk Modulus (GPa) = 34.99931 56.64785 45.82358
# Shear Modulus (GPa) = 16.33952 20.94408 18.64180
#
# Velocity S-wave (km/s) = 3.13557 3.54999 3.34919
# Velocity P-wave (km/s) = 5.84540 7.13367 6.52142
#
# Compressibility (1/GPa) = 0.02857199
#
# Stress axis : x y z
#
# Youngs Moduli (GPa) = 39.74032 28.06165 32.44828
#
# Poissons Ratio (x) = -0.13149 0.41504
# Poissons Ratio (y) = -0.18621 0.75986
# Poissons Ratio (z) = 0.50832 0.65713
#
# Static dielectric constant tensor:
#      x y z
#    x 1.603850 0.000000 0.018780 
#    y 0.000000 1.528340 0.000000 
#    z 0.018780 0.000000 1.598770 
# 
# From -- ./inp_files/166666.got.cif
#   From: 2010.05.17/outbox.cif.g08.bks.cpg/sg12_84_cif.got.tgz:166666.got - 2010.06.03 13:09:07.
