data_PCOD9178614
_publ_section_title
;
Structure prediction by ZEFSAII (Michael W. Deem and Ramdas Pophale) SiO2 
 PCOD9178614
Probable space group: C 2/M
;
_chemical_formula_sum "Si O2"
_cell_formula_units_Z 64
_cell_length_a 19.237789
_cell_length_b 13.606374
_cell_length_c 15.413979
_cell_angle_alpha 90.000000
_cell_angle_beta 62.645241
_cell_angle_gamma 90.000000
_cell_volume 3583.542609
_symmetry_space_group_name_H-M "C 2/M"
_symmetry_group_IT_number 12
_symmetry_cell_setting 'monoclinic'
loop_
_space_group_symop_operation_xyz
x,y,z
-x,y,-z
-x,-y,-z
x,-y,z
1/2+x,1/2+y,z
1/2-x,1/2+y,-z
1/2-x,1/2-y,-z
1/2+x,1/2-y,z
loop_
_atom_site_type_symbol
_atom_site_label
_atom_site_fract_x
_atom_site_fract_y
_atom_site_fract_z
Si Si1 0.625699 0.109041 0.246660
Si Si2 0.181737 0.789843 0.099307
Si Si3 0.154486 0.618531 0.587977
Si Si4 0.064494 0.745793 0.025672
Si Si5 0.976052 0.389519 0.210768
Si Si6 0.197979 0.388737 0.861073
Si Si7 0.290584 0.614909 0.631407
Si Si8 0.593823 0.208431 0.443717
O O1 0.665496 0.200832 0.175640
O O2 0.541912 0.104991 0.247506
O O3 0.615557 0.135284 0.352728
O O4 0.661953 0.000000 0.214078
O O5 0.108951 0.806864 0.076055
O O6 0.222694 0.877143 0.127508
O O7 0.250000 0.750000 0.000000
O O8 0.143488 0.500000 0.588704
O O9 0.097706 0.655552 0.697690
O O10 0.242485 0.635523 0.570531
O O11 0.127703 0.666156 0.514002
O O12 0.013499 0.667476 0.109602
O O13 0.132105 0.687671 0.932638
O O14 0.000000 0.795340 0.000000
O O15 0.956094 0.500000 0.194121
O O16 0.168300 0.500000 0.887394
O O17 0.229315 0.371452 0.745954
O O18 0.313291 0.500000 0.619496
O O19 0.362702 0.688470 0.598914
O O20 0.500000 0.218303 0.500000
#
# Coordination Sequence:
#
# PCOD9178614 Si02
#       8
#     8   8   8   8   8   8   8   8
#     4  10  19  33  53  81 112 136 169 219 267 318
#     4   9  19  34  52  77 109 141 178 209 252 315
#     4  10  20  34  53  80 110 141 172 216 273 322
#     4  10  19  30  50  80 112 140 168 210 267 322
#     4   9  17  29  47  76 110 135 165 206 259 319
#     4  10  19  34  55  77 105 143 180 216 256 310
#     4  10  22  38  54  75 107 142 183 224 263 311
#     4  12  22  35  57  78 106 141 181 224 268 319
#
# _framework density 17.859421999999999
#
# number of rings (size 3 to 8) (size 9 to 14) (size 15 to 20)
#    0.000    2.000    2.500    1.875    0.000    5.750 
#    0.000    0.000    0.000    0.375    0.000    0.000 
#    0.000    0.000    0.000    0.000    0.000    0.000 
#
# Total GULP energy -178246.513980 kJ/mol
# GULP energy per Si atom -5570.203562 kJ/mol
# Density = 1.781877 g / cm^3
# Si number density = 17.859422 Si / 1000 Ang^3
#
#
#
# Elastic Constant Matrix: (Units=GPa)
#
#
# Indices 1 2 3 4 5 6 
#
# 1 96.6294 24.2766 28.6477 0.0000 23.2140 0.0000
# 2 24.2766 37.9707 12.0461 0.0000 1.7716 0.0000
# 3 28.6477 12.0461 61.0655 0.0000 7.4615 0.0000
# 4 0.0000 0.0000 0.0000 11.7926 0.0000 -8.3570
# 5 23.2140 1.7716 7.4615 0.0000 25.7616 0.0000
# 6 0.0000 0.0000 0.0000 -8.3570 0.0000 3.0483
#
#
#
# Elastic Compliance Matrix: (Units=1/GPa)
#
#
# Indices 1 2 3 4 5 6 
#
# 1 0.017226 -0.008900 -0.004669 0.000000 -0.013558 0.000000
# 2 -0.008900 0.032695 -0.003089 0.000000 0.006666 0.000000
# 3 -0.004669 -0.003089 0.019319 0.000000 -0.001176 0.000000
# 4 0.000000 0.000000 0.000000 -0.089941 0.000000 -0.246576
# 5 -0.013558 0.006666 -0.001176 0.000000 0.050917 0.000000
# 6 0.000000 0.000000 0.000000 -0.246576 0.000000 -0.347943
#
#
# Mechanical properties :
#
#
# Convention : Reuss Voigt Hill
#
# Bulk Modulus (GPa) = 27.83574 36.17850 32.00712
# Shear Modulus (GPa) = -18.35294 16.83351 -0.75971
#
# Velocity S-wave (km/s) = -3.20915 3.07344 -0.65292
# Velocity P-wave (km/s) = 1.37417 5.73551 4.17039
#
# Compressibility (1/GPa) = 0.03592504
#
# Stress axis : x y z
#
# Youngs Moduli (GPa) = 58.05107 30.58564 51.76177
#
# Poissons Ratio (x) = 0.27221 0.24168
# Poissons Ratio (y) = 0.51664 0.15989
# Poissons Ratio (z) = 0.27104 0.09448
#
# Static dielectric constant tensor:
#      x y z
#    x 1.679980 0.000000 0.022290 
#    y 0.000000 1.564540 0.000000 
#    z 0.022290 0.000000 1.621690 
# 
# From -- ./inp_files/225235.got.cif
#   From: 2010.05.17/outbox.cif.g08.bks.cpg/sg12_113_cif.got.tgz:225235.got - 2010.06.03 13:09:07.
