data_PCOD9178074
_publ_section_title
;
Structure prediction by ZEFSAII (Michael W. Deem and Ramdas Pophale) SiO2 
 PCOD9178074
Probable space group: C 2/M
;
_chemical_formula_sum "Si O2"
_cell_formula_units_Z 56
_cell_length_a 20.055448
_cell_length_b 7.229334
_cell_length_c 28.296771
_cell_angle_alpha 90.000000
_cell_angle_beta 36.225548
_cell_angle_gamma 90.000000
_cell_volume 2424.541455
_symmetry_space_group_name_H-M "C 2/M"
_symmetry_group_IT_number 12
_symmetry_cell_setting 'monoclinic'
loop_
_space_group_symop_operation_xyz
x,y,z
-x,y,-z
-x,-y,-z
x,-y,z
1/2+x,1/2+y,z
1/2-x,1/2+y,-z
1/2-x,1/2-y,-z
1/2+x,1/2-y,z
loop_
_atom_site_type_symbol
_atom_site_label
_atom_site_fract_x
_atom_site_fract_y
_atom_site_fract_z
Si Si1 0.342915 0.223320 0.623016
Si Si2 0.478640 0.774426 0.405122
Si Si3 0.519958 0.723141 0.742640
Si Si4 0.659018 0.787710 0.226679
Si Si5 0.253707 0.224108 0.570636
Si Si6 0.913946 0.774157 0.089330
Si Si7 0.395966 0.275946 0.203569
O O1 0.457990 0.279670 0.582376
O O2 0.308892 0.277666 0.589777
O O3 0.235987 0.275923 0.716609
O O4 0.347400 0.000000 0.618867
O O5 0.563595 0.707890 0.316081
O O6 0.348311 0.712756 0.479194
O O7 0.475012 0.000000 0.405694
O O8 0.522528 0.500000 0.741202
O O9 0.401484 0.783063 0.789258
O O10 0.624413 0.787138 0.649393
O O11 0.544538 0.784582 0.782098
O O12 0.784972 0.712526 0.154317
O O13 0.672219 0.000000 0.235138
O O14 0.249731 0.000000 0.570968
O O15 0.943952 0.718190 0.125742
O O16 0.915031 0.000000 0.087391
O O17 0.000000 0.711862 0.000000
O O18 0.398123 0.500000 0.203208
#
# Coordination Sequence:
#
# PCOD9178074 Si02
#       7
#     8   8   8   8   8   8   8
#     4   8  11  18  34  58  87 111 140 186 229 257
#     4   9  14  21  36  61  91 115 143 187 229 256
#     4   9  18  31  46  64  93 127 153 177 213 268
#     4  10  19  30  46  69  94 118 146 186 230 266
#     4   8  14  22  36  60  87 118 151 181 216 259
#     4   9  16  28  48  72  93 112 143 189 233 268
#     4   8  13  25  44  65  87 116 151 184 220 261
#
# _framework density 23.097152999999999
#
# number of rings (size 3 to 8) (size 9 to 14) (size 15 to 20)
#    0.000    3.286    1.429    2.143    0.000    2.286 
#    0.000    0.714    0.000    1.286    0.000    0.000 
#    0.000    3.714    0.000    0.000    0.000    0.000 
#
# Total GULP energy -156307.888238 kJ/mol
# GULP energy per Si atom -5582.424580 kJ/mol
# Density = 2.304458 g / cm^3
# Si number density = 23.097153 Si / 1000 Ang^3
#
#
#
# Elastic Constant Matrix: (Units=GPa)
#
#
# Indices 1 2 3 4 5 6 
#
# 1 107.0507 -6.6902 52.2036 -0.0015 -9.4431 0.0135
# 2 -6.6902 110.6025 6.1285 0.0070 -1.6877 -0.0034
# 3 52.2036 6.1285 161.0775 0.0000 6.6567 0.0005
# 4 -0.0015 0.0070 0.0000 -19.8458 -0.0011 -2.5262
# 5 -9.4431 -1.6877 6.6567 -0.0011 21.0465 -0.0020
# 6 0.0135 -0.0034 0.0005 -2.5262 -0.0020 3.1973
#
#
#
# Elastic Compliance Matrix: (Units=1/GPa)
#
#
# Indices 1 2 3 4 5 6 
#
# 1 0.012079 0.001070 -0.004238 0.000004 0.006846 -0.000041
# 2 0.001070 0.009170 -0.000756 0.000002 0.001454 0.000008
# 3 -0.004238 -0.000756 0.007793 -0.000001 -0.004427 0.000012
# 4 0.000004 0.000002 -0.000001 -0.045784 -0.000003 -0.036173
# 5 0.006846 0.001454 -0.004427 -0.000003 0.052102 0.000003
# 6 -0.000041 0.000008 0.000012 -0.036173 0.000003 0.284180
#
#
# Mechanical properties :
#
#
# Convention : Reuss Voigt Hill
#
# Bulk Modulus (GPa) = 47.18227 53.55716 50.36972
# Shear Modulus (GPa) = 14.94973 22.68552 18.81762
#
# Velocity S-wave (km/s) = 2.54688 3.13737 2.85742
# Velocity P-wave (km/s) = 5.39638 6.03011 5.72202
#
# Compressibility (1/GPa) = 0.02119440
#
# Stress axis : x y z
#
# Youngs Moduli (GPa) = 82.78873 109.04916 128.31221
#
# Poissons Ratio (x) = -0.11668 0.54382
# Poissons Ratio (y) = -0.08858 0.09697
# Poissons Ratio (z) = 0.35088 0.08241
#
# Static dielectric constant tensor:
#      x y z
#    x 1.858430 0.000000 0.039080 
#    y 0.000000 1.922980 0.000000 
#    z 0.039080 0.000000 1.848990 
# 
# From -- ./inp_files/342992.got.cif
#   From: 2010.05.17/outbox.cif.g08.bks.cpg/sg12_172_cif.got.tgz:342992.got - 2010.06.03 13:09:07.
