data_PCOD9178293
_publ_section_title
;
Structure prediction by ZEFSAII (Michael W. Deem and Ramdas Pophale) SiO2 
 PCOD9178293
Probable space group: C 2/M
;
_chemical_formula_sum "Si O2"
_cell_formula_units_Z 32
_cell_length_a 17.476916
_cell_length_b 12.648283
_cell_length_c 15.853984
_cell_angle_alpha 90.000000
_cell_angle_beta 26.452748
_cell_angle_gamma 90.000000
_cell_volume 1561.144551
_symmetry_space_group_name_H-M "C 2/M"
_symmetry_group_IT_number 12
_symmetry_cell_setting 'monoclinic'
loop_
_space_group_symop_operation_xyz
x,y,z
-x,y,-z
-x,-y,-z
x,-y,z
1/2+x,1/2+y,z
1/2-x,1/2+y,-z
1/2-x,1/2-y,-z
1/2+x,1/2-y,z
loop_
_atom_site_type_symbol
_atom_site_label
_atom_site_fract_x
_atom_site_fract_y
_atom_site_fract_z
Si Si1 0.621283 0.310416 0.451227
Si Si2 0.613893 0.814414 0.189375
Si Si3 0.486864 0.114570 0.142431
Si Si4 0.163336 0.177672 0.883233
O O1 0.500000 0.363000 0.500000
O O2 0.508424 0.266334 0.639281
O O3 0.786070 0.374720 0.318879
O O4 0.296132 0.210465 0.679693
O O5 0.510871 0.876689 0.219635
O O6 0.750000 0.750000 0.000000
O O7 0.727900 0.872614 0.148259
O O8 0.585774 0.211742 0.999323
O O9 0.553611 0.000000 0.048428
O O10 0.000000 0.124397 0.000000
#
# Coordination Sequence:
#
# PCOD9178293 Si02
#       4
#     8   8   8   8
#     4   9  17  30  48  68  91 125 163 194 226 276
#     4   9  17  31  49  68  93 127 164 194 228 282
#     4  10  19  30  47  73 103 127 150 193 247 287
#     4   8  16  30  50  70  90 123 160 195 231 275
#
# _framework density 20.497781
#
# number of rings (size 3 to 8) (size 9 to 14) (size 15 to 20)
#    0.000    3.000    0.000    0.750    0.000    5.000 
#    0.000   10.000    0.000    7.500    0.000    0.000 
#    0.000    0.000    0.000    0.000    0.000    0.000 
#
# Total GULP energy -89082.406065 kJ/mol
# GULP energy per Si atom -5567.650379 kJ/mol
# Density = 2.045113 g / cm^3
# Si number density = 20.497781 Si / 1000 Ang^3
#
#
#
# Elastic Constant Matrix: (Units=GPa)
#
#
# Indices 1 2 3 4 5 6 
#
# 1 158.7035 18.2249 38.6360 0.0000 -23.9404 0.0000
# 2 18.2249 64.5391 16.0837 0.0000 2.0061 0.0000
# 3 38.6360 16.0837 109.4004 0.0003 4.5777 -0.0001
# 4 0.0000 0.0000 0.0003 2.1720 -0.0002 5.9108
# 5 -23.9404 2.0061 4.5777 -0.0002 57.4303 0.0001
# 6 0.0000 0.0000 -0.0001 5.9108 0.0001 -17.0678
#
#
#
# Elastic Compliance Matrix: (Units=1/GPa)
#
#
# Indices 1 2 3 4 5 6 
#
# 1 0.007641 -0.001616 -0.002605 0.000000 0.003449 0.000000
# 2 -0.001616 0.016433 -0.001799 0.000000 -0.001104 0.000000
# 3 -0.002605 -0.001799 0.010403 -0.000001 -0.001852 0.000000
# 4 0.000000 0.000000 -0.000001 0.237026 0.000001 0.082085
# 5 0.003449 -0.001104 -0.001852 0.000001 0.019037 0.000000
# 6 0.000000 0.000000 0.000000 0.082085 0.000000 -0.030163
#
#
# Mechanical properties :
#
#
# Convention : Reuss Voigt Hill
#
# Bulk Modulus (GPa) = 44.56928 53.17024 48.86976
# Shear Modulus (GPa) = 17.86371 25.82010 21.84191
#
# Velocity S-wave (km/s) = 2.95531 3.55301 3.26785
# Velocity P-wave (km/s) = 5.78237 6.54428 6.17509
#
# Compressibility (1/GPa) = 0.02243698
#
# Stress axis : x y z
#
# Youngs Moduli (GPa) = 130.86910 60.85152 96.12727
#
# Poissons Ratio (x) = 0.09832 0.25045
# Poissons Ratio (y) = 0.21145 0.17295
# Poissons Ratio (z) = 0.34096 0.10948
#
# Static dielectric constant tensor:
#      x y z
#    x 1.809680 0.000000 -0.058990 
#    y 0.000000 1.724950 0.000000 
#    z -0.058990 0.000000 1.720020 
# 
# From -- ./inp_files/235000.got.cif
#   From: 2010.05.17/outbox.cif.g08.bks.cpg/sg12_118_cif.got.tgz:235000.got - 2010.06.03 13:09:07.
