data_PCOD9178986
_publ_section_title
;
Structure prediction by ZEFSAII (Michael W. Deem and Ramdas Pophale) SiO2 
 PCOD9178986
Probable space group: C 2/M
;
_chemical_formula_sum "Si O2"
_cell_formula_units_Z 48
_cell_length_a 19.259825
_cell_length_b 7.537243
_cell_length_c 25.373563
_cell_angle_alpha 90.000000
_cell_angle_beta 39.543346
_cell_angle_gamma 90.000000
_cell_volume 2345.066159
_symmetry_space_group_name_H-M "C 2/M"
_symmetry_group_IT_number 12
_symmetry_cell_setting 'monoclinic'
loop_
_space_group_symop_operation_xyz
x,y,z
-x,y,-z
-x,-y,-z
x,-y,z
1/2+x,1/2+y,z
1/2-x,1/2+y,-z
1/2-x,1/2-y,-z
1/2+x,1/2-y,z
loop_
_atom_site_type_symbol
_atom_site_label
_atom_site_fract_x
_atom_site_fract_y
_atom_site_fract_z
Si Si1 0.029156 0.211268 0.315417
Si Si2 0.203662 0.287838 0.084445
Si Si3 0.721808 0.701577 0.851387
Si Si4 0.303089 0.281433 0.247281
Si Si5 0.455115 0.704497 0.251183
Si Si6 0.055456 0.713028 0.414371
O O1 0.148222 0.298612 0.238239
O O2 0.994177 0.242505 0.395775
O O3 0.953407 0.277180 0.311913
O O4 0.044704 0.000000 0.299113
O O5 0.195017 0.500000 0.096195
O O6 0.277972 0.220035 0.089873
O O7 0.082277 0.211991 0.161137
O O8 0.250000 0.250000 0.000000
O O9 0.680572 0.500000 0.879766
O O10 0.671271 0.780269 0.827509
O O11 0.305164 0.500000 0.243733
O O12 0.384273 0.218399 0.245258
O O13 0.180347 0.226191 0.334299
O O14 0.419247 0.500000 0.276055
O O15 0.059315 0.500000 0.415600
O O16 0.000000 0.780900 0.500000
#
# Coordination Sequence:
#
# PCOD9178986 Si02
#       6
#     8   8   8   8   8   8
#     4   9  16  26  43  66  90 116 145 180 224 271
#     4  10  19  31  48  69  92 118 150 186 223 264
#     4   8  15  29  48  66  85 116 155 185 211 258
#     4   8  14  28  49  68  86 113 152 190 220 258
#     4   9  17  30  48  68  90 117 148 183 225 270
#     4   9  17  30  48  67  88 119 157 190 218 256
#
# _framework density 20.468506000000001
#
# number of rings (size 3 to 8) (size 9 to 14) (size 15 to 20)
#    0.000    3.167    0.000    2.000    0.000    1.667 
#    0.000    5.000    0.000    5.000    0.000    0.000 
#    0.000    0.000    0.000    0.000    0.000    0.000 
#
# Total GULP energy -133616.194967 kJ/mol
# GULP energy per Si atom -5567.341457 kJ/mol
# Density = 2.042192 g / cm^3
# Si number density = 20.468506 Si / 1000 Ang^3
#
#
#
# Elastic Constant Matrix: (Units=GPa)
#
#
# Indices 1 2 3 4 5 6 
#
# 1 194.9716 -5.0458 59.6710 0.0000 58.2496 0.0003
# 2 -5.0458 56.6089 -8.2635 0.0000 -0.3132 0.0013
# 3 59.6710 -8.2635 89.4971 -0.0002 52.0755 0.0003
# 4 0.0000 0.0000 -0.0002 11.6318 0.0000 2.1988
# 5 58.2496 -0.3132 52.0755 0.0000 41.7633 -0.0002
# 6 0.0003 0.0013 0.0003 2.1988 -0.0002 9.7593
#
#
#
# Elastic Compliance Matrix: (Units=1/GPa)
#
#
# Indices 1 2 3 4 5 6 
#
# 1 0.009482 0.001536 0.005496 0.000000 -0.020065 -0.000001
# 2 0.001536 0.018739 0.006817 0.000001 -0.010502 -0.000003
# 3 0.005496 0.006817 0.045796 0.000002 -0.064718 -0.000004
# 4 0.000000 0.000001 0.000002 0.089795 -0.000003 -0.020231
# 5 -0.020065 -0.010502 -0.064718 -0.000003 0.132550 0.000008
# 6 -0.000001 -0.000003 -0.000004 -0.020231 0.000008 0.107024
#
#
# Mechanical properties :
#
#
# Convention : Reuss Voigt Hill
#
# Bulk Modulus (GPa) = 9.83149 48.20012 29.01580
# Shear Modulus (GPa) = 12.20724 32.27861 22.24293
#
# Velocity S-wave (km/s) = 2.44476 3.97544 3.30007
# Velocity P-wave (km/s) = 3.57530 6.68369 5.35978
#
# Compressibility (1/GPa) = 0.10171402
#
# Stress axis : x y z
#
# Youngs Moduli (GPa) = 105.46826 53.36467 21.83596
#
# Poissons Ratio (x) = -0.08198 -0.12000
# Poissons Ratio (y) = -0.16203 -0.14885
# Poissons Ratio (z) = -0.57961 -0.36378
#
# Static dielectric constant tensor:
#      x y z
#    x 1.785380 0.000000 0.063090 
#    y 0.000000 1.802190 0.000000 
#    z 0.063090 0.000000 1.707560 
# 
# From -- ./inp_files/229299.got.cif
#   From: 2010.05.17/outbox.cif.g08.bks.cpg/sg12_115_cif.got.tgz:229299.got - 2010.06.03 13:09:07.
