data_PCOD9178244
_publ_section_title
;
Structure prediction by ZEFSAII (Michael W. Deem and Ramdas Pophale) SiO2 
 PCOD9178244
Probable space group: C 2/M
;
_chemical_formula_sum "Si O2"
_cell_formula_units_Z 64
_cell_length_a 18.365007
_cell_length_b 7.433148
_cell_length_c 31.494911
_cell_angle_alpha 90.000000
_cell_angle_beta 136.764134
_cell_angle_gamma 90.000000
_cell_volume 2945.078817
_symmetry_space_group_name_H-M "C 2/M"
_symmetry_group_IT_number 12
_symmetry_cell_setting 'monoclinic'
loop_
_space_group_symop_operation_xyz
x,y,z
-x,y,-z
-x,-y,-z
x,-y,z
1/2+x,1/2+y,z
1/2-x,1/2+y,-z
1/2-x,1/2-y,-z
1/2+x,1/2-y,z
loop_
_atom_site_type_symbol
_atom_site_label
_atom_site_fract_x
_atom_site_fract_y
_atom_site_fract_z
Si Si1 0.718082 0.786487 0.438004
Si Si2 0.829036 0.780811 0.929449
Si Si3 0.502717 0.280879 0.932834
Si Si4 0.929623 0.215271 0.810465
Si Si5 0.194432 0.279769 0.686901
Si Si6 0.020696 0.719970 0.682589
Si Si7 0.904298 0.714803 0.193199
Si Si8 0.613053 0.208728 0.561962
O O1 0.750000 0.750000 0.500000
O O2 0.599169 0.719359 0.377862
O O3 0.804408 0.714653 0.441579
O O4 0.717069 0.000000 0.431427
O O5 0.905456 0.731139 0.922635
O O6 0.709825 0.716139 0.871183
O O7 0.827006 0.000000 0.929580
O O8 0.889089 0.722091 0.997857
O O9 0.505412 0.500000 0.933265
O O10 0.480357 0.216465 0.875917
O O11 0.810714 0.282399 0.750928
O O12 0.005557 0.251251 0.803125
O O13 0.921271 0.000000 0.811629
O O14 0.198278 0.500000 0.688468
O O15 0.103264 0.226181 0.681235
O O16 0.164491 0.216959 0.626884
O O17 0.019192 0.500000 0.681992
O O18 0.060695 0.781384 0.745659
O O19 0.892581 0.500000 0.192649
O O20 0.500000 0.289425 0.500000
O O21 0.590855 0.000000 0.562956
#
# Coordination Sequence:
#
# PCOD9178244 Si02
#       8
#     8   8   8   8   8   8   8   8
#     4  11  22  36  55  78 105 134 166 205 248 295
#     4   8  14  26  46  70  93 121 161 204 239 275
#     4   8  14  26  45  69  94 121 160 205 239 274
#     4  10  19  30  47  71  98 127 159 198 243 290
#     4   9  17  31  52  74  95 125 167 207 243 288
#     4   9  18  33  53  75  97 126 166 207 244 285
#     4  10  19  31  49  72  98 127 159 197 242 290
#     4  10  20  35  55  77 103 134 167 205 249 296
#
# _framework density 21.731168
#
# number of rings (size 3 to 8) (size 9 to 14) (size 15 to 20)
#    0.000    2.625    0.000    3.375    0.000    5.750 
#    0.000    0.625    0.000    5.250    0.000    1.750 
#    0.000    0.000    0.000    0.000    0.000    0.000 
#
# Total GULP energy -178776.185103 kJ/mol
# GULP energy per Si atom -5586.755784 kJ/mol
# Density = 2.168171 g / cm^3
# Si number density = 21.731168 Si / 1000 Ang^3
#
#
#
# Elastic Constant Matrix: (Units=GPa)
#
#
# Indices 1 2 3 4 5 6 
#
# 1 156.3233 -14.7493 126.5729 -0.0002 -2.1563 0.0003
# 2 -14.7493 66.8225 3.0267 -0.0006 1.0537 0.0008
# 3 126.5729 3.0267 241.0449 0.0000 -0.3924 0.0002
# 4 -0.0002 -0.0006 0.0000 -5.9475 0.0000 -1.4358
# 5 -2.1563 1.0537 -0.3924 0.0000 48.6870 -0.0002
# 6 0.0003 0.0008 0.0002 -1.4358 -0.0002 19.6366
#
#
#
# Elastic Compliance Matrix: (Units=1/GPa)
#
#
# Indices 1 2 3 4 5 6 
#
# 1 0.011654 0.002845 -0.006155 0.000000 0.000405 0.000000
# 2 0.002845 0.015673 -0.001691 -0.000001 -0.000227 -0.000001
# 3 -0.006155 -0.001691 0.007401 0.000000 -0.000176 0.000000
# 4 0.000000 -0.000001 0.000000 -0.165222 0.000000 -0.012081
# 5 0.000405 -0.000227 -0.000176 0.000000 0.020561 0.000000
# 6 0.000000 -0.000001 0.000000 -0.012081 0.000000 0.050042
#
#
# Mechanical properties :
#
#
# Convention : Reuss Voigt Hill
#
# Bulk Modulus (GPa) = 40.44158 77.09903 58.77031
# Shear Modulus (GPa) = -120.06062 35.76457 -42.14802
#
# Velocity S-wave (km/s) = -7.44097 4.06121 -4.40878
# Velocity P-wave (km/s) = 7.42790 7.58596 1.08929
#
# Compressibility (1/GPa) = 0.02472703
#
# Stress axis : x y z
#
# Youngs Moduli (GPa) = 85.80381 63.80359 135.10836
#
# Poissons Ratio (x) = -0.18151 0.83157
# Poissons Ratio (y) = -0.24410 0.22847
# Poissons Ratio (z) = 0.52811 0.10789
#
# Static dielectric constant tensor:
#      x y z
#    x 1.697650 0.000000 0.011770 
#    y 0.000000 1.861340 0.000000 
#    z 0.011770 0.000000 1.779370 
# 
# From -- ./inp_files/378361.got.cif
#   From: 2010.05.17/outbox.cif.g08.bks.cpg/sg12_190_cif.got.tgz:378361.got - 2010.06.03 13:09:07.
