data_PCOD9178928
_publ_section_title
;
Structure prediction by ZEFSAII (Michael W. Deem and Ramdas Pophale) SiO2 
 PCOD9178928
Probable space group: C 2/M
;
_chemical_formula_sum "Si O2"
_cell_formula_units_Z 64
_cell_length_a 14.861992
_cell_length_b 7.455090
_cell_length_c 27.941348
_cell_angle_alpha 90.000000
_cell_angle_beta 103.770307
_cell_angle_gamma 90.000000
_cell_volume 3006.850068
_symmetry_space_group_name_H-M "C 2/M"
_symmetry_group_IT_number 12
_symmetry_cell_setting 'monoclinic'
loop_
_space_group_symop_operation_xyz
x,y,z
-x,y,-z
-x,-y,-z
x,-y,z
1/2+x,1/2+y,z
1/2-x,1/2+y,-z
1/2-x,1/2-y,-z
1/2+x,1/2-y,z
loop_
_atom_site_type_symbol
_atom_site_label
_atom_site_fract_x
_atom_site_fract_y
_atom_site_fract_z
Si Si1 0.561987 0.218804 0.362817
Si Si2 0.855702 0.209577 0.188005
Si Si3 0.710889 0.717583 0.922693
Si Si4 0.455209 0.216024 0.745797
Si Si5 0.602724 0.211606 0.004463
Si Si6 0.742380 0.718877 0.729227
Si Si7 0.035963 0.290883 0.554418
Si Si8 0.775121 0.216147 0.379557
O O1 0.524803 0.278327 0.306186
O O2 0.507976 0.285606 0.402393
O O3 0.670335 0.269501 0.378712
O O4 0.558112 0.000000 0.361520
O O5 0.818941 0.283746 0.133306
O O6 0.811564 0.285578 0.231166
O O7 0.965795 0.223145 0.208249
O O8 0.830176 0.000000 0.184400
O O9 0.712942 0.500000 0.922400
O O10 0.637511 0.768015 0.954444
O O11 0.812235 0.782901 0.952540
O O12 0.350619 0.270276 0.745070
O O13 0.456114 0.000000 0.745697
O O14 0.597625 0.000000 0.014793
O O15 0.500000 0.286677 0.000000
O O16 0.738735 0.500000 0.728081
O O17 0.705162 0.777714 0.672555
O O18 0.008196 0.500000 0.550604
O O19 0.146029 0.279820 0.574742
O O20 0.000000 0.212324 0.500000
O O21 0.776929 0.000000 0.379942
#
# Coordination Sequence:
#
# PCOD9178928 Si02
#       8
#     8   8   8   8   8   8   8   8
#     4   8  16  32  50  67  92 124 155 192 238 283
#     4  10  19  31  47  70 102 129 149 186 238 282
#     4   9  19  33  48  71 101 128 153 189 240 284
#     4   9  17  31  51  71  91 123 164 195 226 276
#     4   9  18  34  55  74  92 122 166 205 231 267
#     4   8  16  31  50  70  93 124 157 189 232 282
#     4  10  20  32  46  67  95 124 153 191 243 291
#     4   9  17  32  52  69  88 120 160 195 229 276
#
# _framework density 21.284731000000001
#
# number of rings (size 3 to 8) (size 9 to 14) (size 15 to 20)
#    0.000    3.000    0.000    2.250    0.000    2.500 
#    0.000    6.250    0.000    0.000    0.000    0.000 
#    0.000    0.000    0.000    0.000    0.000    0.000 
#
# Total GULP energy -178579.997084 kJ/mol
# GULP energy per Si atom -5580.624909 kJ/mol
# Density = 2.123629 g / cm^3
# Si number density = 21.284731 Si / 1000 Ang^3
#
#
#
# Elastic Constant Matrix: (Units=GPa)
#
#
# Indices 1 2 3 4 5 6 
#
# 1 88.2073 -2.6139 48.2926 0.0000 15.1316 0.0000
# 2 -2.6139 56.5162 1.6979 0.0000 -0.8471 0.0000
# 3 48.2926 1.6979 122.5258 0.0000 25.7328 0.0000
# 4 0.0000 0.0000 0.0000 29.8473 0.0000 -8.2287
# 5 15.1316 -0.8471 25.7328 0.0000 14.6266 0.0000
# 6 0.0000 0.0000 0.0000 -8.2287 0.0000 20.2959
#
#
#
# Elastic Compliance Matrix: (Units=1/GPa)
#
#
# Indices 1 2 3 4 5 6 
#
# 1 0.015071 0.000704 -0.004257 0.000000 -0.008062 0.000000
# 2 0.000704 0.017784 -0.000931 0.000000 0.001940 0.000000
# 3 -0.004257 -0.000931 0.014177 0.000000 -0.020592 0.000000
# 4 0.000000 0.000000 0.000000 0.037720 0.000000 0.015293
# 5 -0.008062 0.001940 -0.020592 0.000000 0.113049 0.000000
# 6 0.000000 0.000000 0.000000 0.015293 0.000000 0.055471
#
#
# Mechanical properties :
#
#
# Convention : Reuss Voigt Hill
#
# Bulk Modulus (GPa) = 26.27186 40.22250 33.24718
# Shear Modulus (GPa) = 18.18656 27.61213 22.89934
#
# Velocity S-wave (km/s) = 2.92625 3.60568 3.28359
# Velocity P-wave (km/s) = 4.87721 6.02270 5.47997
#
# Compressibility (1/GPa) = 0.03806354
#
# Stress axis : x y z
#
# Youngs Moduli (GPa) = 66.35104 56.23141 70.53705
#
# Poissons Ratio (x) = -0.03959 0.30027
# Poissons Ratio (y) = -0.04672 0.06570
# Poissons Ratio (z) = 0.28245 0.05238
#
# Static dielectric constant tensor:
#      x y z
#    x 1.747030 0.000000 -0.003510 
#    y 0.000000 1.816110 0.000000 
#    z -0.003510 0.000000 1.756480 
# 
# From -- ./inp_files/359927.got.cif
#   From: 2010.05.17/outbox.cif.g08.bks.cpg/sg12_180_cif.got.tgz:359927.got - 2010.06.03 13:09:07.
