data_PCOD9178602
_publ_section_title
;
Structure prediction by ZEFSAII (Michael W. Deem and Ramdas Pophale) SiO2 
 PCOD9178602
Probable space group: C 2/M
;
_chemical_formula_sum "Si O2"
_cell_formula_units_Z 56
_cell_length_a 10.719238
_cell_length_b 28.242697
_cell_length_c 12.976707
_cell_angle_alpha 90.000000
_cell_angle_beta 43.601071
_cell_angle_gamma 90.000000
_cell_volume 2709.272350
_symmetry_space_group_name_H-M "C 2/M"
_symmetry_group_IT_number 12
_symmetry_cell_setting 'monoclinic'
loop_
_space_group_symop_operation_xyz
x,y,z
-x,y,-z
-x,-y,-z
x,-y,z
1/2+x,1/2+y,z
1/2-x,1/2+y,-z
1/2-x,1/2-y,-z
1/2+x,1/2-y,z
loop_
_atom_site_type_symbol
_atom_site_label
_atom_site_fract_x
_atom_site_fract_y
_atom_site_fract_z
Si Si1 0.035069 0.411952 0.358375
Si Si2 0.873869 0.114294 0.806854
Si Si3 0.352106 0.946262 0.198098
Si Si4 0.840345 0.947718 0.481149
Si Si5 0.556379 0.808907 0.586473
Si Si6 0.019914 0.202693 0.614096
Si Si7 0.252155 0.445515 0.058974
O O1 0.216081 0.433480 0.200653
O O2 0.000000 0.407226 0.500000
O O3 0.866704 0.444926 0.430821
O O4 0.014171 0.358515 0.325755
O O5 0.699107 0.091791 0.855840
O O6 0.046476 0.089601 0.649904
O O7 0.896747 0.168223 0.757189
O O8 0.862437 0.094199 0.929927
O O9 0.193649 0.939540 0.377651
O O10 0.547498 0.942924 0.133946
O O11 0.336802 0.000000 0.166644
O O12 0.913662 0.000000 0.419236
O O13 0.500000 0.809617 0.500000
O O14 0.771399 0.807624 0.479521
O O15 0.484060 0.757599 0.664086
O O16 0.000000 0.196072 0.500000
O O17 0.316026 0.500000 0.007767
#
# Coordination Sequence:
#
# PCOD9178602 Si02
#       7
#     8   8   8   8   8   8   8
#     4  10  20  38  60  76  99 149 204 243 287 346
#     4  12  20  31  51  82 118 149 180 235 301 348
#     4   9  18  32  49  73 112 156 186 219 281 355
#     4  10  19  30  50  79 105 137 192 239 272 332
#     4   9  19  38  61  85 116 152 197 246 299 352
#     4  10  20  34  60  95 118 144 197 254 295 342
#     4  10  22  36  52  81 119 156 191 234 298 360
#
# _framework density 20.669756
#
# number of rings (size 3 to 8) (size 9 to 14) (size 15 to 20)
#    0.000    2.000    1.429    4.286    2.000    3.429 
#    0.000    1.429    0.000    1.714    0.000    0.000 
#    0.000    0.000    0.000    0.000    0.000    0.000 
#
# Total GULP energy -155976.691224 kJ/mol
# GULP energy per Si atom -5570.596115 kJ/mol
# Density = 2.062271 g / cm^3
# Si number density = 20.669756 Si / 1000 Ang^3
#
#
#
# Elastic Constant Matrix: (Units=GPa)
#
#
# Indices 1 2 3 4 5 6 
#
# 1 59.1987 11.9089 10.0731 0.0000 3.1381 0.0000
# 2 11.9089 106.9077 43.5478 0.0000 14.2540 0.0000
# 3 10.0731 43.5478 89.7225 0.0000 14.7788 0.0000
# 4 0.0000 0.0000 0.0000 10.4141 0.0000 7.0473
# 5 3.1381 14.2540 14.7788 0.0000 20.2620 0.0000
# 6 0.0000 0.0000 0.0000 7.0473 0.0000 13.3334
#
#
#
# Elastic Compliance Matrix: (Units=1/GPa)
#
#
# Indices 1 2 3 4 5 6 
#
# 1 0.017408 -0.001350 -0.001150 0.000000 -0.000908 0.000000
# 2 -0.001350 0.012159 -0.004973 0.000000 -0.004717 0.000000
# 3 -0.001150 -0.004973 0.014869 0.000000 -0.007169 0.000000
# 4 0.000000 0.000000 0.000000 0.149493 0.000000 -0.079014
# 5 -0.000908 -0.004717 -0.007169 0.000000 0.058042 0.000000
# 6 0.000000 0.000000 0.000000 -0.079014 0.000000 0.116762
#
#
# Mechanical properties :
#
#
# Convention : Reuss Voigt Hill
#
# Bulk Modulus (GPa) = 33.90884 42.98763 38.44823
# Shear Modulus (GPa) = 12.70625 21.48848 17.09737
#
# Velocity S-wave (km/s) = 2.48206 3.22780 2.87917
# Velocity P-wave (km/s) = 4.96536 5.89356 5.44926
#
# Compressibility (1/GPa) = 0.02949084
#
# Stress axis : x y z
#
# Youngs Moduli (GPa) = 57.44632 82.24472 67.25401
#
# Poissons Ratio (x) = 0.11101 0.07732
# Poissons Ratio (y) = 0.07754 0.33444
# Poissons Ratio (z) = 0.06604 0.40899
#
# Static dielectric constant tensor:
#      x y z
#    x 1.930490 0.000000 0.117600 
#    y 0.000000 1.759720 0.000000 
#    z 0.117600 0.000000 1.847740 
# 
# From -- ./inp_files/209088.got.cif
#   From: 2010.05.17/outbox.cif.g08.bks.cpg/sg12_105_cif.got.tgz:209088.got - 2010.06.03 13:09:07.
