data_PCOD9178410
_publ_section_title
;
Structure prediction by ZEFSAII (Michael W. Deem and Ramdas Pophale) SiO2 
 PCOD9178410
Probable space group: C 2/M
;
_chemical_formula_sum "Si O2"
_cell_formula_units_Z 48
_cell_length_a 22.788036
_cell_length_b 9.001111
_cell_length_c 29.416798
_cell_angle_alpha 90.000000
_cell_angle_beta 151.637452
_cell_angle_gamma 90.000000
_cell_volume 2866.400868
_symmetry_space_group_name_H-M "C 2/M"
_symmetry_group_IT_number 12
_symmetry_cell_setting 'monoclinic'
loop_
_space_group_symop_operation_xyz
x,y,z
-x,y,-z
-x,-y,-z
x,-y,z
1/2+x,1/2+y,z
1/2-x,1/2+y,-z
1/2-x,1/2-y,-z
1/2+x,1/2-y,z
loop_
_atom_site_type_symbol
_atom_site_label
_atom_site_fract_x
_atom_site_fract_y
_atom_site_fract_z
Si Si1 0.355571 0.322166 0.408154
Si Si2 0.204436 0.678665 0.817640
Si Si3 0.796487 0.323695 0.462422
Si Si4 0.705890 0.823056 0.215075
Si Si5 0.461911 0.670712 0.027471
Si Si6 0.946434 0.176436 0.644300
O O1 0.500000 0.287085 0.500000
O O2 0.345233 0.500000 0.408402
O O3 0.305609 0.237914 0.418042
O O4 0.280696 0.284747 0.311496
O O5 0.201605 0.500000 0.813231
O O6 0.235318 0.743172 0.788731
O O7 0.073862 0.744184 0.743432
O O8 0.319375 0.719810 0.928840
O O9 0.819375 0.500000 0.479409
O O10 0.895575 0.241549 0.562114
O O11 0.662361 0.296031 0.393466
O O12 0.563610 0.770701 0.121121
O O13 0.712074 0.000000 0.212414
O O14 0.470626 0.500000 0.049335
O O15 0.500000 0.670604 0.000000
O O16 0.964991 0.000000 0.652654
#
# Coordination Sequence:
#
# PCOD9178410 Si02
#       6
#     8   8   8   8   8   8
#     4  10  21  35  50  71 101 133 163 198 240 286
#     4  10  19  31  50  75 100 129 165 202 244 291
#     4  10  21  35  52  74  98 129 165 198 240 291
#     4  10  19  30  48  74 102 133 165 200 245 291
#     4   8  16  30  46  68  99 130 161 201 246 289
#     4  10  20  34  52  74 100 127 159 203 246 286
#
# _framework density 16.745737999999999
#
# number of rings (size 3 to 8) (size 9 to 14) (size 15 to 20)
#    0.000    2.333    0.000    4.000    0.000    8.667 
#    0.000    0.000    0.000    1.000    0.000    0.000 
#    0.000    0.000    0.000    0.000    0.000    0.000 
#
# Total GULP energy -133890.299010 kJ/mol
# GULP energy per Si atom -5578.762459 kJ/mol
# Density = 1.670762 g / cm^3
# Si number density = 16.745738 Si / 1000 Ang^3
#
#
#
# Elastic Constant Matrix: (Units=GPa)
#
#
# Indices 1 2 3 4 5 6 
#
# 1 47.2579 33.3621 37.8493 0.0006 -3.7755 0.0000
# 2 33.3621 56.1471 56.4734 0.0012 2.3671 0.0001
# 3 37.8493 56.4734 140.3984 0.0024 11.5158 0.0000
# 4 0.0006 0.0012 0.0024 29.3206 0.0004 3.4265
# 5 -3.7755 2.3671 11.5158 0.0004 23.0994 -0.0001
# 6 0.0000 0.0001 0.0000 3.4265 -0.0001 27.2980
#
#
#
# Elastic Compliance Matrix: (Units=1/GPa)
#
#
# Indices 1 2 3 4 5 6 
#
# 1 0.038816 -0.020384 -0.003083 0.000000 0.009970 0.000000
# 2 -0.020384 0.040825 -0.010749 0.000000 -0.002156 0.000000
# 3 -0.003083 -0.010749 0.012750 0.000000 -0.005759 0.000000
# 4 0.000000 0.000000 0.000000 0.034614 0.000000 -0.004345
# 5 0.009970 -0.002156 -0.005759 0.000000 0.048012 0.000000
# 6 0.000000 0.000000 0.000000 -0.004345 0.000000 0.037178
#
#
# Mechanical properties :
#
#
# Convention : Reuss Voigt Hill
#
# Bulk Modulus (GPa) = 41.73803 55.46369 48.60086
# Shear Modulus (GPa) = 17.32425 23.68485 20.50455
#
# Velocity S-wave (km/s) = 3.21993 3.76491 3.50303
# Velocity P-wave (km/s) = 6.22917 7.21750 6.74147
#
# Compressibility (1/GPa) = 0.02395897
#
# Stress axis : x y z
#
# Youngs Moduli (GPa) = 25.76245 24.49494 78.43284
#
# Poissons Ratio (x) = 0.49930 0.24181
# Poissons Ratio (y) = 0.52513 0.84309
# Poissons Ratio (z) = 0.07942 0.26330
#
# Static dielectric constant tensor:
#      x y z
#    x 1.543190 0.000000 0.024180 
#    y 0.000000 1.559340 0.000000 
#    z 0.024180 0.000000 1.574620 
# 
# From -- ./inp_files/172040.got.cif
#   From: 2010.05.17/outbox.cif.g08.bks.cpg/sg12_87_cif.got.tgz:172040.got - 2010.06.03 13:09:07.
