data_PCOD9178003
_publ_section_title
;
Structure prediction by ZEFSAII (Michael W. Deem and Ramdas Pophale) SiO2 
 PCOD9178003
Probable space group: C 2/M
;
_chemical_formula_sum "Si O2"
_cell_formula_units_Z 64
_cell_length_a 25.045588
_cell_length_b 8.445345
_cell_length_c 32.576894
_cell_angle_alpha 90.000000
_cell_angle_beta 149.861687
_cell_angle_gamma 90.000000
_cell_volume 3459.705496
_symmetry_space_group_name_H-M "C 2/M"
_symmetry_group_IT_number 12
_symmetry_cell_setting 'monoclinic'
loop_
_space_group_symop_operation_xyz
x,y,z
-x,y,-z
-x,-y,-z
x,-y,z
1/2+x,1/2+y,z
1/2-x,1/2+y,-z
1/2-x,1/2-y,-z
1/2+x,1/2-y,z
loop_
_atom_site_type_symbol
_atom_site_label
_atom_site_fract_x
_atom_site_fract_y
_atom_site_fract_z
Si Si1 0.505298 0.689480 0.731616
Si Si2 0.146920 0.310439 0.297452
Si Si3 0.900096 0.309672 0.355156
Si Si4 0.334675 0.188504 0.220747
Si Si5 0.893528 0.310659 0.905273
Si Si6 0.116903 0.809320 0.518355
Si Si7 0.160338 0.189708 0.217983
Si Si8 0.363342 0.690539 0.562050
O O1 0.502927 0.500000 0.732440
O O2 0.440423 0.752938 0.727559
O O3 0.621370 0.742110 0.792949
O O4 0.440367 0.749030 0.648637
O O5 0.149424 0.500000 0.300972
O O6 0.269560 0.253862 0.387858
O O7 0.118141 0.252081 0.233043
O O8 0.907668 0.500000 0.359039
O O9 0.891723 0.252373 0.301574
O O10 0.785477 0.265261 0.297561
O O11 0.996688 0.246921 0.447469
O O12 0.211694 0.231512 0.145793
O O13 0.347825 0.000000 0.228678
O O14 0.881697 0.500000 0.900095
O O15 0.896522 0.260603 0.859641
O O16 0.000000 0.263619 0.000000
O O17 0.120132 0.754681 0.473030
O O18 0.117107 0.000000 0.521461
O O19 0.154419 0.000000 0.212348
O O20 0.368404 0.500000 0.564854
O O21 0.250000 0.750000 0.500000
#
# Coordination Sequence:
#
# PCOD9178003 Si02
#       8
#     8   8   8   8   8   8   8   8
#     4  11  21  33  52  77 108 148 191 236 281 327
#     4  11  23  37  52  74 108 152 196 236 279 330
#     4   9  19  33  51  74 103 141 185 236 283 322
#     4  10  20  34  55  85 117 147 181 225 276 326
#     4  10  21  39  66  96 119 140 170 213 268 329
#     4  10  20  32  47  71 103 143 192 239 283 325
#     4  10  22  40  58  81 111 145 185 226 274 332
#     4  10  19  30  45  69 100 140 188 239 284 321
#
# _framework density 18.498684999999998
#
# number of rings (size 3 to 8) (size 9 to 14) (size 15 to 20)
#    0.000    1.875    2.500    2.625    0.000    6.000 
#    0.000    2.500    0.000    0.750    0.000    0.000 
#    0.000    0.000    0.000    0.000    0.000    0.000 
#
# Total GULP energy -178351.736048 kJ/mol
# GULP energy per Si atom -5573.491752 kJ/mol
# Density = 1.845658 g / cm^3
# Si number density = 18.498685 Si / 1000 Ang^3
#
#
#
# Elastic Constant Matrix: (Units=GPa)
#
#
# Indices 1 2 3 4 5 6 
#
# 1 100.1521 14.4595 46.8249 -0.0003 -17.2140 0.0016
# 2 14.4595 22.4197 11.6037 0.0002 -4.8035 0.0026
# 3 46.8249 11.6037 87.2119 -0.0001 -5.4288 0.0000
# 4 -0.0003 0.0002 -0.0001 21.0121 -0.0001 7.2674
# 5 -17.2140 -4.8035 -5.4288 -0.0001 16.4071 0.0000
# 6 0.0016 0.0026 0.0000 7.2674 0.0000 25.1868
#
#
#
# Elastic Compliance Matrix: (Units=1/GPa)
#
#
# Indices 1 2 3 4 5 6 
#
# 1 0.016334 -0.003785 -0.007421 0.000001 0.013573 -0.000001
# 2 -0.003785 0.051282 -0.004190 0.000001 0.009656 -0.000005
# 3 -0.007421 -0.004190 0.015772 0.000000 -0.003794 0.000001
# 4 0.000001 0.000001 0.000000 0.052868 0.000001 -0.015254
# 5 0.013573 0.009656 -0.003794 0.000001 0.076762 -0.000002
# 6 -0.000001 -0.000005 0.000001 -0.015254 -0.000002 0.044105
#
#
# Mechanical properties :
#
#
# Convention : Reuss Voigt Hill
#
# Bulk Modulus (GPa) = 19.01297 39.50666 29.25982
# Shear Modulus (GPa) = 16.36943 21.64758 19.00851
#
# Velocity S-wave (km/s) = 2.97795 3.42456 3.20904
# Velocity P-wave (km/s) = 4.70368 6.08602 5.43894
#
# Compressibility (1/GPa) = 0.05259567
#
# Stress axis : x y z
#
# Youngs Moduli (GPa) = 61.22174 19.49987 63.40273
#
# Poissons Ratio (x) = 0.07381 0.47053
# Poissons Ratio (y) = 0.23175 0.26564
# Poissons Ratio (z) = 0.45435 0.08170
#
# Static dielectric constant tensor:
#      x y z
#    x 1.691410 0.000000 0.031690 
#    y 0.000000 1.631490 0.000000 
#    z 0.031690 0.000000 1.662590 
# 
# From -- ./inp_files/382428.got.cif
#   From: 2010.05.17/outbox.cif.g08.bks.cpg/sg12_192_cif.got.tgz:382428.got - 2010.06.03 13:09:07.
