data_PCOD9178319
_publ_section_title
;
Structure prediction by ZEFSAII (Michael W. Deem and Ramdas Pophale) SiO2 
 PCOD9178319
Probable space group: C 2/M
;
_chemical_formula_sum "Si O2"
_cell_formula_units_Z 40
_cell_length_a 36.591038
_cell_length_b 11.457394
_cell_length_c 5.149811
_cell_angle_alpha 90.000000
_cell_angle_beta 85.748793
_cell_angle_gamma 90.000000
_cell_volume 2153.055940
_symmetry_space_group_name_H-M "C 2/M"
_symmetry_group_IT_number 12
_symmetry_cell_setting 'monoclinic'
loop_
_space_group_symop_operation_xyz
x,y,z
-x,y,-z
-x,-y,-z
x,-y,z
1/2+x,1/2+y,z
1/2-x,1/2+y,-z
1/2-x,1/2-y,-z
1/2+x,1/2-y,z
loop_
_atom_site_type_symbol
_atom_site_label
_atom_site_fract_x
_atom_site_fract_y
_atom_site_fract_z
Si Si1 0.914826 0.640901 0.115362
Si Si2 0.959155 0.358039 0.592095
Si Si3 0.259791 0.129138 0.140634
Si Si4 0.334279 0.235301 0.054031
Si Si5 0.187501 0.869459 0.444519
O O1 0.912651 0.500000 0.113759
O O2 0.930340 0.677455 0.386180
O O3 0.875019 0.689713 0.071263
O O4 0.944044 0.676749 0.880096
O O5 0.960392 0.500000 0.590056
O O6 0.000000 0.317653 0.500000
O O7 0.303276 0.140767 0.151064
O O8 0.231918 0.132781 0.398444
O O9 0.252500 0.000000 0.023021
O O10 0.250000 0.250000 0.000000
O O11 0.325970 0.337587 0.263796
O O12 0.327358 0.280093 0.765169
O O13 0.175789 0.000000 0.380099
#
# Coordination Sequence:
#
# PCOD9178319 Si02
#       5
#     8   8   8   8   8
#     4  10  19  30  47  74 105 134 164 203 250 304
#     4   9  17  30  47  68 100 139 169 195 239 305
#     4   9  19  35  54  77 105 144 185 224 267 314
#     4  11  20  34  52  76 104 133 170 218 265 308
#     4  10  21  36  53  72  99 136 179 219 259 308
#
# _framework density 18.578244999999999
#
# number of rings (size 3 to 8) (size 9 to 14) (size 15 to 20)
#    0.000    2.200    0.000    3.600    0.000    3.200 
#    0.000   13.000    0.000    0.000    0.000    0.000 
#    0.000   56.000    0.000    0.000    0.000    0.000 
#
# Total GULP energy -111455.245562 kJ/mol
# GULP energy per Si atom -5572.762278 kJ/mol
# Density = 1.853596 g / cm^3
# Si number density = 18.578245 Si / 1000 Ang^3
#
#
#
# Elastic Constant Matrix: (Units=GPa)
#
#
# Indices 1 2 3 4 5 6 
#
# 1 57.6033 11.2711 -16.3709 0.0000 -10.1285 0.0000
# 2 11.2711 59.8791 0.5820 0.0000 -0.0298 0.0000
# 3 -16.3709 0.5820 43.2200 0.0000 -0.2093 0.0000
# 4 0.0000 0.0000 0.0000 16.8798 0.0000 4.7882
# 5 -10.1285 -0.0298 -0.2093 0.0000 29.0272 0.0000
# 6 0.0000 0.0000 0.0000 4.7882 0.0000 11.4795
#
#
#
# Elastic Compliance Matrix: (Units=1/GPa)
#
#
# Indices 1 2 3 4 5 6 
#
# 1 0.021925 -0.004205 0.008399 0.000000 0.007707 0.000000
# 2 -0.004205 0.017509 -0.001836 0.000000 -0.001462 0.000000
# 3 0.008399 -0.001836 0.026359 0.000000 0.003119 0.000000
# 4 0.000000 0.000000 0.000000 0.067193 0.000000 -0.028027
# 5 0.007707 -0.001462 0.003119 0.000000 0.037160 0.000000
# 6 0.000000 0.000000 0.000000 -0.028027 0.000000 0.098802
#
#
# Mechanical properties :
#
#
# Convention : Reuss Voigt Hill
#
# Bulk Modulus (GPa) = 14.18257 16.85185 15.51721
# Shear Modulus (GPa) = 17.37721 22.49199 19.93460
#
# Velocity S-wave (km/s) = 3.06167 3.48323 3.27923
# Velocity P-wave (km/s) = 4.48876 5.02669 4.76532
#
# Compressibility (1/GPa) = 0.07050910
#
# Stress axis : x y z
#
# Youngs Moduli (GPa) = 45.61040 57.11390 37.93837
#
# Poissons Ratio (x) = 0.24015 -0.31863
# Poissons Ratio (y) = 0.19178 0.06964
# Poissons Ratio (z) = -0.38307 0.10483
#
# Static dielectric constant tensor:
#      x y z
#    x 1.655360 0.000000 0.009850 
#    y 0.000000 1.650470 0.000000 
#    z 0.009850 0.000000 1.647070 
# 
# From -- ./inp_files/30588.got.cif
#   From: 2010.05.17/outbox.cif.g08.bks.cpg/sg12_16_cif.got.tgz:30588.got - 2010.06.03 13:09:07.
