data_PCOD9178738
_publ_section_title
;
Structure prediction by ZEFSAII (Michael W. Deem and Ramdas Pophale) SiO2 
 PCOD9178738
Probable space group: C 2/M
;
_chemical_formula_sum "Si O2"
_cell_formula_units_Z 48
_cell_length_a 25.269931
_cell_length_b 8.589444
_cell_length_c 14.636654
_cell_angle_alpha 90.000000
_cell_angle_beta 70.519018
_cell_angle_gamma 90.000000
_cell_volume 2995.080417
_symmetry_space_group_name_H-M "C 2/M"
_symmetry_group_IT_number 12
_symmetry_cell_setting 'monoclinic'
loop_
_space_group_symop_operation_xyz
x,y,z
-x,y,-z
-x,-y,-z
x,-y,z
1/2+x,1/2+y,z
1/2-x,1/2+y,-z
1/2-x,1/2-y,-z
1/2+x,1/2-y,z
loop_
_atom_site_type_symbol
_atom_site_label
_atom_site_fract_x
_atom_site_fract_y
_atom_site_fract_z
Si Si1 0.709651 0.186944 0.944924
Si Si2 0.731468 0.686638 0.731899
Si Si3 0.799778 0.812956 0.536124
Si Si4 0.625482 0.313011 0.666315
Si Si5 0.582409 0.810633 0.010416
Si Si6 0.967540 0.312487 0.157092
O O1 0.728572 0.244548 0.834354
O O2 0.710100 0.000000 0.945922
O O3 0.750000 0.250000 0.000000
O O4 0.645131 0.241318 0.996204
O O5 0.731434 0.500000 0.735340
O O6 0.785186 0.743489 0.642909
O O7 0.675594 0.737094 0.707115
O O8 0.750000 0.750000 0.500000
O O9 0.855414 0.767845 0.447132
O O10 0.797079 0.000000 0.541935
O O11 0.624091 0.500000 0.670124
O O12 0.567291 0.249078 0.737561
O O13 0.532025 0.761048 0.106461
O O14 0.582380 0.000000 0.010783
O O15 0.564547 0.763810 0.917901
O O16 0.966900 0.500000 0.159773
#
# Coordination Sequence:
#
# PCOD9178738 Si02
#       6
#     8   8   8   8   8   8
#     4  11  21  34  50  68  92 125 160 196 233 271
#     4  10  19  31  45  65  93 123 158 195 231 276
#     4   9  17  28  42  63  93 125 155 188 229 279
#     4   9  17  27  41  67  98 122 148 185 231 277
#     4   8  16  29  45  66  90 119 156 192 226 271
#     4   9  15  27  47  67  89 121 156 186 225 277
#
# _framework density 16.026281000000001
#
# number of rings (size 3 to 8) (size 9 to 14) (size 15 to 20)
#    0.000    2.667    1.667    3.500    0.000    3.333 
#    0.000    3.333    0.000    0.000    0.000    1.167 
#    0.000    9.333    0.000    0.000    0.000    0.000 
#
# Total GULP energy -133658.258761 kJ/mol
# GULP energy per Si atom -5569.094115 kJ/mol
# Density = 1.598980 g / cm^3
# Si number density = 16.026281 Si / 1000 Ang^3
#
#
#
# Elastic Constant Matrix: (Units=GPa)
#
#
# Indices 1 2 3 4 5 6 
#
# 1 88.3618 21.6761 72.3739 0.0000 -17.3063 0.0000
# 2 21.6761 29.6649 31.2090 0.0000 -4.4847 0.0000
# 3 72.3739 31.2090 145.6550 0.0000 -35.1431 0.0000
# 4 0.0000 0.0000 0.0000 29.2257 0.0000 -2.5822
# 5 -17.3063 -4.4847 -35.1431 0.0000 28.0325 0.0000
# 6 0.0000 0.0000 0.0000 -2.5822 0.0000 16.7772
#
#
#
# Elastic Compliance Matrix: (Units=1/GPa)
#
#
# Indices 1 2 3 4 5 6 
#
# 1 0.019716 -0.005383 -0.008479 0.000000 0.000681 0.000000
# 2 -0.005383 0.045907 -0.008876 0.000000 -0.007107 0.000000
# 3 -0.008479 -0.008876 0.016307 0.000000 0.013789 0.000000
# 4 0.000000 0.000000 0.000000 0.034688 0.000000 0.005339
# 5 0.000681 -0.007107 0.013789 0.000000 0.052244 0.000000
# 6 0.000000 0.000000 0.000000 0.005339 0.000000 0.060426
#
#
# Mechanical properties :
#
#
# Convention : Reuss Voigt Hill
#
# Bulk Modulus (GPa) = 27.43180 57.13331 42.28256
# Shear Modulus (GPa) = 17.42670 24.03526 20.73098
#
# Velocity S-wave (km/s) = 3.30113 3.87685 3.60051
# Velocity P-wave (km/s) = 5.62884 7.46774 6.61252
#
# Compressibility (1/GPa) = 0.03645404
#
# Stress axis : x y z
#
# Youngs Moduli (GPa) = 50.72131 21.78305 61.32205
#
# Poissons Ratio (x) = 0.11726 0.51992
# Poissons Ratio (y) = 0.27305 0.54431
# Poissons Ratio (z) = 0.43004 0.19335
#
# Static dielectric constant tensor:
#      x y z
#    x 1.522120 0.000000 -0.040300 
#    y 0.000000 1.544640 0.000000 
#    z -0.040300 0.000000 1.550280 
# 
# From -- ./inp_files/236602.got.cif
#   From: 2010.05.17/outbox.cif.g08.bks.cpg/sg12_119_cif.got.tgz:236602.got - 2010.06.03 13:09:07.
