data_PCOD9178938
_publ_section_title
;
Structure prediction by ZEFSAII (Michael W. Deem and Ramdas Pophale) SiO2 
 PCOD9178938
Probable space group: C 2/M
;
_chemical_formula_sum "Si O2"
_cell_formula_units_Z 56
_cell_length_a 22.221814
_cell_length_b 8.524989
_cell_length_c 16.329623
_cell_angle_alpha 90.000000
_cell_angle_beta 95.990027
_cell_angle_gamma 90.000000
_cell_volume 3076.605282
_symmetry_space_group_name_H-M "C 2/M"
_symmetry_group_IT_number 12
_symmetry_cell_setting 'monoclinic'
loop_
_space_group_symop_operation_xyz
x,y,z
-x,y,-z
-x,-y,-z
x,-y,z
1/2+x,1/2+y,z
1/2-x,1/2+y,-z
1/2-x,1/2-y,-z
1/2+x,1/2-y,z
loop_
_atom_site_type_symbol
_atom_site_label
_atom_site_fract_x
_atom_site_fract_y
_atom_site_fract_z
Si Si1 0.771788 0.685156 0.372314
Si Si2 0.947645 0.190169 0.056975
Si Si3 0.160089 0.812740 0.471794
Si Si4 0.813019 0.681421 0.042860
Si Si5 0.816912 0.821028 0.217200
Si Si6 0.958231 0.184229 0.244279
Si Si7 0.476043 0.309646 0.584918
O O1 0.770811 0.500000 0.356117
O O2 0.826669 0.727367 0.441073
O O3 0.712260 0.729972 0.415023
O O4 0.777220 0.777355 0.289096
O O5 0.878395 0.242853 0.028150
O O6 0.964195 0.246812 0.151973
O O7 0.946331 0.000000 0.058559
O O8 0.000000 0.237772 0.000000
O O9 0.095078 0.778712 0.425746
O O10 0.164193 0.000000 0.487809
O O11 0.816052 0.500000 0.021439
O O12 0.808455 0.707631 0.139726
O O13 0.750000 0.750000 0.000000
O O14 0.886981 0.809106 0.253272
O O15 0.806538 0.000000 0.188081
O O16 0.993302 0.252134 0.327515
O O17 0.975729 0.000000 0.241134
O O18 0.500000 0.252831 0.500000
O O19 0.485531 0.500000 0.586236
#
# Coordination Sequence:
#
# PCOD9178938 Si02
#       7
#     8   8   8   8   8   8   8
#     4  10  19  31  47  71 101 136 175 214 264 319
#     4   9  18  35  57  83 113 149 189 227 277 339
#     4   9  18  31  47  69  99 134 174 218 261 311
#     4  11  22  38  59  84 114 145 184 233 285 336
#     4  10  19  34  56  78 102 135 175 217 268 325
#     4   8  15  28  49  75 100 128 170 218 259 311
#     4   9  15  25  45  72  97 124 168 218 259 300
#
# _framework density 18.201879000000002
#
# number of rings (size 3 to 8) (size 9 to 14) (size 15 to 20)
#    0.000    2.571    0.000    3.857    0.000    3.143 
#    2.571    0.000    0.000    7.286    0.000    0.000 
#    0.000    0.000    0.000    0.000    0.000    0.000 
#
# Total GULP energy -155994.678771 kJ/mol
# GULP energy per Si atom -5571.238528 kJ/mol
# Density = 1.816045 g / cm^3
# Si number density = 18.201879 Si / 1000 Ang^3
#
#
#
# Elastic Constant Matrix: (Units=GPa)
#
#
# Indices 1 2 3 4 5 6 
#
# 1 84.4212 22.7804 67.0524 0.0000 -0.5532 0.0000
# 2 22.7804 18.5539 13.8733 0.0000 0.0727 0.0000
# 3 67.0524 13.8733 93.7071 0.0000 1.8470 0.0000
# 4 0.0000 0.0000 0.0000 19.3321 0.0000 -0.2584
# 5 -0.5532 0.0727 1.8470 0.0000 29.2925 0.0000
# 6 0.0000 0.0000 0.0000 -0.2584 0.0000 20.9078
#
#
#
# Elastic Compliance Matrix: (Units=1/GPa)
#
#
# Indices 1 2 3 4 5 6 
#
# 1 0.037982 -0.029561 -0.022846 0.000000 0.002231 0.000000
# 2 -0.029561 0.083618 0.008799 0.000000 -0.001321 0.000000
# 3 -0.022846 0.008799 0.025757 0.000000 -0.002077 0.000000
# 4 0.000000 0.000000 0.000000 0.051736 0.000000 0.000639
# 5 0.002231 -0.001321 -0.002077 0.000000 0.034315 0.000000
# 6 0.000000 0.000000 0.000000 0.000639 0.000000 0.047837
#
#
# Mechanical properties :
#
#
# Convention : Reuss Voigt Hill
#
# Bulk Modulus (GPa) = 16.62748 44.89940 30.76344
# Shear Modulus (GPa) = 12.86976 20.10488 16.48732
#
# Velocity S-wave (km/s) = 2.66194 3.32708 3.01292
# Velocity P-wave (km/s) = 4.31309 6.28334 5.38902
#
# Compressibility (1/GPa) = 0.06014141
#
# Stress axis : x y z
#
# Youngs Moduli (GPa) = 26.32806 11.95922 38.82392
#
# Poissons Ratio (x) = 0.35352 0.88697
# Poissons Ratio (y) = 0.77827 -0.34160
# Poissons Ratio (z) = 0.60149 -0.10523
#
# Static dielectric constant tensor:
#      x y z
#    x 1.624060 0.000000 0.002510 
#    y 0.000000 1.634270 0.000000 
#    z 0.002510 0.000000 1.631920 
# 
# From -- ./inp_files/280456.got.cif
#   From: 2010.05.17/outbox.cif.g08.bks.cpg/sg12_141_cif.got.tgz:280456.got - 2010.06.03 13:09:07.
