data_PCOD9178331
_publ_section_title
;
Structure prediction by ZEFSAII (Michael W. Deem and Ramdas Pophale) SiO2 
 PCOD9178331
Probable space group: C 2/M
;
_chemical_formula_sum "Si O2"
_cell_formula_units_Z 56
_cell_length_a 28.071628
_cell_length_b 7.659196
_cell_length_c 13.910803
_cell_angle_alpha 90.000000
_cell_angle_beta 56.781858
_cell_angle_gamma 90.000000
_cell_volume 2502.165986
_symmetry_space_group_name_H-M "C 2/M"
_symmetry_group_IT_number 12
_symmetry_cell_setting 'monoclinic'
loop_
_space_group_symop_operation_xyz
x,y,z
-x,y,-z
-x,-y,-z
x,-y,z
1/2+x,1/2+y,z
1/2-x,1/2+y,-z
1/2-x,1/2-y,-z
1/2+x,1/2-y,z
loop_
_atom_site_type_symbol
_atom_site_label
_atom_site_fract_x
_atom_site_fract_y
_atom_site_fract_z
Si Si1 0.008596 0.696388 0.751004
Si Si2 0.218761 0.710030 0.133307
Si Si3 0.292270 0.700504 0.228068
Si Si4 0.688163 0.710153 0.462678
Si Si5 0.574026 0.294095 0.490382
Si Si6 0.378603 0.707659 0.274643
Si Si7 0.410377 0.788914 0.739578
O O1 0.997552 0.500000 0.794896
O O2 0.040715 0.698198 0.611904
O O3 0.055109 0.768472 0.773707
O O4 0.948268 0.779258 0.786810
O O5 0.214082 0.500000 0.152229
O O6 0.257680 0.781438 0.177471
O O7 0.154144 0.777202 0.195606
O O8 0.250000 0.750000 0.000000
O O9 0.304143 0.500000 0.187355
O O10 0.246936 0.705689 0.365982
O O11 0.350278 0.778000 0.208196
O O12 0.695782 0.500000 0.459009
O O13 0.640655 0.748195 0.434091
O O14 0.658519 0.773683 0.593446
O O15 0.566395 0.500000 0.518077
O O16 0.561142 0.255808 0.394399
O O17 0.369557 0.500000 0.282987
O O18 0.409608 0.000000 0.747967
#
# Coordination Sequence:
#
# PCOD9178331 Si02
#       7
#     8   8   8   8   8   8   8
#     4  10  20  32  49  74 106 144 178 208 249 307
#     4  10  22  39  58  80 103 130 171 223 273 316
#     4  10  19  33  54  74 100 137 172 213 266 312
#     4   9  17  28  44  72 107 138 172 208 246 302
#     4  10  19  30  47  75 109 143 177 212 253 306
#     4   9  19  33  48  74 108 139 174 212 250 304
#     4  10  20  35  53  74 103 137 175 217 262 311
#
# _framework density 22.380610000000001
#
# number of rings (size 3 to 8) (size 9 to 14) (size 15 to 20)
#    0.000    2.286    1.429    2.571    0.000    6.857 
#    0.000    0.000    0.000    0.857    0.000    6.000 
#    0.000    0.000    0.000    0.000    0.000    0.000 
#
# Total GULP energy -156180.240694 kJ/mol
# GULP energy per Si atom -5577.865739 kJ/mol
# Density = 2.232967 g / cm^3
# Si number density = 22.380610 Si / 1000 Ang^3
#
#
#
# Elastic Constant Matrix: (Units=GPa)
#
#
# Indices 1 2 3 4 5 6 
#
# 1 236.6378 11.3272 35.9650 0.0000 17.3830 0.0000
# 2 11.3272 42.8668 -6.5940 0.0000 2.2873 0.0000
# 3 35.9650 -6.5940 32.5004 0.0000 -0.8113 0.0000
# 4 0.0000 0.0000 0.0000 11.9919 0.0000 -1.0520
# 5 17.3830 2.2873 -0.8113 0.0000 13.3444 0.0000
# 6 0.0000 0.0000 0.0000 -1.0520 0.0000 17.4124
#
#
#
# Elastic Compliance Matrix: (Units=1/GPa)
#
#
# Indices 1 2 3 4 5 6 
#
# 1 0.006033 -0.002301 -0.007340 0.000000 -0.007910 0.000000
# 2 -0.002301 0.025155 0.007629 0.000000 -0.000850 0.000000
# 3 -0.007340 0.007629 0.040707 0.000000 0.010729 0.000000
# 4 0.000000 0.000000 0.000000 0.083834 0.000000 0.005065
# 5 -0.007910 -0.000850 0.010729 0.000000 0.086040 0.000000
# 6 0.000000 0.000000 0.000000 0.005065 0.000000 0.057736
#
#
# Mechanical properties :
#
#
# Convention : Reuss Voigt Hill
#
# Bulk Modulus (GPa) = 14.73401 43.71125 29.22263
# Shear Modulus (GPa) = 15.33023 26.63686 20.98354
#
# Velocity S-wave (km/s) = 2.62005 3.45364 3.06531
# Velocity P-wave (km/s) = 3.96870 5.95623 5.06099
#
# Compressibility (1/GPa) = 0.06787018
#
# Stress axis : x y z
#
# Youngs Moduli (GPa) = 165.76454 39.75353 24.56575
#
# Poissons Ratio (x) = 0.09148 0.18031
# Poissons Ratio (y) = 0.38144 -0.18741
# Poissons Ratio (z) = 1.21672 -0.30328
#
# Static dielectric constant tensor:
#      x y z
#    x 1.948420 0.000000 -0.008400 
#    y 0.000000 1.927130 0.000000 
#    z -0.008400 0.000000 1.771600 
# 
# From -- ./inp_files/243695.got.cif
#   From: 2010.05.17/outbox.cif.g08.bks.cpg/sg12_122_cif.got.tgz:243695.got - 2010.06.03 13:09:07.
