data_PCOD9178770
_publ_section_title
;
Structure prediction by ZEFSAII (Michael W. Deem and Ramdas Pophale) SiO2 
 PCOD9178770
Probable space group: C 2/M
;
_chemical_formula_sum "Si O2"
_cell_formula_units_Z 48
_cell_length_a 17.851311
_cell_length_b 38.548110
_cell_length_c 5.261354
_cell_angle_alpha 90.000000
_cell_angle_beta 53.068039
_cell_angle_gamma 90.000000
_cell_volume 2894.059754
_symmetry_space_group_name_H-M "C 2/M"
_symmetry_group_IT_number 12
_symmetry_cell_setting 'monoclinic'
loop_
_space_group_symop_operation_xyz
x,y,z
-x,y,-z
-x,-y,-z
x,-y,z
1/2+x,1/2+y,z
1/2-x,1/2+y,-z
1/2-x,1/2-y,-z
1/2+x,1/2-y,z
loop_
_atom_site_type_symbol
_atom_site_label
_atom_site_fract_x
_atom_site_fract_y
_atom_site_fract_z
Si Si1 0.113505 0.417504 0.769800
Si Si2 0.688146 0.840032 0.576592
Si Si3 0.341751 0.798113 0.865266
Si Si4 0.095209 0.818236 0.882057
Si Si5 0.386265 0.039767 0.730779
Si Si6 0.123517 0.222555 0.328062
O O1 0.158728 0.379718 0.664459
O O2 0.140816 0.440363 0.470085
O O3 0.141169 0.438128 0.967297
O O4 0.000000 0.413792 0.000000
O O5 0.651454 0.823976 0.386875
O O6 0.802279 0.836015 0.348718
O O7 0.644158 0.817914 0.898719
O O8 0.395427 0.762317 0.704544
O O9 0.234240 0.785351 0.094157
O O10 0.096553 0.787567 0.668717
O O11 0.086663 0.802392 0.180084
O O12 0.000000 0.838676 0.000000
O O13 0.500000 0.038444 0.500000
O O14 0.353071 0.000000 0.806702
#
# Coordination Sequence:
#
# PCOD9178770 Si02
#       6
#     8   8   8   8   8   8
#     4  10  19  31  46  67  95 121 146 173 209 260
#     4  10  19  31  47  65  91 121 145 179 225 269
#     4   9  17  30  46  62  83 114 149 185 228 271
#     4  10  19  31  46  65  87 113 151 194 231 261
#     4   9  17  30  49  70  92 118 145 175 209 249
#     4   9  17  30  47  62  80 111 150 193 234 266
#
# _framework density 16.585695999999999
#
# number of rings (size 3 to 8) (size 9 to 14) (size 15 to 20)
#    0.000    2.500    0.000    3.000    0.000    6.000 
#    0.000    5.000    0.000    0.000    0.000    0.000 
#    0.000    4.000    0.000    0.000    0.000    0.000 
#
# Total GULP energy -133747.422405 kJ/mol
# GULP energy per Si atom -5572.809267 kJ/mol
# Density = 1.654795 g / cm^3
# Si number density = 16.585696 Si / 1000 Ang^3
#
#
#
# Elastic Constant Matrix: (Units=GPa)
#
#
# Indices 1 2 3 4 5 6 
#
# 1 28.9483 9.5758 33.7884 0.0000 3.5715 0.0000
# 2 9.5758 121.4446 57.3779 0.0000 11.9492 0.0000
# 3 33.7884 57.3779 103.3382 0.0000 33.4284 0.0000
# 4 0.0000 0.0000 0.0000 21.6788 0.0000 4.8541
# 5 3.5715 11.9492 33.4284 0.0000 29.6571 0.0000
# 6 0.0000 0.0000 0.0000 4.8541 0.0000 13.4336
#
#
#
# Elastic Compliance Matrix: (Units=1/GPa)
#
#
# Indices 1 2 3 4 5 6 
#
# 1 0.074403 0.010032 -0.040435 0.000000 0.032575 0.000000
# 2 0.010032 0.012812 -0.013116 0.000000 0.008413 0.000000
# 3 -0.040435 -0.013116 0.042330 0.000000 -0.037559 0.000000
# 4 0.000000 0.000000 0.000000 0.050189 0.000000 -0.018135
# 5 0.032575 0.008413 -0.037559 0.000000 0.068741 0.000000
# 6 0.000000 0.000000 0.000000 -0.018135 0.000000 0.080993
#
#
# Mechanical properties :
#
#
# Convention : Reuss Voigt Hill
#
# Bulk Modulus (GPa) = 23.52498 50.57948 37.05223
# Shear Modulus (GPa) = 11.60970 23.15318 17.38144
#
# Velocity S-wave (km/s) = 2.64859 3.74033 3.24076
# Velocity P-wave (km/s) = 4.85469 7.01537 6.03256
#
# Compressibility (1/GPa) = 0.04250800
#
# Stress axis : x y z
#
# Youngs Moduli (GPa) = 13.44032 78.05210 23.62377
#
# Poissons Ratio (x) = -0.78305 0.95524
# Poissons Ratio (y) = -0.13484 0.30984
# Poissons Ratio (z) = 0.54347 1.02370
#
# Static dielectric constant tensor:
#      x y z
#    x 1.600760 0.000000 -0.029760 
#    y 0.000000 1.526090 0.000000 
#    z -0.029760 0.000000 1.591410 
# 
# From -- ./inp_files/17197.got.cif
#   From: 2010.05.17/outbox.cif.g08.bks.cpg/sg12_9_cif.got.tgz:17197.got - 2010.06.03 13:09:07.
