data_PCOD9178847
_publ_section_title
;
Structure prediction by ZEFSAII (Michael W. Deem and Ramdas Pophale) SiO2 
 PCOD9178847
Probable space group: C 2/M
;
_chemical_formula_sum "Si O2"
_cell_formula_units_Z 64
_cell_length_a 22.608470
_cell_length_b 7.477221
_cell_length_c 17.688177
_cell_angle_alpha 90.000000
_cell_angle_beta 83.949559
_cell_angle_gamma 90.000000
_cell_volume 2973.503535
_symmetry_space_group_name_H-M "C 2/M"
_symmetry_group_IT_number 12
_symmetry_cell_setting 'monoclinic'
loop_
_space_group_symop_operation_xyz
x,y,z
-x,y,-z
-x,-y,-z
x,-y,z
1/2+x,1/2+y,z
1/2-x,1/2+y,-z
1/2-x,1/2-y,-z
1/2+x,1/2-y,z
loop_
_atom_site_type_symbol
_atom_site_label
_atom_site_fract_x
_atom_site_fract_y
_atom_site_fract_z
Si Si1 0.902871 0.713435 0.969086
Si Si2 0.108717 0.204685 0.737931
Si Si3 0.292139 0.218273 0.883840
Si Si4 0.438988 0.280642 0.411387
Si Si5 0.926590 0.787882 0.580610
Si Si6 0.627940 0.213006 0.259431
Si Si7 0.015831 0.282514 0.172181
Si Si8 0.337523 0.285470 0.121624
O O1 0.903780 0.500000 0.960013
O O2 0.843021 0.780770 0.934779
O O3 0.960031 0.774793 0.913720
O O4 0.892151 0.748416 0.058169
O O5 0.096518 0.284575 0.657078
O O6 0.151574 0.286073 0.795545
O O7 0.044996 0.204850 0.788764
O O8 0.128398 0.000000 0.722981
O O9 0.315880 0.272437 0.797506
O O10 0.224924 0.281239 0.903999
O O11 0.291683 0.000000 0.888374
O O12 0.438808 0.500000 0.407331
O O13 0.414925 0.224166 0.496877
O O14 0.508298 0.221840 0.400921
O O15 0.878669 0.755844 0.651941
O O16 0.933381 0.000000 0.572735
O O17 0.568618 0.272224 0.222742
O O18 0.627756 0.000000 0.253525
O O19 0.009992 0.500000 0.174193
O O20 0.333458 0.500000 0.127708
#
# Coordination Sequence:
#
# PCOD9178847 Si02
#       8
#     8   8   8   8   8   8   8   8
#     4   9  18  33  51  67  88 118 150 187 228 268
#     4  10  19  31  47  66  92 122 151 183 219 266
#     4   8  16  32  50  67  90 118 149 187 227 265
#     4   8  15  27  43  65  93 122 146 176 220 267
#     4   9  15  26  46  68  91 118 148 182 221 263
#     4   9  16  28  47  69  92 116 146 186 226 263
#     4   9  18  31  46  66  91 121 150 178 223 273
#     4  10  20  32  48  69  89 116 154 190 224 262
#
# _framework density 21.523432
#
# number of rings (size 3 to 8) (size 9 to 14) (size 15 to 20)
#    0.000    3.000    1.250    2.625    0.000    1.500 
#    0.000    6.875    0.000    0.750    0.000    0.000 
#    0.000    0.000    0.000    0.000    0.000    0.000 
#
# Total GULP energy -178435.379488 kJ/mol
# GULP energy per Si atom -5576.105609 kJ/mol
# Density = 2.147444 g / cm^3
# Si number density = 21.523432 Si / 1000 Ang^3
#
#
#
# Elastic Constant Matrix: (Units=GPa)
#
#
# Indices 1 2 3 4 5 6 
#
# 1 21.0310 -4.7982 -2.8605 0.0000 -1.3868 0.0000
# 2 -4.7982 58.9089 -7.8139 0.0000 4.1675 0.0000
# 3 -2.8605 -7.8139 131.0233 0.0000 1.6687 0.0000
# 4 0.0000 0.0000 0.0000 18.2248 0.0000 -6.2962
# 5 -1.3868 4.1675 1.6687 0.0000 29.0903 0.0000
# 6 0.0000 0.0000 0.0000 -6.2962 0.0000 4.8310
#
#
#
# Elastic Compliance Matrix: (Units=1/GPa)
#
#
# Indices 1 2 3 4 5 6 
#
# 1 0.048751 0.004023 0.001283 0.000000 0.001674 0.000000
# 2 0.004023 0.017628 0.001170 0.000000 -0.002401 0.000000
# 3 0.001283 0.001170 0.007737 0.000000 -0.000550 0.000000
# 4 0.000000 0.000000 0.000000 0.099811 0.000000 0.130085
# 5 0.001674 -0.002401 -0.000550 0.000000 0.034831 0.000000
# 6 0.000000 0.000000 0.000000 0.130085 0.000000 0.376539
#
#
# Mechanical properties :
#
#
# Convention : Reuss Voigt Hill
#
# Bulk Modulus (GPa) = 11.48543 20.00201 15.74372
# Shear Modulus (GPa) = 8.31435 25.52494 16.91965
#
# Velocity S-wave (km/s) = 1.96757 3.44745 2.80680
# Velocity P-wave (km/s) = 3.24185 5.01596 4.22312
#
# Compressibility (1/GPa) = 0.08706680
#
# Stress axis : x y z
#
# Youngs Moduli (GPa) = 20.51222 56.72795 129.24901
#
# Poissons Ratio (x) = -0.22819 -0.16581
# Poissons Ratio (y) = -0.08251 -0.15118
# Poissons Ratio (z) = -0.02632 -0.06635
#
# Static dielectric constant tensor:
#      x y z
#    x 1.768040 0.000000 0.019390 
#    y 0.000000 1.874050 0.000000 
#    z 0.019390 0.000000 1.833760 
# 
# From -- ./inp_files/287569.got.cif
#   From: 2010.05.17/outbox.cif.g08.bks.cpg/sg12_144_cif.got.tgz:287569.got - 2010.06.03 13:09:07.
