data_PCOD9178441
_publ_section_title
;
Structure prediction by ZEFSAII (Michael W. Deem and Ramdas Pophale) SiO2 
 PCOD9178441
Probable space group: C 2/M
;
_chemical_formula_sum "Si O2"
_cell_formula_units_Z 48
_cell_length_a 19.736682
_cell_length_b 8.991775
_cell_length_c 16.881468
_cell_angle_alpha 90.000000
_cell_angle_beta 112.273656
_cell_angle_gamma 90.000000
_cell_volume 2772.373975
_symmetry_space_group_name_H-M "C 2/M"
_symmetry_group_IT_number 12
_symmetry_cell_setting 'monoclinic'
loop_
_space_group_symop_operation_xyz
x,y,z
-x,y,-z
-x,-y,-z
x,-y,z
1/2+x,1/2+y,z
1/2-x,1/2+y,-z
1/2-x,1/2-y,-z
1/2+x,1/2-y,z
loop_
_atom_site_type_symbol
_atom_site_label
_atom_site_fract_x
_atom_site_fract_y
_atom_site_fract_z
Si Si1 0.833391 0.820936 0.266892
Si Si2 0.022520 0.677850 0.599594
Si Si3 0.397728 0.322847 0.129478
Si Si4 0.333158 0.179132 0.775089
Si Si5 0.415370 0.821140 0.972786
Si Si6 0.449676 0.677650 0.715585
O O1 0.897610 0.742006 0.343748
O O2 0.844813 0.782062 0.179086
O O3 0.752503 0.783601 0.260372
O O4 0.843654 0.000000 0.276786
O O5 0.022446 0.500000 0.609101
O O6 0.000000 0.713954 0.500000
O O7 0.967662 0.750098 0.639055
O O8 0.393328 0.500000 0.115935
O O9 0.479682 0.287259 0.197567
O O10 0.384820 0.243014 0.041015
O O11 0.369676 0.222835 0.875165
O O12 0.378449 0.256572 0.725794
O O13 0.340170 0.000000 0.770854
O O14 0.414646 0.000000 0.977140
O O15 0.500000 0.772747 0.000000
O O16 0.445615 0.500000 0.706457
#
# Coordination Sequence:
#
# PCOD9178441 Si02
#       6
#     8   8   8   8   8   8
#     4   9  20  37  55  78 109 143 176 218 270 316
#     4  10  21  38  61  85 106 132 170 215 264 324
#     4   9  18  32  49  72 103 140 182 224 262 305
#     4  10  20  35  53  76 111 147 180 221 266 309
#     4  10  19  30  48  75 105 141 185 224 260 305
#     4  10  20  34  55  81 108 140 179 218 262 316
#
# _framework density 17.313680999999999
#
# number of rings (size 3 to 8) (size 9 to 14) (size 15 to 20)
#    0.000    2.333    1.667    2.000    0.000    6.333 
#    0.000    0.833    0.000    0.000    0.000    0.000 
#    0.000    0.000    0.000    0.000    0.000    0.000 
#
# Total GULP energy -133927.076795 kJ/mol
# GULP energy per Si atom -5580.294866 kJ/mol
# Density = 1.727427 g / cm^3
# Si number density = 17.313681 Si / 1000 Ang^3
#
#
#
# Elastic Constant Matrix: (Units=GPa)
#
#
# Indices 1 2 3 4 5 6 
#
# 1 154.5255 54.9466 77.9808 0.0000 -19.2014 0.0000
# 2 54.9466 32.9619 52.9879 0.0000 -9.1933 0.0000
# 3 77.9808 52.9879 135.2091 0.0000 -20.3150 0.0000
# 4 0.0000 0.0000 0.0000 18.9802 0.0000 -1.9057
# 5 -19.2014 -9.1933 -20.3150 0.0000 18.3972 0.0000
# 6 0.0000 0.0000 0.0000 -1.9057 0.0000 25.9933
#
#
#
# Elastic Compliance Matrix: (Units=1/GPa)
#
#
# Indices 1 2 3 4 5 6 
#
# 1 0.016911 -0.033250 0.004115 0.000000 0.005579 0.000000
# 2 -0.033250 0.148038 -0.039490 0.000000 -0.004333 0.000000
# 3 0.004115 -0.039490 0.021795 0.000000 0.008628 0.000000
# 4 0.000000 0.000000 0.000000 0.053077 0.000000 0.003891
# 5 0.005579 -0.004333 0.008628 0.000000 0.067542 0.000000
# 6 0.000000 0.000000 0.000000 0.003891 0.000000 0.038757
#
#
# Mechanical properties :
#
#
# Convention : Reuss Voigt Hill
#
# Bulk Modulus (GPa) = 20.20397 77.16967 48.68682
# Shear Modulus (GPa) = 10.00268 21.79289 15.89778
#
# Velocity S-wave (km/s) = 2.40621 3.55168 3.03350
# Velocity P-wave (km/s) = 4.40619 7.84140 6.36011
#
# Compressibility (1/GPa) = 0.04949521
#
# Stress axis : x y z
#
# Youngs Moduli (GPa) = 59.13367 6.75502 45.88260
#
# Poissons Ratio (x) = 0.22460 -0.18883
# Poissons Ratio (y) = 1.96617 1.81190
# Poissons Ratio (z) = -0.24336 0.26676
#
# Static dielectric constant tensor:
#      x y z
#    x 1.582950 0.000000 -0.001420 
#    y 0.000000 1.579500 0.000000 
#    z -0.001420 0.000000 1.563320 
# 
# From -- ./inp_files/229926.got.cif
#   From: 2010.05.17/outbox.cif.g08.bks.cpg/sg12_115_cif.got.tgz:229926.got - 2010.06.03 13:09:07.
