data_PCOD9178340
_publ_section_title
;
Structure prediction by ZEFSAII (Michael W. Deem and Ramdas Pophale) SiO2 
 PCOD9178340
Probable space group: C 2/M
;
_chemical_formula_sum "Si O2"
_cell_formula_units_Z 48
_cell_length_a 24.018877
_cell_length_b 7.860564
_cell_length_c 18.013465
_cell_angle_alpha 90.000000
_cell_angle_beta 47.497059
_cell_angle_gamma 90.000000
_cell_volume 2507.345157
_symmetry_space_group_name_H-M "C 2/M"
_symmetry_group_IT_number 12
_symmetry_cell_setting 'monoclinic'
loop_
_space_group_symop_operation_xyz
x,y,z
-x,y,-z
-x,-y,-z
x,-y,z
1/2+x,1/2+y,z
1/2-x,1/2+y,-z
1/2-x,1/2-y,-z
1/2+x,1/2-y,z
loop_
_atom_site_type_symbol
_atom_site_label
_atom_site_fract_x
_atom_site_fract_y
_atom_site_fract_z
Si Si1 0.214997 0.803579 0.308678
Si Si2 0.439356 0.805182 0.619282
Si Si3 0.239866 0.703505 0.886323
Si Si4 0.020052 0.195465 0.693459
Si Si5 0.684818 0.294103 0.501086
Si Si6 0.865317 0.299617 0.888832
O O1 0.131137 0.793460 0.350475
O O2 0.261047 0.727020 0.197141
O O3 0.207670 0.728509 0.398113
O O4 0.238948 0.000000 0.296541
O O5 0.500000 0.818070 0.500000
O O6 0.479656 0.712448 0.650380
O O7 0.417989 0.000000 0.660544
O O8 0.231036 0.500000 0.887142
O O9 0.319072 0.731162 0.858923
O O10 0.176100 0.770513 0.000273
O O11 0.103741 0.270671 0.604953
O O12 0.954940 0.270711 0.804822
O O13 0.029537 0.000000 0.706688
O O14 0.677187 0.500000 0.501410
O O15 0.750000 0.250000 0.500000
O O16 0.851722 0.500000 0.900140
#
# Coordination Sequence:
#
# PCOD9178340 Si02
#       6
#     8   8   8   8   8   8
#     4  10  19  34  54  75 103 140 173 207 257 316
#     4  11  21  30  46  78 110 136 167 208 257 310
#     4   9  18  31  49  74 108 144 173 206 252 310
#     4  11  21  34  52  75 105 142 175 207 257 319
#     4  10  23  39  56  76  99 132 177 221 266 315
#     4  10  19  30  47  77 110 140 175 210 251 302
#
# _framework density 19.143754000000001
#
# number of rings (size 3 to 8) (size 9 to 14) (size 15 to 20)
#    0.000    1.833    3.333    1.500    0.000    3.333 
#    0.000    0.000    0.000    1.000    0.000    7.000 
#    0.000    0.000    0.000    0.000    0.000    0.000 
#
# Total GULP energy -133708.519532 kJ/mol
# GULP energy per Si atom -5571.188314 kJ/mol
# Density = 1.910018 g / cm^3
# Si number density = 19.143754 Si / 1000 Ang^3
#
#
#
# Elastic Constant Matrix: (Units=GPa)
#
#
# Indices 1 2 3 4 5 6 
#
# 1 92.1876 -12.7711 62.1534 0.0007 0.7670 -0.0009
# 2 -12.7711 25.3039 0.3457 0.0062 1.0004 -0.0047
# 3 62.1534 0.3457 170.8696 -0.0004 1.8786 -0.0009
# 4 0.0007 0.0062 -0.0004 19.7672 -0.0008 -3.0631
# 5 0.7670 1.0004 1.8786 -0.0008 13.2228 0.0006
# 6 -0.0009 -0.0047 -0.0009 -3.0631 0.0006 10.8517
#
#
#
# Elastic Compliance Matrix: (Units=1/GPa)
#
#
# Indices 1 2 3 4 5 6 
#
# 1 0.015878 0.008121 -0.005784 -0.000003 -0.000714 0.000004
# 2 0.008121 0.043792 -0.003006 -0.000012 -0.003357 0.000016
# 3 -0.005784 -0.003006 0.007969 0.000001 -0.000569 -0.000001
# 4 -0.000003 -0.000012 0.000001 0.052903 0.000003 0.014933
# 5 -0.000714 -0.003357 -0.000569 0.000003 0.076003 -0.000005
# 6 0.000004 0.000016 -0.000001 0.014933 -0.000005 0.096366
#
#
# Mechanical properties :
#
#
# Convention : Reuss Voigt Hill
#
# Bulk Modulus (GPa) = 15.08262 43.09081 29.08671
# Shear Modulus (GPa) = 15.80530 24.67721 20.24126
#
# Velocity S-wave (km/s) = 2.87646 3.59423 3.25519
# Velocity P-wave (km/s) = 4.35060 6.30734 5.41804
#
# Compressibility (1/GPa) = 0.06630147
#
# Stress axis : x y z
#
# Youngs Moduli (GPa) = 62.97939 22.83510 125.48999
#
# Poissons Ratio (x) = -0.18545 0.72587
# Poissons Ratio (y) = -0.51146 0.37719
# Poissons Ratio (z) = 0.36429 0.06864
#
# Static dielectric constant tensor:
#      x y z
#    x 1.603530 0.000000 0.005150 
#    y 0.000000 1.728010 0.000000 
#    z 0.005150 0.000000 1.779730 
# 
# From -- ./inp_files/280787.got.cif
#   From: 2010.05.17/outbox.cif.g08.bks.cpg/sg12_141_cif.got.tgz:280787.got - 2010.06.03 13:09:07.
