data_PCOD9178957
_publ_section_title
;
Structure prediction by ZEFSAII (Michael W. Deem and Ramdas Pophale) SiO2 
 PCOD9178957
Probable space group: C 2/M
;
_chemical_formula_sum "Si O2"
_cell_formula_units_Z 56
_cell_length_a 29.179349
_cell_length_b 8.798600
_cell_length_c 19.664128
_cell_angle_alpha 90.000000
_cell_angle_beta 33.655307
_cell_angle_gamma 90.000000
_cell_volume 2797.864672
_symmetry_space_group_name_H-M "C 2/M"
_symmetry_group_IT_number 12
_symmetry_cell_setting 'monoclinic'
loop_
_space_group_symop_operation_xyz
x,y,z
-x,y,-z
-x,-y,-z
x,-y,z
1/2+x,1/2+y,z
1/2-x,1/2+y,-z
1/2-x,1/2-y,-z
1/2+x,1/2-y,z
loop_
_atom_site_type_symbol
_atom_site_label
_atom_site_fract_x
_atom_site_fract_y
_atom_site_fract_z
Si Si1 0.024214 0.316763 0.675258
Si Si2 0.033148 0.676328 0.881689
Si Si3 0.314509 0.677522 0.472574
Si Si4 0.604323 0.182233 0.060568
Si Si5 0.747297 0.321601 0.805148
Si Si6 0.800621 0.824600 0.286771
Si Si7 0.571343 0.814643 0.464972
O O1 0.025683 0.500000 0.672990
O O2 0.097654 0.259235 0.633058
O O3 0.044944 0.263588 0.573269
O O4 0.937772 0.268907 0.816398
O O5 0.056398 0.500000 0.837919
O O6 0.114109 0.780652 0.782507
O O7 0.962216 0.722869 0.916441
O O8 0.000000 0.680079 0.000000
O O9 0.323683 0.500000 0.449349
O O10 0.250000 0.750000 0.500000
O O11 0.270412 0.714366 0.598574
O O12 0.609867 0.000000 0.053490
O O13 0.693313 0.246206 0.930555
O O14 0.755393 0.500000 0.810598
O O15 0.695465 0.307023 0.799012
O O16 0.839096 0.262904 0.673204
O O17 0.777519 0.000000 0.329508
O O18 0.500000 0.774567 0.500000
O O19 0.576431 0.000000 0.462286
#
# Coordination Sequence:
#
# PCOD9178957 Si02
#       7
#     8   8   8   8   8   8   8
#     4  10  20  38  60  86 118 152 198 247 294 354
#     4  10  19  31  47  73 110 155 202 239 282 346
#     4  12  24  37  56  82 116 158 197 242 294 347
#     4  10  21  35  54  79 115 156 189 236 295 348
#     4  10  20  35  57  83 112 147 193 244 287 344
#     4  11  21  34  53  79 111 151 198 247 292 339
#     4   9  18  37  65  90 112 147 197 248 299 357
#
# _framework density 20.015263999999998
#
# number of rings (size 3 to 8) (size 9 to 14) (size 15 to 20)
#    0.000    1.714    2.857    2.571    0.000    3.143 
#    0.000    0.714    0.000    1.714    0.000    0.000 
#    0.000    0.000    0.000    0.000    0.000    0.000 
#
# Total GULP energy -156308.922771 kJ/mol
# GULP energy per Si atom -5582.461528 kJ/mol
# Density = 1.996971 g / cm^3
# Si number density = 20.015264 Si / 1000 Ang^3
#
#
#
# Elastic Constant Matrix: (Units=GPa)
#
#
# Indices 1 2 3 4 5 6 
#
# 1 75.9532 14.1420 57.3126 -0.0010 -1.4038 -0.0001
# 2 14.1420 10.6135 30.3637 -0.0073 2.6221 0.0046
# 3 57.3126 30.3637 180.5121 -0.0019 8.4958 0.0025
# 4 -0.0010 -0.0073 -0.0019 33.4315 0.0015 -0.3284
# 5 -1.4038 2.6221 8.4958 0.0015 21.5397 -0.0009
# 6 -0.0001 0.0046 0.0025 -0.3284 -0.0009 10.2989
#
#
#
# Elastic Compliance Matrix: (Units=1/GPa)
#
#
# Indices 1 2 3 4 5 6 
#
# 1 0.018924 -0.016469 -0.003455 -0.000003 0.004601 0.000009
# 2 -0.016469 0.198197 -0.027433 0.000041 -0.014380 -0.000081
# 3 -0.003455 -0.027433 0.011315 -0.000005 -0.001348 0.000009
# 4 -0.000003 0.000041 -0.000005 0.029921 -0.000005 0.000954
# 5 0.004601 -0.014380 -0.001348 -0.000005 0.049008 0.000011
# 6 0.000009 -0.000081 0.000009 0.000954 0.000011 0.097129
#
#
# Mechanical properties :
#
#
# Convention : Reuss Voigt Hill
#
# Bulk Modulus (GPa) = 7.47814 52.30170 29.88992
# Shear Modulus (GPa) = 9.19488 24.07139 16.63314
#
# Velocity S-wave (km/s) = 2.14567 3.47169 2.88587
# Velocity P-wave (km/s) = 3.14370 6.50060 5.10591
#
# Compressibility (1/GPa) = 0.13372316
#
# Stress axis : x y z
#
# Youngs Moduli (GPa) = 52.84195 5.04549 88.38132
#
# Poissons Ratio (x) = 0.08309 0.30534
# Poissons Ratio (y) = 0.87024 2.42455
# Poissons Ratio (z) = 0.18256 0.13841
#
# Static dielectric constant tensor:
#      x y z
#    x 1.713530 0.000000 0.039730 
#    y 0.000000 1.685770 0.000000 
#    z 0.039730 0.000000 1.762120 
# 
# From -- ./inp_files/329498.got.cif
#   From: 2010.05.17/outbox.cif.g08.bks.cpg/sg12_165_cif.got.tgz:329498.got - 2010.06.03 13:09:07.
