data_PCOD9178892
_publ_section_title
;
Structure prediction by ZEFSAII (Michael W. Deem and Ramdas Pophale) SiO2 
 PCOD9178892
Probable space group: C 2/M
;
_chemical_formula_sum "Si O2"
_cell_formula_units_Z 64
_cell_length_a 21.742139
_cell_length_b 9.772269
_cell_length_c 17.244871
_cell_angle_alpha 90.000000
_cell_angle_beta 82.708533
_cell_angle_gamma 90.000000
_cell_volume 3634.388661
_symmetry_space_group_name_H-M "C 2/M"
_symmetry_group_IT_number 12
_symmetry_cell_setting 'monoclinic'
loop_
_space_group_symop_operation_xyz
x,y,z
-x,y,-z
-x,-y,-z
x,-y,z
1/2+x,1/2+y,z
1/2-x,1/2+y,-z
1/2-x,1/2-y,-z
1/2+x,1/2-y,z
loop_
_atom_site_type_symbol
_atom_site_label
_atom_site_fract_x
_atom_site_fract_y
_atom_site_fract_z
Si Si1 0.066727 0.658434 0.732202
Si Si2 0.246923 0.339065 0.077805
Si Si3 0.347366 0.349680 0.190522
Si Si4 0.163867 0.657598 0.574655
Si Si5 0.454073 0.659794 0.691052
Si Si6 0.175839 0.850977 0.202326
Si Si7 0.757674 0.721960 0.673562
Si Si8 0.614005 0.844333 0.418273
O O1 0.050326 0.500000 0.750335
O O2 0.105831 0.729808 0.794398
O O3 0.112461 0.659678 0.650471
O O4 0.009020 0.754044 0.720533
O O5 0.235011 0.500000 0.066287
O O6 0.311021 0.328335 0.116181
O O7 0.196152 0.270147 0.142563
O O8 0.250000 0.250000 0.000000
O O9 0.377559 0.500000 0.185753
O O10 0.293577 0.351563 0.265312
O O11 0.181783 0.500000 0.556817
O O12 0.222853 0.733777 0.601021
O O13 0.133508 0.708397 0.500073
O O14 0.469752 0.500000 0.673919
O O15 0.394263 0.661149 0.757073
O O16 0.431918 0.741561 0.617953
O O17 0.218860 0.841597 0.272500
O O18 0.185384 0.000000 0.163769
O O19 0.821634 0.650089 0.640481
O O20 0.588941 0.000000 0.427836
#
# Coordination Sequence:
#
# PCOD9178892 Si02
#       8
#     8   8   8   8   8   8   8   8
#     4  10  20  34  52  71  93 128 171 212 251 294
#     4  10  20  33  54  83 114 140 160 188 231 283
#     4   9  18  32  50  75 103 130 162 199 239 287
#     4   9  18  30  45  68  97 129 165 208 259 306
#     4  10  21  36  52  70  94 128 169 213 255 295
#     4   9  18  32  52  75 100 130 165 203 244 292
#     4   9  16  28  48  72  97 128 164 205 251 301
#     4  10  19  31  47  68  96 129 166 210 257 306
#
# _framework density 17.609563999999999
#
# number of rings (size 3 to 8) (size 9 to 14) (size 15 to 20)
#    0.000    2.500    0.000    2.250    0.000    8.000 
#    0.000    6.250    0.000    0.750    0.000    5.250 
#    0.000    0.000    0.000    0.000    0.000    0.000 
#
# Total GULP energy -178281.248729 kJ/mol
# GULP energy per Si atom -5571.289023 kJ/mol
# Density = 1.756948 g / cm^3
# Si number density = 17.609564 Si / 1000 Ang^3
#
#
#
# Elastic Constant Matrix: (Units=GPa)
#
#
# Indices 1 2 3 4 5 6 
#
# 1 55.1020 46.5018 4.5080 0.0000 19.5060 0.0000
# 2 46.5018 138.1751 40.6995 0.0000 22.2066 0.0000
# 3 4.5080 40.6995 72.9426 0.0000 20.8209 0.0000
# 4 0.0000 0.0000 0.0000 18.8058 0.0000 2.1311
# 5 19.5060 22.2066 20.8209 0.0000 16.2670 0.0000
# 6 0.0000 0.0000 0.0000 2.1311 0.0000 13.9763
#
#
#
# Elastic Compliance Matrix: (Units=1/GPa)
#
#
# Indices 1 2 3 4 5 6 
#
# 1 0.060415 -0.014612 0.030575 0.000000 -0.091632 0.000000
# 2 -0.014612 0.013094 -0.009930 0.000000 0.012356 0.000000
# 3 0.030575 -0.009930 0.037747 0.000000 -0.071421 0.000000
# 4 0.000000 0.000000 0.000000 0.054110 0.000000 -0.008251
# 5 -0.091632 0.012356 -0.071421 0.000000 0.245898 0.000000
# 6 0.000000 0.000000 0.000000 -0.008251 0.000000 0.072808
#
#
# Mechanical properties :
#
#
# Convention : Reuss Voigt Hill
#
# Bulk Modulus (GPa) = 8.10884 49.95982 29.03433
# Shear Modulus (GPa) = 9.74445 21.44385 15.59415
#
# Velocity S-wave (km/s) = 2.35491 3.49340 2.97905
# Velocity P-wave (km/s) = 3.46539 6.68612 5.32509
#
# Compressibility (1/GPa) = 0.12332220
#
# Stress axis : x y z
#
# Youngs Moduli (GPa) = 16.55211 76.37287 26.49233
#
# Poissons Ratio (x) = 1.11593 -0.80999
# Poissons Ratio (y) = 0.24185 0.26306
# Poissons Ratio (z) = -0.50607 0.75836
#
# Static dielectric constant tensor:
#      x y z
#    x 1.595180 0.000000 0.003660 
#    y 0.000000 1.626640 0.000000 
#    z 0.003660 0.000000 1.597570 
# 
# From -- ./inp_files/287640.got.cif
#   From: 2010.05.17/outbox.cif.g08.bks.cpg/sg12_144_cif.got.tgz:287640.got - 2010.06.03 13:09:07.
