data_PCOD9178649
_publ_section_title
;
Structure prediction by ZEFSAII (Michael W. Deem and Ramdas Pophale) SiO2 
 PCOD9178649
Probable space group: C 2/M
;
_chemical_formula_sum "Si O2"
_cell_formula_units_Z 64
_cell_length_a 20.709149
_cell_length_b 9.863128
_cell_length_c 17.120899
_cell_angle_alpha 90.000000
_cell_angle_beta 116.957628
_cell_angle_gamma 90.000000
_cell_volume 3117.079424
_symmetry_space_group_name_H-M "C 2/M"
_symmetry_group_IT_number 12
_symmetry_cell_setting 'monoclinic'
loop_
_space_group_symop_operation_xyz
x,y,z
-x,y,-z
-x,-y,-z
x,-y,z
1/2+x,1/2+y,z
1/2-x,1/2+y,-z
1/2-x,1/2-y,-z
1/2+x,1/2-y,z
loop_
_atom_site_type_symbol
_atom_site_label
_atom_site_fract_x
_atom_site_fract_y
_atom_site_fract_z
Si Si1 0.366071 0.839761 0.570923
Si Si2 0.281929 0.351063 0.828788
Si Si3 0.316836 0.349680 0.026065
Si Si4 0.663989 0.346159 0.726976
Si Si5 0.900723 0.651332 0.868324
Si Si6 0.731427 0.345830 0.591620
Si Si7 0.501646 0.339284 0.407203
Si Si8 0.935546 0.348191 0.074777
O O1 0.313100 0.769214 0.478377
O O2 0.317012 0.827386 0.622290
O O3 0.439913 0.755001 0.603776
O O4 0.378269 0.000000 0.563511
O O5 0.268007 0.500000 0.787639
O O6 0.317293 0.366606 0.932986
O O7 0.208830 0.264844 0.798666
O O8 0.341382 0.262597 0.816412
O O9 0.308079 0.500000 0.055004
O O10 0.250000 0.250000 0.000000
O O11 0.389303 0.269833 0.088712
O O12 0.672441 0.500000 0.760755
O O13 0.702446 0.341790 0.663304
O O14 0.579293 0.317709 0.669543
O O15 0.873666 0.500000 0.834743
O O16 0.978616 0.672165 0.871736
O O17 0.916949 0.651669 0.971240
O O18 0.714724 0.500000 0.552684
O O19 0.500000 0.310990 0.500000
O O20 0.519409 0.500000 0.408771
O O21 0.916598 0.500000 0.092837
#
# Coordination Sequence:
#
# PCOD9178649 Si02
#       8
#     8   8   8   8   8   8   8   8
#     4  10  19  30  51  80 107 133 169 222 270 308
#     4  10  21  34  50  76 107 133 165 215 265 304
#     4  10  20  33  51  75 103 136 171 211 257 307
#     4  10  20  35  56  75  99 142 186 218 261 325
#     4   8  14  27  48  72  97 125 157 191 236 298
#     4   9  18  34  52  74 104 138 175 212 260 320
#     4  10  19  34  54  76 105 141 180 223 266 317
#     4   8  14  26  47  74  98 121 155 198 239 286
#
# _framework density 20.532042000000001
#
# number of rings (size 3 to 8) (size 9 to 14) (size 15 to 20)
#    0.000    2.625    1.250    1.875    0.000    3.750 
#    0.000    2.500    2.750    0.000    0.000    0.000 
#    0.000    0.000    0.000    0.000    0.000    0.000 
#
# Total GULP energy -178417.011992 kJ/mol
# GULP energy per Si atom -5575.531625 kJ/mol
# Density = 2.048531 g / cm^3
# Si number density = 20.532042 Si / 1000 Ang^3
#
#
#
# Elastic Constant Matrix: (Units=GPa)
#
#
# Indices 1 2 3 4 5 6 
#
# 1 122.1939 87.2065 25.2328 0.0000 25.1713 0.0000
# 2 87.2065 164.1953 31.2922 0.0000 35.0077 0.0000
# 3 25.2328 31.2922 42.5664 0.0000 10.8837 0.0000
# 4 0.0000 0.0000 0.0000 15.5267 0.0000 8.1891
# 5 25.1713 35.0077 10.8837 0.0000 31.2546 0.0000
# 6 0.0000 0.0000 0.0000 8.1891 0.0000 32.8849
#
#
#
# Elastic Compliance Matrix: (Units=1/GPa)
#
#
# Indices 1 2 3 4 5 6 
#
# 1 0.013791 -0.006074 -0.002865 0.000000 -0.003306 0.000000
# 2 -0.006074 0.011327 -0.003001 0.000000 -0.006751 0.000000
# 3 -0.002865 -0.003001 0.028484 0.000000 -0.004251 0.000000
# 4 0.000000 0.000000 0.000000 0.074143 0.000000 -0.018463
# 5 -0.003306 -0.006751 -0.004251 0.000000 0.043700 0.000000
# 6 0.000000 0.000000 0.000000 -0.018463 0.000000 0.035007
#
#
# Mechanical properties :
#
#
# Convention : Reuss Voigt Hill
#
# Bulk Modulus (GPa) = 33.64303 68.49096 51.06699
# Shear Modulus (GPa) = 20.81269 28.28151 24.54710
#
# Velocity S-wave (km/s) = 3.18727 3.71540 3.46142
# Velocity P-wave (km/s) = 5.47413 7.19973 6.39540
#
# Compressibility (1/GPa) = 0.02972384
#
# Stress axis : x y z
#
# Youngs Moduli (GPa) = 72.51117 88.28148 35.10788
#
# Poissons Ratio (x) = 0.53620 0.10058
# Poissons Ratio (y) = 0.44041 0.10534
# Poissons Ratio (z) = 0.20773 0.26490
#
# Static dielectric constant tensor:
#      x y z
#    x 1.741060 0.000000 -0.032330 
#    y 0.000000 1.757570 0.000000 
#    z -0.032330 0.000000 1.780190 
# 
# From -- ./inp_files/320118.got.cif
#   From: 2010.05.17/outbox.cif.g08.bks.cpg/sg12_161_cif.got.tgz:320118.got - 2010.06.03 13:09:07.
