data_PCOD9178285
_publ_section_title
;
Structure prediction by ZEFSAII (Michael W. Deem and Ramdas Pophale) SiO2 
 PCOD9178285
Probable space group: C 2/M
;
_chemical_formula_sum "Si O2"
_cell_formula_units_Z 60
_cell_length_a 14.518995
_cell_length_b 12.769847
_cell_length_c 15.089900
_cell_angle_alpha 90.000000
_cell_angle_beta 77.059693
_cell_angle_gamma 90.000000
_cell_volume 2726.696217
_symmetry_space_group_name_H-M "C 2/M"
_symmetry_group_IT_number 12
_symmetry_cell_setting 'monoclinic'
loop_
_space_group_symop_operation_xyz
x,y,z
-x,y,-z
-x,-y,-z
x,-y,z
1/2+x,1/2+y,z
1/2-x,1/2+y,-z
1/2-x,1/2-y,-z
1/2+x,1/2-y,z
loop_
_atom_site_type_symbol
_atom_site_label
_atom_site_fract_x
_atom_site_fract_y
_atom_site_fract_z
Si Si1 0.500000 0.188680 0.500000
Si Si2 0.783038 0.878294 0.057245
Si Si3 0.434224 0.792590 0.328757
Si Si4 0.138176 0.331596 0.226229
Si Si5 0.737900 0.385656 0.427512
Si Si6 0.858851 0.880015 0.856902
Si Si7 0.581492 0.622637 0.816469
Si Si8 0.308044 0.153160 0.599819
O O1 0.531463 0.247966 0.582253
O O2 0.411924 0.119207 0.547868
O O3 0.681257 0.872941 0.125747
O O4 0.857206 0.835711 0.113939
O O5 0.810915 0.000000 0.043223
O O6 0.795651 0.842858 0.953677
O O7 0.526850 0.847628 0.266502
O O8 0.344814 0.866261 0.368084
O O9 0.404902 0.698230 0.270658
O O10 0.151956 0.205765 0.216956
O O11 0.198409 0.374617 0.296047
O O12 0.703270 0.500000 0.407277
O O13 0.687006 0.279990 0.408192
O O14 0.740648 0.381255 0.534946
O O15 0.969100 0.874668 0.861587
O O16 0.837340 0.000000 0.836515
O O17 0.603678 0.500000 0.793952
#
# Coordination Sequence:
#
# PCOD9178285 Si02
#       8
#     4   8   8   8   8   8   8   8
#     4   8  16  34  50  66  98 124 150 202 242 272
#     4  10  19  30  47  73 100 126 160 202 246 289
#     4   9  18  33  50  71  97 129 166 198 233 287
#     4  10  19  32  50  71 100 129 159 202 242 281
#     4  10  20  35  53  71  98 132 162 195 236 282
#     4   9  18  32  50  71  96 128 162 197 244 296
#     4   9  17  31  51  72  96 126 161 203 245 284
#     4   9  19  35  52  73  97 125 165 200 234 285
#
# _framework density 22.004653000000001
#
# number of rings (size 3 to 8) (size 9 to 14) (size 15 to 20)
#    0.000    2.667    0.000    1.600    0.000    3.200 
#    0.000   22.667    0.000    0.000    0.000    0.000 
#    0.000   14.933    0.000    0.000    0.000    0.000 
#
# Total GULP energy -167229.226434 kJ/mol
# GULP energy per Si atom -5574.307548 kJ/mol
# Density = 2.195457 g / cm^3
# Si number density = 22.004653 Si / 1000 Ang^3
#
#
#
# Elastic Constant Matrix: (Units=GPa)
#
#
# Indices 1 2 3 4 5 6 
#
# 1 53.8788 1.1610 16.5761 0.0000 -11.7771 0.0000
# 2 1.1610 89.7673 5.4086 0.0000 -0.9080 0.0000
# 3 16.5761 5.4086 99.5312 0.0000 -9.8982 0.0000
# 4 0.0000 0.0000 0.0000 6.7641 0.0000 -5.0833
# 5 -11.7771 -0.9080 -9.8982 0.0000 30.6546 0.0000
# 6 0.0000 0.0000 0.0000 -5.0833 0.0000 10.9746
#
#
#
# Elastic Compliance Matrix: (Units=1/GPa)
#
#
# Indices 1 2 3 4 5 6 
#
# 1 0.020982 -0.000031 -0.002780 0.000000 0.007162 0.000000
# 2 -0.000031 0.011177 -0.000589 0.000000 0.000129 0.000000
# 3 -0.002780 -0.000589 0.010780 0.000000 0.002395 0.000000
# 4 0.000000 0.000000 0.000000 0.226780 0.000000 0.105042
# 5 0.007162 0.000129 0.002395 0.000000 0.036150 0.000000
# 6 0.000000 0.000000 0.000000 0.105042 0.000000 0.139774
#
#
# Mechanical properties :
#
#
# Convention : Reuss Voigt Hill
#
# Bulk Modulus (GPa) = 27.67243 32.16320 29.91781
# Shear Modulus (GPa) = 10.76447 24.34744 17.55595
#
# Velocity S-wave (km/s) = 2.21416 3.32997 2.82765
# Velocity P-wave (km/s) = 4.37490 5.42524 4.92813
#
# Compressibility (1/GPa) = 0.03613706
#
# Stress axis : x y z
#
# Youngs Moduli (GPa) = 47.66039 89.46844 92.76109
#
# Poissons Ratio (x) = 0.00281 0.25791
# Poissons Ratio (y) = 0.00150 0.05467
# Poissons Ratio (z) = 0.13251 0.05273
#
# Static dielectric constant tensor:
#      x y z
#    x 1.829750 0.000000 -0.037430 
#    y 0.000000 1.834770 0.000000 
#    z -0.037430 0.000000 1.846700 
# 
# From -- ./inp_files/223780.got.cif
#   From: 2010.05.17/outbox.cif.g08.bks.cpg/sg12_112_cif.got.tgz:223780.got - 2010.06.03 13:09:07.
