data_PCOD9178098
_publ_section_title
;
Structure prediction by ZEFSAII (Michael W. Deem and Ramdas Pophale) SiO2 
 PCOD9178098
Probable space group: C 2/M
;
_chemical_formula_sum "Si O2"
_cell_formula_units_Z 56
_cell_length_a 29.286683
_cell_length_b 8.932032
_cell_length_c 17.736595
_cell_angle_alpha 90.000000
_cell_angle_beta 130.429945
_cell_angle_gamma 90.000000
_cell_volume 3531.743739
_symmetry_space_group_name_H-M "C 2/M"
_symmetry_group_IT_number 12
_symmetry_cell_setting 'monoclinic'
loop_
_space_group_symop_operation_xyz
x,y,z
-x,y,-z
-x,-y,-z
x,-y,z
1/2+x,1/2+y,z
1/2-x,1/2+y,-z
1/2-x,1/2-y,-z
1/2+x,1/2-y,z
loop_
_atom_site_type_symbol
_atom_site_label
_atom_site_fract_x
_atom_site_fract_y
_atom_site_fract_z
Si Si1 0.230403 0.677725 0.364415
Si Si2 0.909481 0.327197 0.415494
Si Si3 0.539803 0.821840 0.363818
Si Si4 0.733776 0.825965 0.746411
Si Si5 0.918725 0.177334 0.269055
Si Si6 0.653739 0.321283 0.409817
Si Si7 0.711269 0.819551 0.891785
O O1 0.222196 0.500000 0.361710
O O2 0.233296 0.729476 0.281266
O O3 0.294384 0.715285 0.472815
O O4 0.180172 0.761171 0.359577
O O5 0.923792 0.500000 0.409336
O O6 0.938879 0.294322 0.527007
O O7 0.837635 0.317098 0.346108
O O8 0.927756 0.220746 0.366800
O O9 0.475623 0.743769 0.286072
O O10 0.591911 0.755531 0.367303
O O11 0.534994 0.000000 0.348629
O O12 0.739337 0.780408 0.839765
O O13 0.751344 0.000000 0.757511
O O14 0.856209 0.255182 0.179354
O O15 0.914508 0.000000 0.255627
O O16 0.646924 0.500000 0.400848
O O17 0.709036 0.000000 0.893603
O O18 0.750000 0.750000 0.000000
#
# Coordination Sequence:
#
# PCOD9178098 Si02
#       7
#     8   8   8   8   8   8   8
#     4  10  19  30  46  69  97 132 172 209 247 290
#     4   9  18  31  46  66  96 134 170 204 244 290
#     4  11  20  32  48  67  97 135 172 207 247 292
#     4   9  17  31  50  72  99 131 165 203 249 297
#     4  11  22  33  48  71  99 130 166 205 246 298
#     4  10  20  31  45  67  98 134 173 212 247 287
#     4  10  21  38  57  78 101 128 162 205 256 302
#
# _framework density 15.856189000000001
#
# number of rings (size 3 to 8) (size 9 to 14) (size 15 to 20)
#    0.000    2.000    1.429    4.286    0.000    6.857 
#    0.000    0.000    0.000    0.000    0.000    1.000 
#    0.000    8.000    0.000    0.000    0.000    0.000 
#
# Total GULP energy -156272.543387 kJ/mol
# GULP energy per Si atom -5581.162264 kJ/mol
# Density = 1.582010 g / cm^3
# Si number density = 15.856189 Si / 1000 Ang^3
#
#
#
# Elastic Constant Matrix: (Units=GPa)
#
#
# Indices 1 2 3 4 5 6 
#
# 1 125.4351 67.7550 50.1167 0.0000 1.3311 0.0000
# 2 67.7550 74.3142 39.3540 0.0000 -1.5957 0.0000
# 3 50.1167 39.3540 71.7271 0.0000 -9.9630 0.0000
# 4 0.0000 0.0000 0.0000 21.3027 0.0000 -1.2451
# 5 1.3311 -1.5957 -9.9630 0.0000 13.9894 0.0000
# 6 0.0000 0.0000 0.0000 -1.2451 0.0000 31.9407
#
#
#
# Elastic Compliance Matrix: (Units=1/GPa)
#
#
# Indices 1 2 3 4 5 6 
#
# 1 0.017432 -0.012756 -0.006230 0.000000 -0.007550 0.000000
# 2 -0.012756 0.028740 -0.006916 0.000000 -0.000433 0.000000
# 3 -0.006230 -0.006916 0.024484 0.000000 0.017241 0.000000
# 4 0.000000 0.000000 0.000000 0.047050 0.000000 0.001834
# 5 -0.007550 -0.000433 0.017241 0.000000 0.084431 0.000000
# 6 0.000000 0.000000 0.000000 0.001834 0.000000 0.031379
#
#
# Mechanical properties :
#
#
# Convention : Reuss Voigt Hill
#
# Bulk Modulus (GPa) = 53.04489 65.10310 59.07399
# Shear Modulus (GPa) = 17.14663 21.06326 19.10494
#
# Velocity S-wave (km/s) = 3.29201 3.64867 3.47492
# Velocity P-wave (km/s) = 6.92648 7.67450 7.31007
#
# Compressibility (1/GPa) = 0.01885196
#
# Stress axis : x y z
#
# Youngs Moduli (GPa) = 57.36597 34.79490 40.84368
#
# Poissons Ratio (x) = 0.44386 0.25444
# Poissons Ratio (y) = 0.73179 0.28246
# Poissons Ratio (z) = 0.35737 0.24063
#
# Static dielectric constant tensor:
#      x y z
#    x 1.528520 0.000000 0.000100 
#    y 0.000000 1.526190 0.000000 
#    z 0.000100 0.000000 1.512820 
# 
# From -- ./inp_files/291824.got.cif
#   From: 2010.05.17/outbox.cif.g08.bks.cpg/sg12_146_cif.got.tgz:291824.got - 2010.06.03 13:09:07.
