data_PCOD9178701
_publ_section_title
;
Structure prediction by ZEFSAII (Michael W. Deem and Ramdas Pophale) SiO2 
 PCOD9178701
Probable space group: C 2/M
;
_chemical_formula_sum "Si O2"
_cell_formula_units_Z 64
_cell_length_a 20.992921
_cell_length_b 9.137746
_cell_length_c 25.495131
_cell_angle_alpha 90.000000
_cell_angle_beta 129.360851
_cell_angle_gamma 90.000000
_cell_volume 3781.312425
_symmetry_space_group_name_H-M "C 2/M"
_symmetry_group_IT_number 12
_symmetry_cell_setting 'monoclinic'
loop_
_space_group_symop_operation_xyz
x,y,z
-x,y,-z
-x,-y,-z
x,-y,z
1/2+x,1/2+y,z
1/2-x,1/2+y,-z
1/2-x,1/2-y,-z
1/2+x,1/2-y,z
loop_
_atom_site_type_symbol
_atom_site_label
_atom_site_fract_x
_atom_site_fract_y
_atom_site_fract_z
Si Si1 0.521364 0.175295 0.426406
Si Si2 0.783378 0.324997 0.714480
Si Si3 0.365601 0.175799 0.419277
Si Si4 0.280678 0.324419 0.202582
Si Si5 0.734585 0.325901 0.075328
Si Si6 0.625644 0.325340 0.921152
Si Si7 0.544020 0.675501 0.219040
Si Si8 0.972975 0.824421 0.296454
O O1 0.437157 0.210709 0.414131
O O2 0.596168 0.215967 0.504257
O O3 0.519041 0.252343 0.369407
O O4 0.523238 0.000000 0.421000
O O5 0.784335 0.500000 0.710108
O O6 0.717081 0.256768 0.640004
O O7 0.752944 0.287889 0.757469
O O8 0.872898 0.258647 0.751174
O O9 0.353902 0.000000 0.412247
O O10 0.276887 0.500000 0.193838
O O11 0.231091 0.247525 0.130147
O O12 0.376749 0.279954 0.247993
O O13 0.743217 0.500000 0.084672
O O14 0.813644 0.259406 0.086403
O O15 0.657592 0.295377 0.996517
O O16 0.635845 0.500000 0.916561
O O17 0.531510 0.288783 0.859427
O O18 0.557612 0.500000 0.224110
O O19 0.512444 0.712556 0.261090
O O20 0.975096 0.000000 0.303124
#
# Coordination Sequence:
#
# PCOD9178701 Si02
#       8
#     8   8   8   8   8   8   8   8
#     4   9  18  32  54  83 111 137 173 224 267 309
#     4  11  23  37  55  80 109 142 180 223 267 316
#     4   9  18  34  54  79 111 144 174 212 271 323
#     4  10  20  36  54  77 111 143 175 221 272 318
#     4  10  19  30  54  86 108 135 180 227 265 311
#     4   9  18  35  54  77 111 145 176 217 272 320
#     4  10  21  38  57  75 106 148 179 214 268 325
#     4  10  19  34  56  80 106 141 181 219 268 318
#
# _framework density 16.925339999999998
#
# number of rings (size 3 to 8) (size 9 to 14) (size 15 to 20)
#    0.000    2.250    2.500    1.500    0.000    3.500 
#    0.000    2.500    0.000    3.750    0.000    0.000 
#    0.000    0.000    0.000    0.000    0.000    0.000 
#
# Total GULP energy -178532.763473 kJ/mol
# GULP energy per Si atom -5579.148859 kJ/mol
# Density = 1.688682 g / cm^3
# Si number density = 16.925340 Si / 1000 Ang^3
#
#
#
# Elastic Constant Matrix: (Units=GPa)
#
#
# Indices 1 2 3 4 5 6 
#
# 1 101.5471 42.9758 74.9063 0.0000 11.4879 0.0000
# 2 42.9758 29.7589 57.0483 0.0000 4.4096 0.0000
# 3 74.9063 57.0483 164.7482 0.0000 9.7082 0.0000
# 4 0.0000 0.0000 0.0000 32.8824 0.0000 -3.6760
# 5 11.4879 4.4096 9.7082 0.0000 24.2399 0.0000
# 6 0.0000 0.0000 0.0000 -3.6760 0.0000 25.5631
#
#
#
# Elastic Compliance Matrix: (Units=1/GPa)
#
#
# Indices 1 2 3 4 5 6 
#
# 1 0.026819 -0.045042 0.003758 0.000000 -0.006021 0.000000
# 2 -0.045042 0.176067 -0.040822 0.000000 0.005667 0.000000
# 3 0.003758 -0.040822 0.018603 0.000000 -0.001805 0.000000
# 4 0.000000 0.000000 0.000000 0.030908 0.000000 0.004445
# 5 -0.006021 0.005667 -0.001805 0.000000 0.043800 0.000000
# 6 0.000000 0.000000 0.000000 0.004445 0.000000 0.039758
#
#
# Mechanical properties :
#
#
# Convention : Reuss Voigt Hill
#
# Bulk Modulus (GPa) = 17.45909 71.76832 44.61371
# Shear Modulus (GPa) = 9.62909 24.61201 17.12055
#
# Velocity S-wave (km/s) = 2.38778 3.81747 3.18391
# Velocity P-wave (km/s) = 4.23554 7.86929 6.31924
#
# Compressibility (1/GPa) = 0.05727675
#
# Stress axis : x y z
#
# Youngs Moduli (GPa) = 37.28713 5.67967 53.75340
#
# Poissons Ratio (x) = 0.25582 -0.20200
# Poissons Ratio (y) = 1.67947 2.19434
# Poissons Ratio (z) = -0.14012 0.23186
#
# Static dielectric constant tensor:
#      x y z
#    x 1.544230 0.000000 -0.002420 
#    y 0.000000 1.561650 0.000000 
#    z -0.002420 0.000000 1.576210 
# 
# From -- ./inp_files/346119.got.cif
#   From: 2010.05.17/outbox.cif.g08.bks.cpg/sg12_174_cif.got.tgz:346119.got - 2010.06.03 13:09:07.
