data_PCOD9178457
_publ_section_title
;
Structure prediction by ZEFSAII (Michael W. Deem and Ramdas Pophale) SiO2 
 PCOD9178457
Probable space group: C 2/M
;
_chemical_formula_sum "Si O2"
_cell_formula_units_Z 56
_cell_length_a 29.292823
_cell_length_b 7.515354
_cell_length_c 12.254948
_cell_angle_alpha 90.000000
_cell_angle_beta 111.800626
_cell_angle_gamma 90.000000
_cell_volume 2504.929592
_symmetry_space_group_name_H-M "C 2/M"
_symmetry_group_IT_number 12
_symmetry_cell_setting 'monoclinic'
loop_
_space_group_symop_operation_xyz
x,y,z
-x,y,-z
-x,-y,-z
x,-y,z
1/2+x,1/2+y,z
1/2-x,1/2+y,-z
1/2-x,1/2-y,-z
1/2+x,1/2-y,z
loop_
_atom_site_type_symbol
_atom_site_label
_atom_site_fract_x
_atom_site_fract_y
_atom_site_fract_z
Si Si1 0.640081 0.784646 0.257945
Si Si2 0.662573 0.292042 0.699136
Si Si3 0.445787 0.707698 0.983132
Si Si4 0.247689 0.286227 0.367632
Si Si5 0.991154 0.286878 0.365077
Si Si6 0.895929 0.201968 0.154342
Si Si7 0.402160 0.785625 0.557309
O O1 0.694730 0.726435 0.274262
O O2 0.633705 0.730589 0.378243
O O3 0.638283 0.000000 0.252190
O O4 0.593622 0.719058 0.148786
O O5 0.672988 0.500000 0.728008
O O6 0.707781 0.215764 0.668083
O O7 0.645183 0.216582 0.800871
O O8 0.616824 0.281603 0.574837
O O9 0.454661 0.500000 0.019004
O O10 0.416504 0.787430 0.061314
O O11 0.500000 0.781571 0.000000
O O12 0.249340 0.500000 0.361418
O O13 0.250000 0.250000 0.500000
O O14 0.984018 0.500000 0.346716
O O15 0.043050 0.232626 0.359586
O O16 0.000000 0.251150 0.500000
O O17 0.944750 0.196127 0.271665
O O18 0.879732 0.000000 0.113239
O O19 0.402704 0.000000 0.548872
#
# Coordination Sequence:
#
# PCOD9178457 Si02
#       7
#     8   8   8   8   8   8   8
#     4  10  21  36  56  81 109 142 182 228 274 324
#     4  10  20  33  52  79 109 141 175 217 272 326
#     4  10  22  40  59  79 107 145 189 232 270 320
#     4  10  20  35  56  83 113 144 180 224 273 328
#     4  10  19  30  48  76 108 140 175 218 270 327
#     4  10  21  36  53  76 108 144 183 228 274 322
#     4  10  19  32  50  77 111 141 174 220 270 322
#
# _framework density 22.355917999999999
#
# number of rings (size 3 to 8) (size 9 to 14) (size 15 to 20)
#    0.000    2.000    2.857    0.857    0.000    2.857 
#    0.000    0.714    0.000    0.000    0.000    0.000 
#    0.000    0.000    0.000    0.000    0.000    0.000 
#
# Total GULP energy -156189.323045 kJ/mol
# GULP energy per Si atom -5578.190109 kJ/mol
# Density = 2.230504 g / cm^3
# Si number density = 22.355918 Si / 1000 Ang^3
#
#
#
# Elastic Constant Matrix: (Units=GPa)
#
#
# Indices 1 2 3 4 5 6 
#
# 1 179.6349 6.5293 47.3562 0.0000 -22.4754 0.0000
# 2 6.5293 55.5185 -2.3638 0.0000 -6.2088 0.0000
# 3 47.3562 -2.3638 74.1806 0.0000 -16.2708 0.0000
# 4 0.0000 0.0000 0.0000 16.4711 0.0000 8.0025
# 5 -22.4754 -6.2088 -16.2708 0.0000 43.2696 0.0000
# 6 0.0000 0.0000 0.0000 8.0025 0.0000 6.5718
#
#
#
# Elastic Compliance Matrix: (Units=1/GPa)
#
#
# Indices 1 2 3 4 5 6 
#
# 1 0.006894 -0.000760 -0.003993 0.000000 0.001970 0.000000
# 2 -0.000760 0.018499 0.001712 0.000000 0.002903 0.000000
# 3 -0.003993 0.001712 0.017093 0.000000 0.004599 0.000000
# 4 0.000000 0.000000 0.000000 0.148669 0.000000 -0.181035
# 5 0.001970 0.002903 0.004599 0.000000 0.026280 0.000000
# 6 0.000000 0.000000 0.000000 -0.181035 0.000000 0.372613
#
#
# Mechanical properties :
#
#
# Convention : Reuss Voigt Hill
#
# Bulk Modulus (GPa) = 27.47080 45.81970 36.64525
# Shear Modulus (GPa) = 8.22009 30.44999 19.33504
#
# Velocity S-wave (km/s) = 1.91961 3.69461 2.94406
# Velocity P-wave (km/s) = 4.15064 6.22416 5.28999
#
# Compressibility (1/GPa) = 0.03640229
#
# Stress axis : x y z
#
# Youngs Moduli (GPa) = 145.06176 54.05706 58.50355
#
# Poissons Ratio (x) = 0.04111 0.23360
# Poissons Ratio (y) = 0.11031 -0.10014
# Poissons Ratio (z) = 0.57922 -0.09253
#
# Static dielectric constant tensor:
#      x y z
#    x 1.916720 0.000000 -0.046650 
#    y 0.000000 1.895520 0.000000 
#    z -0.046650 0.000000 1.769480 
# 
# From -- ./inp_files/186808.got.cif
#   From: 2010.05.17/outbox.cif.g08.bks.cpg/sg12_94_cif.got.tgz:186808.got - 2010.06.03 13:09:07.
