data_PCOD9178287
_publ_section_title
;
Structure prediction by ZEFSAII (Michael W. Deem and Ramdas Pophale) SiO2 
 PCOD9178287
Probable space group: C 2/M
;
_chemical_formula_sum "Si O2"
_cell_formula_units_Z 64
_cell_length_a 14.333492
_cell_length_b 9.507014
_cell_length_c 23.338795
_cell_angle_alpha 90.000000
_cell_angle_beta 65.664527
_cell_angle_gamma 90.000000
_cell_volume 2897.768267
_symmetry_space_group_name_H-M "C 2/M"
_symmetry_group_IT_number 12
_symmetry_cell_setting 'monoclinic'
loop_
_space_group_symop_operation_xyz
x,y,z
-x,y,-z
-x,-y,-z
x,-y,z
1/2+x,1/2+y,z
1/2-x,1/2+y,-z
1/2-x,1/2-y,-z
1/2+x,1/2-y,z
loop_
_atom_site_type_symbol
_atom_site_label
_atom_site_fract_x
_atom_site_fract_y
_atom_site_fract_z
Si Si1 0.906804 0.159313 0.187700
Si Si2 0.276281 0.658642 0.326374
Si Si3 0.135712 0.159204 0.178706
Si Si4 0.169183 0.837117 0.443237
Si Si5 0.972014 0.658663 0.070155
Si Si6 0.072181 0.658449 0.302936
Si Si7 0.460402 0.336233 0.418981
Si Si8 0.300385 0.158729 0.937630
O O1 0.849221 0.220456 0.258169
O O2 0.025136 0.147788 0.175878
O O3 0.904229 0.249898 0.130645
O O4 0.866215 0.000000 0.188670
O O5 0.313080 0.500000 0.329552
O O6 0.253150 0.745584 0.389237
O O7 0.166336 0.647285 0.323192
O O8 0.113859 0.245932 0.241329
O O9 0.204328 0.251379 0.118914
O O10 0.172732 0.000000 0.179653
O O11 0.129406 0.787899 0.515431
O O12 0.065722 0.834817 0.430076
O O13 0.200934 0.000000 0.439556
O O14 0.930361 0.500000 0.071932
O O15 0.080870 0.646147 0.074579
O O16 0.000000 0.718087 0.000000
O O17 0.044387 0.500000 0.291407
O O18 0.982373 0.739358 0.358995
O O19 0.444038 0.500000 0.408121
O O20 0.258467 0.000000 0.943449
O O21 0.250000 0.250000 0.000000
#
# Coordination Sequence:
#
# PCOD9178287 Si02
#       8
#     8   8   8   8   8   8   8   8
#     4   9  19  35  52  70  94 128 164 193 231 283
#     4   9  18  31  47  71 100 125 155 198 243 286
#     4  10  20  35  53  70  94 130 166 197 233 280
#     4   8  14  25  43  67  94 125 159 195 237 284
#     4   9  19  35  53  74  98 124 157 196 236 278
#     4  10  19  30  47  73 101 126 157 199 244 287
#     4   8  14  26  43  65  95 127 159 195 236 284
#     4  10  20  35  54  75 100 127 158 196 236 282
#
# _framework density 22.085961999999999
#
# number of rings (size 3 to 8) (size 9 to 14) (size 15 to 20)
#    0.000    2.875    0.000    1.875    0.000    3.750 
#    0.000    5.000    0.000    0.750    0.000    0.000 
#    0.000    0.000    0.000    0.000    0.000    0.000 
#
# Total GULP energy -178650.182504 kJ/mol
# GULP energy per Si atom -5582.818203 kJ/mol
# Density = 2.203569 g / cm^3
# Si number density = 22.085962 Si / 1000 Ang^3
#
#
#
# Elastic Constant Matrix: (Units=GPa)
#
#
# Indices 1 2 3 4 5 6 
#
# 1 48.3119 -2.6557 1.2669 0.0000 -0.1747 0.0000
# 2 -2.6557 149.9432 119.8311 0.0000 -0.3724 0.0000
# 3 1.2669 119.8311 226.3339 0.0000 -3.9648 0.0000
# 4 0.0000 0.0000 0.0000 37.4614 0.0000 -2.0994
# 5 -0.1747 -0.3724 -3.9648 0.0000 30.0189 0.0000
# 6 0.0000 0.0000 0.0000 -2.0994 0.0000 2.4085
#
#
#
# Elastic Compliance Matrix: (Units=1/GPa)
#
#
# Indices 1 2 3 4 5 6 
#
# 1 0.020757 0.000797 -0.000537 0.000000 0.000060 0.000000
# 2 0.000797 0.011605 -0.006160 0.000000 -0.000665 0.000000
# 3 -0.000537 -0.006160 0.007699 0.000000 0.000937 0.000000
# 4 0.000000 0.000000 0.000000 0.028065 0.000000 0.024463
# 5 0.000060 -0.000665 0.000937 0.000000 0.033428 0.000000
# 6 0.000000 0.000000 0.000000 0.024463 0.000000 0.436521
#
#
# Mechanical properties :
#
#
# Convention : Reuss Voigt Hill
#
# Bulk Modulus (GPa) = 35.38529 73.49707 54.44118
# Shear Modulus (GPa) = 8.93981 34.38755 21.66368
#
# Velocity S-wave (km/s) = 2.01408 3.95015 3.13530
# Velocity P-wave (km/s) = 4.63304 7.35900 6.14898
#
# Compressibility (1/GPa) = 0.02826033
#
# Stress axis : x y z
#
# Youngs Moduli (GPa) = 48.17661 86.17192 129.88470
#
# Poissons Ratio (x) = -0.06868 0.06977
# Poissons Ratio (y) = -0.03840 0.80011
# Poissons Ratio (z) = 0.02588 0.53083
#
# Static dielectric constant tensor:
#      x y z
#    x 1.875350 0.000000 0.003330 
#    y 0.000000 1.804080 0.000000 
#    z 0.003330 0.000000 1.799930 
# 
# From -- ./inp_files/341996.got.cif
#   From: 2010.05.17/outbox.cif.g08.bks.cpg/sg12_171_cif.got.tgz:341996.got - 2010.06.03 13:09:07.
