data_PCOD9178856
_publ_section_title
;
Structure prediction by ZEFSAII (Michael W. Deem and Ramdas Pophale) SiO2 
 PCOD9178856
Probable space group: C 2/M
;
_chemical_formula_sum "Si O2"
_cell_formula_units_Z 48
_cell_length_a 14.307086
_cell_length_b 9.319331
_cell_length_c 17.352697
_cell_angle_alpha 90.000000
_cell_angle_beta 71.540321
_cell_angle_gamma 90.000000
_cell_volume 2194.631631
_symmetry_space_group_name_H-M "C 2/M"
_symmetry_group_IT_number 12
_symmetry_cell_setting 'monoclinic'
loop_
_space_group_symop_operation_xyz
x,y,z
-x,y,-z
-x,-y,-z
x,-y,z
1/2+x,1/2+y,z
1/2-x,1/2+y,-z
1/2-x,1/2-y,-z
1/2+x,1/2-y,z
loop_
_atom_site_type_symbol
_atom_site_label
_atom_site_fract_x
_atom_site_fract_y
_atom_site_fract_z
Si Si1 0.613576 0.336198 0.092491
Si Si2 0.753877 0.332905 0.417893
Si Si3 0.206389 0.326251 0.757813
Si Si4 0.906336 0.666456 0.756140
Si Si5 0.923301 0.660141 0.588355
Si Si6 0.648745 0.163659 0.935952
O O1 0.582401 0.500000 0.098198
O O2 0.564927 0.254760 0.176748
O O3 0.732174 0.331960 0.079913
O O4 0.601738 0.261872 0.013284
O O5 0.768836 0.500000 0.430086
O O6 0.750000 0.250000 0.500000
O O7 0.819807 0.294808 0.324631
O O8 0.647202 0.292566 0.411143
O O9 0.227597 0.500000 0.755291
O O10 0.301820 0.230899 0.754289
O O11 0.135543 0.298832 0.849365
O O12 0.897050 0.500000 0.780332
O O13 0.969146 0.675815 0.661243
O O14 0.873248 0.500000 0.602528
O O15 0.000000 0.655341 0.500000
O O16 0.617710 0.000000 0.956155
#
# Coordination Sequence:
#
# PCOD9178856 Si02
#       6
#     8   8   8   8   8   8
#     4   9  15  21  30  47  73 103 133 166 204 248
#     4  10  19  31  47  67  91 119 151 185 223 265
#     4   8  15  26  38  53  76 106 138 173 211 251
#     4   9  15  23  37  55  76 105 138 171 210 255
#     4   9  18  32  48  66  89 117 150 188 227 264
#     4   8  13  21  32  47  69  99 134 168 203 245
#
# _framework density 21.871551
#
# number of rings (size 3 to 8) (size 9 to 14) (size 15 to 20)
#    0.000    3.167    0.000    2.500    0.000    5.667 
#    0.000    0.000    0.000    0.000    0.000    0.000 
#    0.000    1.333    0.000   15.333    0.000   14.000 
#
# Total GULP energy -133666.994973 kJ/mol
# GULP energy per Si atom -5569.458124 kJ/mol
# Density = 2.182177 g / cm^3
# Si number density = 21.871551 Si / 1000 Ang^3
#
#
#
# Elastic Constant Matrix: (Units=GPa)
#
#
# Indices 1 2 3 4 5 6 
#
# 1 53.5154 11.6829 20.2249 0.0000 17.6215 0.0000
# 2 11.6829 92.5052 113.3818 0.0000 27.4424 0.0000
# 3 20.2249 113.3818 258.9810 0.0000 41.7972 0.0000
# 4 0.0000 0.0000 0.0000 39.8534 0.0000 9.8994
# 5 17.6215 27.4424 41.7972 0.0000 18.9552 0.0000
# 6 0.0000 0.0000 0.0000 9.8994 0.0000 1.0487
#
#
#
# Elastic Compliance Matrix: (Units=1/GPa)
#
#
# Indices 1 2 3 4 5 6 
#
# 1 0.030021 0.006604 0.001260 0.000000 -0.040248 0.000000
# 2 0.006604 0.029216 -0.008522 0.000000 -0.029645 0.000000
# 3 0.001260 -0.008522 0.008836 0.000000 -0.008318 0.000000
# 4 0.000000 0.000000 0.000000 -0.018659 0.000000 0.176135
# 5 -0.040248 -0.029645 -0.008318 0.000000 0.151433 0.000000
# 6 0.000000 0.000000 0.000000 0.176135 0.000000 -0.709090
#
#
# Mechanical properties :
#
#
# Convention : Reuss Voigt Hill
#
# Bulk Modulus (GPa) = 14.97955 77.28673 46.13314
# Shear Modulus (GPa) = -10.31621 29.28560 9.48469
#
# Velocity S-wave (km/s) = -2.17416 3.66318 2.08470
# Velocity P-wave (km/s) = 0.74908 7.30104 5.18972
#
# Compressibility (1/GPa) = 0.06675767
#
# Stress axis : x y z
#
# Youngs Moduli (GPa) = 33.30982 34.22802 113.17023
#
# Poissons Ratio (x) = -0.22605 -0.14258
# Poissons Ratio (y) = -0.21998 0.96443
# Poissons Ratio (z) = -0.04197 0.29169
#
# Static dielectric constant tensor:
#      x y z
#    x 1.957240 0.000000 -0.030770 
#    y 0.000000 1.770070 0.000000 
#    z -0.030770 0.000000 1.887540 
# 
# From -- ./inp_files/280035.got.cif
#   From: 2010.05.17/outbox.cif.g08.bks.cpg/sg12_141_cif.got.tgz:280035.got - 2010.06.03 13:09:07.
