data_PCOD9178420
_publ_section_title
;
Structure prediction by ZEFSAII (Michael W. Deem and Ramdas Pophale) SiO2 
 PCOD9178420
Probable space group: C 2/M
;
_chemical_formula_sum "Si O2"
_cell_formula_units_Z 64
_cell_length_a 31.074990
_cell_length_b 8.518903
_cell_length_c 15.516285
_cell_angle_alpha 90.000000
_cell_angle_beta 101.780429
_cell_angle_gamma 90.000000
_cell_volume 4021.029354
_symmetry_space_group_name_H-M "C 2/M"
_symmetry_group_IT_number 12
_symmetry_cell_setting 'monoclinic'
loop_
_space_group_symop_operation_xyz
x,y,z
-x,y,-z
-x,-y,-z
x,-y,z
1/2+x,1/2+y,z
1/2-x,1/2+y,-z
1/2-x,1/2-y,-z
1/2+x,1/2-y,z
loop_
_atom_site_type_symbol
_atom_site_label
_atom_site_fract_x
_atom_site_fract_y
_atom_site_fract_z
Si Si1 0.051202 0.687178 0.930970
Si Si2 0.308499 0.191147 0.882316
Si Si3 0.720270 0.310296 0.608612
Si Si4 0.852612 0.310527 0.079229
Si Si5 0.457045 0.684847 0.881039
Si Si6 0.125247 0.687343 0.243551
Si Si7 0.790532 0.810524 0.202084
Si Si8 0.185416 0.187318 0.412235
O O1 0.046769 0.500000 0.920316
O O2 0.096553 0.739617 0.905707
O O3 0.006897 0.767678 0.879365
O O4 0.054246 0.727035 0.033987
O O5 0.340430 0.239639 0.817344
O O6 0.258431 0.242205 0.846473
O O7 0.308372 0.000000 0.881810
O O8 0.327782 0.243440 0.981883
O O9 0.725324 0.500000 0.609856
O O10 0.703240 0.263882 0.695651
O O11 0.768364 0.238727 0.611651
O O12 0.690137 0.266823 0.514699
O O13 0.852374 0.500000 0.077609
O O14 0.826634 0.253317 0.151725
O O15 0.454888 0.500000 0.896164
O O16 0.421338 0.735329 0.796458
O O17 0.120952 0.500000 0.235968
O O18 0.146548 0.734175 0.342833
O O19 0.791159 0.000000 0.198593
O O20 0.318831 0.500000 0.594672
#
# Coordination Sequence:
#
# PCOD9178420 Si02
#       8
#     8   8   8   8   8   8   8   8
#     4  10  19  34  52  69  95 134 167 195 246 300
#     4   9  17  31  47  65  94 132 169 196 228 281
#     4   9  18  33  49  67  97 133 164 199 248 298
#     4  10  20  33  48  69  96 130 170 207 237 278
#     4  11  21  32  49  75 101 122 160 210 247 284
#     4  11  19  33  52  70  98 135 166 194 244 306
#     4  10  19  32  49  68  94 134 172 201 239 286
#     4  10  19  30  48  74  98 123 163 210 247 285
#
# _framework density 15.916323
#
# number of rings (size 3 to 8) (size 9 to 14) (size 15 to 20)
#    0.000    2.000    2.500    3.375    0.000    2.000 
#    0.000    0.000    0.000    0.000    0.000    0.875 
#    0.000    7.000    0.000    0.000    0.000    0.000 
#
# Total GULP energy -178559.323636 kJ/mol
# GULP energy per Si atom -5579.978864 kJ/mol
# Density = 1.588010 g / cm^3
# Si number density = 15.916323 Si / 1000 Ang^3
#
#
#
# Elastic Constant Matrix: (Units=GPa)
#
#
# Indices 1 2 3 4 5 6 
#
# 1 108.9209 10.5518 62.4120 0.0000 5.0312 0.0000
# 2 10.5518 11.0502 8.5601 0.0000 1.4217 0.0000
# 3 62.4120 8.5601 99.8648 0.0000 3.7056 0.0000
# 4 0.0000 0.0000 0.0000 22.5918 0.0000 0.8717
# 5 5.0312 1.4217 3.7056 0.0000 23.4516 0.0000
# 6 0.0000 0.0000 0.0000 0.8717 0.0000 23.1121
#
#
#
# Elastic Compliance Matrix: (Units=1/GPa)
#
#
# Indices 1 2 3 4 5 6 
#
# 1 0.014905 -0.007367 -0.008632 0.000000 -0.001387 0.000000
# 2 -0.007367 0.101067 -0.003913 0.000000 -0.003928 0.000000
# 3 -0.008632 -0.003913 0.015759 0.000000 -0.000401 0.000000
# 4 0.000000 0.000000 0.000000 0.044328 0.000000 -0.001672
# 5 -0.001387 -0.003928 -0.000401 0.000000 0.043240 0.000000
# 6 0.000000 0.000000 0.000000 -0.001672 0.000000 0.043330
#
#
# Mechanical properties :
#
#
# Convention : Reuss Voigt Hill
#
# Bulk Modulus (GPa) = 10.88069 42.54264 26.71167
# Shear Modulus (GPa) = 15.01096 23.05193 19.03144
#
# Velocity S-wave (km/s) = 3.07435 3.80981 3.46167
# Velocity P-wave (km/s) = 4.41058 6.79263 5.72682
#
# Compressibility (1/GPa) = 0.09190591
#
# Stress axis : x y z
#
# Youngs Moduli (GPa) = 67.09166 9.89439 63.45742
#
# Poissons Ratio (x) = 0.07290 0.54777
# Poissons Ratio (y) = 0.49429 0.24831
# Poissons Ratio (z) = 0.57914 0.03872
#
# Static dielectric constant tensor:
#      x y z
#    x 1.517610 0.000000 0.012420 
#    y 0.000000 1.541980 0.000000 
#    z 0.012420 0.000000 1.530370 
# 
# From -- ./inp_files/248486.got.cif
#   From: 2010.05.17/outbox.cif.g08.bks.cpg/sg12_125_cif.got.tgz:248486.got - 2010.06.03 13:09:07.
