data_PCOD9178641
_publ_section_title
;
Structure prediction by ZEFSAII (Michael W. Deem and Ramdas Pophale) SiO2 
 PCOD9178641
Probable space group: C 2/M
;
_chemical_formula_sum "Si O2"
_cell_formula_units_Z 64
_cell_length_a 11.238819
_cell_length_b 20.241663
_cell_length_c 17.837077
_cell_angle_alpha 90.000000
_cell_angle_beta 121.639617
_cell_angle_gamma 90.000000
_cell_volume 3454.665887
_symmetry_space_group_name_H-M "C 2/M"
_symmetry_group_IT_number 12
_symmetry_cell_setting 'monoclinic'
loop_
_space_group_symop_operation_xyz
x,y,z
-x,y,-z
-x,-y,-z
x,-y,z
1/2+x,1/2+y,z
1/2-x,1/2+y,-z
1/2-x,1/2-y,-z
1/2+x,1/2-y,z
loop_
_atom_site_type_symbol
_atom_site_label
_atom_site_fract_x
_atom_site_fract_y
_atom_site_fract_z
Si Si1 0.248368 0.773642 0.914817
Si Si2 0.570629 0.880689 0.095275
Si Si3 0.074758 0.270889 0.337189
Si Si4 0.608707 0.423498 0.101331
Si Si5 0.885031 0.356168 0.177621
Si Si6 0.112553 0.804851 0.599463
Si Si7 0.839410 0.074163 0.272813
Si Si8 0.511564 0.645537 0.214269
O O1 0.375556 0.810664 0.918922
O O2 0.208381 0.710011 0.853842
O O3 0.129740 0.828729 0.870352
O O4 0.250000 0.750000 0.000000
O O5 0.464453 0.864117 0.125853
O O6 0.699796 0.918129 0.176358
O O7 0.500000 0.914851 0.000000
O O8 0.243592 0.281705 0.395028
O O9 0.066709 0.210427 0.274699
O O10 0.000366 0.337028 0.278640
O O11 0.976509 0.245826 0.374820
O O12 0.572299 0.500000 0.100980
O O13 0.772969 0.414888 0.139216
O O14 0.596412 0.384418 0.174842
O O15 0.500000 0.399417 0.000000
O O16 0.157740 0.866717 0.666115
O O17 0.000000 0.824915 0.500000
O O18 0.969245 0.090805 0.261171
O O19 0.846864 0.000000 0.305720
#
# Coordination Sequence:
#
# PCOD9178641 Si02
#       8
#     8   8   8   8   8   8   8   8
#     4  10  19  30  51  78 106 142 186 245 285 337
#     4  11  22  35  53  84 113 155 200 240 292 334
#     4  10  21  39  63  93 121 150 187 245 308 371
#     4  11  24  37  51  75 112 159 209 249 284 338
#     4  11  22  35  55  79 117 152 197 241 294 350
#     4  11  22  40  66  95 123 152 190 244 310 371
#     4  10  22  40  59  82 116 157 200 241 287 350
#     4   9  20  36  57  76 107 150 189 237 293 345
#
# _framework density 18.525669000000001
#
# number of rings (size 3 to 8) (size 9 to 14) (size 15 to 20)
#    0.000    1.625    2.500    3.000    5.250    1.500 
#    0.000    0.000    0.000    0.000    0.000    0.000 
#    0.000   10.500    0.000    0.000    0.000    0.000 
#
# Total GULP energy -178143.704856 kJ/mol
# GULP energy per Si atom -5566.990777 kJ/mol
# Density = 1.848350 g / cm^3
# Si number density = 18.525669 Si / 1000 Ang^3
#
#
#
# Elastic Constant Matrix: (Units=GPa)
#
#
# Indices 1 2 3 4 5 6 
#
# 1 72.0176 7.1885 8.6075 0.0000 9.0137 0.0000
# 2 7.1885 41.4464 2.4402 0.0000 1.6121 0.0000
# 3 8.6075 2.4402 69.6437 0.0000 14.5380 0.0000
# 4 0.0000 0.0000 0.0000 -2.5315 0.0000 1.8211
# 5 9.0137 1.6121 14.5380 0.0000 28.0636 0.0000
# 6 0.0000 0.0000 0.0000 1.8211 0.0000 12.8182
#
#
#
# Elastic Compliance Matrix: (Units=1/GPa)
#
#
# Indices 1 2 3 4 5 6 
#
# 1 0.014743 -0.002344 -0.000874 0.000000 -0.004148 0.000000
# 2 -0.002344 0.024579 -0.000486 0.000000 -0.000407 0.000000
# 3 -0.000874 -0.000486 0.016168 0.000000 -0.008067 0.000000
# 4 0.000000 0.000000 0.000000 -0.358397 0.000000 0.050917
# 5 -0.004148 -0.000407 -0.008067 0.000000 0.041168 0.000000
# 6 0.000000 0.000000 0.000000 0.050917 0.000000 0.070780
#
#
# Mechanical properties :
#
#
# Convention : Reuss Voigt Hill
#
# Bulk Modulus (GPa) = 20.79880 24.39779 22.59829
# Shear Modulus (GPa) = -29.84662 18.66150 -5.59256
#
# Velocity S-wave (km/s) = -4.01820 3.17729 -1.73936
# Velocity P-wave (km/s) = 3.20570 5.16319 2.86200
#
# Compressibility (1/GPa) = 0.04807969
#
# Stress axis : x y z
#
# Youngs Moduli (GPa) = 67.82831 40.68573 61.85125
#
# Poissons Ratio (x) = 0.09538 0.05407
# Poissons Ratio (y) = 0.15901 0.03009
# Poissons Ratio (z) = 0.05929 0.01979
#
# Static dielectric constant tensor:
#      x y z
#    x 1.766730 0.000000 0.026790 
#    y 0.000000 1.647980 0.000000 
#    z 0.026790 0.000000 1.674910 
# 
# From -- ./inp_files/264837.got.cif
#   From: 2010.05.17/outbox.cif.g08.bks.cpg/sg12_133_cif.got.tgz:264837.got - 2010.06.03 13:09:07.
