data_PCOD9178677
_publ_section_title
;
Structure prediction by ZEFSAII (Michael W. Deem and Ramdas Pophale) SiO2 
 PCOD9178677
Probable space group: C 2/M
;
_chemical_formula_sum "Si O2"
_cell_formula_units_Z 56
_cell_length_a 22.187627
_cell_length_b 8.776182
_cell_length_c 24.484886
_cell_angle_alpha 90.000000
_cell_angle_beta 36.118469
_cell_angle_gamma 90.000000
_cell_volume 2810.389600
_symmetry_space_group_name_H-M "C 2/M"
_symmetry_group_IT_number 12
_symmetry_cell_setting 'monoclinic'
loop_
_space_group_symop_operation_xyz
x,y,z
-x,y,-z
-x,-y,-z
x,-y,z
1/2+x,1/2+y,z
1/2-x,1/2+y,-z
1/2-x,1/2-y,-z
1/2+x,1/2-y,z
loop_
_atom_site_type_symbol
_atom_site_label
_atom_site_fract_x
_atom_site_fract_y
_atom_site_fract_z
Si Si1 0.228194 0.182135 0.880512
Si Si2 0.229083 0.180862 0.382180
Si Si3 0.437040 0.684325 0.776793
Si Si4 0.701087 0.681443 0.276134
Si Si5 0.160668 0.818833 0.601905
Si Si6 0.646229 0.317304 0.050683
Si Si7 0.015310 0.326620 0.554585
O O1 0.338538 0.235413 0.823261
O O2 0.221822 0.257046 0.825858
O O3 0.226440 0.000000 0.876237
O O4 0.146380 0.230627 0.987095
O O5 0.231073 0.220012 0.316444
O O6 0.311739 0.269919 0.356843
O O7 0.117456 0.228504 0.486985
O O8 0.241903 0.000000 0.378823
O O9 0.425821 0.500000 0.778679
O O10 0.545512 0.732858 0.672752
O O11 0.436942 0.719456 0.842203
O O12 0.692107 0.500000 0.278878
O O13 0.589001 0.753100 0.347543
O O14 0.250000 0.750000 0.500000
O O15 0.162735 0.000000 0.595380
O O16 0.654644 0.500000 0.043683
O O17 0.750000 0.250000 0.000000
O O18 0.029088 0.500000 0.564073
O O19 0.000000 0.332112 0.500000
#
# Coordination Sequence:
#
# PCOD9178677 Si02
#       7
#     8   8   8   8   8   8   8
#     4  10  19  30  52  84 111 134 167 215 263 311
#     4  10  21  37  54  72 100 138 178 217 259 308
#     4   9  19  36  55  75 104 141 176 212 262 315
#     4  10  20  33  51  75 105 139 171 210 262 315
#     4  11  24  39  56  76 102 140 181 221 259 304
#     4   8  15  30  51  76 104 133 168 211 260 312
#     4   9  17  30  49  72  97 128 168 212 256 302
#
# _framework density 19.926062000000002
#
# number of rings (size 3 to 8) (size 9 to 14) (size 15 to 20)
#    0.000    2.429    0.000    2.143    2.000    5.143 
#    0.000    0.000    0.000    0.857    0.000    6.000 
#    0.000    0.000    0.000    0.000    0.000    0.000 
#
# Total GULP energy -156184.649943 kJ/mol
# GULP energy per Si atom -5578.023212 kJ/mol
# Density = 1.988071 g / cm^3
# Si number density = 19.926062 Si / 1000 Ang^3
#
#
#
# Elastic Constant Matrix: (Units=GPa)
#
#
# Indices 1 2 3 4 5 6 
#
# 1 34.8505 4.4977 12.0826 0.0001 9.4785 0.0000
# 2 4.4977 31.9211 17.9137 0.0003 7.9932 -0.0002
# 3 12.0826 17.9137 88.4082 0.0001 26.5644 -0.0001
# 4 0.0001 0.0003 0.0001 25.0052 -0.0001 7.9586
# 5 9.4785 7.9932 26.5644 -0.0001 31.5590 0.0001
# 6 0.0000 -0.0002 -0.0001 7.9586 0.0001 23.4084
#
#
#
# Elastic Compliance Matrix: (Units=1/GPa)
#
#
# Indices 1 2 3 4 5 6 
#
# 1 0.031567 -0.001580 -0.001694 0.000000 -0.007655 0.000000
# 2 -0.001580 0.035791 -0.005963 -0.000001 -0.003571 0.000001
# 3 -0.001694 -0.005963 0.016256 0.000000 -0.011664 0.000000
# 4 0.000000 -0.000001 0.000000 0.044844 0.000000 -0.015246
# 5 -0.007655 -0.003571 -0.011664 0.000000 0.044708 0.000000
# 6 0.000000 0.000001 0.000000 -0.015246 0.000000 0.047903
#
#
# Mechanical properties :
#
#
# Convention : Reuss Voigt Hill
#
# Bulk Modulus (GPa) = 15.35189 24.90752 20.12970
# Shear Modulus (GPa) = 19.13825 24.04023 21.58924
#
# Velocity S-wave (km/s) = 3.10250 3.47720 3.29518
# Velocity P-wave (km/s) = 4.53378 5.35241 4.96001
#
# Compressibility (1/GPa) = 0.06513858
#
# Stress axis : x y z
#
# Youngs Moduli (GPa) = 31.67846 27.94036 61.51702
#
# Poissons Ratio (x) = 0.04416 0.10420
# Poissons Ratio (y) = 0.05006 0.36683
# Poissons Ratio (z) = 0.05366 0.16661
#
# Static dielectric constant tensor:
#      x y z
#    x 1.733540 0.000000 0.053570 
#    y 0.000000 1.645780 0.000000 
#    z 0.053570 0.000000 1.752190 
# 
# From -- ./inp_files/348476.got.cif
#   From: 2010.05.17/outbox.cif.g08.bks.cpg/sg12_175_cif.got.tgz:348476.got - 2010.06.03 13:09:07.
