data_PCOD9178389
_publ_section_title
;
Structure prediction by ZEFSAII (Michael W. Deem and Ramdas Pophale) SiO2 
 PCOD9178389
Probable space group: C 2/M
;
_chemical_formula_sum "Si O2"
_cell_formula_units_Z 56
_cell_length_a 5.191584
_cell_length_b 17.713572
_cell_length_c 37.221880
_cell_angle_alpha 90.000000
_cell_angle_beta 109.885511
_cell_angle_gamma 90.000000
_cell_volume 3218.881801
_symmetry_space_group_name_H-M "C 2/M"
_symmetry_group_IT_number 12
_symmetry_cell_setting 'monoclinic'
loop_
_space_group_symop_operation_xyz
x,y,z
-x,y,-z
-x,-y,-z
x,-y,z
1/2+x,1/2+y,z
1/2-x,1/2+y,-z
1/2-x,1/2-y,-z
1/2+x,1/2-y,z
loop_
_atom_site_type_symbol
_atom_site_label
_atom_site_fract_x
_atom_site_fract_y
_atom_site_fract_z
Si Si1 0.812179 0.590239 0.024905
Si Si2 0.471277 0.089792 0.695599
Si Si3 0.839421 0.698945 0.816311
Si Si4 0.588131 0.589602 0.745954
Si Si5 0.657402 0.300758 0.540056
Si Si6 0.723685 0.802535 0.376570
Si Si7 0.464709 0.197882 0.096304
O O1 0.833489 0.500000 0.030949
O O2 0.903964 0.633185 0.064873
O O3 0.500000 0.608596 0.000000
O O4 0.000000 0.611849 0.000000
O O5 0.260492 0.103734 0.717983
O O6 0.386016 0.137546 0.657033
O O7 0.774165 0.111139 0.723506
O O8 0.472512 0.000000 0.687839
O O9 0.606534 0.762161 0.811814
O O10 0.717713 0.636005 0.784562
O O11 0.923443 0.669565 0.859850
O O12 0.597685 0.500000 0.753913
O O13 0.500000 0.342008 0.500000
O O14 0.446474 0.231915 0.539643
O O15 0.705015 0.338135 0.580990
O O16 0.490301 0.740047 0.373749
O O17 0.692299 0.254344 0.091362
#
# Coordination Sequence:
#
# PCOD9178389 Si02
#       7
#     8   8   8   8   8   8   8
#     4  10  21  36  54  78 106 135 169 207 244 284
#     4  10  21  35  49  70 101 130 158 199 247 291
#     4  10  21  36  54  77 103 129 162 207 249 285
#     4  10  21  36  53  72  96 131 168 197 239 297
#     4   8  14  25  41  63  91 119 150 193 238 278
#     4  10  19  30  48  73  95 122 163 201 237 287
#     4  10  21  36  54  78 105 133 166 202 246 296
#
# _framework density 17.397345000000001
#
# number of rings (size 3 to 8) (size 9 to 14) (size 15 to 20)
#    0.000    2.286    0.000    2.571    0.000    5.714 
#    0.000    0.000    0.000   10.714    0.000    0.000 
#    0.000   14.857    0.000    0.000    0.000    2.286 
#
# Total GULP energy -156193.311423 kJ/mol
# GULP energy per Si atom -5578.332551 kJ/mol
# Density = 1.735775 g / cm^3
# Si number density = 17.397345 Si / 1000 Ang^3
#
#
#
# Elastic Constant Matrix: (Units=GPa)
#
#
# Indices 1 2 3 4 5 6 
#
# 1 88.5976 0.9762 -0.9579 0.0000 9.9384 0.0000
# 2 0.9762 24.0347 49.5215 0.0000 0.4992 0.0000
# 3 -0.9579 49.5215 127.3967 0.0000 6.4882 0.0000
# 4 0.0000 0.0000 0.0000 -15.5244 0.0000 0.0722
# 5 9.9384 0.4992 6.4882 0.0000 23.8159 0.0000
# 6 0.0000 0.0000 0.0000 0.0722 0.0000 0.4601
#
#
#
# Elastic Compliance Matrix: (Units=1/GPa)
#
#
# Indices 1 2 3 4 5 6 
#
# 1 0.012007 -0.005752 0.002612 0.000000 -0.005601 0.000000
# 2 -0.005752 0.219652 -0.086514 0.000000 0.021365 0.000000
# 3 0.002612 -0.086514 0.042045 0.000000 -0.010731 0.000000
# 4 0.000000 0.000000 0.000000 -0.064368 0.000000 0.010100
# 5 -0.005601 0.021365 -0.010731 0.000000 0.046802 0.000000
# 6 0.000000 0.000000 0.000000 0.010100 0.000000 2.172058
#
#
# Mechanical properties :
#
#
# Convention : Reuss Voigt Hill
#
# Bulk Modulus (GPa) = 10.59383 37.67872 24.13628
# Shear Modulus (GPa) = 1.89468 14.44960 8.17214
#
# Velocity S-wave (km/s) = 1.04471 2.88508 2.16969
# Velocity P-wave (km/s) = 2.74914 5.72739 4.49226
#
# Compressibility (1/GPa) = 0.09439453
#
# Stress axis : x y z
#
# Youngs Moduli (GPa) = 83.28525 4.55266 23.78385
#
# Poissons Ratio (x) = 0.02619 -0.06211
# Poissons Ratio (y) = 0.47907 2.05764
# Poissons Ratio (z) = -0.21750 0.39387
#
# Static dielectric constant tensor:
#      x y z
#    x 1.591920 0.000000 0.001450 
#    y 0.000000 1.550040 0.000000 
#    z 0.001450 0.000000 1.599420 
# 
# From -- ./inp_files/354948.got.cif
#   From: 2010.05.17/outbox.cif.g08.bks.cpg/sg12_178_cif.got.tgz:354948.got - 2010.06.03 13:09:07.
