data_PCOD9178610
_publ_section_title
;
Structure prediction by ZEFSAII (Michael W. Deem and Ramdas Pophale) SiO2 
 PCOD9178610
Probable space group: C 2/M
;
_chemical_formula_sum "Si O2"
_cell_formula_units_Z 40
_cell_length_a 20.856594
_cell_length_b 8.990536
_cell_length_c 18.524404
_cell_angle_alpha 90.000000
_cell_angle_beta 136.959830
_cell_angle_gamma 90.000000
_cell_volume 2370.734036
_symmetry_space_group_name_H-M "C 2/M"
_symmetry_group_IT_number 12
_symmetry_cell_setting 'monoclinic'
loop_
_space_group_symop_operation_xyz
x,y,z
-x,y,-z
-x,-y,-z
x,-y,z
1/2+x,1/2+y,z
1/2-x,1/2+y,-z
1/2-x,1/2-y,-z
1/2+x,1/2-y,z
loop_
_atom_site_type_symbol
_atom_site_label
_atom_site_fract_x
_atom_site_fract_y
_atom_site_fract_z
Si Si1 0.970710 0.822678 0.736462
Si Si2 0.802803 0.822542 0.712091
Si Si3 0.154665 0.677621 0.949526
Si Si4 0.890689 0.321520 0.922136
Si Si5 0.178392 0.178188 0.498634
O O1 0.891971 0.787287 0.732844
O O2 0.923195 0.789102 0.619782
O O3 0.065238 0.736672 0.831631
O O4 0.987435 0.000000 0.753812
O O5 0.828264 0.759857 0.811136
O O6 0.711311 0.747017 0.601142
O O7 0.792019 0.000000 0.703513
O O8 0.159860 0.500000 0.948303
O O9 0.250000 0.750000 0.000000
O O10 0.137771 0.716116 0.019759
O O11 0.882540 0.500000 0.905719
O O12 0.000000 0.281501 0.000000
O O13 0.250000 0.250000 0.500000
O O14 0.189827 0.000000 0.508836
#
# Coordination Sequence:
#
# PCOD9178610 Si02
#       5
#     8   8   8   8   8
#     4   9  18  32  50  75 106 139 176 215 260 310
#     4  10  19  30  50  80 109 139 173 218 267 313
#     4  11  23  37  55  77 106 143 178 218 264 316
#     4  10  20  35  54  78 106 139 178 219 267 316
#     4   9  17  29  47  74 107 140 173 216 264 314
#
# _framework density 16.872412000000001
#
# number of rings (size 3 to 8) (size 9 to 14) (size 15 to 20)
#    0.000    2.200    2.000    3.000    0.000    6.000 
#    0.000    0.000    0.000    1.200    0.000    8.400 
#    0.000    0.000    0.000    0.000    0.000    0.000 
#
# Total GULP energy -111535.528751 kJ/mol
# GULP energy per Si atom -5576.776438 kJ/mol
# Density = 1.683401 g / cm^3
# Si number density = 16.872412 Si / 1000 Ang^3
#
#
#
# Elastic Constant Matrix: (Units=GPa)
#
#
# Indices 1 2 3 4 5 6 
#
# 1 81.5005 44.5656 65.9038 0.0000 3.8051 0.0000
# 2 44.5656 57.7464 81.5955 0.0000 1.3371 0.0000
# 3 65.9038 81.5955 196.5367 0.0000 -6.5454 0.0000
# 4 0.0000 0.0000 0.0000 37.2310 0.0000 -0.4241
# 5 3.8051 1.3371 -6.5454 0.0000 15.2952 0.0000
# 6 0.0000 0.0000 0.0000 -0.4241 0.0000 21.8854
#
#
#
# Elastic Compliance Matrix: (Units=1/GPa)
#
#
# Indices 1 2 3 4 5 6 
#
# 1 0.021578 -0.014768 -0.001258 0.000000 -0.004616 0.000000
# 2 -0.014768 0.054005 -0.017757 0.000000 -0.008646 0.000000
# 3 -0.001258 -0.017757 0.013131 0.000000 0.007485 0.000000
# 4 0.000000 0.000000 0.000000 0.026865 0.000000 0.000521
# 5 -0.004616 -0.008646 0.007485 0.000000 0.070487 0.000000
# 6 0.000000 0.000000 0.000000 0.000521 0.000000 0.045703
#
#
# Mechanical properties :
#
#
# Convention : Reuss Voigt Hill
#
# Bulk Modulus (GPa) = 47.28585 79.99040 63.63812
# Shear Modulus (GPa) = 16.31933 24.46358 20.39146
#
# Velocity S-wave (km/s) = 3.11339 3.81191 3.48022
# Velocity P-wave (km/s) = 6.40395 8.17839 7.34496
#
# Compressibility (1/GPa) = 0.02114798
#
# Stress axis : x y z
#
# Youngs Moduli (GPa) = 46.34292 18.51680 76.15394
#
# Poissons Ratio (x) = 0.27346 0.09581
# Poissons Ratio (y) = 0.68441 1.35225
# Poissons Ratio (z) = 0.05831 0.32880
#
# Static dielectric constant tensor:
#      x y z
#    x 1.545630 0.000000 -0.012290 
#    y 0.000000 1.579780 0.000000 
#    z -0.012290 0.000000 1.588740 
# 
# From -- ./inp_files/162745.got.cif
#   From: 2010.05.17/outbox.cif.g08.bks.cpg/sg12_82_cif.got.tgz:162745.got - 2010.06.03 13:09:07.
