data_PCOD9178369
_publ_section_title
;
Structure prediction by ZEFSAII (Michael W. Deem and Ramdas Pophale) SiO2 
 PCOD9178369
Probable space group: C 2/M
;
_chemical_formula_sum "Si O2"
_cell_formula_units_Z 48
_cell_length_a 23.349464
_cell_length_b 8.882342
_cell_length_c 27.148716
_cell_angle_alpha 90.000000
_cell_angle_beta 30.385031
_cell_angle_gamma 90.000000
_cell_volume 2847.998428
_symmetry_space_group_name_H-M "C 2/M"
_symmetry_group_IT_number 12
_symmetry_cell_setting 'monoclinic'
loop_
_space_group_symop_operation_xyz
x,y,z
-x,y,-z
-x,-y,-z
x,-y,z
1/2+x,1/2+y,z
1/2-x,1/2+y,-z
1/2-x,1/2-y,-z
1/2+x,1/2-y,z
loop_
_atom_site_type_symbol
_atom_site_label
_atom_site_fract_x
_atom_site_fract_y
_atom_site_fract_z
Si Si1 0.402119 0.165309 0.611473
Si Si2 0.891202 0.681457 0.113418
Si Si3 0.154502 0.828586 0.749832
Si Si4 0.354786 0.325805 0.739861
Si Si5 0.921942 0.320830 0.393683
Si Si6 0.782195 0.320115 0.398557
O O1 0.500000 0.177929 0.500000
O O2 0.285141 0.165504 0.669456
O O3 0.402353 0.299777 0.649606
O O4 0.411652 0.000000 0.629814
O O5 0.883376 0.500000 0.123933
O O6 0.900645 0.749752 0.161329
O O7 0.774981 0.730505 0.171432
O O8 0.000000 0.719478 0.000000
O O9 0.159825 0.743190 0.693906
O O10 0.112710 0.000000 0.774926
O O11 0.351749 0.500000 0.756420
O O12 0.449416 0.239318 0.701030
O O13 0.920384 0.500000 0.400684
O O14 0.861772 0.283715 0.386421
O O15 0.840571 0.250423 0.496475
O O16 0.769801 0.500000 0.403925
#
# Coordination Sequence:
#
# PCOD9178369 Si02
#       6
#     8   8   8   8   8   8
#     4   9  17  28  42  63  94 128 156 187 234 288
#     4   9  19  36  55  74  98 128 162 204 254 302
#     4  10  19  30  48  74 101 128 160 202 248 293
#     4  10  19  30  48  72  95 124 162 201 242 291
#     4  10  20  33  49  71 102 137 168 201 240 282
#     4  10  20  33  50  72 100 136 172 201 234 284
#
# _framework density 16.853942
#
# number of rings (size 3 to 8) (size 9 to 14) (size 15 to 20)
#    0.000    2.333    0.000    3.000    0.000    5.333 
#    0.000    0.000    0.000    1.000    0.000    0.000 
#    0.000    0.000    0.000    0.000    0.000    0.000 
#
# Total GULP energy -133660.967722 kJ/mol
# GULP energy per Si atom -5569.206988 kJ/mol
# Density = 1.681558 g / cm^3
# Si number density = 16.853942 Si / 1000 Ang^3
#
#
#
# Elastic Constant Matrix: (Units=GPa)
#
#
# Indices 1 2 3 4 5 6 
#
# 1 77.3657 26.9842 47.2269 0.0000 1.6103 0.0000
# 2 26.9842 47.1112 38.9818 0.0002 3.7398 -0.0001
# 3 47.2269 38.9818 116.5798 0.0000 8.2756 0.0000
# 4 0.0000 0.0002 0.0000 12.6784 -0.0001 0.5628
# 5 1.6103 3.7398 8.2756 -0.0001 25.0772 0.0000
# 6 0.0000 -0.0001 0.0000 0.5628 0.0000 25.4290
#
#
#
# Elastic Compliance Matrix: (Units=1/GPa)
#
#
# Indices 1 2 3 4 5 6 
#
# 1 0.018388 -0.006084 -0.005525 0.000000 0.001550 0.000000
# 2 -0.006084 0.031392 -0.007913 0.000000 -0.001679 0.000000
# 3 -0.005525 -0.007913 0.013673 0.000000 -0.002977 0.000000
# 4 0.000000 0.000000 0.000000 0.078952 0.000000 -0.001747
# 5 0.001550 -0.001679 -0.002977 0.000000 0.041010 0.000000
# 6 0.000000 0.000000 0.000000 -0.001747 0.000000 0.039364
#
#
# Mechanical properties :
#
#
# Convention : Reuss Voigt Hill
#
# Bulk Modulus (GPa) = 40.96692 51.93807 46.45249
# Shear Modulus (GPa) = 18.52138 21.16117 19.84128
#
# Velocity S-wave (km/s) = 3.31861 3.54724 3.43483
# Velocity P-wave (km/s) = 6.24852 6.90367 6.58425
#
# Compressibility (1/GPa) = 0.02440994
#
# Stress axis : x y z
#
# Youngs Moduli (GPa) = 54.38395 31.85540 73.13587
#
# Poissons Ratio (x) = 0.19380 0.40405
# Poissons Ratio (y) = 0.33086 0.57872
# Poissons Ratio (z) = 0.30045 0.25207
#
# Static dielectric constant tensor:
#      x y z
#    x 1.643620 0.000000 0.026690 
#    y 0.000000 1.609120 0.000000 
#    z 0.026690 0.000000 1.590030 
# 
# From -- ./inp_files/236314.got.cif
#   From: 2010.05.17/outbox.cif.g08.bks.cpg/sg12_119_cif.got.tgz:236314.got - 2010.06.03 13:09:07.
