data_PCOD9178126
_publ_section_title
;
Structure prediction by ZEFSAII (Michael W. Deem and Ramdas Pophale) SiO2 
 PCOD9178126
Probable space group: C 2/M
;
_chemical_formula_sum "Si O2"
_cell_formula_units_Z 64
_cell_length_a 24.379270
_cell_length_b 8.087538
_cell_length_c 17.486654
_cell_angle_alpha 90.000000
_cell_angle_beta 96.278271
_cell_angle_gamma 90.000000
_cell_volume 3427.135101
_symmetry_space_group_name_H-M "C 2/M"
_symmetry_group_IT_number 12
_symmetry_cell_setting 'monoclinic'
loop_
_space_group_symop_operation_xyz
x,y,z
-x,y,-z
-x,-y,-z
x,-y,z
1/2+x,1/2+y,z
1/2-x,1/2+y,-z
1/2-x,1/2-y,-z
1/2+x,1/2-y,z
loop_
_atom_site_type_symbol
_atom_site_label
_atom_site_fract_x
_atom_site_fract_y
_atom_site_fract_z
Si Si1 0.439821 0.702342 0.959088
Si Si2 0.066162 0.196210 0.215740
Si Si3 0.445707 0.803183 0.233159
Si Si4 0.634792 0.698680 0.916365
Si Si5 0.845958 0.304384 0.313384
Si Si6 0.684134 0.198179 0.269960
Si Si7 0.235524 0.197577 0.582972
Si Si8 0.268056 0.691806 0.166736
O O1 0.439247 0.500000 0.959402
O O2 0.433738 0.760871 0.871583
O O3 0.500000 0.751560 0.000000
O O4 0.391065 0.759171 0.008136
O O5 0.120205 0.262292 0.265302
O O6 0.007516 0.238692 0.243251
O O7 0.070901 0.000000 0.212720
O O8 0.411243 0.734401 0.155524
O O9 0.408813 0.763413 0.301995
O O10 0.447463 0.000000 0.224973
O O11 0.640276 0.500000 0.922048
O O12 0.694008 0.765507 0.895331
O O13 0.837995 0.500000 0.296896
O O14 0.822387 0.263976 0.392791
O O15 0.808885 0.204410 0.246534
O O16 0.718754 0.258747 0.348481
O O17 0.712059 0.264441 0.194940
O O18 0.690686 0.000000 0.268419
O O19 0.250000 0.250000 0.500000
O O20 0.234188 0.000000 0.585813
O O21 0.257807 0.500000 0.145726
#
# Coordination Sequence:
#
# PCOD9178126 Si02
#       8
#     8   8   8   8   8   8   8   8
#     4   9  16  28  45  68  96 126 168 219 260 295
#     4  11  21  32  49  70  95 135 177 210 250 300
#     4  10  19  30  46  71 101 131 165 210 257 294
#     4   9  15  28  49  68  91 125 170 216 254 301
#     4   9  17  29  48  75 104 130 161 202 245 290
#     4   9  19  35  50  71 103 132 161 199 247 298
#     4  10  20  35  58  84 108 133 160 195 241 290
#     4   8  15  28  48  69  91 127 167 206 253 299
#
# _framework density 18.674489000000001
#
# number of rings (size 3 to 8) (size 9 to 14) (size 15 to 20)
#    0.000    2.625    1.250    2.250    0.000    4.000 
#    0.000    2.500    0.000    0.750    0.000    5.250 
#    0.000    0.000    0.000    0.000    0.000    0.000 
#
# Total GULP energy -178291.174135 kJ/mol
# GULP energy per Si atom -5571.599192 kJ/mol
# Density = 1.863199 g / cm^3
# Si number density = 18.674489 Si / 1000 Ang^3
#
#
#
# Elastic Constant Matrix: (Units=GPa)
#
#
# Indices 1 2 3 4 5 6 
#
# 1 101.9396 1.1597 43.4494 0.0000 -18.6699 0.0000
# 2 1.1597 19.5069 6.2049 0.0000 1.9102 0.0000
# 3 43.4494 6.2049 78.2203 0.0000 -25.7566 0.0000
# 4 0.0000 0.0000 0.0000 9.8141 0.0000 -2.9665
# 5 -18.6699 1.9102 -25.7566 0.0000 19.7078 0.0000
# 6 0.0000 0.0000 0.0000 -2.9665 0.0000 19.7885
#
#
#
# Elastic Compliance Matrix: (Units=1/GPa)
#
#
# Indices 1 2 3 4 5 6 
#
# 1 0.013145 0.000560 -0.005729 0.000000 0.004911 0.000000
# 2 0.000560 0.056769 -0.011325 0.000000 -0.019773 0.000000
# 3 -0.005729 -0.011325 0.027103 0.000000 0.031092 0.000000
# 4 0.000000 0.000000 0.000000 0.106731 0.000000 0.016000
# 5 0.004911 -0.019773 0.031092 0.000000 0.097945 0.000000
# 6 0.000000 0.000000 0.000000 0.016000 0.000000 0.052933
#
#
# Mechanical properties :
#
#
# Convention : Reuss Voigt Hill
#
# Bulk Modulus (GPa) = 15.61803 33.47720 24.54762
# Shear Modulus (GPa) = 12.22624 19.78562 16.00593
#
# Velocity S-wave (km/s) = 2.56149 3.25853 2.93081
# Velocity P-wave (km/s) = 4.13881 5.66771 4.96250
#
# Compressibility (1/GPa) = 0.06402858
#
# Stress axis : x y z
#
# Youngs Moduli (GPa) = 76.07713 17.61519 36.89607
#
# Poissons Ratio (x) = -0.00986 0.21137
# Poissons Ratio (y) = -0.04260 0.41786
# Poissons Ratio (z) = 0.43583 0.19950
#
# Static dielectric constant tensor:
#      x y z
#    x 1.700630 0.000000 -0.043800 
#    y 0.000000 1.660110 0.000000 
#    z -0.043800 0.000000 1.647810 
# 
# From -- ./inp_files/291624.got.cif
#   From: 2010.05.17/outbox.cif.g08.bks.cpg/sg12_146_cif.got.tgz:291624.got - 2010.06.03 13:09:07.
