data_PCOD9178480
_publ_section_title
;
Structure prediction by ZEFSAII (Michael W. Deem and Ramdas Pophale) SiO2 
 PCOD9178480
Probable space group: C 2/M
;
_chemical_formula_sum "Si O2"
_cell_formula_units_Z 64
_cell_length_a 13.856862
_cell_length_b 31.494092
_cell_length_c 7.743047
_cell_angle_alpha 90.000000
_cell_angle_beta 57.358839
_cell_angle_gamma 90.000000
_cell_volume 2845.453956
_symmetry_space_group_name_H-M "C 2/M"
_symmetry_group_IT_number 12
_symmetry_cell_setting 'monoclinic'
loop_
_space_group_symop_operation_xyz
x,y,z
-x,y,-z
-x,-y,-z
x,-y,z
1/2+x,1/2+y,z
1/2-x,1/2+y,-z
1/2-x,1/2-y,-z
1/2+x,1/2-y,z
loop_
_atom_site_type_symbol
_atom_site_label
_atom_site_fract_x
_atom_site_fract_y
_atom_site_fract_z
Si Si1 0.404832 0.347058 0.446104
Si Si2 0.824056 0.638343 0.476087
Si Si3 0.706029 0.954939 0.478267
Si Si4 0.262575 0.642626 0.048361
Si Si5 0.955065 0.215584 0.848893
Si Si6 0.037985 0.689255 0.162289
Si Si7 0.195164 0.954133 0.003272
Si Si8 0.957000 0.936124 0.342665
O O1 0.500000 0.353370 0.500000
O O2 0.268675 0.351657 0.585048
O O3 0.432722 0.300201 0.359297
O O4 0.439971 0.387488 0.295512
O O5 0.859117 0.588898 0.421685
O O6 0.758605 0.641651 0.723386
O O7 0.929440 0.670360 0.369186
O O8 0.743331 0.954409 0.241293
O O9 0.828873 0.953658 0.455948
O O10 0.647314 0.000000 0.572080
O O11 0.144124 0.658596 0.085359
O O12 0.285905 0.594872 0.953113
O O13 0.358931 0.678867 0.920001
O O14 0.924281 0.263000 0.823836
O O15 0.000000 0.215964 0.000000
O O16 0.000000 0.690180 0.000000
O O17 0.229242 0.000000 0.055288
O O18 0.057233 0.955377 0.131922
O O19 0.000000 0.940199 0.500000
#
# Coordination Sequence:
#
# PCOD9178480 Si02
#       8
#     8   8   8   8   8   8   8   8
#     4  10  21  35  60  91 124 158 198 249 302 364
#     4  10  22  41  63  88 122 165 202 248 310 364
#     4   9  19  34  56  85 114 154 205 252 297 355
#     4  11  22  42  68  86 125 162 206 251 306 366
#     4  11  22  42  64  94 119 156 204 255 309 362
#     4  11  27  43  61  90 121 162 209 258 303 361
#     4  10  20  34  58  88 118 156 203 250 297 357
#     4  10  19  30  48  83 126 160 191 237 304 365
#
# _framework density 22.492017000000001
#
# number of rings (size 3 to 8) (size 9 to 14) (size 15 to 20)
#    0.000    1.750    2.500    1.500    1.750    4.500 
#    0.000    0.625    0.000    3.750    0.000    0.000 
#    0.000    0.000    0.000    0.000    0.000    0.000 
#
# Total GULP energy -178273.301914 kJ/mol
# GULP energy per Si atom -5571.040685 kJ/mol
# Density = 2.244082 g / cm^3
# Si number density = 22.492017 Si / 1000 Ang^3
#
#
#
# Elastic Constant Matrix: (Units=GPa)
#
#
# Indices 1 2 3 4 5 6 
#
# 1 68.8648 49.1846 3.3228 0.0000 -8.9478 0.0000
# 2 49.1846 191.9053 33.0827 0.0000 -21.0829 0.0000
# 3 3.3228 33.0827 41.2670 0.0000 -12.7641 0.0000
# 4 0.0000 0.0000 0.0000 -18.1336 0.0000 1.2207
# 5 -8.9478 -21.0829 -12.7641 0.0000 20.3562 0.0000
# 6 0.0000 0.0000 0.0000 1.2207 0.0000 18.5955
#
#
#
# Elastic Compliance Matrix: (Units=1/GPa)
#
#
# Indices 1 2 3 4 5 6 
#
# 1 0.018518 -0.004832 0.004159 0.000000 0.005743 0.000000
# 2 -0.004832 0.007582 -0.004860 0.000000 0.002681 0.000000
# 3 0.004159 -0.004860 0.033251 0.000000 0.017645 0.000000
# 4 0.000000 0.000000 0.000000 -0.054904 0.000000 0.003604
# 5 0.005743 0.002681 0.017645 0.000000 0.065490 0.000000
# 6 0.000000 0.000000 0.000000 0.003604 0.000000 0.053540
#
#
# Mechanical properties :
#
#
# Convention : Reuss Voigt Hill
#
# Bulk Modulus (GPa) = 20.71029 52.57970 36.64499
# Shear Modulus (GPa) = 33.19229 18.59343 25.89286
#
# Velocity S-wave (km/s) = 3.84570 2.87830 3.39662
# Velocity P-wave (km/s) = 5.38024 5.87145 5.63121
#
# Compressibility (1/GPa) = 0.04828518
#
# Stress axis : x y z
#
# Youngs Moduli (GPa) = 54.00172 131.89710 30.07431
#
# Poissons Ratio (x) = 0.63734 -0.12508
# Poissons Ratio (y) = 0.26094 0.14615
# Poissons Ratio (z) = -0.22460 0.64098
#
# Static dielectric constant tensor:
#      x y z
#    x 1.825670 0.000000 0.059150 
#    y 0.000000 1.904500 0.000000 
#    z 0.059150 0.000000 1.877030 
# 
# From -- ./inp_files/68576.got.cif
#   From: 2010.05.17/outbox.cif.g08.bks.cpg/sg12_35_cif.got.tgz:68576.got - 2010.06.03 13:09:07.
