data_PCOD9178773
_publ_section_title
;
Structure prediction by ZEFSAII (Michael W. Deem and Ramdas Pophale) SiO2 
 PCOD9178773
Probable space group: C 2/M
;
_chemical_formula_sum "Si O2"
_cell_formula_units_Z 64
_cell_length_a 13.203101
_cell_length_b 16.566053
_cell_length_c 18.093262
_cell_angle_alpha 90.000000
_cell_angle_beta 135.332984
_cell_angle_gamma 90.000000
_cell_volume 2782.006661
_symmetry_space_group_name_H-M "C 2/M"
_symmetry_group_IT_number 12
_symmetry_cell_setting 'monoclinic'
loop_
_space_group_symop_operation_xyz
x,y,z
-x,y,-z
-x,-y,-z
x,-y,z
1/2+x,1/2+y,z
1/2-x,1/2+y,-z
1/2-x,1/2-y,-z
1/2+x,1/2-y,z
loop_
_atom_site_type_symbol
_atom_site_label
_atom_site_fract_x
_atom_site_fract_y
_atom_site_fract_z
Si Si1 0.213508 0.613320 0.134673
Si Si2 0.276500 0.290131 0.893696
Si Si3 0.063445 0.277510 0.326706
Si Si4 0.992126 0.407835 0.408566
Si Si5 0.721079 0.083769 0.970870
Si Si6 0.397308 0.912967 0.759971
Si Si7 0.654414 0.411153 0.192176
Si Si8 0.449498 0.405919 0.697938
O O1 0.165136 0.703258 0.092082
O O2 0.383042 0.597585 0.236104
O O3 0.141769 0.589480 0.174080
O O4 0.188387 0.579003 0.040143
O O5 0.105542 0.276501 0.785975
O O6 0.292987 0.333689 0.981238
O O7 0.355040 0.347219 0.876457
O O8 0.064703 0.336409 0.398927
O O9 0.144498 0.331572 0.305878
O O10 0.109673 0.183016 0.360025
O O11 0.045482 0.500000 0.420472
O O12 0.823018 0.407783 0.302253
O O13 0.000000 0.394087 0.500000
O O14 0.570816 0.083759 0.848455
O O15 0.798472 0.000000 0.991356
O O16 0.343863 0.000000 0.701971
O O17 0.626002 0.500000 0.148840
O O18 0.566439 0.398650 0.221662
O O19 0.397419 0.500000 0.653508
#
# Coordination Sequence:
#
# PCOD9178773 Si02
#       8
#     8   8   8   8   8   8   8   8
#     4  11  20  31  46  67  96 129 167 205 241 283
#     4   9  18  31  48  68  92 125 163 204 248 290
#     4   9  18  32  51  76 101 125 158 197 238 287
#     4   9  17  32  57  85 105 119 144 192 248 291
#     4  10  19  31  46  65  91 123 163 212 257 287
#     4  10  19  31  49  71  96 127 160 200 251 296
#     4   9  17  32  52  72  96 126 159 194 237 289
#     4  10  20  33  49  68  95 134 172 199 227 275
#
# _framework density 23.004977
#
# number of rings (size 3 to 8) (size 9 to 14) (size 15 to 20)
#    0.000    2.375    0.000    3.375    0.000    4.000 
#    0.000    2.500    0.000    2.625    0.000    0.000 
#    0.000    0.000    0.000    0.000    0.000    0.000 
#
# Total GULP energy -178298.184765 kJ/mol
# GULP energy per Si atom -5571.818274 kJ/mol
# Density = 2.295262 g / cm^3
# Si number density = 23.004977 Si / 1000 Ang^3
#
#
#
# Elastic Constant Matrix: (Units=GPa)
#
#
# Indices 1 2 3 4 5 6 
#
# 1 71.2383 37.0836 18.2374 0.0000 -11.2610 0.0000
# 2 37.0836 239.9759 46.6224 0.0000 -32.9253 0.0000
# 3 18.2374 46.6224 51.1188 0.0000 -13.9930 0.0000
# 4 0.0000 0.0000 0.0000 13.9399 0.0000 -12.7780
# 5 -11.2610 -32.9253 -13.9930 0.0000 34.0878 0.0000
# 6 0.0000 0.0000 0.0000 -12.7780 0.0000 23.7565
#
#
#
# Elastic Compliance Matrix: (Units=1/GPa)
#
#
# Indices 1 2 3 4 5 6 
#
# 1 0.016131 -0.001426 -0.003799 0.000000 0.002391 0.000000
# 2 -0.001426 0.005560 -0.003629 0.000000 0.003410 0.000000
# 3 -0.003799 -0.003629 0.025827 0.000000 0.005841 0.000000
# 4 0.000000 0.000000 0.000000 0.141503 0.000000 0.076111
# 5 0.002391 0.003410 0.005841 0.000000 0.035817 0.000000
# 6 0.000000 0.000000 0.000000 0.076111 0.000000 0.083032
#
#
# Mechanical properties :
#
#
# Convention : Reuss Voigt Hill
#
# Bulk Modulus (GPa) = 33.54791 62.91333 48.23062
# Shear Modulus (GPa) = 14.90243 31.71614 23.30928
#
# Velocity S-wave (km/s) = 2.54794 3.71706 3.18658
# Velocity P-wave (km/s) = 4.82395 6.76972 5.87791
#
# Compressibility (1/GPa) = 0.02980811
#
# Stress axis : x y z
#
# Youngs Moduli (GPa) = 61.99404 179.84330 38.71985
#
# Poissons Ratio (x) = 0.25654 0.14711
# Poissons Ratio (y) = 0.08843 0.14051
# Poissons Ratio (z) = 0.23553 0.65265
#
# Static dielectric constant tensor:
#      x y z
#    x 1.859330 0.000000 0.013930 
#    y 0.000000 2.092510 0.000000 
#    z 0.013930 0.000000 1.868490 
# 
# From -- ./inp_files/270343.got.cif
#   From: 2010.05.17/outbox.cif.g08.bks.cpg/sg12_136_cif.got.tgz:270343.got - 2010.06.03 13:09:07.
