data_PCOD9178260
_publ_section_title
;
Structure prediction by ZEFSAII (Michael W. Deem and Ramdas Pophale) SiO2 
 PCOD9178260
Probable space group: C 2/M
;
_chemical_formula_sum "Si O2"
_cell_formula_units_Z 56
_cell_length_a 16.228667
_cell_length_b 13.036732
_cell_length_c 19.820840
_cell_angle_alpha 90.000000
_cell_angle_beta 137.970647
_cell_angle_gamma 90.000000
_cell_volume 2807.575944
_symmetry_space_group_name_H-M "C 2/M"
_symmetry_group_IT_number 12
_symmetry_cell_setting 'monoclinic'
loop_
_space_group_symop_operation_xyz
x,y,z
-x,y,-z
-x,-y,-z
x,-y,z
1/2+x,1/2+y,z
1/2-x,1/2+y,-z
1/2-x,1/2-y,-z
1/2+x,1/2-y,z
loop_
_atom_site_type_symbol
_atom_site_label
_atom_site_fract_x
_atom_site_fract_y
_atom_site_fract_z
Si Si1 0.664110 0.167490 0.356443
Si Si2 0.363529 0.682849 0.911261
Si Si3 0.823917 0.111805 0.580862
Si Si4 0.090913 0.613805 0.970653
Si Si5 0.689303 0.841523 0.219300
Si Si6 0.378290 0.171545 0.163337
Si Si7 0.101733 0.888344 0.759904
O O1 0.735156 0.120416 0.462757
O O2 0.688366 0.289656 0.379201
O O3 0.712014 0.139596 0.311570
O O4 0.517771 0.141212 0.269719
O O5 0.333412 0.722716 0.817489
O O6 0.240195 0.632554 0.866719
O O7 0.500000 0.634023 0.000000
O O8 0.377973 0.789273 0.963589
O O9 0.966433 0.119927 0.645297
O O10 0.806273 0.000000 0.602387
O O11 0.132342 0.500000 0.017232
O O12 0.136311 0.639793 0.922988
O O13 0.943210 0.610204 0.876685
O O14 0.798188 0.879607 0.238069
O O15 0.381842 0.294767 0.178252
O O16 0.106609 0.000000 0.796008
#
# Coordination Sequence:
#
# PCOD9178260 Si02
#       7
#     8   8   8   8   8   8   8
#     4   9  18  32  49  72 100 128 159 197 237 283
#     4   9  18  31  48  69  94 123 157 200 245 283
#     4   9  18  32  50  73  99 128 161 195 235 283
#     4  10  19  30  47  72 101 131 162 194 232 282
#     4   9  18  30  47  72 101 128 154 190 240 286
#     4   9  18  32  48  69  97 130 163 193 232 284
#     4   9  17  30  49  74 102 128 156 194 240 285
#
# _framework density 19.946031000000001
#
# number of rings (size 3 to 8) (size 9 to 14) (size 15 to 20)
#    0.000    2.857    0.000    0.857    0.000    8.286 
#    0.000    1.429    0.000    3.857    0.000   20.000 
#    0.000    0.000    0.000    0.000    0.000    0.000 
#
# Total GULP energy -155950.750838 kJ/mol
# GULP energy per Si atom -5569.669673 kJ/mol
# Density = 1.990063 g / cm^3
# Si number density = 19.946031 Si / 1000 Ang^3
#
#
#
# Elastic Constant Matrix: (Units=GPa)
#
#
# Indices 1 2 3 4 5 6 
#
# 1 78.1564 11.7670 15.1504 0.0000 5.8383 0.0000
# 2 11.7670 61.4720 -0.4571 0.0000 4.1528 0.0000
# 3 15.1504 -0.4571 76.4352 0.0000 8.0996 0.0000
# 4 0.0000 0.0000 0.0000 4.0888 0.0000 0.6848
# 5 5.8383 4.1528 8.0996 0.0000 23.5933 0.0000
# 6 0.0000 0.0000 0.0000 0.6848 0.0000 -0.9766
#
#
#
# Elastic Compliance Matrix: (Units=1/GPa)
#
#
# Indices 1 2 3 4 5 6 
#
# 1 0.013823 -0.002522 -0.002532 0.000000 -0.002107 0.000000
# 2 -0.002522 0.016937 0.000883 0.000000 -0.002660 0.000000
# 3 -0.002532 0.000883 0.014051 0.000000 -0.004353 0.000000
# 4 0.000000 0.000000 0.000000 0.218867 0.000000 0.153475
# 5 -0.002107 -0.002660 -0.004353 0.000000 0.044869 0.000000
# 6 0.000000 0.000000 0.000000 0.153475 0.000000 -0.916372
#
#
# Mechanical properties :
#
#
# Convention : Reuss Voigt Hill
#
# Bulk Modulus (GPa) = 27.42053 29.88713 28.65383
# Shear Modulus (GPa) = -8.51313 17.98133 4.73410
#
# Velocity S-wave (km/s) = -2.06818 3.00575 1.54227
# Velocity P-wave (km/s) = 2.84149 5.20217 4.19146
#
# Compressibility (1/GPa) = 0.03646903
#
# Stress axis : x y z
#
# Youngs Moduli (GPa) = 72.34427 59.04342 71.16771
#
# Poissons Ratio (x) = 0.14893 0.18017
# Poissons Ratio (y) = 0.18248 -0.06285
# Poissons Ratio (z) = 0.18315 -0.05214
#
# Static dielectric constant tensor:
#      x y z
#    x 1.712230 0.000000 0.039840 
#    y 0.000000 1.769320 0.000000 
#    z 0.039840 0.000000 1.716480 
# 
# From -- ./inp_files/270384.got.cif
#   From: 2010.05.17/outbox.cif.g08.bks.cpg/sg12_136_cif.got.tgz:270384.got - 2010.06.03 13:09:07.
