data_PCOD9178731
_publ_section_title
;
Structure prediction by ZEFSAII (Michael W. Deem and Ramdas Pophale) SiO2 
 PCOD9178731
Probable space group: C 2/M
;
_chemical_formula_sum "Si O2"
_cell_formula_units_Z 56
_cell_length_a 25.239901
_cell_length_b 7.740814
_cell_length_c 10.692565
_cell_angle_alpha 90.000000
_cell_angle_beta 86.709943
_cell_angle_gamma 90.000000
_cell_volume 2085.642076
_symmetry_space_group_name_H-M "C 2/M"
_symmetry_group_IT_number 12
_symmetry_cell_setting 'monoclinic'
loop_
_space_group_symop_operation_xyz
x,y,z
-x,y,-z
-x,-y,-z
x,-y,z
1/2+x,1/2+y,z
1/2-x,1/2+y,-z
1/2-x,1/2-y,-z
1/2+x,1/2-y,z
loop_
_atom_site_type_symbol
_atom_site_label
_atom_site_fract_x
_atom_site_fract_y
_atom_site_fract_z
Si Si1 0.557840 0.693652 0.935966
Si Si2 0.184942 0.209076 0.760201
Si Si3 0.511384 0.795817 0.679929
Si Si4 0.713317 0.208564 0.382651
Si Si5 0.387808 0.794728 0.465476
Si Si6 0.189087 0.204228 0.031246
Si Si7 0.402131 0.195369 0.802928
O O1 0.580828 0.500000 0.913053
O O2 0.545200 0.778849 0.804454
O O3 0.500000 0.666786 0.000000
O O4 0.581336 0.789057 0.053556
O O5 0.244721 0.274367 0.726128
O O6 0.146261 0.267383 0.655908
O O7 0.165584 0.265877 0.899194
O O8 0.187467 0.000000 0.756123
O O9 0.552734 0.725413 0.569781
O O10 0.451921 0.723016 0.718708
O O11 0.504938 0.000000 0.655501
O O12 0.750000 0.250000 0.500000
O O13 0.653121 0.273047 0.422108
O O14 0.709395 0.000000 0.374035
O O15 0.393388 0.000000 0.483007
O O16 0.184498 0.000000 0.034780
O O17 0.250000 0.250000 0.000000
O O18 0.159627 0.261619 0.161867
O O19 0.401977 0.000000 0.761213
#
# Coordination Sequence:
#
# PCOD9178731 Si02
#       7
#     8   8   8   8   8   8   8
#     4   9  16  25  38  58  85 118 153 182 210 252
#     4   9  18  31  46  65  91 121 150 185 226 262
#     4   9  17  27  40  62  91 121 149 177 215 263
#     4   8  14  26  43  64  91 120 148 178 214 258
#     4   9  16  26  44  70  97 124 151 176 208 259
#     4  11  23  37  51  67  86 112 151 194 233 271
#     4  10  19  31  45  61  86 117 147 183 224 265
#
# _framework density 26.850245000000001
#
# number of rings (size 3 to 8) (size 9 to 14) (size 15 to 20)
#    0.000    2.714    0.000    2.143    0.000    6.286 
#    0.000    0.000    0.000    0.000    0.000    1.000 
#    0.000    8.000    0.000    0.000    0.000    0.000 
#
# Total GULP energy -156122.572891 kJ/mol
# GULP energy per Si atom -5575.806175 kJ/mol
# Density = 2.678913 g / cm^3
# Si number density = 26.850245 Si / 1000 Ang^3
#
#
#
# Elastic Constant Matrix: (Units=GPa)
#
#
# Indices 1 2 3 4 5 6 
#
# 1 180.1827 0.8240 78.2295 0.0000 -67.7916 0.0000
# 2 0.8240 43.4389 4.5446 0.0000 -4.3413 0.0000
# 3 78.2295 4.5446 220.3593 0.0000 -68.1285 0.0000
# 4 0.0000 0.0000 0.0000 6.7948 0.0000 -14.4996
# 5 -67.7916 -4.3413 -68.1285 0.0000 81.8112 0.0000
# 6 0.0000 0.0000 0.0000 -14.4996 0.0000 25.8721
#
#
#
# Elastic Compliance Matrix: (Units=1/GPa)
#
#
# Indices 1 2 3 4 5 6 
#
# 1 0.008270 0.000555 -0.001104 0.000000 0.005963 0.000000
# 2 0.000555 0.023184 -0.000205 0.000000 0.001519 0.000000
# 3 -0.001104 -0.000205 0.006260 0.000000 0.004287 0.000000
# 4 0.000000 0.000000 0.000000 -0.751209 0.000000 -0.421001
# 5 0.005963 0.001519 0.004287 0.000000 0.020815 0.000000
# 6 0.000000 0.000000 0.000000 -0.421001 0.000000 -0.197290
#
#
# Mechanical properties :
#
#
# Convention : Reuss Voigt Hill
#
# Bulk Modulus (GPa) = 27.62126 67.90858 47.76492
# Shear Modulus (GPa) = -5.70520 46.92116 20.60798
#
# Velocity S-wave (km/s) = -1.45926 4.18486 2.77341
# Velocity P-wave (km/s) = 2.73317 6.97834 5.29941
#
# Compressibility (1/GPa) = 0.03620399
#
# Stress axis : x y z
#
# Youngs Moduli (GPa) = 120.91594 43.13395 159.75477
#
# Poissons Ratio (x) = -0.02392 0.17633
# Poissons Ratio (y) = -0.06706 0.03283
# Poissons Ratio (z) = 0.13346 0.00886
#
# Static dielectric constant tensor:
#      x y z
#    x 2.455660 0.000000 0.042070 
#    y 0.000000 1.918580 0.000000 
#    z 0.042070 0.000000 2.166040 
# 
# From -- ./inp_files/242989.got.cif
#   From: 2010.05.17/outbox.cif.g08.bks.cpg/sg12_122_cif.got.tgz:242989.got - 2010.06.03 13:09:07.
