data_PCOD9178866
_publ_section_title
;
Structure prediction by ZEFSAII (Michael W. Deem and Ramdas Pophale) SiO2 
 PCOD9178866
Probable space group: C 2/M
;
_chemical_formula_sum "Si O2"
_cell_formula_units_Z 64
_cell_length_a 20.451394
_cell_length_b 9.120662
_cell_length_c 26.410223
_cell_angle_alpha 90.000000
_cell_angle_beta 128.956590
_cell_angle_gamma 90.000000
_cell_volume 3830.806245
_symmetry_space_group_name_H-M "C 2/M"
_symmetry_group_IT_number 12
_symmetry_cell_setting 'monoclinic'
loop_
_space_group_symop_operation_xyz
x,y,z
-x,y,-z
-x,-y,-z
x,-y,z
1/2+x,1/2+y,z
1/2-x,1/2+y,-z
1/2-x,1/2-y,-z
1/2+x,1/2-y,z
loop_
_atom_site_type_symbol
_atom_site_label
_atom_site_fract_x
_atom_site_fract_y
_atom_site_fract_z
Si Si1 0.481388 0.174773 0.834652
Si Si2 0.968254 0.171558 0.040694
Si Si3 0.644137 0.331142 0.296619
Si Si4 0.763283 0.831309 0.426717
Si Si5 0.121247 0.176966 0.830830
Si Si6 0.730996 0.673225 0.044265
Si Si7 0.499527 0.332167 0.685442
Si Si8 0.117848 0.332110 0.443032
O O1 0.490830 0.227232 0.896724
O O2 0.396261 0.235352 0.767594
O O3 0.557469 0.252586 0.840798
O O4 0.487241 0.000000 0.832361
O O5 0.987247 0.000000 0.061473
O O6 0.867685 0.188221 0.993395
O O7 0.000000 0.204139 0.000000
O O8 0.656522 0.500000 0.287624
O O9 0.726149 0.261369 0.362207
O O10 0.572905 0.330707 0.306294
O O11 0.844682 0.761937 0.492824
O O12 0.690244 0.828679 0.434542
O O13 0.776553 0.000000 0.419162
O O14 0.211186 0.246285 0.886325
O O15 0.082816 0.211838 0.756839
O O16 0.121119 0.000000 0.836611
O O17 0.751592 0.500000 0.051897
O O18 0.750000 0.750000 0.000000
O O19 0.507773 0.500000 0.672144
O O20 0.464993 0.232938 0.623611
O O21 0.106501 0.500000 0.452611
#
# Coordination Sequence:
#
# PCOD9178866 Si02
#       8
#     8   8   8   8   8   8   8   8
#     4  11  20  30  47  69  92 119 154 197 242 287
#     4  10  22  39  55  71  96 130 163 196 242 297
#     4   9  16  26  39  55  79 110 147 189 232 278
#     4   9  15  22  32  48  72 104 145 187 225 271
#     4  10  19  31  47  67  93 122 156 196 239 286
#     4  11  21  33  53  76  98 124 158 201 245 289
#     4   8  15  25  36  52  76 109 145 184 227 272
#     4   9  15  21  31  47  71 105 143 183 226 273
#
# _framework density 16.706666999999999
#
# number of rings (size 3 to 8) (size 9 to 14) (size 15 to 20)
#    0.000    2.375    1.250    3.750    0.000    7.250 
#    0.000    0.000    0.000    0.000    0.000    0.000 
#    0.000    0.000    0.000    1.125    0.000   22.250 
#
# Total GULP energy -178382.904091 kJ/mol
# GULP energy per Si atom -5574.465753 kJ/mol
# Density = 1.666864 g / cm^3
# Si number density = 16.706667 Si / 1000 Ang^3
#
#
#
# Elastic Constant Matrix: (Units=GPa)
#
#
# Indices 1 2 3 4 5 6 
#
# 1 26.3831 19.8366 15.2434 0.0000 -2.4231 0.0000
# 2 19.8366 123.9512 81.5661 0.0000 2.7038 0.0000
# 3 15.2434 81.5661 140.7705 0.0000 11.5435 0.0000
# 4 0.0000 0.0000 0.0000 37.4221 0.0000 2.7172
# 5 -2.4231 2.7038 11.5435 0.0000 6.9846 0.0000
# 6 0.0000 0.0000 0.0000 2.7172 0.0000 8.9346
#
#
#
# Elastic Compliance Matrix: (Units=1/GPa)
#
#
# Indices 1 2 3 4 5 6 
#
# 1 0.046503 -0.005388 -0.003942 0.000000 0.024733 0.000000
# 2 -0.005388 0.014127 -0.008098 0.000000 0.006046 0.000000
# 3 -0.003942 -0.008098 0.013971 0.000000 -0.021323 0.000000
# 4 0.000000 0.000000 0.000000 0.027326 0.000000 -0.008310
# 5 0.024733 0.006046 -0.021323 0.000000 0.184652 0.000000
# 6 0.000000 0.000000 0.000000 -0.008310 0.000000 0.114452
#
#
# Mechanical properties :
#
#
# Convention : Reuss Voigt Hill
#
# Bulk Modulus (GPa) = 25.15969 58.26632 41.71300
# Shear Modulus (GPa) = 11.13255 22.29885 16.71570
#
# Velocity S-wave (km/s) = 2.58418 3.65736 3.16656
# Velocity P-wave (km/s) = 4.89861 7.26545 6.19609
#
# Compressibility (1/GPa) = 0.03974612
#
# Stress axis : x y z
#
# Youngs Moduli (GPa) = 21.50402 70.78764 71.57564
#
# Poissons Ratio (x) = 0.38137 0.28216
# Poissons Ratio (y) = 0.11585 0.57960
# Poissons Ratio (z) = 0.08477 0.57322
#
# Static dielectric constant tensor:
#      x y z
#    x 1.531970 0.000000 0.009740 
#    y 0.000000 1.563360 0.000000 
#    z 0.009740 0.000000 1.580510 
# 
# From -- ./inp_files/365229.got.cif
#   From: 2010.05.17/outbox.cif.g08.bks.cpg/sg12_183_cif.got.tgz:365229.got - 2010.06.03 13:09:07.
