data_PCOD9178963
_publ_section_title
;
Structure prediction by ZEFSAII (Michael W. Deem and Ramdas Pophale) SiO2 
 PCOD9178963
Probable space group: C 2/M
;
_chemical_formula_sum "Si O2"
_cell_formula_units_Z 64
_cell_length_a 31.830069
_cell_length_b 7.534757
_cell_length_c 16.070914
_cell_angle_alpha 90.000000
_cell_angle_beta 122.714248
_cell_angle_gamma 90.000000
_cell_volume 3242.931238
_symmetry_space_group_name_H-M "C 2/M"
_symmetry_group_IT_number 12
_symmetry_cell_setting 'monoclinic'
loop_
_space_group_symop_operation_xyz
x,y,z
-x,y,-z
-x,-y,-z
x,-y,z
1/2+x,1/2+y,z
1/2-x,1/2+y,-z
1/2-x,1/2-y,-z
1/2+x,1/2-y,z
loop_
_atom_site_type_symbol
_atom_site_label
_atom_site_fract_x
_atom_site_fract_y
_atom_site_fract_z
Si Si1 0.929205 0.714854 0.588790
Si Si2 0.310519 0.784145 0.166412
Si Si3 0.707313 0.717886 0.136686
Si Si4 0.326852 0.784992 0.557422
Si Si5 0.263867 0.708579 0.650401
Si Si6 0.371826 0.704737 0.070883
Si Si7 0.100158 0.294769 0.623929
Si Si8 0.457834 0.291966 0.277547
O O1 0.930017 0.500000 0.588796
O O2 0.882646 0.772157 0.595329
O O3 0.918413 0.780817 0.483124
O O4 0.983902 0.771077 0.675792
O O5 0.254991 0.731902 0.131794
O O6 0.331106 0.712436 0.101633
O O7 0.349656 0.722637 0.279479
O O8 0.312954 0.000000 0.164762
O O9 0.705564 0.500000 0.134797
O O10 0.718170 0.779925 0.241934
O O11 0.656316 0.781793 0.039176
O O12 0.305389 0.728385 0.623343
O O13 0.287351 0.720229 0.445114
O O14 0.325707 0.000000 0.554900
O O15 0.254565 0.500000 0.654535
O O16 0.383438 0.500000 0.063294
O O17 0.421563 0.782846 0.166648
O O18 0.111903 0.500000 0.618514
O O19 0.058222 0.287562 0.650729
O O20 0.445964 0.500000 0.272452
#
# Coordination Sequence:
#
# PCOD9178963 Si02
#       8
#     8   8   8   8   8   8   8   8
#     4  10  19  31  48  66  87 119 154 184 218 264
#     4   9  16  27  45  68  92 118 150 184 216 259
#     4   9  16  28  48  69  89 118 153 183 215 262
#     4   9  18  32  49  71  96 116 139 179 227 268
#     4   9  17  31  51  72  93 117 144 175 218 273
#     4   9  18  31  44  62  92 124 151 184 223 257
#     4   9  17  29  45  66  91 119 151 183 217 262
#     4  10  20  31  43  63  92 122 152 188 224 255
#
# _framework density 19.735230999999999
#
# number of rings (size 3 to 8) (size 9 to 14) (size 15 to 20)
#    0.000    2.750    0.000    1.875    0.000    6.000 
#    0.000    1.250    0.000    6.750    0.000    5.250 
#    0.000    0.000    0.000    0.000    0.000    0.000 
#
# Total GULP energy -178512.207736 kJ/mol
# GULP energy per Si atom -5578.506492 kJ/mol
# Density = 1.969031 g / cm^3
# Si number density = 19.735231 Si / 1000 Ang^3
#
#
#
# Elastic Constant Matrix: (Units=GPa)
#
#
# Indices 1 2 3 4 5 6 
#
# 1 63.4467 -18.1260 36.2756 0.0000 28.0938 0.0000
# 2 -18.1260 48.4443 -8.6211 0.0000 1.6200 0.0000
# 3 36.2756 -8.6211 111.8609 0.0000 14.5493 0.0000
# 4 0.0000 0.0000 0.0000 4.1307 0.0000 -5.9890
# 5 28.0938 1.6200 14.5493 0.0000 17.9342 0.0000
# 6 0.0000 0.0000 0.0000 -5.9890 0.0000 13.3143
#
#
#
# Elastic Compliance Matrix: (Units=1/GPa)
#
#
# Indices 1 2 3 4 5 6 
#
# 1 0.102802 0.041990 -0.009685 0.000000 -0.156974 0.000000
# 2 0.041990 0.038288 -0.001857 0.000000 -0.067729 0.000000
# 3 -0.009685 -0.001857 0.011115 0.000000 0.006322 0.000000
# 4 0.000000 0.000000 0.000000 0.695998 0.000000 0.313070
# 5 -0.156974 -0.067729 0.006322 0.000000 0.302648 0.000000
# 6 0.000000 0.000000 0.000000 0.313070 0.000000 0.215930
#
#
# Mechanical properties :
#
#
# Convention : Reuss Voigt Hill
#
# Bulk Modulus (GPa) = 4.69258 26.97876 15.83567
# Shear Modulus (GPa) = 3.63130 21.35740 12.49435
#
# Velocity S-wave (km/s) = 1.35794 3.29324 2.51887
# Velocity P-wave (km/s) = 2.20036 5.30666 4.06216
#
# Compressibility (1/GPa) = 0.21310238
#
# Stress axis : x y z
#
# Youngs Moduli (GPa) = 9.72744 26.11790 89.96857
#
# Poissons Ratio (x) = -1.09670 0.87131
# Poissons Ratio (y) = -0.40846 0.16707
# Poissons Ratio (z) = 0.09421 0.04850
#
# Static dielectric constant tensor:
#      x y z
#    x 1.654170 0.000000 0.019190 
#    y 0.000000 1.754300 0.000000 
#    z 0.019190 0.000000 1.723330 
# 
# From -- ./inp_files/249171.got.cif
#   From: 2010.05.17/outbox.cif.g08.bks.cpg/sg12_125_cif.got.tgz:249171.got - 2010.06.03 13:09:07.
