data_PCOD9178291
_publ_section_title
;
Structure prediction by ZEFSAII (Michael W. Deem and Ramdas Pophale) SiO2 
 PCOD9178291
Probable space group: C 2/M
;
_chemical_formula_sum "Si O2"
_cell_formula_units_Z 60
_cell_length_a 28.110576
_cell_length_b 12.993258
_cell_length_c 24.346768
_cell_angle_alpha 90.000000
_cell_angle_beta 156.822002
_cell_angle_gamma 90.000000
_cell_volume 3500.031835
_symmetry_space_group_name_H-M "C 2/M"
_symmetry_group_IT_number 12
_symmetry_cell_setting 'monoclinic'
loop_
_space_group_symop_operation_xyz
x,y,z
-x,y,-z
-x,-y,-z
x,-y,z
1/2+x,1/2+y,z
1/2-x,1/2+y,-z
1/2-x,1/2-y,-z
1/2+x,1/2-y,z
loop_
_atom_site_type_symbol
_atom_site_label
_atom_site_fract_x
_atom_site_fract_y
_atom_site_fract_z
Si Si1 0.827576 0.265279 0.909888
Si Si2 0.950080 0.247964 0.216124
Si Si3 0.681471 0.618415 0.261492
Si Si4 0.756555 0.622000 0.942700
Si Si5 0.439173 0.120109 0.575693
Si Si6 0.000000 0.258558 0.000000
Si Si7 0.386507 0.118293 0.338929
Si Si8 0.500213 0.619081 0.835595
O O1 0.780330 0.345364 0.904918
O O2 0.717240 0.202778 0.765330
O O3 0.920232 0.311401 0.963120
O O4 0.900981 0.179048 0.022773
O O5 0.862979 0.177775 0.161247
O O6 0.042508 0.308150 0.352756
O O7 0.007735 0.176819 0.230513
O O8 0.865088 0.330753 0.094620
O O9 0.674576 0.500000 0.235234
O O10 0.820854 0.648708 0.414908
O O11 0.597951 0.687754 0.134899
O O12 0.622430 0.622774 0.259447
O O13 0.749503 0.500000 0.941370
O O14 0.557043 0.127132 0.662183
O O15 0.423799 0.000000 0.574682
O O16 0.500000 0.132111 0.500000
O O17 0.342681 0.000000 0.299983
O O18 0.535467 0.500000 0.865913
#
# Coordination Sequence:
#
# PCOD9178291 Si02
#       8
#     8   8   8   8   8   4   8   8
#     4  10  19  33  50  75 100 130 167 206 253 299
#     4  10  19  32  51  76 100 133 170 204 253 293
#     4   9  18  31  48  74 106 136 165 201 249 299
#     4  10  20  34  52  74 101 132 170 210 251 300
#     4  10  19  31  47  72 105 136 164 200 249 300
#     4  10  19  32  53  74  98 132 170 206 246 300
#     4  10  19  30  47  73 102 131 163 205 254 301
#     4   9  18  31  49  74 104 134 167 204 244 295
#
# _framework density 17.142700999999999
#
# number of rings (size 3 to 8) (size 9 to 14) (size 15 to 20)
#    0.000    2.267    1.333    2.200    0.000    3.200 
#    0.000    0.333    0.000    0.400    0.000    3.733 
#    0.000    0.000    0.000    0.000    0.000    0.000 
#
# Total GULP energy -167304.011090 kJ/mol
# GULP energy per Si atom -5576.800370 kJ/mol
# Density = 1.710368 g / cm^3
# Si number density = 17.142701 Si / 1000 Ang^3
#
#
#
# Elastic Constant Matrix: (Units=GPa)
#
#
# Indices 1 2 3 4 5 6 
#
# 1 104.1037 28.5935 15.4990 0.0000 2.8851 0.0000
# 2 28.5935 68.7556 15.8317 0.0000 -2.0496 0.0001
# 3 15.4990 15.8317 43.9618 -0.0002 6.9728 0.0000
# 4 0.0000 0.0000 -0.0002 14.4577 0.0000 3.5635
# 5 2.8851 -2.0496 6.9728 0.0000 21.0331 0.0001
# 6 0.0000 0.0001 0.0000 3.5635 0.0001 13.1862
#
#
#
# Elastic Compliance Matrix: (Units=1/GPa)
#
#
# Indices 1 2 3 4 5 6 
#
# 1 0.011109 -0.004140 -0.002238 0.000000 -0.001185 0.000000
# 2 -0.004140 0.017669 -0.005559 0.000000 0.004133 0.000000
# 3 -0.002238 -0.005559 0.026994 0.000000 -0.009184 0.000000
# 4 0.000000 0.000000 0.000000 0.074103 0.000000 -0.020026
# 5 -0.001185 0.004133 -0.009184 0.000000 0.051154 0.000000
# 6 0.000000 0.000000 0.000000 -0.020026 0.000000 0.081249
#
#
# Mechanical properties :
#
#
# Convention : Reuss Voigt Hill
#
# Bulk Modulus (GPa) = 31.34850 37.40771 34.37810
# Shear Modulus (GPa) = 16.84722 20.19520 18.52121
#
# Velocity S-wave (km/s) = 3.13831 3.43602 3.29053
# Velocity P-wave (km/s) = 5.60878 6.13273 5.87660
#
# Compressibility (1/GPa) = 0.03189946
#
# Stress axis : x y z
#
# Youngs Moduli (GPa) = 90.01800 56.59569 37.04464
#
# Poissons Ratio (x) = 0.23431 0.08289
# Poissons Ratio (y) = 0.37267 0.20593
# Poissons Ratio (z) = 0.20142 0.31462
#
# Static dielectric constant tensor:
#      x y z
#    x 1.628240 0.000000 0.014530 
#    y 0.000000 1.541050 0.000000 
#    z 0.014530 0.000000 1.570320 
# 
# From -- ./inp_files/370911.got.cif
#   From: 2010.05.17/outbox.cif.g08.bks.cpg/sg12_186_cif.got.tgz:370911.got - 2010.06.03 13:09:07.
