data_PCOD9178846
_publ_section_title
;
Structure prediction by ZEFSAII (Michael W. Deem and Ramdas Pophale) SiO2 
 PCOD9178846
Probable space group: C 2/M
;
_chemical_formula_sum "Si O2"
_cell_formula_units_Z 64
_cell_length_a 15.825312
_cell_length_b 7.592566
_cell_length_c 19.569324
_cell_angle_alpha 90.000000
_cell_angle_beta 99.775469
_cell_angle_gamma 90.000000
_cell_volume 2317.206810
_symmetry_space_group_name_H-M "C 2/M"
_symmetry_group_IT_number 12
_symmetry_cell_setting 'monoclinic'
loop_
_space_group_symop_operation_xyz
x,y,z
-x,y,-z
-x,-y,-z
x,-y,z
1/2+x,1/2+y,z
1/2-x,1/2+y,-z
1/2-x,1/2-y,-z
1/2+x,1/2-y,z
loop_
_atom_site_type_symbol
_atom_site_label
_atom_site_fract_x
_atom_site_fract_y
_atom_site_fract_z
Si Si1 0.812215 0.793610 0.663645
Si Si2 0.495275 0.209859 0.837927
Si Si3 0.429699 0.215297 0.289281
Si Si4 0.542506 0.203418 0.420678
Si Si5 0.245448 0.295746 0.200826
Si Si6 0.408540 0.289646 0.957984
Si Si7 0.174713 0.710988 0.544014
Si Si8 0.818428 0.207026 0.074038
O O1 0.884314 0.701779 0.628417
O O2 0.811917 0.772596 0.744792
O O3 0.720158 0.731648 0.620256
O O4 0.820247 0.000000 0.649124
O O5 0.501619 0.267483 0.760183
O O6 0.417657 0.254721 0.878593
O O7 0.583378 0.279847 0.883652
O O8 0.500545 0.000000 0.837948
O O9 0.462364 0.279215 0.367519
O O10 0.340380 0.281442 0.247508
O O11 0.423925 0.000000 0.291573
O O12 0.589085 0.279637 0.494341
O O13 0.521975 0.000000 0.431729
O O14 0.223573 0.500000 0.188275
O O15 0.261262 0.211583 0.127623
O O16 0.407903 0.500000 0.965934
O O17 0.500000 0.220910 0.000000
O O18 0.334020 0.220719 0.998833
O O19 0.163553 0.500000 0.547328
O O20 0.250000 0.750000 0.500000
O O21 0.800650 0.000000 0.068595
#
# Coordination Sequence:
#
# PCOD9178846 Si02
#       8
#     8   8   8   8   8   8   8   8
#     4  10  19  31  48  71  95 116 145 188 231 267
#     4   9  15  22  35  58  85 111 140 176 219 260
#     4   9  18  31  46  66  94 123 150 185 225 264
#     4   9  17  32  52  70  89 118 154 185 219 267
#     4  10  19  31  47  66  91 124 156 184 221 270
#     4   8  13  22  35  52  77 109 143 178 214 254
#     4   8  15  28  47  68  88 113 146 184 223 263
#     4   8  15  26  38  54  79 112 148 181 213 254
#
# _framework density 27.619458999999999
#
# number of rings (size 3 to 8) (size 9 to 14) (size 15 to 20)
#    0.000    3.125    0.000    1.875    0.000    4.250 
#    0.000    0.625    0.000    3.750    0.000    0.875 
#    0.000    0.000    0.000    0.000    0.000    0.000 
#
# Total GULP energy -178886.271247 kJ/mol
# GULP energy per Si atom -5590.195976 kJ/mol
# Density = 2.755660 g / cm^3
# Si number density = 27.619459 Si / 1000 Ang^3
#
#
#
# Elastic Constant Matrix: (Units=GPa)
#
#
# Indices 1 2 3 4 5 6 
#
# 1 128.1945 14.4155 23.7751 0.0000 -27.6770 0.0000
# 2 14.4155 76.2338 3.7317 0.0000 -14.6299 0.0000
# 3 23.7751 3.7317 227.7200 0.0000 -15.2713 0.0000
# 4 0.0000 0.0000 0.0000 1575.2225 0.0000 641.6830
# 5 -27.6770 -14.6299 -15.2713 0.0000 58.0279 0.0000
# 6 0.0000 0.0000 0.0000 641.6830 0.0000 275.3624
#
#
#
# Elastic Compliance Matrix: (Units=1/GPa)
#
#
# Indices 1 2 3 4 5 6 
#
# 1 0.008848 -0.000908 -0.000653 0.000000 0.003820 0.000000
# 2 -0.000908 0.013878 0.000074 0.000000 0.003085 0.000000
# 3 -0.000653 0.000074 0.004518 0.000000 0.000896 0.000000
# 4 0.000000 0.000000 0.000000 0.012516 0.000000 -0.029167
# 5 0.003820 0.003085 0.000896 0.000000 0.020069 0.000000
# 6 0.000000 0.000000 0.000000 -0.029167 0.000000 0.071601
#
#
# Mechanical properties :
#
#
# Convention : Reuss Voigt Hill
#
# Bulk Modulus (GPa) = 41.20117 57.33255 49.26686
# Shear Modulus (GPa) = 35.08906 407.73762 221.41334
#
# Velocity S-wave (km/s) = 3.56820 12.16336 8.96324
# Velocity P-wave (km/s) = 5.65030 14.76707 11.18017
#
# Compressibility (1/GPa) = 0.02427116
#
# Stress axis : x y z
#
# Youngs Moduli (GPa) = 113.01360 72.05790 221.31650
#
# Poissons Ratio (x) = 0.06545 0.14447
# Poissons Ratio (y) = 0.10264 -0.01644
# Poissons Ratio (z) = 0.07377 -0.00535
#
# Static dielectric constant tensor:
#      x y z
#    x 2.282810 0.000000 0.025060 
#    y 0.000000 2.072660 0.000000 
#    z 0.025060 0.000000 2.217220 
# 
# From -- ./inp_files/319205.got.cif
#   From: 2010.05.17/outbox.cif.g08.bks.cpg/sg12_160_cif.got.tgz:319205.got - 2010.06.03 13:09:07.
