data_PCOD9178282
_publ_section_title
;
Structure prediction by ZEFSAII (Michael W. Deem and Ramdas Pophale) SiO2 
 PCOD9178282
Probable space group: C 2/M
;
_chemical_formula_sum "Si O2"
_cell_formula_units_Z 64
_cell_length_a 14.490852
_cell_length_b 9.606738
_cell_length_c 24.599288
_cell_angle_alpha 90.000000
_cell_angle_beta 120.454833
_cell_angle_gamma 90.000000
_cell_volume 2951.985886
_symmetry_space_group_name_H-M "C 2/M"
_symmetry_group_IT_number 12
_symmetry_cell_setting 'monoclinic'
loop_
_space_group_symop_operation_xyz
x,y,z
-x,y,-z
-x,-y,-z
x,-y,z
1/2+x,1/2+y,z
1/2-x,1/2+y,-z
1/2-x,1/2-y,-z
1/2+x,1/2-y,z
loop_
_atom_site_type_symbol
_atom_site_label
_atom_site_fract_x
_atom_site_fract_y
_atom_site_fract_z
Si Si1 0.039677 0.157140 0.570445
Si Si2 0.832474 0.838965 0.923265
Si Si3 0.595186 0.841782 0.320181
Si Si4 0.813136 0.158244 0.563112
Si Si5 0.871334 0.656161 0.315929
Si Si6 0.431623 0.660259 0.063577
Si Si7 0.484189 0.156659 0.819958
Si Si8 0.746611 0.156611 0.192603
O O1 0.933052 0.146095 0.574967
O O2 0.000000 0.207110 0.500000
O O3 0.116939 0.262150 0.624253
O O4 0.084335 0.000000 0.577469
O O5 0.759804 0.737856 0.866033
O O6 0.949694 0.838958 0.928860
O O7 0.796315 0.000000 0.911699
O O8 0.853189 0.793809 0.991486
O O9 0.674488 0.742209 0.376886
O O10 0.490195 0.855048 0.326302
O O11 0.552171 0.785763 0.249525
O O12 0.637665 0.000000 0.323917
O O13 0.750000 0.250000 0.500000
O O14 0.770675 0.000000 0.555943
O O15 0.827125 0.500000 0.307886
O O16 0.807381 0.750282 0.254540
O O17 0.407458 0.500000 0.069951
O O18 0.438560 0.754072 0.118944
O O19 0.374256 0.146009 0.821078
O O20 0.526054 0.000000 0.823019
O O21 0.790613 0.000000 0.201443
#
# Coordination Sequence:
#
# PCOD9178282 Si02
#       8
#     8   8   8   8   8   8   8   8
#     4   9  19  36  55  73  95 125 159 194 234 280
#     4   8  14  26  43  65  95 127 157 191 236 285
#     4   9  19  36  53  69  94 129 164 194 231 280
#     4  10  20  34  53  75  98 125 157 194 235 280
#     4  10  20  34  52  71  95 128 161 195 234 279
#     4   8  14  25  43  67  95 125 155 193 239 283
#     4   9  18  31  48  71  97 125 158 197 238 280
#     4  10  19  30  47  72  99 125 157 198 239 281
#
# _framework density 21.680320999999999
#
# number of rings (size 3 to 8) (size 9 to 14) (size 15 to 20)
#    0.000    2.875    0.000    1.875    0.000    3.750 
#    0.000    7.500    0.000    0.750    0.000    0.000 
#    0.000    0.000    0.000    0.000    0.000    0.000 
#
# Total GULP energy -178627.603650 kJ/mol
# GULP energy per Si atom -5582.112614 kJ/mol
# Density = 2.163098 g / cm^3
# Si number density = 21.680321 Si / 1000 Ang^3
#
#
#
# Elastic Constant Matrix: (Units=GPa)
#
#
# Indices 1 2 3 4 5 6 
#
# 1 45.4556 -3.5485 -0.7084 0.0000 -7.2825 0.0000
# 2 -3.5485 162.1258 143.6612 0.0000 4.0576 0.0000
# 3 -0.7084 143.6612 245.3250 0.0000 -11.3534 0.0000
# 4 0.0000 0.0000 0.0000 47.4419 0.0000 -25.0518
# 5 -7.2825 4.0576 -11.3534 0.0000 19.7465 0.0000
# 6 0.0000 0.0000 0.0000 -25.0518 0.0000 53.8265
#
#
#
# Elastic Compliance Matrix: (Units=1/GPa)
#
#
# Indices 1 2 3 4 5 6 
#
# 1 0.023443 -0.000306 0.000668 0.000000 0.009093 0.000000
# 2 -0.000306 0.013886 -0.008496 0.000000 -0.007851 0.000000
# 3 0.000668 -0.008496 0.009396 0.000000 0.007394 0.000000
# 4 0.000000 0.000000 0.000000 0.027947 0.000000 0.013007
# 5 0.009093 -0.007851 0.007394 0.000000 0.059860 0.000000
# 6 0.000000 0.000000 0.000000 0.013007 0.000000 0.024632
#
#
# Mechanical properties :
#
#
# Convention : Reuss Voigt Hill
#
# Bulk Modulus (GPa) = 32.83448 81.30168 57.06808
# Shear Modulus (GPa) = 26.94205 45.10312 36.02259
#
# Velocity S-wave (km/s) = 3.52901 4.56606 4.08061
# Velocity P-wave (km/s) = 5.63764 8.08580 6.97005
#
# Compressibility (1/GPa) = 0.03045579
#
# Stress axis : x y z
#
# Youngs Moduli (GPa) = 42.65709 72.01430 106.43392
#
# Poissons Ratio (x) = 0.02205 -0.07108
# Poissons Ratio (y) = 0.01306 0.90425
# Poissons Ratio (z) = -0.02849 0.61183
#
# Static dielectric constant tensor:
#      x y z
#    x 1.866260 0.000000 0.006010 
#    y 0.000000 1.791690 0.000000 
#    z 0.006010 0.000000 1.763990 
# 
# From -- ./inp_files/346107.got.cif
#   From: 2010.05.17/outbox.cif.g08.bks.cpg/sg12_174_cif.got.tgz:346107.got - 2010.06.03 13:09:07.
