data_PCOD9178452
_publ_section_title
;
Structure prediction by ZEFSAII (Michael W. Deem and Ramdas Pophale) SiO2 
 PCOD9178452
Probable space group: C 2/M
;
_chemical_formula_sum "Si O2"
_cell_formula_units_Z 56
_cell_length_a 8.182669
_cell_length_b 18.959891
_cell_length_c 19.619344
_cell_angle_alpha 90.000000
_cell_angle_beta 59.983766
_cell_angle_gamma 90.000000
_cell_volume 2635.571888
_symmetry_space_group_name_H-M "C 2/M"
_symmetry_group_IT_number 12
_symmetry_cell_setting 'monoclinic'
loop_
_space_group_symop_operation_xyz
x,y,z
-x,y,-z
-x,-y,-z
x,-y,z
1/2+x,1/2+y,z
1/2-x,1/2+y,-z
1/2-x,1/2-y,-z
1/2+x,1/2-y,z
loop_
_atom_site_type_symbol
_atom_site_label
_atom_site_fract_x
_atom_site_fract_y
_atom_site_fract_z
Si Si1 0.200026 0.417644 0.759125
Si Si2 0.138116 0.341467 0.910709
Si Si3 0.690756 0.421715 0.487147
Si Si4 0.972064 0.686768 0.583856
Si Si5 0.142039 0.922285 0.657379
Si Si6 0.950428 0.794411 0.157782
Si Si7 0.970751 0.305255 0.731000
O O1 0.164239 0.500000 0.754829
O O2 0.120005 0.390553 0.847974
O O3 0.425254 0.407647 0.719112
O O4 0.112578 0.369503 0.717618
O O5 0.356681 0.338139 0.889992
O O6 0.076933 0.263544 0.896235
O O7 0.000000 0.362645 0.000000
O O8 0.500000 0.388029 0.500000
O O9 0.715599 0.500000 0.450695
O O10 0.655434 0.430850 0.573830
O O11 0.867752 0.372492 0.443925
O O12 0.782042 0.642764 0.637594
O O13 0.993138 0.728716 0.650630
O O14 0.000000 0.715377 0.500000
O O15 0.196522 0.000000 0.675882
O O16 0.982797 0.751763 0.221214
O O17 0.745066 0.829888 0.209186
#
# Coordination Sequence:
#
# PCOD9178452 Si02
#       7
#     8   8   8   8   8   8   8
#     4  10  21  35  54  82 112 145 176 210 272 336
#     4  10  19  35  60  86 112 138 173 223 267 313
#     4   9  16  26  42  67 100 138 177 217 258 301
#     4  10  19  30  48  76 104 137 179 226 275 313
#     4   9  17  29  45  69 104 141 178 213 249 311
#     4   9  20  37  59  83 103 139 189 224 260 306
#     4  10  20  37  57  76 106 142 181 229 264 311
#
# _framework density 21.247761000000001
#
# number of rings (size 3 to 8) (size 9 to 14) (size 15 to 20)
#    0.000    2.429    0.000    2.571    0.000    4.286 
#    0.000    1.429    0.000    0.857    0.000    0.000 
#    0.000    0.000    0.000    0.000    0.000    0.000 
#
# Total GULP energy -156167.641141 kJ/mol
# GULP energy per Si atom -5577.415755 kJ/mol
# Density = 2.119940 g / cm^3
# Si number density = 21.247761 Si / 1000 Ang^3
#
#
#
# Elastic Constant Matrix: (Units=GPa)
#
#
# Indices 1 2 3 4 5 6 
#
# 1 75.7258 14.5897 18.5953 0.0000 -12.5885 0.0000
# 2 14.5897 39.9134 9.6212 0.0000 -11.2719 0.0000
# 3 18.5953 9.6212 107.7081 0.0000 -2.6780 0.0000
# 4 0.0000 0.0000 0.0000 24.7045 0.0000 -12.2886
# 5 -12.5885 -11.2719 -2.6780 0.0000 26.8566 0.0000
# 6 0.0000 0.0000 0.0000 -12.2886 0.0000 29.3422
#
#
#
# Elastic Compliance Matrix: (Units=1/GPa)
#
#
# Indices 1 2 3 4 5 6 
#
# 1 0.015337 -0.003526 -0.002196 0.000000 0.005490 0.000000
# 2 -0.003526 0.029787 -0.001787 0.000000 0.010671 0.000000
# 3 -0.002196 -0.001787 0.009803 0.000000 -0.000802 0.000000
# 4 0.000000 0.000000 0.000000 0.051130 0.000000 0.021413
# 5 0.005490 0.010671 -0.000802 0.000000 0.044207 0.000000
# 6 0.000000 0.000000 0.000000 0.021413 0.000000 0.043049
#
#
# Mechanical properties :
#
#
# Convention : Reuss Voigt Hill
#
# Bulk Modulus (GPa) = 25.05711 34.32885 29.69298
# Shear Modulus (GPa) = 22.55964 28.21674 25.38819
#
# Velocity S-wave (km/s) = 3.26197 3.64811 3.46043
# Velocity P-wave (km/s) = 5.09958 5.82550 5.47459
#
# Compressibility (1/GPa) = 0.03990883
#
# Stress axis : x y z
#
# Youngs Moduli (GPa) = 65.20224 33.57114 102.00746
#
# Poissons Ratio (x) = 0.11838 0.22404
# Poissons Ratio (y) = 0.22992 0.18226
# Poissons Ratio (z) = 0.14321 0.05998
#
# Static dielectric constant tensor:
#      x y z
#    x 1.784710 0.000000 0.002520 
#    y 0.000000 2.019140 0.000000 
#    z 0.002520 0.000000 1.771020 
# 
# From -- ./inp_files/301662.got.cif
#   From: 2010.05.17/outbox.cif.g08.bks.cpg/sg12_151_cif.got.tgz:301662.got - 2010.06.03 13:09:07.
