data_PCOD9178902
_publ_section_title
;
Structure prediction by ZEFSAII (Michael W. Deem and Ramdas Pophale) SiO2 
 PCOD9178902
Probable space group: C 2/M
;
_chemical_formula_sum "Si O2"
_cell_formula_units_Z 40
_cell_length_a 12.913794
_cell_length_b 18.915635
_cell_length_c 8.664008
_cell_angle_alpha 90.000000
_cell_angle_beta 111.616227
_cell_angle_gamma 90.000000
_cell_volume 1967.539519
_symmetry_space_group_name_H-M "C 2/M"
_symmetry_group_IT_number 12
_symmetry_cell_setting 'monoclinic'
loop_
_space_group_symop_operation_xyz
x,y,z
-x,y,-z
-x,-y,-z
x,-y,z
1/2+x,1/2+y,z
1/2-x,1/2+y,-z
1/2-x,1/2-y,-z
1/2+x,1/2-y,z
loop_
_atom_site_type_symbol
_atom_site_label
_atom_site_fract_x
_atom_site_fract_y
_atom_site_fract_z
Si Si1 0.256454 0.417381 0.566730
Si Si2 0.331408 0.082813 0.134971
Si Si3 0.756119 0.690241 0.872711
Si Si4 0.137561 0.211466 0.498482
Si Si5 0.563899 0.835557 0.279214
O O1 0.276771 0.500000 0.550706
O O2 0.223148 0.406755 0.726881
O O3 0.357713 0.365822 0.575576
O O4 0.150154 0.390164 0.408868
O O5 0.447650 0.125236 0.193545
O O6 0.351485 0.000000 0.123056
O O7 0.253976 0.116125 0.960925
O O8 0.661537 0.700582 0.692000
O O9 0.872263 0.689883 0.840039
O O10 0.750000 0.750000 0.000000
O O11 0.250000 0.250000 0.500000
O O12 0.051056 0.266978 0.381486
#
# Coordination Sequence:
#
# PCOD9178902 Si02
#       5
#     8   8   8   8   8
#     4   9  17  30  48  70  99 133 166 200 243 300
#     4  11  21  31  49  80 111 132 156 204 265 306
#     4  10  19  32  47  65  97 137 172 204 240 295
#     4   8  17  32  48  64  93 136 179 204 232 295
#     4  10  19  31  47  69 100 133 170 207 248 300
#
# _framework density 20.329961000000001
#
# number of rings (size 3 to 8) (size 9 to 14) (size 15 to 20)
#    0.000    2.800    0.000    5.400    0.000    6.400 
#    0.000    0.000    0.000    0.000    0.000    1.400 
#    0.000   73.600    0.000    1.200    0.000    4.400 
#
# Total GULP energy -111550.004361 kJ/mol
# GULP energy per Si atom -5577.500218 kJ/mol
# Density = 2.028369 g / cm^3
# Si number density = 20.329961 Si / 1000 Ang^3
#
#
#
# Elastic Constant Matrix: (Units=GPa)
#
#
# Indices 1 2 3 4 5 6 
#
# 1 46.8226 46.2000 31.2297 0.0000 -13.4916 0.0000
# 2 46.2000 165.4966 88.3493 0.0000 -12.0825 0.0000
# 3 31.2297 88.3493 132.4903 0.0000 -25.6919 0.0000
# 4 0.0000 0.0000 0.0000 40.5804 0.0000 0.2608
# 5 -13.4916 -12.0825 -25.6919 0.0000 22.7609 0.0000
# 6 0.0000 0.0000 0.0000 0.2608 0.0000 33.8231
#
#
#
# Elastic Compliance Matrix: (Units=1/GPa)
#
#
# Indices 1 2 3 4 5 6 
#
# 1 0.034286 -0.008963 0.001169 0.000000 0.016885 0.000000
# 2 -0.008963 0.011853 -0.007171 0.000000 -0.007115 0.000000
# 3 0.001169 -0.007171 0.014659 0.000000 0.013433 0.000000
# 4 0.000000 0.000000 0.000000 0.024644 0.000000 -0.000190
# 5 0.016885 -0.007115 0.013433 0.000000 0.065330 0.000000
# 6 0.000000 0.000000 0.000000 -0.000190 0.000000 0.029567
#
#
# Mechanical properties :
#
#
# Convention : Reuss Voigt Hill
#
# Bulk Modulus (GPa) = 32.39492 75.15194 53.77343
# Shear Modulus (GPa) = 22.66971 31.36825 27.01898
#
# Velocity S-wave (km/s) = 3.34292 3.93231 3.64953
# Velocity P-wave (km/s) = 5.55601 7.59367 6.65331
#
# Compressibility (1/GPa) = 0.03086904
#
# Stress axis : x y z
#
# Youngs Moduli (GPa) = 29.16614 84.36385 68.21698
#
# Poissons Ratio (x) = 0.75614 -0.07977
# Poissons Ratio (y) = 0.26141 0.48921
# Poissons Ratio (z) = -0.03410 0.60501
#
# Static dielectric constant tensor:
#      x y z
#    x 1.787950 0.000000 -0.003470 
#    y 0.000000 1.736640 0.000000 
#    z -0.003470 0.000000 1.759200 
# 
# From -- ./inp_files/60381.got.cif
#   From: 2010.05.17/outbox.cif.g08.bks.cpg/sg12_31_cif.got.tgz:60381.got - 2010.06.03 13:09:07.
