data_PCOD9178972
_publ_section_title
;
Structure prediction by ZEFSAII (Michael W. Deem and Ramdas Pophale) SiO2 
 PCOD9178972
Probable space group: C 2/M
;
_chemical_formula_sum "Si O2"
_cell_formula_units_Z 40
_cell_length_a 14.059358
_cell_length_b 7.519681
_cell_length_c 18.847066
_cell_angle_alpha 90.000000
_cell_angle_beta 48.318551
_cell_angle_gamma 90.000000
_cell_volume 1488.141047
_symmetry_space_group_name_H-M "C 2/M"
_symmetry_group_IT_number 12
_symmetry_cell_setting 'monoclinic'
loop_
_space_group_symop_operation_xyz
x,y,z
-x,y,-z
-x,-y,-z
x,-y,z
1/2+x,1/2+y,z
1/2-x,1/2+y,-z
1/2-x,1/2-y,-z
1/2+x,1/2-y,z
loop_
_atom_site_type_symbol
_atom_site_label
_atom_site_fract_x
_atom_site_fract_y
_atom_site_fract_z
Si Si1 0.128167 0.205644 0.399869
Si Si2 0.260186 0.213368 0.789211
Si Si3 0.516422 0.717329 0.811622
Si Si4 0.155263 0.192859 0.611646
Si Si5 0.126687 0.213888 0.986312
O O1 0.125380 0.225541 0.317163
O O2 0.239328 0.317865 0.378788
O O3 0.000000 0.263768 0.500000
O O4 0.151648 0.000000 0.406504
O O5 0.137235 0.266018 0.802266
O O6 0.261887 0.000000 0.791687
O O7 0.238211 0.283538 0.879319
O O8 0.511722 0.500000 0.809818
O O9 0.545558 0.783621 0.716735
O O10 0.401298 0.780857 0.920356
O O11 0.250000 0.250000 0.500000
O O12 0.107345 0.000000 0.613089
O O13 0.139122 0.000000 0.986050
O O14 0.000000 0.241680 0.000000
#
# Coordination Sequence:
#
# PCOD9178972 Si02
#       5
#     8   8   8   8   8
#     4  10  20  32  45  63  90 122 153 185 221 261
#     4   8  13  22  39  61  83 109 141 178 217 257
#     4   7  11  20  36  59  84 110 139 171 210 259
#     4  10  19  31  48  68  91 119 150 184 221 262
#     4   7   9  16  33  57  82 106 135 170 209 257
#
# _framework density 26.879173000000002
#
# number of rings (size 3 to 8) (size 9 to 14) (size 15 to 20)
#    0.000    3.600    0.000    4.800    0.000    1.600 
#    0.000    0.000    0.000   16.200    0.000    1.400 
#    0.000    0.000    0.000    0.000    0.000    0.000 
#
# Total GULP energy -111425.788259 kJ/mol
# GULP energy per Si atom -5571.289413 kJ/mol
# Density = 2.681799 g / cm^3
# Si number density = 26.879173 Si / 1000 Ang^3
#
#
#
# Elastic Constant Matrix: (Units=GPa)
#
#
# Indices 1 2 3 4 5 6 
#
# 1 83.2503 5.5124 20.8638 0.0000 31.5938 0.0000
# 2 5.5124 60.6612 10.4100 0.0000 0.2078 0.0000
# 3 20.8638 10.4100 375.9280 0.0000 35.7818 0.0000
# 4 0.0000 0.0000 0.0000 69.2197 0.0000 -12.1438
# 5 31.5938 0.2078 35.7818 0.0000 36.8820 0.0000
# 6 0.0000 0.0000 0.0000 -12.1438 0.0000 14.0967
#
#
#
# Elastic Compliance Matrix: (Units=1/GPa)
#
#
# Indices 1 2 3 4 5 6 
#
# 1 0.018057 -0.001684 0.000568 0.000000 -0.016010 0.000000
# 2 -0.001684 0.016726 -0.000549 0.000000 0.001880 0.000000
# 3 0.000568 -0.000549 0.002963 0.000000 -0.003359 0.000000
# 4 0.000000 0.000000 0.000000 0.017019 0.000000 0.014661
# 5 -0.016010 0.001880 -0.003359 0.000000 0.044075 0.000000
# 6 0.000000 0.000000 0.000000 0.014661 0.000000 0.083569
#
#
# Mechanical properties :
#
#
# Convention : Reuss Voigt Hill
#
# Bulk Modulus (GPa) = 29.05456 65.93467 47.49461
# Shear Modulus (GPa) = 25.35372 56.24321 40.79847
#
# Velocity S-wave (km/s) = 3.07457 4.57929 3.90018
# Velocity P-wave (km/s) = 4.84115 7.24866 6.16360
#
# Compressibility (1/GPa) = 0.03441801
#
# Stress axis : x y z
#
# Youngs Moduli (GPa) = 55.38114 59.78824 337.44656
#
# Poissons Ratio (x) = 0.10065 -0.19177
# Poissons Ratio (y) = 0.09324 0.18515
# Poissons Ratio (z) = -0.03147 0.03281
#
# Static dielectric constant tensor:
#      x y z
#    x 2.254620 0.000000 -0.119370 
#    y 0.000000 1.986320 0.000000 
#    z -0.119370 0.000000 2.350970 
# 
# From -- ./inp_files/220274.got.cif
#   From: 2010.05.17/outbox.cif.g08.bks.cpg/sg12_111_cif.got.tgz:220274.got - 2010.06.03 13:09:07.
