data_PCOD9178936
_publ_section_title
;
Structure prediction by ZEFSAII (Michael W. Deem and Ramdas Pophale) SiO2 
 PCOD9178936
Probable space group: C 2/M
;
_chemical_formula_sum "Si O2"
_cell_formula_units_Z 64
_cell_length_a 27.065614
_cell_length_b 7.345821
_cell_length_c 12.812286
_cell_angle_alpha 90.000000
_cell_angle_beta 97.650097
_cell_angle_gamma 90.000000
_cell_volume 2524.655449
_symmetry_space_group_name_H-M "C 2/M"
_symmetry_group_IT_number 12
_symmetry_cell_setting 'monoclinic'
loop_
_space_group_symop_operation_xyz
x,y,z
-x,y,-z
-x,-y,-z
x,-y,z
1/2+x,1/2+y,z
1/2-x,1/2+y,-z
1/2-x,1/2-y,-z
1/2+x,1/2-y,z
loop_
_atom_site_type_symbol
_atom_site_label
_atom_site_fract_x
_atom_site_fract_y
_atom_site_fract_z
Si Si1 0.300592 0.192681 0.570346
Si Si2 0.099471 0.723638 0.352276
Si Si3 0.266609 0.720393 0.152553
Si Si4 0.052394 0.722064 0.959063
Si Si5 0.665074 0.788401 0.027953
Si Si6 0.934114 0.714142 0.429516
Si Si7 0.502973 0.221952 0.736649
Si Si8 0.831065 0.216298 0.360482
O O1 0.250000 0.250000 0.500000
O O2 0.343610 0.288180 0.649985
O O3 0.329930 0.181313 0.469278
O O4 0.289565 0.000000 0.619197
O O5 0.102935 0.500000 0.352074
O O6 0.079699 0.788096 0.460499
O O7 0.054811 0.773533 0.262138
O O8 0.266286 0.500000 0.148441
O O9 0.307579 0.778876 0.077905
O O10 0.287792 0.775761 0.270754
O O11 0.210788 0.786835 0.111602
O O12 0.054089 0.500000 0.965292
O O13 0.108153 0.783969 0.009311
O O14 0.040641 0.778044 0.837032
O O15 0.000000 0.774709 0.000000
O O16 0.660093 0.000000 0.056559
O O17 0.942532 0.500000 0.448560
O O18 0.886641 0.742557 0.339688
O O19 0.979128 0.783740 0.372359
O O20 0.503653 0.000000 0.735506
O O21 0.826794 0.000000 0.377360
#
# Coordination Sequence:
#
# PCOD9178936 Si02
#       8
#     8   8   8   8   8   8   8   8
#     4  10  20  35  52  70  95 128 164 199 240 285
#     4   8  15  27  44  69  94 118 153 195 239 286
#     4   9  18  31  48  74 101 126 161 203 251 300
#     4   9  17  28  42  66  98 128 160 199 243 289
#     4   9  17  31  50  71  98 128 160 205 255 295
#     4   9  16  27  47  72  98 124 155 197 242 287
#     4   9  15  25  44  70  94 122 158 196 239 285
#     4  10  19  31  47  71 101 130 162 196 238 292
#
# _framework density 25.349996000000001
#
# number of rings (size 3 to 8) (size 9 to 14) (size 15 to 20)
#    0.000    2.875    0.000    2.625    0.000    3.500 
#    2.250    0.000    0.000    7.125    0.000    0.000 
#    0.000    0.000    0.000    0.000    0.000    0.000 
#
# Total GULP energy -178189.374746 kJ/mol
# GULP energy per Si atom -5568.417961 kJ/mol
# Density = 2.529230 g / cm^3
# Si number density = 25.349996 Si / 1000 Ang^3
#
#
#
# Elastic Constant Matrix: (Units=GPa)
#
#
# Indices 1 2 3 4 5 6 
#
# 1 219.3243 1.4828 21.5043 0.0000 48.7105 0.0000
# 2 1.4828 96.2853 -9.3217 0.0000 3.5981 0.0000
# 3 21.5043 -9.3217 34.1981 0.0000 17.3168 0.0000
# 4 0.0000 0.0000 0.0000 19.0284 0.0000 20.1807
# 5 48.7105 3.5981 17.3168 0.0000 50.4697 0.0000
# 6 0.0000 0.0000 0.0000 20.1807 0.0000 19.3925
#
#
#
# Elastic Compliance Matrix: (Units=1/GPa)
#
#
# Indices 1 2 3 4 5 6 
#
# 1 0.005831 0.000013 -0.000984 0.000000 -0.005291 0.000000
# 2 0.000013 0.010860 0.004055 0.000000 -0.002178 0.000000
# 3 -0.000984 0.004055 0.037072 0.000000 -0.012059 0.000000
# 4 0.000000 0.000000 0.000000 -0.506997 0.000000 0.527602
# 5 -0.005291 -0.002178 -0.012059 0.000000 0.029213 0.000000
# 6 0.000000 0.000000 0.000000 0.527602 0.000000 -0.497478
#
#
# Mechanical properties :
#
#
# Convention : Reuss Voigt Hill
#
# Bulk Modulus (GPa) = 16.68628 41.90429 29.29528
# Shear Modulus (GPa) = -5.50849 40.18762 17.33957
#
# Velocity S-wave (km/s) = -1.47570 3.98592 2.61819
# Velocity P-wave (km/s) = 1.92173 6.14407 4.55207
#
# Compressibility (1/GPa) = 0.05992948
#
# Stress axis : x y z
#
# Youngs Moduli (GPa) = 171.49901 92.08484 26.97462
#
# Poissons Ratio (x) = -0.00117 0.02654
# Poissons Ratio (y) = -0.00217 -0.10938
# Poissons Ratio (z) = 0.16875 -0.37339
#
# Static dielectric constant tensor:
#      x y z
#    x 2.284850 0.000000 0.046810 
#    y 0.000000 1.993910 0.000000 
#    z 0.046810 0.000000 2.005670 
# 
# From -- ./inp_files/244042.got.cif
#   From: 2010.05.17/outbox.cif.g08.bks.cpg/sg12_123_cif.got.tgz:244042.got - 2010.06.03 13:09:07.
