data_PCOD9178439
_publ_section_title
;
Structure prediction by ZEFSAII (Michael W. Deem and Ramdas Pophale) SiO2 
 PCOD9178439
Probable space group: C 2/M
;
_chemical_formula_sum "Si O2"
_cell_formula_units_Z 64
_cell_length_a 21.001067
_cell_length_b 7.652192
_cell_length_c 26.374802
_cell_angle_alpha 90.000000
_cell_angle_beta 129.892307
_cell_angle_gamma 90.000000
_cell_volume 3252.026257
_symmetry_space_group_name_H-M "C 2/M"
_symmetry_group_IT_number 12
_symmetry_cell_setting 'monoclinic'
loop_
_space_group_symop_operation_xyz
x,y,z
-x,y,-z
-x,-y,-z
x,-y,z
1/2+x,1/2+y,z
1/2-x,1/2+y,-z
1/2-x,1/2-y,-z
1/2+x,1/2-y,z
loop_
_atom_site_type_symbol
_atom_site_label
_atom_site_fract_x
_atom_site_fract_y
_atom_site_fract_z
Si Si1 0.991475 0.294894 0.332063
Si Si2 0.067192 0.789116 0.074817
Si Si3 0.205563 0.785641 0.323881
Si Si4 0.677267 0.707741 0.423972
Si Si5 0.957472 0.214256 0.822490
Si Si6 0.243689 0.207906 0.829639
Si Si7 0.160391 0.702134 0.683497
Si Si8 0.410211 0.701928 0.187353
O O1 0.972411 0.500000 0.315566
O O2 0.087217 0.275908 0.394368
O O3 0.926647 0.223131 0.340600
O O4 0.970763 0.208850 0.267358
O O5 0.048445 0.728177 0.122470
O O6 0.161230 0.740823 0.108957
O O7 0.063053 0.000000 0.073598
O O8 0.000000 0.725322 0.000000
O O9 0.197789 0.726910 0.377786
O O10 0.124537 0.733155 0.250485
O O11 0.287799 0.722184 0.336684
O O12 0.207163 0.000000 0.324183
O O13 0.669293 0.500000 0.416468
O O14 0.750000 0.750000 0.500000
O O15 0.038530 0.277534 0.833386
O O16 0.958636 0.000000 0.822573
O O17 0.220428 0.289468 0.763377
O O18 0.176853 0.276067 0.836599
O O19 0.230127 0.000000 0.817298
O O20 0.144174 0.500000 0.662257
O O21 0.393822 0.500000 0.166130
#
# Coordination Sequence:
#
# PCOD9178439 Si02
#       8
#     8   8   8   8   8   8   8   8
#     4  10  19  31  51  79 107 132 163 209 257 296
#     4  10  20  34  53  74  99 134 173 211 251 298
#     4   9  16  30  55  78  96 129 173 212 244 287
#     4  11  22  37  55  75 103 137 171 206 251 304
#     4   9  15  29  53  76  97 127 173 213 242 290
#     4  10  19  30  48  75 105 134 164 205 258 305
#     4   9  17  32  54  78 102 130 170 213 246 290
#     4   9  17  31  51  74 100 134 171 206 248 300
#
# _framework density 19.680036999999999
#
# number of rings (size 3 to 8) (size 9 to 14) (size 15 to 20)
#    0.000    2.375    2.500    1.125    0.000    1.250 
#    0.000    4.375    0.000    3.750    0.000    0.000 
#    0.000    0.000    0.000    0.000    0.000    0.000 
#
# Total GULP energy -178518.093814 kJ/mol
# GULP energy per Si atom -5578.690432 kJ/mol
# Density = 1.963524 g / cm^3
# Si number density = 19.680037 Si / 1000 Ang^3
#
#
#
# Elastic Constant Matrix: (Units=GPa)
#
#
# Indices 1 2 3 4 5 6 
#
# 1 176.3472 1.5524 81.8414 0.0000 9.5850 0.0000
# 2 1.5524 41.9472 -6.4704 0.0000 -5.4551 0.0000
# 3 81.8414 -6.4704 117.1868 0.0000 5.3162 0.0000
# 4 0.0000 0.0000 0.0000 15.1876 0.0000 4.2145
# 5 9.5850 -5.4551 5.3162 0.0000 28.2667 0.0000
# 6 0.0000 0.0000 0.0000 4.2145 0.0000 10.8579
#
#
#
# Elastic Compliance Matrix: (Units=1/GPa)
#
#
# Indices 1 2 3 4 5 6 
#
# 1 0.008569 -0.001508 -0.005974 0.000000 -0.002073 0.000000
# 2 -0.001508 0.024872 0.002204 0.000000 0.004897 0.000000
# 3 -0.005974 0.002204 0.012825 0.000000 0.000039 0.000000
# 4 0.000000 0.000000 0.000000 0.073791 0.000000 -0.028642
# 5 -0.002073 0.004897 0.000039 0.000000 0.037018 0.000000
# 6 0.000000 0.000000 0.000000 -0.028642 0.000000 0.103216
#
#
# Mechanical properties :
#
#
# Convention : Reuss Voigt Hill
#
# Bulk Modulus (GPa) = 28.00207 54.36976 41.18591
# Shear Modulus (GPa) = 17.68344 28.09963 22.89153
#
# Velocity S-wave (km/s) = 3.00083 3.78276 3.41425
# Velocity P-wave (km/s) = 5.12506 6.83855 6.04285
#
# Compressibility (1/GPa) = 0.03571165
#
# Stress axis : x y z
#
# Youngs Moduli (GPa) = 116.70107 40.20554 77.97145
#
# Poissons Ratio (x) = 0.06064 0.46577
# Poissons Ratio (y) = 0.17601 -0.17189
# Poissons Ratio (z) = 0.69713 -0.08863
#
# Static dielectric constant tensor:
#      x y z
#    x 1.736900 0.000000 0.012510 
#    y 0.000000 1.758500 0.000000 
#    z 0.012510 0.000000 1.662990 
# 
# From -- ./inp_files/365236.got.cif
#   From: 2010.05.17/outbox.cif.g08.bks.cpg/sg12_183_cif.got.tgz:365236.got - 2010.06.03 13:09:07.
