data_PCOD9178149
_publ_section_title
;
Structure prediction by ZEFSAII (Michael W. Deem and Ramdas Pophale) SiO2 
 PCOD9178149
Probable space group: C 2/M
;
_chemical_formula_sum "Si O2"
_cell_formula_units_Z 60
_cell_length_a 21.584660
_cell_length_b 9.618281
_cell_length_c 22.447736
_cell_angle_alpha 90.000000
_cell_angle_beta 45.218055
_cell_angle_gamma 90.000000
_cell_volume 3307.857370
_symmetry_space_group_name_H-M "C 2/M"
_symmetry_group_IT_number 12
_symmetry_cell_setting 'monoclinic'
loop_
_space_group_symop_operation_xyz
x,y,z
-x,y,-z
-x,-y,-z
x,-y,z
1/2+x,1/2+y,z
1/2-x,1/2+y,-z
1/2-x,1/2-y,-z
1/2+x,1/2-y,z
loop_
_atom_site_type_symbol
_atom_site_label
_atom_site_fract_x
_atom_site_fract_y
_atom_site_fract_z
Si Si1 0.316129 0.164345 0.179409
Si Si2 0.500000 0.247375 0.500000
Si Si3 0.586371 0.340603 0.561413
Si Si4 0.586164 0.660301 0.983301
Si Si5 0.318938 0.151242 0.668738
Si Si6 0.452852 0.335625 0.287881
Si Si7 0.486948 0.165981 0.147520
Si Si8 0.745969 0.845601 0.422157
O O1 0.224939 0.225062 0.264963
O O2 0.392574 0.184091 0.177932
O O3 0.312288 0.000000 0.169423
O O4 0.344897 0.254283 0.102863
O O5 0.542218 0.328293 0.526751
O O6 0.420833 0.164729 0.584279
O O7 0.607045 0.500000 0.559180
O O8 0.525014 0.296862 0.658549
O O9 0.676640 0.257552 0.497459
O O10 0.610916 0.500000 0.980065
O O11 0.556487 0.750885 0.060032
O O12 0.500000 0.653459 0.000000
O O13 0.273166 0.155111 0.635323
O O14 0.300564 0.000000 0.708825
O O15 0.472726 0.500000 0.262939
O O16 0.486273 0.237415 0.212752
O O17 0.347861 0.318863 0.359174
O O18 0.503204 0.000000 0.138733
O O19 0.726236 0.000000 0.458474
#
# Coordination Sequence:
#
# PCOD9178149 Si02
#       8
#     8   4   8   8   8   8   8   8
#     4  10  19  30  47  74 105 135 169 208 252 301
#     4  10  22  38  52  74 100 130 174 224 262 296
#     4  10  21  34  51  70  95 130 170 214 260 305
#     4   9  17  29  47  70 101 141 174 202 240 295
#     4  10  19  33  53  73  97 134 174 213 256 303
#     4  10  19  32  48  71  99 133 170 205 251 310
#     4  10  19  30  46  73 107 138 166 205 252 300
#     4   9  18  31  48  69  97 127 164 210 254 303
#
# _framework density 18.138629999999999
#
# number of rings (size 3 to 8) (size 9 to 14) (size 15 to 20)
#    0.000    2.267    1.333    2.000    0.000    6.933 
#    0.000    0.000    0.000    0.000    0.000    0.933 
#    0.000    0.000    0.000    0.000    0.000    0.000 
#
# Total GULP energy -167142.343483 kJ/mol
# GULP energy per Si atom -5571.411449 kJ/mol
# Density = 1.809735 g / cm^3
# Si number density = 18.138630 Si / 1000 Ang^3
#
#
#
# Elastic Constant Matrix: (Units=GPa)
#
#
# Indices 1 2 3 4 5 6 
#
# 1 35.4503 17.2911 20.4430 0.0000 10.5254 0.0000
# 2 17.2911 127.6583 74.3048 0.0000 19.1790 0.0001
# 3 20.4430 74.3048 112.8111 0.0000 19.8674 0.0000
# 4 0.0000 0.0000 0.0000 31.8631 0.0000 10.5344
# 5 10.5254 19.1790 19.8674 0.0000 28.2495 0.0000
# 6 0.0000 0.0001 0.0000 10.5344 0.0000 1.6280
#
#
#
# Elastic Compliance Matrix: (Units=1/GPa)
#
#
# Indices 1 2 3 4 5 6 
#
# 1 0.033614 -0.000923 -0.003867 0.000000 -0.009178 0.000001
# 2 -0.000923 0.012976 -0.007862 0.000000 -0.002936 0.000001
# 3 -0.003867 -0.007862 0.015466 0.000000 -0.004098 0.000000
# 4 0.000000 0.000000 0.000000 -0.027547 0.000000 0.178247
# 5 -0.009178 -0.002936 -0.004098 0.000000 0.043694 -0.000001
# 6 0.000001 0.000001 0.000000 0.178247 -0.000001 -0.539140
#
#
# Mechanical properties :
#
#
# Convention : Reuss Voigt Hill
#
# Bulk Modulus (GPa) = 27.21094 55.55529 41.38311
# Shear Modulus (GPa) = -11.80966 23.27351 5.73193
#
# Velocity S-wave (km/s) = -2.55439 3.58591 1.77959
# Velocity P-wave (km/s) = 2.51681 6.91662 5.20452
#
# Compressibility (1/GPa) = 0.03674993
#
# Stress axis : x y z
#
# Youngs Moduli (GPa) = 29.74983 77.06528 64.65988
#
# Poissons Ratio (x) = 0.07116 0.25003
# Poissons Ratio (y) = 0.02747 0.50839
# Poissons Ratio (z) = 0.11504 0.60592
#
# Static dielectric constant tensor:
#      x y z
#    x 1.645750 0.000000 0.022770 
#    y 0.000000 1.630010 0.000000 
#    z 0.022770 0.000000 1.622940 
# 
# From -- ./inp_files/348819.got.cif
#   From: 2010.05.17/outbox.cif.g08.bks.cpg/sg12_175_cif.got.tgz:348819.got - 2010.06.03 13:09:07.
