data_PCOD9178744
_publ_section_title
;
Structure prediction by ZEFSAII (Michael W. Deem and Ramdas Pophale) SiO2 
 PCOD9178744
Probable space group: C 2/M
;
_chemical_formula_sum "Si O2"
_cell_formula_units_Z 64
_cell_length_a 20.770499
_cell_length_b 13.173162
_cell_length_c 16.094675
_cell_angle_alpha 90.000000
_cell_angle_beta 137.509313
_cell_angle_gamma 90.000000
_cell_volume 2974.578750
_symmetry_space_group_name_H-M "C 2/M"
_symmetry_group_IT_number 12
_symmetry_cell_setting 'monoclinic'
loop_
_space_group_symop_operation_xyz
x,y,z
-x,y,-z
-x,-y,-z
x,-y,z
1/2+x,1/2+y,z
1/2-x,1/2+y,-z
1/2-x,1/2-y,-z
1/2+x,1/2-y,z
loop_
_atom_site_type_symbol
_atom_site_label
_atom_site_fract_x
_atom_site_fract_y
_atom_site_fract_z
Si Si1 0.818142 0.887988 0.130704
Si Si2 0.304170 0.386315 0.361464
Si Si3 0.059145 0.385555 0.642507
Si Si4 0.610246 0.315188 0.313281
Si Si5 0.507851 0.332743 0.378150
Si Si6 0.296778 0.888429 0.554480
Si Si7 0.929505 0.118970 0.060750
Si Si8 0.759088 0.775499 0.828318
O O1 0.868572 0.871691 0.089504
O O2 0.753147 0.796752 0.101599
O O3 0.905526 0.885013 0.280052
O O4 0.773322 0.000000 0.086895
O O5 0.293407 0.500000 0.317764
O O6 0.414977 0.356750 0.478525
O O7 0.258296 0.387693 0.409739
O O8 0.252174 0.301541 0.258552
O O9 0.947245 0.500000 0.328069
O O10 0.170432 0.354120 0.739496
O O11 0.000000 0.387514 0.500000
O O12 0.015040 0.287454 0.646343
O O13 0.558343 0.369107 0.341566
O O14 0.628848 0.201075 0.362097
O O15 0.716621 0.361121 0.408988
O O16 0.532301 0.327844 0.168062
O O17 0.336054 0.000000 0.575742
O O18 0.944838 0.000000 0.060784
O O19 0.859258 0.168409 0.927472
#
# Coordination Sequence:
#
# PCOD9178744 Si02
#       8
#     8   8   8   8   8   8   8   8
#     4   9  18  31  50  75 102 132 169 208 247 290
#     4  10  19  32  51  75 102 130 163 206 257 305
#     4  10  19  31  45  67 102 140 172 205 242 283
#     4   9  18  34  57  78 102 126 164 209 251 301
#     4   9  17  31  50  77 100 130 167 208 250 297
#     4   9  18  34  57  82 103 124 156 207 265 306
#     4  10  20  35  53  73 100 137 172 204 244 295
#     4  11  20  32  49  72 104 139 173 204 241 295
#
# _framework density 21.515650999999998
#
# number of rings (size 3 to 8) (size 9 to 14) (size 15 to 20)
#    0.000    2.375    1.250    1.875    0.000    3.500 
#    0.000    3.750    0.000    5.250    0.000    0.000 
#    0.000    0.000    0.000    0.000    0.000    0.000 
#
# Total GULP energy -178498.260223 kJ/mol
# GULP energy per Si atom -5578.070632 kJ/mol
# Density = 2.146668 g / cm^3
# Si number density = 21.515651 Si / 1000 Ang^3
#
#
#
# Elastic Constant Matrix: (Units=GPa)
#
#
# Indices 1 2 3 4 5 6 
#
# 1 25.4302 -0.9888 6.7950 0.0000 5.8915 0.0000
# 2 -0.9888 123.0752 51.6869 0.0000 20.3599 0.0000
# 3 6.7950 51.6869 140.4798 0.0000 18.7836 0.0000
# 4 0.0000 0.0000 0.0000 11.6771 0.0000 -4.3507
# 5 5.8915 20.3599 18.7836 0.0000 20.0279 0.0000
# 6 0.0000 0.0000 0.0000 -4.3507 0.0000 18.7272
#
#
#
# Elastic Compliance Matrix: (Units=1/GPa)
#
#
# Indices 1 2 3 4 5 6 
#
# 1 0.043265 0.003376 -0.001343 0.000000 -0.014900 0.000000
# 2 0.003376 0.010932 -0.002935 0.000000 -0.009354 0.000000
# 3 -0.001343 -0.002935 0.008932 0.000000 -0.004998 0.000000
# 4 0.000000 0.000000 0.000000 0.093753 0.000000 0.021780
# 5 -0.014900 -0.009354 -0.004998 0.000000 0.068510 0.000000
# 6 0.000000 0.000000 0.000000 0.021780 0.000000 0.058458
#
#
# Mechanical properties :
#
#
# Convention : Reuss Voigt Hill
#
# Bulk Modulus (GPa) = 16.30610 44.88572 30.59591
# Shear Modulus (GPa) = 16.33480 25.51924 20.92702
#
# Velocity S-wave (km/s) = 2.75836 3.44768 3.12210
# Velocity P-wave (km/s) = 4.21187 6.06266 5.21995
#
# Compressibility (1/GPa) = 0.06132673
#
# Stress axis : x y z
#
# Youngs Moduli (GPa) = 23.11316 91.47291 111.96273
#
# Poissons Ratio (x) = -0.30885 0.15034
# Poissons Ratio (y) = -0.07804 0.32860
# Poissons Ratio (z) = 0.03103 0.26846
#
# Static dielectric constant tensor:
#      x y z
#    x 1.847830 0.000000 -0.027870 
#    y 0.000000 1.793420 0.000000 
#    z -0.027870 0.000000 1.798570 
# 
# From -- ./inp_files/327829.got.cif
#   From: 2010.05.17/outbox.cif.g08.bks.cpg/sg12_164_cif.got.tgz:327829.got - 2010.06.03 13:09:07.
