data_PCOD9178040
_publ_section_title
;
Structure prediction by ZEFSAII (Michael W. Deem and Ramdas Pophale) SiO2 
 PCOD9178040
Probable space group: C 2/M
;
_chemical_formula_sum "Si O2"
_cell_formula_units_Z 64
_cell_length_a 22.930141
_cell_length_b 9.157085
_cell_length_c 21.558627
_cell_angle_alpha 90.000000
_cell_angle_beta 117.152796
_cell_angle_gamma 90.000000
_cell_volume 4027.855553
_symmetry_space_group_name_H-M "C 2/M"
_symmetry_group_IT_number 12
_symmetry_cell_setting 'monoclinic'
loop_
_space_group_symop_operation_xyz
x,y,z
-x,y,-z
-x,-y,-z
x,-y,z
1/2+x,1/2+y,z
1/2-x,1/2+y,-z
1/2-x,1/2-y,-z
1/2+x,1/2-y,z
loop_
_atom_site_type_symbol
_atom_site_label
_atom_site_fract_x
_atom_site_fract_y
_atom_site_fract_z
Si Si1 0.102174 0.673116 0.200789
Si Si2 0.645595 0.173569 0.959966
Si Si3 0.252817 0.674346 0.237510
Si Si4 0.682488 0.675204 0.489578
Si Si5 0.208465 0.330975 0.623060
Si Si6 0.727756 0.325830 0.895401
Si Si7 0.489038 0.673746 0.067599
Si Si8 0.363627 0.667966 0.662448
O O1 0.091529 0.500000 0.192009
O O2 0.175363 0.704580 0.210380
O O3 0.101702 0.727612 0.271738
O O4 0.048504 0.757400 0.135038
O O5 0.676407 0.237511 0.911866
O O6 0.578618 0.252918 0.944349
O O7 0.635845 0.000000 0.950581
O O8 0.700621 0.200706 0.039676
O O9 0.261180 0.500000 0.249638
O O10 0.292728 0.757784 0.310074
O O11 0.271934 0.713621 0.176766
O O12 0.690890 0.500000 0.497331
O O13 0.750000 0.750000 0.500000
O O14 0.670075 0.742707 0.551093
O O15 0.632461 0.705007 0.408671
O O16 0.188891 0.500000 0.614586
O O17 0.285828 0.326351 0.641334
O O18 0.715257 0.500000 0.894931
O O19 0.486456 0.500000 0.076097
O O20 0.500000 0.701626 0.000000
O O21 0.384687 0.500000 0.681836
#
# Coordination Sequence:
#
# PCOD9178040 Si02
#       8
#     8   8   8   8   8   8   8   8
#     4  10  19  30  46  67  91 120 154 191 228 269
#     4  10  20  34  52  72  92 116 150 190 229 271
#     4   9  17  29  45  65  91 123 155 187 226 271
#     4   9  15  23  36  54  79 113 150 185 222 265
#     4   9  16  24  36  57  85 116 150 187 224 265
#     4   9  18  33  51  70  93 120 150 186 229 274
#     4  11  23  36  50  68  92 122 153 187 228 272
#     4   8  15  26  38  55  82 116 151 185 222 266
#
# _framework density 15.889348999999999
#
# number of rings (size 3 to 8) (size 9 to 14) (size 15 to 20)
#    0.000    2.625    0.000    3.375    0.000    7.000 
#    0.000    0.000    0.000    0.000    0.000    0.000 
#    0.000    1.000    0.000   10.500    0.000    7.500 
#
# Total GULP energy -178318.182192 kJ/mol
# GULP energy per Si atom -5572.443193 kJ/mol
# Density = 1.585318 g / cm^3
# Si number density = 15.889349 Si / 1000 Ang^3
#
#
#
# Elastic Constant Matrix: (Units=GPa)
#
#
# Indices 1 2 3 4 5 6 
#
# 1 55.1641 45.8249 50.6195 0.0000 -15.7460 0.0000
# 2 45.8249 81.8146 76.6884 0.0000 -14.0089 0.0000
# 3 50.6195 76.6884 130.5681 0.0000 -33.1720 0.0000
# 4 0.0000 0.0000 0.0000 30.2567 0.0000 -2.0275
# 5 -15.7460 -14.0089 -33.1720 0.0000 23.6570 0.0000
# 6 0.0000 0.0000 0.0000 -2.0275 0.0000 17.9410
#
#
#
# Elastic Compliance Matrix: (Units=1/GPa)
#
#
# Indices 1 2 3 4 5 6 
#
# 1 0.037650 -0.018532 -0.000207 0.000000 0.013795 0.000000
# 2 -0.018532 0.037854 -0.019398 0.000000 -0.017119 0.000000
# 3 -0.000207 -0.019398 0.025132 0.000000 0.023616 0.000000
# 4 0.000000 0.000000 0.000000 0.033303 0.000000 0.003763
# 5 0.013795 -0.017119 0.023616 0.000000 0.074430 0.000000
# 6 0.000000 0.000000 0.000000 0.003763 0.000000 0.056163
#
#
# Mechanical properties :
#
#
# Convention : Reuss Voigt Hill
#
# Bulk Modulus (GPa) = 41.04652 68.20138 54.62395
# Shear Modulus (GPa) = 14.32970 20.66521 17.49746
#
# Velocity S-wave (km/s) = 3.00633 3.61025 3.32204
# Velocity P-wave (km/s) = 6.15950 7.77139 7.01192
#
# Compressibility (1/GPa) = 0.02436260
#
# Stress axis : x y z
#
# Youngs Moduli (GPa) = 26.56062 26.41755 39.78980
#
# Poissons Ratio (x) = 0.48956 0.00824
# Poissons Ratio (y) = 0.49221 0.77183
# Poissons Ratio (z) = 0.00550 0.51244
#
# Static dielectric constant tensor:
#      x y z
#    x 1.509310 0.000000 -0.019670 
#    y 0.000000 1.527290 0.000000 
#    z -0.019670 0.000000 1.543470 
# 
# From -- ./inp_files/324242.got.cif
#   From: 2010.05.17/outbox.cif.g08.bks.cpg/sg12_163_cif.got.tgz:324242.got - 2010.06.03 13:09:07.
