data_PCOD9178223
_publ_section_title
;
Structure prediction by ZEFSAII (Michael W. Deem and Ramdas Pophale) SiO2 
 PCOD9178223
Probable space group: C 2/M
;
_chemical_formula_sum "Si O2"
_cell_formula_units_Z 40
_cell_length_a 18.243718
_cell_length_b 14.080828
_cell_length_c 14.795528
_cell_angle_alpha 90.000000
_cell_angle_beta 151.713901
_cell_angle_gamma 90.000000
_cell_volume 1801.090023
_symmetry_space_group_name_H-M "C 2/M"
_symmetry_group_IT_number 12
_symmetry_cell_setting 'monoclinic'
loop_
_space_group_symop_operation_xyz
x,y,z
-x,y,-z
-x,-y,-z
x,-y,z
1/2+x,1/2+y,z
1/2-x,1/2+y,-z
1/2-x,1/2-y,-z
1/2+x,1/2-y,z
loop_
_atom_site_type_symbol
_atom_site_label
_atom_site_fract_x
_atom_site_fract_y
_atom_site_fract_z
Si Si1 0.313544 0.895108 0.287595
Si Si2 0.146457 0.107911 0.752200
Si Si3 0.368559 0.250219 0.495203
Si Si4 0.842482 0.607798 0.782534
Si Si5 0.891951 0.611576 0.174478
O O1 0.500000 0.902264 0.500000
O O2 0.281535 0.812307 0.323458
O O3 0.292861 0.872499 0.159465
O O4 0.248420 0.000000 0.237367
O O5 0.222197 0.105166 0.735752
O O6 0.014203 0.185908 0.619815
O O7 0.088662 0.000000 0.708851
O O8 0.283451 0.129232 0.971548
O O9 0.237659 0.325973 0.378800
O O10 0.456152 0.176035 0.654342
O O11 0.870276 0.500000 0.780478
O O12 0.000000 0.642441 0.000000
O O13 0.934193 0.500000 0.221601
#
# Coordination Sequence:
#
# PCOD9178223 Si02
#       5
#     8   8   8   8   8
#     4   8  14  25  43  68  94 118 144 178 222 267
#     4  10  19  30  47  71  95 119 151 190 227 266
#     4  11  18  29  51  73  92 119 155 188 220 268
#     4  10  21  35  48  64  90 123 156 191 231 270
#     4   9  17  28  45  72 100 120 143 183 232 272
#
# _framework density 22.208773999999998
#
# number of rings (size 3 to 8) (size 9 to 14) (size 15 to 20)
#    0.000    2.400    0.000    7.200    0.000    1.600 
#    0.000    1.000    0.000    2.400    0.000    0.000 
#    0.000    0.000    0.000    0.000    0.000    0.000 
#
# Total GULP energy -111553.844718 kJ/mol
# GULP energy per Si atom -5577.692236 kJ/mol
# Density = 2.215823 g / cm^3
# Si number density = 22.208774 Si / 1000 Ang^3
#
#
#
# Elastic Constant Matrix: (Units=GPa)
#
#
# Indices 1 2 3 4 5 6 
#
# 1 49.8521 17.9867 11.9052 -0.0001 -10.6363 -0.0001
# 2 17.9867 133.2228 62.5927 -0.0002 1.8098 -0.0001
# 3 11.9052 62.5927 119.8897 -0.0003 -16.1593 -0.0002
# 4 -0.0001 -0.0002 -0.0003 31.5002 -0.0002 0.8068
# 5 -10.6363 1.8098 -16.1593 -0.0002 30.9270 -0.0001
# 6 -0.0001 -0.0001 -0.0002 0.8068 -0.0001 -0.9461
#
#
#
# Elastic Compliance Matrix: (Units=1/GPa)
#
#
# Indices 1 2 3 4 5 6 
#
# 1 0.022981 -0.003555 0.000718 0.000000 0.008487 -0.000002
# 2 -0.003555 0.010871 -0.005995 0.000000 -0.004991 0.000001
# 3 0.000718 -0.005995 0.012350 0.000000 0.007051 -0.000003
# 4 0.000000 0.000000 0.000000 0.031067 0.000000 0.026493
# 5 0.008487 -0.004991 0.007051 0.000000 0.039229 -0.000006
# 6 -0.000002 0.000001 -0.000003 0.026493 -0.000006 -1.034407
#
#
# Mechanical properties :
#
#
# Convention : Reuss Voigt Hill
#
# Bulk Modulus (GPa) = 35.04212 54.21488 44.62850
# Shear Modulus (GPa) = -5.61336 26.32823 10.35743
#
# Velocity S-wave (km/s) = -1.59155 3.44683 2.16190
# Velocity P-wave (km/s) = 3.52638 6.34864 5.13521
#
# Compressibility (1/GPa) = 0.02853709
#
# Stress axis : x y z
#
# Youngs Moduli (GPa) = 43.51348 91.98953 80.97153
#
# Poissons Ratio (x) = 0.32706 -0.05814
# Poissons Ratio (y) = 0.15471 0.48544
# Poissons Ratio (z) = -0.03125 0.55150
#
# Static dielectric constant tensor:
#      x y z
#    x 1.868660 0.000000 -0.044930 
#    y 0.000000 1.913050 0.000000 
#    z -0.044930 0.000000 1.799950 
# 
# From -- ./inp_files/86085.got.cif
#   From: 2010.05.17/outbox.cif.g08.bks.cpg/sg12_44_cif.got.tgz:86085.got - 2010.06.03 13:09:07.
