data_PCOD9178082
_publ_section_title
;
Structure prediction by ZEFSAII (Michael W. Deem and Ramdas Pophale) SiO2 
 PCOD9178082
Probable space group: C 2/M
;
_chemical_formula_sum "Si O2"
_cell_formula_units_Z 56
_cell_length_a 33.640556
_cell_length_b 8.257609
_cell_length_c 19.656166
_cell_angle_alpha 90.000000
_cell_angle_beta 148.343134
_cell_angle_gamma 90.000000
_cell_volume 2865.733226
_symmetry_space_group_name_H-M "C 2/M"
_symmetry_group_IT_number 12
_symmetry_cell_setting 'monoclinic'
loop_
_space_group_symop_operation_xyz
x,y,z
-x,y,-z
-x,-y,-z
x,-y,z
1/2+x,1/2+y,z
1/2-x,1/2+y,-z
1/2-x,1/2-y,-z
1/2+x,1/2-y,z
loop_
_atom_site_type_symbol
_atom_site_label
_atom_site_fract_x
_atom_site_fract_y
_atom_site_fract_z
Si Si1 0.165274 0.695708 0.590798
Si Si2 0.584672 0.195473 0.610351
Si Si3 0.346443 0.186360 0.573765
Si Si4 0.433248 0.185062 0.949004
Si Si5 0.182465 0.304223 0.114263
Si Si6 0.335971 0.679899 0.699429
Si Si7 0.235396 0.192701 0.902127
O O1 0.170980 0.500000 0.593640
O O2 0.109090 0.738346 0.569560
O O3 0.135728 0.753825 0.474744
O O4 0.247138 0.756960 0.734514
O O5 0.500000 0.254170 0.500000
O O6 0.650947 0.259282 0.755481
O O7 0.585292 0.000000 0.617055
O O8 0.369586 0.283995 0.674026
O O9 0.254590 0.183886 0.438805
O O10 0.372614 0.000000 0.618865
O O11 0.395301 0.254364 0.962654
O O12 0.364780 0.190797 0.795095
O O13 0.456866 0.000000 0.998496
O O14 0.500000 0.261692 0.000000
O O15 0.177738 0.500000 0.105793
O O16 0.207239 0.246752 0.074569
O O17 0.356732 0.500000 0.753610
O O18 0.241663 0.000000 0.910584
O O19 0.250000 0.250000 0.000000
#
# Coordination Sequence:
#
# PCOD9178082 Si02
#       7
#     8   8   8   8   8   8   8
#     4   9  16  29  50  74  99 128 165 204 246 297
#     4   9  18  33  54  80 108 137 169 210 262 317
#     4   9  17  29  46  69  95 124 157 196 239 284
#     4  10  20  34  51  70  96 131 167 205 251 300
#     4   9  18  32  51  74  98 126 168 213 251 297
#     4  10  19  30  46  69  95 124 158 199 242 283
#     4  10  20  35  56  81 106 137 176 219 264 312
#
# _framework density 19.541248
#
# number of rings (size 3 to 8) (size 9 to 14) (size 15 to 20)
#    0.000    2.571    1.429    0.857    0.000    2.286 
#    0.000    1.429    0.000    8.571    0.000    0.000 
#    0.000    0.000    0.000    0.000    0.000    0.000 
#
# Total GULP energy -155915.938373 kJ/mol
# GULP energy per Si atom -5568.426370 kJ/mol
# Density = 1.949677 g / cm^3
# Si number density = 19.541248 Si / 1000 Ang^3
#
#
#
# Elastic Constant Matrix: (Units=GPa)
#
#
# Indices 1 2 3 4 5 6 
#
# 1 182.5930 13.2634 59.1107 0.0000 -1.4946 0.0000
# 2 13.2634 13.3153 5.4937 0.0000 2.0367 0.0000
# 3 59.1107 5.4937 33.6163 0.0000 -10.1487 0.0000
# 4 0.0000 0.0000 0.0000 21.3736 0.0000 -3.5857
# 5 -1.4946 2.0367 -10.1487 0.0000 36.2535 0.0000
# 6 0.0000 0.0000 0.0000 -3.5857 0.0000 14.7283
#
#
#
# Elastic Compliance Matrix: (Units=1/GPa)
#
#
# Indices 1 2 3 4 5 6 
#
# 1 0.014218 -0.002111 -0.026700 0.000000 -0.006769 0.000000
# 2 -0.002111 0.083605 -0.012447 0.000000 -0.008268 0.000000
# 3 -0.026700 -0.012447 0.085866 0.000000 0.023635 0.000000
# 4 0.000000 0.000000 0.000000 0.048779 0.000000 0.011876
# 5 -0.006769 -0.008268 0.023635 0.000000 0.034385 0.000000
# 6 0.000000 0.000000 0.000000 0.011876 0.000000 0.070788
#
#
# Mechanical properties :
#
#
# Convention : Reuss Voigt Hill
#
# Bulk Modulus (GPa) = 9.88405 42.80669 26.34537
# Shear Modulus (GPa) = 11.01614 24.58155 17.79885
#
# Velocity S-wave (km/s) = 2.37689 3.55058 3.02128
# Velocity P-wave (km/s) = 3.54991 6.22593 5.06774
#
# Compressibility (1/GPa) = 0.10117311
#
# Stress axis : x y z
#
# Youngs Moduli (GPa) = 70.33311 11.96106 11.64612
#
# Poissons Ratio (x) = 0.02525 0.31095
# Poissons Ratio (y) = 0.14850 0.14496
# Poissons Ratio (z) = 1.87787 0.14888
#
# Static dielectric constant tensor:
#      x y z
#    x 1.766690 0.000000 0.006800 
#    y 0.000000 1.709540 0.000000 
#    z 0.006800 0.000000 1.668970 
# 
# From -- ./inp_files/295145.got.cif
#   From: 2010.05.17/outbox.cif.g08.bks.cpg/sg12_148_cif.got.tgz:295145.got - 2010.06.03 13:09:07.
