data_PCOD9178380
_publ_section_title
;
Structure prediction by ZEFSAII (Michael W. Deem and Ramdas Pophale) SiO2 
 PCOD9178380
Probable space group: C 2/M
;
_chemical_formula_sum "Si O2"
_cell_formula_units_Z 58
_cell_length_a 5.045727
_cell_length_b 17.594472
_cell_length_c 34.277513
_cell_angle_alpha 90.000000
_cell_angle_beta 100.903067
_cell_angle_gamma 90.000000
_cell_volume 2988.120055
_symmetry_space_group_name_H-M "C 2/M"
_symmetry_group_IT_number 12
_symmetry_cell_setting 'monoclinic'
loop_
_space_group_symop_operation_xyz
x,y,z
-x,y,-z
-x,-y,-z
x,-y,z
1/2+x,1/2+y,z
1/2-x,1/2+y,-z
1/2-x,1/2-y,-z
1/2+x,1/2-y,z
loop_
_atom_site_type_symbol
_atom_site_label
_atom_site_fract_x
_atom_site_fract_y
_atom_site_fract_z
Si Si1 0.461781 0.303399 0.601744
Si Si2 0.723752 0.411382 0.472612
Si Si3 0.469895 0.302503 0.954280
Si Si4 0.203329 0.801900 0.771033
Si Si5 0.000000 0.500000 0.000000
Si Si6 0.033920 0.802430 0.312244
Si Si7 0.779043 0.195304 0.141754
Si Si8 0.452344 0.916836 0.079667
O O1 0.748022 0.265859 0.599247
O O2 0.364468 0.361374 0.566379
O O3 0.471970 0.339982 0.645414
O O4 0.500000 0.407852 0.500000
O O5 0.760741 0.500000 0.462340
O O6 0.000000 0.383473 0.500000
O O7 0.746108 0.264624 0.948411
O O8 0.442476 0.263582 0.862008
O O9 0.330051 0.372001 0.928748
O O10 0.500000 0.326498 0.000000
O O11 0.502171 0.770844 0.770615
O O12 0.083621 0.843047 0.729518
O O13 0.198334 0.837856 0.813693
O O14 0.978746 0.434877 0.964100
O O15 0.331051 0.769906 0.312009
O O16 0.664673 0.131645 0.109917
O O17 0.417810 0.000000 0.096641
#
# Coordination Sequence:
#
# PCOD9178380 Si02
#       8
#     8   8   8   8   2   8   8   8
#     4  10  19  30  48  73 100 127 166 215 259 304
#     4  10  21  35  48  64  93 136 178 215 259 309
#     4  10  22  37  58  79 100 127 165 206 242 279
#     4   8  14  26  49  74 101 128 157 198 246 299
#     4   8  24  40  58  76 110 144 172 204 254 308
#     4   8  14  25  42  71 101 126 154 196 253 305
#     4  10  20  38  59  83 105 132 173 213 248 290
#     4  10  22  40  57  78 108 140 171 205 250 303
#
# _framework density 19.410195999999999
#
# number of rings (size 3 to 8) (size 9 to 14) (size 15 to 20)
#    0.414    2.207    0.000    1.655    2.897    1.931 
#    0.000    2.759    0.000    1.241    0.000    0.000 
#    0.000   22.069    0.000    0.000    0.000    3.310 
#
# Total GULP energy -161466.031388 kJ/mol
# GULP energy per Si atom -5567.794186 kJ/mol
# Density = 1.936602 g / cm^3
# Si number density = 19.410196 Si / 1000 Ang^3
#
#
#
# Elastic Constant Matrix: (Units=GPa)
#
#
# Indices 1 2 3 4 5 6 
#
# 1 80.4295 10.2359 15.2796 0.0000 5.5444 0.0000
# 2 10.2359 58.9331 46.6729 0.0000 9.3695 0.0000
# 3 15.2796 46.6729 165.3786 0.0000 24.1897 0.0000
# 4 0.0000 0.0000 0.0000 10.1943 0.0000 -3.0864
# 5 5.5444 9.3695 24.1897 0.0000 31.8666 0.0000
# 6 0.0000 0.0000 0.0000 -3.0864 0.0000 19.6478
#
#
#
# Elastic Compliance Matrix: (Units=1/GPa)
#
#
# Indices 1 2 3 4 5 6 
#
# 1 0.012831 -0.001586 -0.000540 0.000000 -0.001357 0.000000
# 2 -0.001586 0.022158 -0.005843 0.000000 -0.001804 0.000000
# 3 -0.000540 -0.005843 0.008415 0.000000 -0.004576 0.000000
# 4 0.000000 0.000000 0.000000 0.102992 0.000000 0.016178
# 5 -0.001357 -0.001804 -0.004576 0.000000 0.035621 0.000000
# 6 0.000000 0.000000 0.000000 0.016178 0.000000 0.053438
#
#
# Mechanical properties :
#
#
# Convention : Reuss Voigt Hill
#
# Bulk Modulus (GPa) = 36.40660 49.90200 43.15430
# Shear Modulus (GPa) = 19.19043 27.84526 23.51785
#
# Velocity S-wave (km/s) = 3.14774 3.79168 3.48461
# Velocity P-wave (km/s) = 5.65757 6.70329 6.20251
#
# Compressibility (1/GPa) = 0.02746754
#
# Stress axis : x y z
#
# Youngs Moduli (GPa) = 77.93582 45.13024 118.83646
#
# Poissons Ratio (x) = 0.07156 0.06412
# Poissons Ratio (y) = 0.12357 0.69438
# Poissons Ratio (z) = 0.04205 0.26370
#
# Static dielectric constant tensor:
#      x y z
#    x 1.703270 0.000000 -0.006990 
#    y 0.000000 1.645230 0.000000 
#    z -0.006990 0.000000 1.779300 
# 
# From -- ./inp_files/354953.got.cif
#   From: 2010.05.17/outbox.cif.g08.bks.cpg/sg12_178_cif.got.tgz:354953.got - 2010.06.03 13:09:07.
