data_PCOD9178874
_publ_section_title
;
Structure prediction by ZEFSAII (Michael W. Deem and Ramdas Pophale) SiO2 
 PCOD9178874
Probable space group: C 2/M
;
_chemical_formula_sum "Si O2"
_cell_formula_units_Z 64
_cell_length_a 14.415030
_cell_length_b 7.856813
_cell_length_c 24.366897
_cell_angle_alpha 90.000000
_cell_angle_beta 111.624520
_cell_angle_gamma 90.000000
_cell_volume 2565.471065
_symmetry_space_group_name_H-M "C 2/M"
_symmetry_group_IT_number 12
_symmetry_cell_setting 'monoclinic'
loop_
_space_group_symop_operation_xyz
x,y,z
-x,y,-z
-x,-y,-z
x,-y,z
1/2+x,1/2+y,z
1/2-x,1/2+y,-z
1/2-x,1/2-y,-z
1/2+x,1/2-y,z
loop_
_atom_site_type_symbol
_atom_site_label
_atom_site_fract_x
_atom_site_fract_y
_atom_site_fract_z
Si Si1 0.319632 0.796715 0.871827
Si Si2 0.613388 0.795325 0.002218
Si Si3 0.544200 0.206773 0.875552
Si Si4 0.612118 0.290812 0.505989
Si Si5 0.339023 0.306317 0.369148
Si Si6 0.289657 0.686919 0.754670
Si Si7 0.982731 0.686450 0.750227
Si Si8 0.068493 0.189833 0.382793
O O1 0.317320 0.728004 0.933395
O O2 0.432714 0.761831 0.875019
O O3 0.254379 0.719719 0.808760
O O4 0.305614 0.000000 0.869940
O O5 0.628515 0.000000 0.002620
O O6 0.500000 0.772976 0.000000
O O7 0.614551 0.727645 0.940269
O O8 0.547154 0.273340 0.813509
O O9 0.554645 0.000000 0.874806
O O10 0.500000 0.241516 0.500000
O O11 0.615049 0.500000 0.505366
O O12 0.677090 0.237686 0.572897
O O13 0.627782 0.226227 0.447210
O O14 0.299273 0.500000 0.358468
O O15 0.293270 0.203085 0.309518
O O16 0.456593 0.317559 0.383171
O O17 0.335508 0.500000 0.761553
O O18 0.375081 0.818046 0.756504
O O19 0.026077 0.500000 0.750877
O O20 0.951974 0.749138 0.683264
O O21 0.109145 0.000000 0.385390
#
# Coordination Sequence:
#
# PCOD9178874 Si02
#       8
#     8   8   8   8   8   8   8   8
#     4   8  13  23  40  60  83 113 148 184 225 271
#     4   7   9  16  34  58  80 105 143 186 220 257
#     4   7  11  20  36  59  84 112 147 184 218 258
#     4   7  12  26  49  72  90 112 144 183 226 270
#     4   9  17  32  53  72  91 118 152 186 224 274
#     4  11  21  31  44  65  96 127 155 189 228 267
#     4  10  19  31  47  67  95 128 157 184 222 273
#     4   9  17  31  52  75  95 115 145 187 231 273
#
# _framework density 24.946684999999999
#
# number of rings (size 3 to 8) (size 9 to 14) (size 15 to 20)
#    0.000    3.500    0.000    5.250    0.000    0.500 
#    0.000    1.250    0.000   12.375    0.000    0.875 
#    0.000    0.000    0.000    0.000    0.000    0.000 
#
# Total GULP energy -178149.191565 kJ/mol
# GULP energy per Si atom -5567.162236 kJ/mol
# Density = 2.488991 g / cm^3
# Si number density = 24.946685 Si / 1000 Ang^3
#
#
#
# Elastic Constant Matrix: (Units=GPa)
#
#
# Indices 1 2 3 4 5 6 
#
# 1 67.5211 -5.0019 13.7523 0.0000 -21.8184 0.0000
# 2 -5.0019 48.9747 37.1510 0.0000 1.6279 0.0000
# 3 13.7523 37.1510 376.9169 0.0000 -43.8728 0.0000
# 4 0.0000 0.0000 0.0000 -3.6607 0.0000 -6.5086
# 5 -21.8184 1.6279 -43.8728 0.0000 33.6530 0.0000
# 6 0.0000 0.0000 0.0000 -6.5086 0.0000 3.6691
#
#
#
# Elastic Compliance Matrix: (Units=1/GPa)
#
#
# Indices 1 2 3 4 5 6 
#
# 1 0.019013 0.000924 0.000760 0.000000 0.013273 0.000000
# 2 0.000924 0.022735 -0.002750 0.000000 -0.004086 0.000000
# 3 0.000760 -0.002750 0.003500 0.000000 0.005189 0.000000
# 4 0.000000 0.000000 0.000000 -0.065762 0.000000 -0.116655
# 5 0.013273 -0.004086 0.005189 0.000000 0.045283 0.000000
# 6 0.000000 0.000000 0.000000 -0.116655 0.000000 0.065611
#
#
# Mechanical properties :
#
#
# Convention : Reuss Voigt Hill
#
# Bulk Modulus (GPa) = 23.19313 65.02395 44.10854
# Shear Modulus (GPa) = 46.77961 36.56638 41.67300
#
# Velocity S-wave (km/s) = 4.33504 3.83271 4.09159
# Velocity P-wave (km/s) = 5.86293 6.76076 6.32779
#
# Compressibility (1/GPa) = 0.04311622
#
# Stress axis : x y z
#
# Youngs Moduli (GPa) = 52.59630 43.98479 285.67436
#
# Poissons Ratio (x) = -0.04064 -0.21716
# Poissons Ratio (y) = -0.04860 0.78567
# Poissons Ratio (z) = -0.03998 0.12097
#
# Static dielectric constant tensor:
#      x y z
#    x 2.023760 0.000000 0.022440 
#    y 0.000000 1.932150 0.000000 
#    z 0.022440 0.000000 2.147340 
# 
# From -- ./inp_files/348332.got.cif
#   From: 2010.05.17/outbox.cif.g08.bks.cpg/sg12_175_cif.got.tgz:348332.got - 2010.06.03 13:09:07.
