data_PCOD9178604
_publ_section_title
;
Structure prediction by ZEFSAII (Michael W. Deem and Ramdas Pophale) SiO2 
 PCOD9178604
Probable space group: C 2/M
;
_chemical_formula_sum "Si O2"
_cell_formula_units_Z 48
_cell_length_a 23.146974
_cell_length_b 7.761228
_cell_length_c 12.681242
_cell_angle_alpha 90.000000
_cell_angle_beta 110.219178
_cell_angle_gamma 90.000000
_cell_volume 2137.784836
_symmetry_space_group_name_H-M "C 2/M"
_symmetry_group_IT_number 12
_symmetry_cell_setting 'monoclinic'
loop_
_space_group_symop_operation_xyz
x,y,z
-x,y,-z
-x,-y,-z
x,-y,z
1/2+x,1/2+y,z
1/2-x,1/2+y,-z
1/2-x,1/2-y,-z
1/2+x,1/2-y,z
loop_
_atom_site_type_symbol
_atom_site_label
_atom_site_fract_x
_atom_site_fract_y
_atom_site_fract_z
Si Si1 0.572346 0.698120 0.077424
Si Si2 0.962212 0.301880 0.719598
Si Si3 0.097758 0.795970 0.868248
Si Si4 0.776562 0.207275 0.130598
Si Si5 0.345228 0.789521 0.537763
Si Si6 0.739649 0.797736 0.325043
O O1 0.591836 0.500000 0.106424
O O2 0.573572 0.790734 0.190287
O O3 0.500000 0.693714 0.000000
O O4 0.602143 0.777162 0.990771
O O5 0.973241 0.500000 0.701771
O O6 0.914931 0.231114 0.603143
O O7 0.029385 0.223706 0.779312
O O8 0.152564 0.730711 0.829583
O O9 0.106992 0.000000 0.888629
O O10 0.738961 0.276737 0.207027
O O11 0.776861 0.000000 0.142720
O O12 0.750000 0.250000 0.000000
O O13 0.304801 0.725614 0.612668
O O14 0.308881 0.724250 0.413290
O O15 0.344404 0.000000 0.535060
O O16 0.724654 0.000000 0.310267
#
# Coordination Sequence:
#
# PCOD9178604 Si02
#       6
#     8   8   8   8   8   8
#     4   8  15  28  45  67 101 138 170 208 251 303
#     4  10  19  30  50  79 106 135 173 220 269 310
#     4   9  19  35  50  72 107 142 176 213 256 316
#     4  10  22  38  57  80 108 142 179 218 263 318
#     4   9  19  35  55  80 108 135 173 224 270 312
#     4   9  19  37  57  78 105 138 178 221 262 312
#
# _framework density 22.453147000000001
#
# number of rings (size 3 to 8) (size 9 to 14) (size 15 to 20)
#    0.000    2.833    0.000    1.500    2.333    5.667 
#    0.000    0.833    0.000    5.000    0.000    0.000 
#    0.000    0.000    0.000    0.000    0.000    0.000 
#
# Total GULP energy -133848.934973 kJ/mol
# GULP energy per Si atom -5577.038957 kJ/mol
# Density = 2.240204 g / cm^3
# Si number density = 22.453147 Si / 1000 Ang^3
#
#
#
# Elastic Constant Matrix: (Units=GPa)
#
#
# Indices 1 2 3 4 5 6 
#
# 1 45.3835 -0.8637 14.8010 0.0000 2.5888 0.0000
# 2 -0.8637 28.1426 -14.6672 0.0000 -7.1137 0.0000
# 3 14.8010 -14.6672 78.5644 0.0000 4.6481 0.0000
# 4 0.0000 0.0000 0.0000 19.2037 0.0000 7.7058
# 5 2.5888 -7.1137 4.6481 0.0000 36.3700 0.0000
# 6 0.0000 0.0000 0.0000 7.7058 0.0000 9.2982
#
#
#
# Elastic Compliance Matrix: (Units=1/GPa)
#
#
# Indices 1 2 3 4 5 6 
#
# 1 0.023632 -0.002134 -0.004762 0.000000 -0.001491 0.000000
# 2 -0.002134 0.041305 0.007684 0.000000 0.007249 0.000000
# 3 -0.004762 0.007684 0.015065 0.000000 -0.000083 0.000000
# 4 0.000000 0.000000 0.000000 0.078018 0.000000 -0.064656
# 5 -0.001491 0.007249 -0.000083 0.000000 0.029030 0.000000
# 6 0.000000 0.000000 0.000000 -0.064656 0.000000 0.161131
#
#
# Mechanical properties :
#
#
# Convention : Reuss Voigt Hill
#
# Bulk Modulus (GPa) = 12.25803 16.73676 14.49740
# Shear Modulus (GPa) = 13.37627 23.16241 18.26934
#
# Velocity S-wave (km/s) = 2.44343 3.21532 2.85558
# Velocity P-wave (km/s) = 3.66493 4.61027 4.16451
#
# Compressibility (1/GPa) = 0.08157915
#
# Stress axis : x y z
#
# Youngs Moduli (GPa) = 42.31556 24.21017 66.37866
#
# Poissons Ratio (x) = 0.05165 0.31611
# Poissons Ratio (y) = 0.09028 -0.51007
# Poissons Ratio (z) = 0.20152 -0.18604
#
# Static dielectric constant tensor:
#      x y z
#    x 1.892430 0.000000 -0.008220 
#    y 0.000000 1.826700 0.000000 
#    z -0.008220 0.000000 1.860860 
# 
# From -- ./inp_files/173070.got.cif
#   From: 2010.05.17/outbox.cif.g08.bks.cpg/sg12_87_cif.got.tgz:173070.got - 2010.06.03 13:09:07.
