data_PCOD9178109
_publ_section_title
;
Structure prediction by ZEFSAII (Michael W. Deem and Ramdas Pophale) SiO2 
 PCOD9178109
Probable space group: C 2/M
;
_chemical_formula_sum "Si O2"
_cell_formula_units_Z 64
_cell_length_a 7.480984
_cell_length_b 25.441496
_cell_length_c 24.546639
_cell_angle_alpha 90.000000
_cell_angle_beta 123.709472
_cell_angle_gamma 90.000000
_cell_volume 3886.376697
_symmetry_space_group_name_H-M "C 2/M"
_symmetry_group_IT_number 12
_symmetry_cell_setting 'monoclinic'
loop_
_space_group_symop_operation_xyz
x,y,z
-x,y,-z
-x,-y,-z
x,-y,z
1/2+x,1/2+y,z
1/2-x,1/2+y,-z
1/2-x,1/2-y,-z
1/2+x,1/2-y,z
loop_
_atom_site_type_symbol
_atom_site_label
_atom_site_fract_x
_atom_site_fract_y
_atom_site_fract_z
Si Si1 0.432213 0.299280 0.855452
Si Si2 0.983407 0.681852 0.140577
Si Si3 0.255414 0.559076 0.054180
Si Si4 0.190862 0.833235 0.992773
Si Si5 0.301751 0.436502 0.672879
Si Si6 0.124293 0.886554 0.812679
Si Si7 0.327256 0.936156 0.582149
Si Si8 0.386073 0.436126 0.563682
O O1 0.408508 0.238896 0.835242
O O2 0.489980 0.338544 0.816729
O O3 0.224827 0.318920 0.854908
O O4 0.645877 0.301267 0.930314
O O5 0.160548 0.636956 0.178177
O O6 0.902385 0.674772 0.064118
O O7 0.337039 0.500000 0.057278
O O8 0.309144 0.576303 0.125085
O O9 0.338863 0.606009 0.029906
O O10 0.000000 0.558870 0.000000
O O11 0.000000 0.816863 0.000000
O O12 0.309773 0.500000 0.675555
O O13 0.475003 0.415037 0.744005
O O14 0.344504 0.419076 0.617946
O O15 0.056991 0.419483 0.643579
O O16 0.281886 0.920029 0.511810
O O17 0.121734 0.920002 0.582614
O O18 0.327763 0.000000 0.581926
O O19 0.380278 0.500000 0.563262
#
# Coordination Sequence:
#
# PCOD9178109 Si02
#       8
#     8   8   8   8   8   8   8   8
#     4  10  21  33  53  72  92 118 153 206 271 309
#     4  11  19  35  51  72  93 118 153 210 263 311
#     4  10  19  33  50  65  92 133 171 204 237 279
#     4   9  19  32  50  75  92 112 156 207 259 307
#     4  10  19  30  46  70 105 143 173 197 230 283
#     4  11  22  34  49  71 101 132 167 204 246 301
#     4   8  14  26  46  71 102 133 167 205 238 275
#     4   8  14  26  46  72  99 134 170 202 239 275
#
# _framework density 16.467780999999999
#
# number of rings (size 3 to 8) (size 9 to 14) (size 15 to 20)
#    0.000    2.375    2.500    1.875    0.000    2.750 
#    0.000    0.000    0.000    1.500    0.000    0.000 
#    0.000    4.000    0.000    0.000    0.000    0.000 
#
# Total GULP energy -178242.700118 kJ/mol
# GULP energy per Si atom -5570.084379 kJ/mol
# Density = 1.643030 g / cm^3
# Si number density = 16.467781 Si / 1000 Ang^3
#
#
#
# Elastic Constant Matrix: (Units=GPa)
#
#
# Indices 1 2 3 4 5 6 
#
# 1 61.6435 0.7343 24.4449 0.0000 14.1113 0.0000
# 2 0.7343 43.4148 10.0684 0.0000 4.8591 0.0000
# 3 24.4449 10.0684 67.8966 0.0000 22.5987 0.0000
# 4 0.0000 0.0000 0.0000 2.6077 0.0000 5.2121
# 5 14.1113 4.8591 22.5987 0.0000 22.9709 0.0000
# 6 0.0000 0.0000 0.0000 5.2121 0.0000 20.2396
#
#
#
# Elastic Compliance Matrix: (Units=1/GPa)
#
#
# Indices 1 2 3 4 5 6 
#
# 1 0.019903 0.001655 -0.004795 0.000000 -0.007859 0.000000
# 2 0.001655 0.024076 -0.003171 0.000000 -0.002990 0.000000
# 3 -0.004795 -0.003171 0.023375 0.000000 -0.019380 0.000000
# 4 0.000000 0.000000 0.000000 0.790221 0.000000 -0.203499
# 5 -0.007859 -0.002990 -0.019380 0.000000 0.068060 0.000000
# 6 0.000000 0.000000 0.000000 -0.203499 0.000000 0.101813
#
#
# Mechanical properties :
#
#
# Convention : Reuss Voigt Hill
#
# Bulk Modulus (GPa) = 18.27082 27.05000 22.66041
# Shear Modulus (GPa) = 4.72449 18.34414 11.53431
#
# Velocity S-wave (km/s) = 1.69563 3.34120 2.64941
# Velocity P-wave (km/s) = 3.86685 5.59879 4.81139
#
# Compressibility (1/GPa) = 0.05473208
#
# Stress axis : x y z
#
# Youngs Moduli (GPa) = 50.24281 41.53579 42.77986
#
# Poissons Ratio (x) = -0.06875 0.20515
# Poissons Ratio (y) = -0.08316 0.13565
# Poissons Ratio (z) = 0.24093 0.13171
#
# Static dielectric constant tensor:
#      x y z
#    x 1.583190 0.000000 0.001680 
#    y 0.000000 1.554940 0.000000 
#    z 0.001680 0.000000 1.551630 
# 
# From -- ./inp_files/302657.got.cif
#   From: 2010.05.17/outbox.cif.g08.bks.cpg/sg12_152_cif.got.tgz:302657.got - 2010.06.03 13:09:07.
