data_PCOD9178895
_publ_section_title
;
Structure prediction by ZEFSAII (Michael W. Deem and Ramdas Pophale) SiO2 
 PCOD9178895
Probable space group: C 2/M
;
_chemical_formula_sum "Si O2"
_cell_formula_units_Z 56
_cell_length_a 29.367743
_cell_length_b 7.508182
_cell_length_c 19.552850
_cell_angle_alpha 90.000000
_cell_angle_beta 139.806466
_cell_angle_gamma 90.000000
_cell_volume 2782.436136
_symmetry_space_group_name_H-M "C 2/M"
_symmetry_group_IT_number 12
_symmetry_cell_setting 'monoclinic'
loop_
_space_group_symop_operation_xyz
x,y,z
-x,y,-z
-x,-y,-z
x,-y,z
1/2+x,1/2+y,z
1/2-x,1/2+y,-z
1/2-x,1/2-y,-z
1/2+x,1/2-y,z
loop_
_atom_site_type_symbol
_atom_site_label
_atom_site_fract_x
_atom_site_fract_y
_atom_site_fract_z
Si Si1 0.222302 0.210359 0.065903
Si Si2 0.239361 0.716990 0.381711
Si Si3 0.363520 0.794938 0.158166
Si Si4 0.521750 0.217568 0.344438
Si Si5 0.428416 0.707611 0.449596
Si Si6 0.866828 0.292387 0.630764
Si Si7 0.727752 0.714362 0.733195
O O1 0.297383 0.284296 0.123678
O O2 0.222083 0.240225 0.146220
O O3 0.220912 0.000000 0.050585
O O4 0.160726 0.289417 0.948669
O O5 0.239870 0.500000 0.383821
O O6 0.169920 0.780580 0.343028
O O7 0.306314 0.777765 0.503138
O O8 0.246841 0.775893 0.312123
O O9 0.441161 0.718088 0.256560
O O10 0.368855 0.000000 0.186590
O O11 0.562992 0.278887 0.459075
O O12 0.562951 0.280946 0.324140
O O13 0.522235 0.000000 0.344724
O O14 0.500000 0.787742 0.500000
O O15 0.427230 0.500000 0.427227
O O16 0.351795 0.783516 0.343158
O O17 0.880650 0.500000 0.660201
O O18 0.722919 0.500000 0.723669
#
# Coordination Sequence:
#
# PCOD9178895 Si02
#       7
#     8   8   8   8   8   8   8
#     4  10  20  33  51  72  92 121 163 203 235 277
#     4   9  17  30  47  68  96 128 160 193 233 281
#     4   9  19  35  51  69  95 125 157 196 242 285
#     4  10  19  31  49  72  97 125 156 195 241 285
#     4  10  20  31  44  67  99 132 161 189 229 284
#     4   9  17  29  47  71  96 123 159 198 233 278
#     4  10  19  31  47  68  97 130 158 191 237 283
#
# _framework density 20.126246999999999
#
# number of rings (size 3 to 8) (size 9 to 14) (size 15 to 20)
#    0.000    2.429    1.429    1.286    0.000    2.571 
#    0.000    0.000    0.000    0.857    0.000    6.000 
#    0.000    0.000    0.000    0.000    0.000    0.000 
#
# Total GULP energy -156209.632764 kJ/mol
# GULP energy per Si atom -5578.915456 kJ/mol
# Density = 2.008044 g / cm^3
# Si number density = 20.126247 Si / 1000 Ang^3
#
#
#
# Elastic Constant Matrix: (Units=GPa)
#
#
# Indices 1 2 3 4 5 6 
#
# 1 56.0243 -2.2424 -10.1827 0.0000 -17.3615 0.0000
# 2 -2.2424 57.0375 -15.9746 0.0000 3.3067 0.0000
# 3 -10.1827 -15.9746 51.5600 0.0000 -13.7656 0.0000
# 4 0.0000 0.0000 0.0000 11.3078 0.0000 -10.8423
# 5 -17.3615 3.3067 -13.7656 0.0000 30.4213 0.0000
# 6 0.0000 0.0000 0.0000 -10.8423 0.0000 3.4545
#
#
#
# Elastic Compliance Matrix: (Units=1/GPa)
#
#
# Indices 1 2 3 4 5 6 
#
# 1 0.026165 0.003075 0.011394 0.000000 0.019754 0.000000
# 2 0.003075 0.019572 0.007475 0.000000 0.003009 0.000000
# 3 0.011394 0.007475 0.028981 0.000000 0.018804 0.000000
# 4 0.000000 0.000000 0.000000 -0.044010 0.000000 -0.138130
# 5 0.019754 0.003009 0.018804 0.000000 0.052327 0.000000
# 6 0.000000 0.000000 0.000000 -0.138130 0.000000 -0.144061
#
#
# Mechanical properties :
#
#
# Convention : Reuss Voigt Hill
#
# Bulk Modulus (GPa) = 8.43139 11.98028 10.20584
# Shear Modulus (GPa) = -76.47987 21.90482 -27.28753
#
# Velocity S-wave (km/s) = -6.17111 3.30263 -3.68614
# Velocity P-wave (km/s) = 6.82484 4.52864 3.61039
#
# Compressibility (1/GPa) = 0.11860434
#
# Stress axis : x y z
#
# Youngs Moduli (GPa) = 38.21908 51.09306 34.50508
#
# Poissons Ratio (x) = -0.15709 -0.39315
# Poissons Ratio (y) = -0.11751 -0.25791
# Poissons Ratio (z) = -0.43546 -0.38190
#
# Static dielectric constant tensor:
#      x y z
#    x 1.761750 0.000000 0.001780 
#    y 0.000000 1.781930 0.000000 
#    z 0.001780 0.000000 1.676670 
# 
# From -- ./inp_files/288183.got.cif
#   From: 2010.05.17/outbox.cif.g08.bks.cpg/sg12_145_cif.got.tgz:288183.got - 2010.06.03 13:09:07.
