data_PCOD9178494
_publ_section_title
;
Structure prediction by ZEFSAII (Michael W. Deem and Ramdas Pophale) SiO2 
 PCOD9178494
Probable space group: C 2/M
;
_chemical_formula_sum "Si O2"
_cell_formula_units_Z 58
_cell_length_a 16.992973
_cell_length_b 14.856062
_cell_length_c 11.994094
_cell_angle_alpha 90.000000
_cell_angle_beta 126.682199
_cell_angle_gamma 90.000000
_cell_volume 2428.252915
_symmetry_space_group_name_H-M "C 2/M"
_symmetry_group_IT_number 12
_symmetry_cell_setting 'monoclinic'
loop_
_space_group_symop_operation_xyz
x,y,z
-x,y,-z
-x,-y,-z
x,-y,z
1/2+x,1/2+y,z
1/2-x,1/2+y,-z
1/2-x,1/2-y,-z
1/2+x,1/2-y,z
loop_
_atom_site_type_symbol
_atom_site_label
_atom_site_fract_x
_atom_site_fract_y
_atom_site_fract_z
Si Si1 0.120060 0.717141 0.380078
Si Si2 0.000000 0.500000 0.000000
Si Si3 0.619066 0.661474 0.031113
Si Si4 0.425086 0.896698 0.211005
Si Si5 0.338872 0.847213 0.815944
Si Si6 0.267250 0.601922 0.079725
Si Si7 0.906311 0.899364 0.761204
Si Si8 0.619963 0.102560 0.589807
O O1 0.179882 0.674106 0.329027
O O2 0.150476 0.675876 0.524905
O O3 0.009405 0.676468 0.272366
O O4 0.118737 0.822598 0.349936
O O5 0.078106 0.422852 0.109578
O O6 0.617867 0.759034 0.086297
O O7 0.682447 0.661016 0.971927
O O8 0.651900 0.605166 0.169190
O O9 0.515802 0.624091 0.897995
O O10 0.348961 0.899786 0.046652
O O11 0.357655 0.879775 0.262366
O O12 0.465425 0.000000 0.253247
O O13 0.238300 0.869529 0.797059
O O14 0.304812 0.500000 0.098142
O O15 0.900580 0.000000 0.711842
O O16 0.500000 0.104986 0.500000
O O17 0.646611 0.000000 0.580532
#
# Coordination Sequence:
#
# PCOD9178494 Si02
#       8
#     8   2   8   8   8   8   8   8
#     4  10  19  30  49  73 104 138 169 213 258 313
#     4  12  20  32  44  72 112 134 168 200 254 322
#     4  10  20  36  49  69 101 138 179 212 253 308
#     4   9  18  30  50  78 103 133 171 208 261 311
#     4  11  22  29  46  74 108 140 165 202 258 320
#     4  11  20  31  48  75 105 140 170 210 257 308
#     4  10  19  33  51  70  90 132 178 221 257 295
#     4   8  15  29  48  72 100 133 169 209 255 310
#
# _framework density 23.885484000000002
#
# number of rings (size 3 to 8) (size 9 to 14) (size 15 to 20)
#    0.000    2.069    0.690    6.621    3.862    0.000 
#    0.000    0.000    0.000    7.034    0.000    0.000 
#    0.000    0.828    0.000    0.000    0.000    6.207 
#
# Total GULP energy -161731.327834 kJ/mol
# GULP energy per Si atom -5576.942339 kJ/mol
# Density = 2.383112 g / cm^3
# Si number density = 23.885484 Si / 1000 Ang^3
#
#
#
# Elastic Constant Matrix: (Units=GPa)
#
#
# Indices 1 2 3 4 5 6 
#
# 1 81.4090 29.3767 18.5045 0.0000 -17.7843 0.0000
# 2 29.3767 178.8394 47.5728 0.0000 -27.5501 0.0000
# 3 18.5045 47.5728 84.9482 0.0000 -38.2717 0.0000
# 4 0.0000 0.0000 0.0000 27.0597 0.0000 -9.5305
# 5 -17.7843 -27.5501 -38.2717 0.0000 39.5038 0.0000
# 6 0.0000 0.0000 0.0000 -9.5305 0.0000 20.3516
#
#
#
# Elastic Compliance Matrix: (Units=1/GPa)
#
#
# Indices 1 2 3 4 5 6 
#
# 1 0.013971 -0.001524 0.000293 0.000000 0.005510 0.000000
# 2 -0.001524 0.006810 -0.002930 0.000000 0.001225 0.000000
# 3 0.000293 -0.002930 0.022160 0.000000 0.019557 0.000000
# 4 0.000000 0.000000 0.000000 0.044254 0.000000 0.020724
# 5 0.005510 0.001225 0.019557 0.000000 0.047596 0.000000
# 6 0.000000 0.000000 0.000000 0.020724 0.000000 0.058841
#
#
# Mechanical properties :
#
#
# Convention : Reuss Voigt Hill
#
# Bulk Modulus (GPa) = 28.88638 59.56717 44.22677
# Shear Modulus (GPa) = 23.41979 34.03253 28.72616
#
# Velocity S-wave (km/s) = 3.13470 3.77877 3.47170
# Velocity P-wave (km/s) = 5.02212 6.63563 5.88444
#
# Compressibility (1/GPa) = 0.03461840
#
# Stress axis : x y z
#
# Youngs Moduli (GPa) = 71.57793 146.84289 45.12599
#
# Poissons Ratio (x) = 0.22377 -0.01321
# Poissons Ratio (y) = 0.10908 0.13222
# Poissons Ratio (z) = -0.02095 0.43026
#
# Static dielectric constant tensor:
#      x y z
#    x 2.023870 0.000000 -0.025430 
#    y 0.000000 1.927470 0.000000 
#    z -0.025430 0.000000 1.984000 
# 
# From -- ./inp_files/156120.got.cif
#   From: 2010.05.17/outbox.cif.g08.bks.cpg/sg12_79_cif.got.tgz:156120.got - 2010.06.03 13:09:07.
