data_PCOD9178413
_publ_section_title
;
Structure prediction by ZEFSAII (Michael W. Deem and Ramdas Pophale) SiO2 
 PCOD9178413
Probable space group: C 2/M
;
_chemical_formula_sum "Si O2"
_cell_formula_units_Z 56
_cell_length_a 19.670572
_cell_length_b 8.890783
_cell_length_c 32.278092
_cell_angle_alpha 90.000000
_cell_angle_beta 34.143495
_cell_angle_gamma 90.000000
_cell_volume 3168.361320
_symmetry_space_group_name_H-M "C 2/M"
_symmetry_group_IT_number 12
_symmetry_cell_setting 'monoclinic'
loop_
_space_group_symop_operation_xyz
x,y,z
-x,y,-z
-x,-y,-z
x,-y,z
1/2+x,1/2+y,z
1/2-x,1/2+y,-z
1/2-x,1/2-y,-z
1/2+x,1/2-y,z
loop_
_atom_site_type_symbol
_atom_site_label
_atom_site_fract_x
_atom_site_fract_y
_atom_site_fract_z
Si Si1 0.610344 0.821239 0.687151
Si Si2 0.147187 0.820640 0.580651
Si Si3 0.764840 0.321888 0.056253
Si Si4 0.179223 0.820685 0.738533
Si Si5 0.824232 0.322015 0.820134
Si Si6 0.556066 0.821388 0.104950
Si Si7 0.112240 0.319492 0.303467
O O1 0.658951 0.740146 0.621641
O O2 0.668010 0.758587 0.699892
O O3 0.464953 0.794321 0.761657
O O4 0.627757 0.000000 0.674745
O O5 0.250000 0.750000 0.500000
O O6 0.015246 0.764704 0.632100
O O7 0.153702 0.000000 0.576738
O O8 0.740765 0.500000 0.065675
O O9 0.759670 0.268202 0.106055
O O10 0.658850 0.234200 0.085238
O O11 0.887864 0.292051 0.968754
O O12 0.302427 0.785891 0.700870
O O13 0.066678 0.764005 0.822802
O O14 0.170726 0.000000 0.737551
O O15 0.801051 0.500000 0.836241
O O16 0.819168 0.281487 0.774217
O O17 0.538563 0.000000 0.119046
O O18 0.089129 0.500000 0.313433
#
# Coordination Sequence:
#
# PCOD9178413 Si02
#       7
#     8   8   8   8   8   8   8
#     4  10  20  35  57  84 114 146 182 225 271 323
#     4  11  22  39  64  90 115 145 181 220 265 320
#     4  10  19  30  48  74 103 138 188 238 279 325
#     4  11  21  35  56  82 111 146 187 229 275 330
#     4   9  17  32  53  75 104 142 182 228 278 326
#     4  10  20  32  47  72 107 145 181 231 287 329
#     4   9  21  39  57  81 114 147 181 225 276 328
#
# _framework density 17.674752000000002
#
# number of rings (size 3 to 8) (size 9 to 14) (size 15 to 20)
#    0.000    2.000    1.429    3.857    0.000    5.143 
#    0.000    1.429    0.000    8.571    0.000    0.000 
#    0.000    0.000    0.000    0.000    0.000    0.000 
#
# Total GULP energy -156321.833264 kJ/mol
# GULP energy per Si atom -5582.922617 kJ/mol
# Density = 1.763452 g / cm^3
# Si number density = 17.674752 Si / 1000 Ang^3
#
#
#
# Elastic Constant Matrix: (Units=GPa)
#
#
# Indices 1 2 3 4 5 6 
#
# 1 105.7933 55.6609 46.7116 0.0002 12.2194 -0.0026
# 2 55.6609 76.2863 55.4952 0.0030 10.1145 -0.0011
# 3 46.7116 55.4952 111.2389 -0.0003 17.7492 0.0006
# 4 0.0002 0.0030 -0.0003 32.7186 -0.0001 4.2054
# 5 12.2194 10.1145 17.7492 -0.0001 17.9558 0.0010
# 6 -0.0026 -0.0011 0.0006 4.2054 0.0010 25.4490
#
#
#
# Elastic Compliance Matrix: (Units=1/GPa)
#
#
# Indices 1 2 3 4 5 6 
#
# 1 0.015720 -0.010360 -0.000780 0.000001 -0.004091 0.000001
# 2 -0.010360 0.027448 -0.009499 -0.000003 0.000979 0.000001
# 3 -0.000780 -0.009499 0.015574 0.000001 -0.009513 -0.000001
# 4 0.000001 -0.000003 0.000001 0.031227 0.000000 -0.005160
# 5 -0.004091 0.000979 -0.009513 0.000000 0.067329 -0.000003
# 6 0.000001 0.000001 -0.000001 -0.005160 -0.000003 0.040147
#
#
# Mechanical properties :
#
#
# Convention : Reuss Voigt Hill
#
# Bulk Modulus (GPa) = 57.26097 67.67265 62.46681
# Shear Modulus (GPa) = 20.44624 24.25475 22.35050
#
# Velocity S-wave (km/s) = 3.40487 3.70845 3.55990
# Velocity P-wave (km/s) = 6.92278 7.53045 7.23300
#
# Compressibility (1/GPa) = 0.01746390
#
# Stress axis : x y z
#
# Youngs Moduli (GPa) = 63.61330 36.43268 64.20954
#
# Poissons Ratio (x) = 0.37744 0.05008
# Poissons Ratio (y) = 0.65903 0.60993
# Poissons Ratio (z) = 0.04962 0.34608
#
# Static dielectric constant tensor:
#      x y z
#    x 1.595450 0.000000 0.017980 
#    y 0.000000 1.589060 0.000000 
#    z 0.017980 0.000000 1.594110 
# 
# From -- ./inp_files/377643.got.cif
#   From: 2010.05.17/outbox.cif.g08.bks.cpg/sg12_189_cif.got.tgz:377643.got - 2010.06.03 13:09:07.
