data_PCOD9178513
_publ_section_title
;
Structure prediction by ZEFSAII (Michael W. Deem and Ramdas Pophale) SiO2 
 PCOD9178513
Probable space group: C 2/M
;
_chemical_formula_sum "Si O2"
_cell_formula_units_Z 64
_cell_length_a 23.858204
_cell_length_b 7.570015
_cell_length_c 22.052599
_cell_angle_alpha 90.000000
_cell_angle_beta 128.829945
_cell_angle_gamma 90.000000
_cell_volume 3102.683725
_symmetry_space_group_name_H-M "C 2/M"
_symmetry_group_IT_number 12
_symmetry_cell_setting 'monoclinic'
loop_
_space_group_symop_operation_xyz
x,y,z
-x,y,-z
-x,-y,-z
x,-y,z
1/2+x,1/2+y,z
1/2-x,1/2+y,-z
1/2-x,1/2-y,-z
1/2+x,1/2-y,z
loop_
_atom_site_type_symbol
_atom_site_label
_atom_site_fract_x
_atom_site_fract_y
_atom_site_fract_z
Si Si1 0.418301 0.215480 0.943465
Si Si2 0.670477 0.797830 0.867357
Si Si3 0.349949 0.791438 0.532531
Si Si4 0.500193 0.286263 0.570267
Si Si5 0.201764 0.295527 0.374138
Si Si6 0.152011 0.202222 0.719421
Si Si7 0.165672 0.715092 0.993927
Si Si8 0.802325 0.282501 0.765321
O O1 0.367157 0.272754 0.853512
O O2 0.418951 0.000000 0.941514
O O3 0.500000 0.276886 0.000000
O O4 0.383365 0.265728 0.983533
O O5 0.657058 0.702522 0.795437
O O6 0.638528 0.728683 0.909081
O O7 0.647632 0.000000 0.843147
O O8 0.755587 0.789438 0.938657
O O9 0.428673 0.767181 0.558036
O O10 0.286681 0.712447 0.447943
O O11 0.338620 0.720938 0.593652
O O12 0.334395 0.000000 0.524196
O O13 0.500000 0.231087 0.500000
O O14 0.499824 0.500000 0.571724
O O15 0.575374 0.219167 0.648928
O O16 0.179486 0.500000 0.354949
O O17 0.189744 0.221416 0.298758
O O18 0.225571 0.277775 0.741158
O O19 0.150414 0.000000 0.696226
O O20 0.171869 0.500000 0.996502
O O21 0.801557 0.500000 0.765360
#
# Coordination Sequence:
#
# PCOD9178513 Si02
#       8
#     8   8   8   8   8   8   8   8
#     4   9  16  28  50  78 100 123 165 220 261 288
#     4  10  19  30  49  76 102 132 166 207 257 308
#     4  10  20  34  53  80 112 140 167 215 271 313
#     4  10  21  37  57  78 102 140 184 220 258 314
#     4   9  18  34  56  79 102 140 183 213 251 310
#     4  10  19  33  54  76 100 133 174 218 260 303
#     4   9  17  32  51  73 100 131 168 209 253 305
#     4   9  16  30  53  76  98 128 174 222 252 295
#
# _framework density 20.627303000000001
#
# number of rings (size 3 to 8) (size 9 to 14) (size 15 to 20)
#    0.000    2.500    1.250    1.500    0.000    3.750 
#    2.250    1.875    0.000    0.375    0.000    0.000 
#    0.000    0.000    0.000    0.000    0.000    0.000 
#
# Total GULP energy -178487.954885 kJ/mol
# GULP energy per Si atom -5577.748590 kJ/mol
# Density = 2.058035 g / cm^3
# Si number density = 20.627303 Si / 1000 Ang^3
#
#
#
# Elastic Constant Matrix: (Units=GPa)
#
#
# Indices 1 2 3 4 5 6 
#
# 1 158.0240 -1.4271 108.0270 0.0000 -10.9867 0.0000
# 2 -1.4271 46.3376 -3.8673 0.0001 -3.3158 -0.0001
# 3 108.0270 -3.8673 123.4537 0.0000 -17.4340 0.0000
# 4 0.0000 0.0001 0.0000 8.8643 0.0000 -2.8795
# 5 -10.9867 -3.3158 -17.4340 0.0000 34.0096 0.0000
# 6 0.0000 -0.0001 0.0000 -2.8795 0.0000 12.1129
#
#
#
# Elastic Compliance Matrix: (Units=1/GPa)
#
#
# Indices 1 2 3 4 5 6 
#
# 1 0.015928 -0.000863 -0.014284 0.000000 -0.002261 0.000000
# 2 -0.000863 0.021908 0.001837 0.000000 0.002799 0.000000
# 3 -0.014284 0.001837 0.021593 0.000000 0.006634 0.000000
# 4 0.000000 0.000000 0.000000 0.122252 0.000000 0.029062
# 5 -0.002261 0.002799 0.006634 0.000000 0.032347 0.000000
# 6 0.000000 0.000000 0.000000 0.029062 0.000000 0.089465
#
#
# Mechanical properties :
#
#
# Convention : Reuss Voigt Hill
#
# Bulk Modulus (GPa) = 30.47975 59.25340 44.86658
# Shear Modulus (GPa) = 14.66066 26.00288 20.33177
#
# Velocity S-wave (km/s) = 2.66886 3.55435 3.14295
# Velocity P-wave (km/s) = 4.93007 6.75519 5.91347
#
# Compressibility (1/GPa) = 0.03280866
#
# Stress axis : x y z
#
# Youngs Moduli (GPa) = 62.78401 45.64602 46.31054
#
# Poissons Ratio (x) = 0.03941 0.66148
# Poissons Ratio (y) = 0.05420 -0.08507
# Poissons Ratio (z) = 0.89678 -0.08385
#
# Static dielectric constant tensor:
#      x y z
#    x 1.733360 0.000000 -0.026810 
#    y 0.000000 1.790040 0.000000 
#    z -0.026810 0.000000 1.715760 
# 
# From -- ./inp_files/324280.got.cif
#   From: 2010.05.17/outbox.cif.g08.bks.cpg/sg12_163_cif.got.tgz:324280.got - 2010.06.03 13:09:07.
