data_PCOD9178894
_publ_section_title
;
Structure prediction by ZEFSAII (Michael W. Deem and Ramdas Pophale) SiO2 
 PCOD9178894
Probable space group: C 2/M
;
_chemical_formula_sum "Si O2"
_cell_formula_units_Z 56
_cell_length_a 18.931313
_cell_length_b 9.170633
_cell_length_c 23.493827
_cell_angle_alpha 90.000000
_cell_angle_beta 126.443142
_cell_angle_gamma 90.000000
_cell_volume 3281.187993
_symmetry_space_group_name_H-M "C 2/M"
_symmetry_group_IT_number 12
_symmetry_cell_setting 'monoclinic'
loop_
_space_group_symop_operation_xyz
x,y,z
-x,y,-z
-x,-y,-z
x,-y,z
1/2+x,1/2+y,z
1/2-x,1/2+y,-z
1/2-x,1/2-y,-z
1/2+x,1/2-y,z
loop_
_atom_site_type_symbol
_atom_site_label
_atom_site_fract_x
_atom_site_fract_y
_atom_site_fract_z
Si Si1 0.019174 0.822483 0.636522
Si Si2 0.366888 0.331363 0.207262
Si Si3 0.742294 0.173301 0.935734
Si Si4 0.197818 0.331934 0.211084
Si Si5 0.327243 0.323256 0.501709
Si Si6 0.906703 0.174122 0.931526
Si Si7 0.179739 0.177712 0.633587
O O1 0.921900 0.779119 0.572267
O O2 0.052748 0.777268 0.715160
O O3 0.091432 0.775265 0.624421
O O4 0.021851 0.000000 0.638238
O O5 0.381261 0.500000 0.197269
O O6 0.338127 0.236761 0.139839
O O7 0.283793 0.330587 0.211039
O O8 0.830243 0.204145 0.940973
O O9 0.734284 0.000000 0.938351
O O10 0.750000 0.250000 0.000000
O O11 0.170585 0.500000 0.204625
O O12 0.123685 0.244230 0.142341
O O13 0.235773 0.274307 0.289095
O O14 0.321381 0.500000 0.501806
O O15 0.250000 0.250000 0.500000
O O16 0.321109 0.280189 0.432420
O O17 0.911535 0.000000 0.926513
O O18 0.000000 0.226734 0.000000
O O19 0.180341 0.000000 0.636110
#
# Coordination Sequence:
#
# PCOD9178894 Si02
#       7
#     8   8   8   8   8   8   8
#     4   8  14  27  50  73  87 112 158 199 226 262
#     4   8  14  27  47  69  91 114 149 196 235 267
#     4  10  19  31  48  69  94 123 154 188 228 273
#     4   8  14  26  46  70  91 113 147 192 234 265
#     4  10  19  31  47  68  97 127 152 183 227 276
#     4   9  18  32  48  67  92 121 151 184 225 272
#     4   8  14  27  49  72  89 112 154 199 227 257
#
# _framework density 17.066990000000001
#
# number of rings (size 3 to 8) (size 9 to 14) (size 15 to 20)
#    0.000    3.286    0.000    2.571    0.000    2.571 
#    0.000    2.857    0.000    8.571    0.000    0.000 
#    0.000    0.000    0.000    0.000    0.000    0.000 
#
# Total GULP energy -155899.336994 kJ/mol
# GULP energy per Si atom -5567.833464 kJ/mol
# Density = 1.702814 g / cm^3
# Si number density = 17.066990 Si / 1000 Ang^3
#
#
#
# Elastic Constant Matrix: (Units=GPa)
#
#
# Indices 1 2 3 4 5 6 
#
# 1 60.1811 28.6293 79.2930 0.0000 8.2985 0.0000
# 2 28.6293 25.3879 53.8045 0.0000 -1.4272 0.0000
# 3 79.2930 53.8045 217.8604 0.0000 11.4493 0.0000
# 4 0.0000 0.0000 0.0000 19.9692 0.0000 1.9693
# 5 8.2985 -1.4272 11.4493 0.0000 26.0405 0.0000
# 6 0.0000 0.0000 0.0000 1.9693 0.0000 19.7797
#
#
#
# Elastic Compliance Matrix: (Units=1/GPa)
#
#
# Indices 1 2 3 4 5 6 
#
# 1 0.044794 -0.038300 -0.006125 0.000000 -0.013681 0.000000
# 2 -0.038300 0.120558 -0.017220 0.000000 0.026384 0.000000
# 3 -0.006125 -0.017220 0.011280 0.000000 -0.003951 0.000000
# 4 0.000000 0.000000 0.000000 0.050574 0.000000 -0.005035
# 5 -0.013681 0.026384 -0.003951 0.000000 0.045945 0.000000
# 6 0.000000 0.000000 0.000000 -0.005035 0.000000 0.051058
#
#
# Mechanical properties :
#
#
# Convention : Reuss Voigt Hill
#
# Bulk Modulus (GPa) = 18.74804 69.65367 44.20086
# Shear Modulus (GPa) = 10.74622 22.60473 16.67547
#
# Velocity S-wave (km/s) = 2.51200 3.64328 3.12919
# Velocity P-wave (km/s) = 4.40708 7.65496 6.24583
#
# Compressibility (1/GPa) = 0.05333890
#
# Stress axis : x y z
#
# Youngs Moduli (GPa) = 22.32455 8.29480 88.65219
#
# Poissons Ratio (x) = 0.31769 0.54302
# Poissons Ratio (y) = 0.85504 1.52663
# Poissons Ratio (z) = 0.13675 0.14284
#
# Static dielectric constant tensor:
#      x y z
#    x 1.565310 0.000000 0.008960 
#    y 0.000000 1.572750 0.000000 
#    z 0.008960 0.000000 1.598680 
# 
# From -- ./inp_files/314391.got.cif
#   From: 2010.05.17/outbox.cif.g08.bks.cpg/sg12_158_cif.got.tgz:314391.got - 2010.06.03 13:09:07.
