data_PCOD9178460
_publ_section_title
;
Structure prediction by ZEFSAII (Michael W. Deem and Ramdas Pophale) SiO2 
 PCOD9178460
Probable space group: C 2/M
;
_chemical_formula_sum "Si O2"
_cell_formula_units_Z 56
_cell_length_a 28.466845
_cell_length_b 8.298126
_cell_length_c 12.519792
_cell_angle_alpha 90.000000
_cell_angle_beta 122.989637
_cell_angle_gamma 90.000000
_cell_volume 2480.612219
_symmetry_space_group_name_H-M "C 2/M"
_symmetry_group_IT_number 12
_symmetry_cell_setting 'monoclinic'
loop_
_space_group_symop_operation_xyz
x,y,z
-x,y,-z
-x,-y,-z
x,-y,z
1/2+x,1/2+y,z
1/2-x,1/2+y,-z
1/2-x,1/2-y,-z
1/2+x,1/2-y,z
loop_
_atom_site_type_symbol
_atom_site_label
_atom_site_fract_x
_atom_site_fract_y
_atom_site_fract_z
Si Si1 0.271927 0.816825 0.137073
Si Si2 0.552564 0.304802 0.202546
Si Si3 0.762445 0.314388 0.686319
Si Si4 0.938585 0.808007 0.173259
Si Si5 0.098919 0.318548 0.653950
Si Si6 0.142341 0.806631 0.484571
Si Si7 0.379658 0.192261 0.901009
O O1 0.254900 0.697762 0.210793
O O2 0.338781 0.823301 0.219299
O O3 0.251703 0.000000 0.133601
O O4 0.250000 0.750000 0.000000
O O5 0.551318 0.500000 0.198872
O O6 0.495513 0.248764 0.187329
O O7 0.603629 0.248800 0.341054
O O8 0.567168 0.245465 0.102849
O O9 0.767396 0.500000 0.657149
O O10 0.706583 0.241056 0.562071
O O11 0.824500 0.240129 0.770868
O O12 0.936729 0.757177 0.294667
O O13 0.937506 0.000000 0.168859
O O14 0.888521 0.748625 0.033697
O O15 0.079593 0.500000 0.608604
O O16 0.109844 0.232528 0.554567
O O17 0.147138 0.000000 0.484600
O O18 0.374765 0.000000 0.896258
#
# Coordination Sequence:
#
# PCOD9178460 Si02
#       7
#     8   8   8   8   8   8   8
#     4  10  19  30  48  76 109 144 181 223 272 328
#     4  10  23  41  60  82 110 148 194 237 274 326
#     4   9  19  35  55  80 110 143 180 224 274 331
#     4  11  23  39  59  83 112 149 192 233 277 331
#     4  10  21  36  55  83 116 146 182 230 281 333
#     4   9  19  39  62  83 112 150 188 226 275 333
#     4  11  23  38  58  86 116 146 185 233 284 334
#
# _framework density 22.575071999999999
#
# number of rings (size 3 to 8) (size 9 to 14) (size 15 to 20)
#    0.000    2.000    0.000    3.000    0.000   10.857 
#    0.000    2.857    0.000    0.000    0.000    0.000 
#    0.000    0.000    0.000    0.000    0.000    0.000 
#
# Total GULP energy -156310.037430 kJ/mol
# GULP energy per Si atom -5582.501337 kJ/mol
# Density = 2.252369 g / cm^3
# Si number density = 22.575072 Si / 1000 Ang^3
#
#
#
# Elastic Constant Matrix: (Units=GPa)
#
#
# Indices 1 2 3 4 5 6 
#
# 1 94.9756 1.6310 4.4523 0.0000 -4.9063 0.0000
# 2 1.6310 27.6599 -7.9433 0.0000 3.6987 0.0000
# 3 4.4523 -7.9433 60.2461 0.0000 2.4968 0.0000
# 4 0.0000 0.0000 0.0000 18.8317 0.0000 -5.0914
# 5 -4.9063 3.6987 2.4968 0.0000 30.6127 0.0000
# 6 0.0000 0.0000 0.0000 -5.0914 0.0000 10.6642
#
#
#
# Elastic Compliance Matrix: (Units=1/GPa)
#
#
# Indices 1 2 3 4 5 6 
#
# 1 0.010698 -0.001185 -0.001027 0.000000 0.001942 0.000000
# 2 -0.001185 0.038474 0.005379 0.000000 -0.005277 0.000000
# 3 -0.001027 0.005379 0.017477 0.000000 -0.002240 0.000000
# 4 0.000000 0.000000 0.000000 0.060972 0.000000 0.029110
# 5 0.001942 -0.005277 -0.002240 0.000000 0.033798 0.000000
# 6 0.000000 0.000000 0.000000 0.029110 0.000000 0.107669
#
#
# Mechanical properties :
#
#
# Convention : Reuss Voigt Hill
#
# Bulk Modulus (GPa) = 13.70228 19.90684 16.80456
# Shear Modulus (GPa) = 17.41664 24.33784 20.87724
#
# Velocity S-wave (km/s) = 2.78060 3.28698 3.04434
# Velocity P-wave (km/s) = 4.04868 4.82109 4.45167
#
# Compressibility (1/GPa) = 0.07298053
#
# Stress axis : x y z
#
# Youngs Moduli (GPa) = 93.47688 25.99173 57.21952
#
# Poissons Ratio (x) = 0.03081 0.05879
# Poissons Ratio (y) = 0.11081 -0.30778
# Poissons Ratio (z) = 0.09603 -0.13981
#
# Static dielectric constant tensor:
#      x y z
#    x 1.902310 0.000000 0.054840 
#    y 0.000000 1.812160 0.000000 
#    z 0.054840 0.000000 1.824960 
# 
# From -- ./inp_files/181072.got.cif
#   From: 2010.05.17/outbox.cif.g08.bks.cpg/sg12_91_cif.got.tgz:181072.got - 2010.06.03 13:09:07.
