data_PCOD9178461
_publ_section_title
;
Structure prediction by ZEFSAII (Michael W. Deem and Ramdas Pophale) SiO2 
 PCOD9178461
Probable space group: C 2/M
;
_chemical_formula_sum "Si O2"
_cell_formula_units_Z 48
_cell_length_a 33.787009
_cell_length_b 8.804189
_cell_length_c 16.007778
_cell_angle_alpha 90.000000
_cell_angle_beta 34.806348
_cell_angle_gamma 90.000000
_cell_volume 2718.050852
_symmetry_space_group_name_H-M "C 2/M"
_symmetry_group_IT_number 12
_symmetry_cell_setting 'monoclinic'
loop_
_space_group_symop_operation_xyz
x,y,z
-x,y,-z
-x,-y,-z
x,-y,z
1/2+x,1/2+y,z
1/2-x,1/2+y,-z
1/2-x,1/2-y,-z
1/2+x,1/2-y,z
loop_
_atom_site_type_symbol
_atom_site_label
_atom_site_fract_x
_atom_site_fract_y
_atom_site_fract_z
Si Si1 0.700241 0.683199 0.832369
Si Si2 0.054949 0.183308 0.164760
Si Si3 0.070022 0.817221 0.331317
Si Si4 0.593010 0.818341 0.599035
Si Si5 0.775563 0.181161 0.542608
Si Si6 0.166730 0.318656 0.296829
O O1 0.705119 0.500000 0.812792
O O2 0.726015 0.761935 0.703483
O O3 0.755584 0.723039 0.809291
O O4 0.622768 0.722315 0.993801
O O5 0.067529 0.230264 0.239253
O O6 0.984443 0.258697 0.255582
O O7 0.047033 0.000000 0.177309
O O8 0.135625 0.758381 0.269235
O O9 0.000000 0.765042 0.500000
O O10 0.070800 0.000000 0.331831
O O11 0.648257 0.742677 0.565149
O O12 0.618718 0.778785 0.460265
O O13 0.596742 0.000000 0.600599
O O14 0.750000 0.250000 0.500000
O O15 0.776058 0.000000 0.538112
O O16 0.164106 0.500000 0.290618
#
# Coordination Sequence:
#
# PCOD9178461 Si02
#       6
#     8   8   8   8   8   8
#     4   9  20  38  56  79 113 147 182 226 279 329
#     4  10  20  35  54  78 113 153 186 227 279 322
#     4  10  19  30  48  76 109 144 191 236 269 315
#     4  10  20  35  56  82 112 144 184 227 271 324
#     4  11  22  39  64  88 110 138 176 219 270 331
#     4   9  18  32  50  73 104 146 189 231 273 317
#
# _framework density 17.659714999999998
#
# number of rings (size 3 to 8) (size 9 to 14) (size 15 to 20)
#    0.000    2.167    1.667    3.000    0.000    5.000 
#    0.000    0.833    0.000    5.000    0.000    0.000 
#    0.000    0.000    0.000    0.000    0.000    0.000 
#
# Total GULP energy -133972.191691 kJ/mol
# GULP energy per Si atom -5582.174654 kJ/mol
# Density = 1.761952 g / cm^3
# Si number density = 17.659715 Si / 1000 Ang^3
#
#
#
# Elastic Constant Matrix: (Units=GPa)
#
#
# Indices 1 2 3 4 5 6 
#
# 1 161.3426 59.2693 80.4132 0.0000 -8.3236 0.0000
# 2 59.2693 50.7811 53.0639 0.0000 -7.7899 0.0000
# 3 80.4132 53.0639 121.6617 0.0000 -25.9085 0.0000
# 4 0.0000 0.0000 0.0000 23.3082 0.0000 -3.6134
# 5 -8.3236 -7.7899 -25.9085 0.0000 24.3961 0.0000
# 6 0.0000 0.0000 0.0000 -3.6134 0.0000 34.5914
#
#
#
# Elastic Compliance Matrix: (Units=1/GPa)
#
#
# Indices 1 2 3 4 5 6 
#
# 1 0.011733 -0.009809 -0.004253 0.000000 -0.003646 0.000000
# 2 -0.009809 0.045260 -0.014075 0.000000 -0.003843 0.000000
# 3 -0.004253 -0.014075 0.020551 0.000000 0.015880 0.000000
# 4 0.000000 0.000000 0.000000 0.043610 0.000000 0.004556
# 5 -0.003646 -0.003843 0.015880 0.000000 0.055384 0.000000
# 6 0.000000 0.000000 0.000000 0.004556 0.000000 0.029385
#
#
# Mechanical properties :
#
#
# Convention : Reuss Voigt Hill
#
# Bulk Modulus (GPa) = 47.01667 79.91978 63.46823
# Shear Modulus (GPa) = 18.56749 25.86172 22.21460
#
# Velocity S-wave (km/s) = 3.24605 3.83096 3.55057
# Velocity P-wave (km/s) = 6.38206 8.05742 7.26817
#
# Compressibility (1/GPa) = 0.02126905
#
# Stress axis : x y z
#
# Youngs Moduli (GPa) = 85.22902 22.09453 48.65850
#
# Poissons Ratio (x) = 0.21673 0.20694
# Poissons Ratio (y) = 0.83605 0.68489
# Poissons Ratio (z) = 0.36248 0.31099
#
# Static dielectric constant tensor:
#      x y z
#    x 1.579770 0.000000 -0.007830 
#    y 0.000000 1.594290 0.000000 
#    z -0.007830 0.000000 1.595660 
# 
# From -- ./inp_files/248811.got.cif
#   From: 2010.05.17/outbox.cif.g08.bks.cpg/sg12_125_cif.got.tgz:248811.got - 2010.06.03 13:09:07.
