data_PCOD9178185
_publ_section_title
;
Structure prediction by ZEFSAII (Michael W. Deem and Ramdas Pophale) SiO2 
 PCOD9178185
Probable space group: C 2/M
;
_chemical_formula_sum "Si O2"
_cell_formula_units_Z 56
_cell_length_a 13.989637
_cell_length_b 9.264666
_cell_length_c 18.926864
_cell_angle_alpha 90.000000
_cell_angle_beta 91.612818
_cell_angle_gamma 90.000000
_cell_volume 2452.126054
_symmetry_space_group_name_H-M "C 2/M"
_symmetry_group_IT_number 12
_symmetry_cell_setting 'monoclinic'
loop_
_space_group_symop_operation_xyz
x,y,z
-x,y,-z
-x,-y,-z
x,-y,z
1/2+x,1/2+y,z
1/2-x,1/2+y,-z
1/2-x,1/2-y,-z
1/2+x,1/2-y,z
loop_
_atom_site_type_symbol
_atom_site_label
_atom_site_fract_x
_atom_site_fract_y
_atom_site_fract_z
Si Si1 0.808005 0.666752 0.734365
Si Si2 0.619474 0.668961 0.552500
Si Si3 0.349313 0.830488 0.585342
Si Si4 0.151949 0.662986 0.114400
Si Si5 0.080610 0.833876 0.704179
Si Si6 0.887139 0.166261 0.020489
Si Si7 0.566309 0.161841 0.845233
O O1 0.843056 0.500000 0.741874
O O2 0.859123 0.729008 0.665718
O O3 0.817132 0.736452 0.811313
O O4 0.695773 0.659064 0.716088
O O5 0.596681 0.500000 0.545699
O O6 0.602393 0.748721 0.478524
O O7 0.734520 0.677346 0.568038
O O8 0.569678 0.722993 0.623697
O O9 0.374948 0.000000 0.585427
O O10 0.191240 0.500000 0.111545
O O11 0.165457 0.747926 0.042780
O O12 0.038002 0.649567 0.122388
O O13 0.050227 0.735245 0.768808
O O14 0.045203 0.000000 0.708919
O O15 0.859308 0.000000 0.021203
O O16 0.877476 0.238841 0.097530
O O17 0.000000 0.168452 0.000000
O O18 0.606590 0.000000 0.838987
#
# Coordination Sequence:
#
# PCOD9178185 Si02
#       7
#     8   8   8   8   8   8   8
#     4   8  15  29  48  68  90 118 149 182 223 265
#     4   8  14  24  39  61  87 114 144 179 218 256
#     4   8  13  23  41  63  85 111 145 181 216 257
#     4   9  17  31  50  69  90 115 146 185 224 262
#     4   9  17  30  47  66  91 121 150 181 220 266
#     4   9  17  30  48  68  89 115 149 184 217 260
#     4  10  19  30  47  70  92 115 146 184 224 263
#
# _framework density 22.837325
#
# number of rings (size 3 to 8) (size 9 to 14) (size 15 to 20)
#    0.000    3.286    0.000    2.571    0.000    2.857 
#    0.000    4.286    0.000    0.857    0.000    6.000 
#    0.000    0.000    0.000    0.000    0.000    0.000 
#
# Total GULP energy -156256.302008 kJ/mol
# GULP energy per Si atom -5580.582215 kJ/mol
# Density = 2.278535 g / cm^3
# Si number density = 22.837325 Si / 1000 Ang^3
#
#
#
# Elastic Constant Matrix: (Units=GPa)
#
#
# Indices 1 2 3 4 5 6 
#
# 1 43.9649 -2.3823 28.8684 0.0000 -10.8658 0.0000
# 2 -2.3823 93.2128 98.3184 0.0000 -13.1091 0.0000
# 3 28.8684 98.3184 250.2205 0.0000 -7.4424 0.0000
# 4 0.0000 0.0000 0.0000 34.0465 0.0000 0.7854
# 5 -10.8658 -13.1091 -7.4424 0.0000 45.5105 0.0000
# 6 0.0000 0.0000 0.0000 0.7854 0.0000 -2.3109
#
#
#
# Elastic Compliance Matrix: (Units=1/GPa)
#
#
# Indices 1 2 3 4 5 6 
#
# 1 0.029813 0.009109 -0.006762 0.000000 0.008636 0.000000
# 2 0.009109 0.021907 -0.009452 0.000000 0.006939 0.000000
# 3 -0.006762 -0.009452 0.008403 0.000000 -0.002963 0.000000
# 4 0.000000 0.000000 0.000000 0.029143 0.000000 0.009905
# 5 0.008636 0.006939 -0.002963 0.000000 0.025549 0.000000
# 6 0.000000 0.000000 0.000000 0.009905 0.000000 -0.429364
#
#
# Mechanical properties :
#
#
# Convention : Reuss Voigt Hill
#
# Bulk Modulus (GPa) = 21.78086 70.77856 46.27971
# Shear Modulus (GPa) = -17.54173 32.95546 7.70687
#
# Velocity S-wave (km/s) = -2.77450 3.80287 1.83902
# Velocity P-wave (km/s) = 0.84005 7.09523 4.98179
#
# Compressibility (1/GPa) = 0.04591187
#
# Stress axis : x y z
#
# Youngs Moduli (GPa) = 33.54204 45.64780 119.01187
#
# Poissons Ratio (x) = -0.41579 0.80473
# Poissons Ratio (y) = -0.30552 1.12493
# Poissons Ratio (z) = 0.22680 0.43148
#
# Static dielectric constant tensor:
#      x y z
#    x 1.945600 0.000000 0.009160 
#    y 0.000000 1.804350 0.000000 
#    z 0.009160 0.000000 1.878300 
# 
# From -- ./inp_files/280298.got.cif
#   From: 2010.05.17/outbox.cif.g08.bks.cpg/sg12_141_cif.got.tgz:280298.got - 2010.06.03 13:09:07.
