data_PCOD9178186
_publ_section_title
;
Structure prediction by ZEFSAII (Michael W. Deem and Ramdas Pophale) SiO2 
 PCOD9178186
Probable space group: C 2/M
;
_chemical_formula_sum "Si O2"
_cell_formula_units_Z 64
_cell_length_a 14.148228
_cell_length_b 9.680865
_cell_length_c 22.917611
_cell_angle_alpha 90.000000
_cell_angle_beta 112.472383
_cell_angle_gamma 90.000000
_cell_volume 2900.598064
_symmetry_space_group_name_H-M "C 2/M"
_symmetry_group_IT_number 12
_symmetry_cell_setting 'monoclinic'
loop_
_space_group_symop_operation_xyz
x,y,z
-x,y,-z
-x,-y,-z
x,-y,z
1/2+x,1/2+y,z
1/2-x,1/2+y,-z
1/2-x,1/2-y,-z
1/2+x,1/2-y,z
loop_
_atom_site_type_symbol
_atom_site_label
_atom_site_fract_x
_atom_site_fract_y
_atom_site_fract_z
Si Si1 0.881517 0.657079 0.494978
Si Si2 0.439420 0.656718 0.109264
Si Si3 0.832765 0.153834 0.879482
Si Si4 0.619491 0.157543 0.006607
Si Si5 0.058950 0.839507 0.386332
Si Si6 0.753407 0.846208 0.237504
Si Si7 0.014024 0.157022 0.752449
Si Si8 0.824891 0.156049 0.380088
O O1 0.849633 0.500000 0.496966
O O2 0.819236 0.731959 0.429130
O O3 0.000000 0.655322 0.500000
O O4 0.881221 0.745453 0.553976
O O5 0.396919 0.500000 0.107695
O O6 0.546071 0.639869 0.100523
O O7 0.469815 0.719609 0.179623
O O8 0.377003 0.756632 0.052420
O O9 0.819555 0.260318 0.929084
O O10 0.794283 0.225595 0.811573
O O11 0.789920 0.000000 0.878912
O O12 0.653622 0.000000 0.007689
O O13 0.500000 0.152054 0.000000
O O14 0.050604 0.786338 0.317500
O O15 0.942139 0.841415 0.383815
O O16 0.092378 0.000000 0.393799
O O17 0.871255 0.852529 0.245359
O O18 0.755595 0.819529 0.306975
O O19 0.708615 0.000000 0.215720
O O20 0.975449 0.000000 0.753881
O O21 0.806583 0.000000 0.397633
#
# Coordination Sequence:
#
# PCOD9178186 Si02
#       8
#     8   8   8   8   8   8   8   8
#     4   9  15  21  32  54  83 112 141 175 215 255
#     4   9  17  31  50  70  91 114 145 183 221 263
#     4  10  19  30  47  70  93 117 144 178 222 267
#     4   9  17  30  48  68  89 114 147 185 220 255
#     4   8  13  23  39  57  79 109 144 177 211 254
#     4   9  17  30  47  66  90 119 150 183 218 259
#     4   8  15  29  48  67  88 118 151 182 218 260
#     4   8  14  24  38  56  79 110 145 178 212 251
#
# _framework density 22.064413999999999
#
# number of rings (size 3 to 8) (size 9 to 14) (size 15 to 20)
#    0.000    3.250    0.000    2.625    0.000    4.000 
#    0.000    3.750    0.000    0.000    0.000    0.875 
#    0.000    0.000    0.000    0.000    0.000    0.000 
#
# Total GULP energy -178520.981940 kJ/mol
# GULP energy per Si atom -5578.780686 kJ/mol
# Density = 2.201419 g / cm^3
# Si number density = 22.064414 Si / 1000 Ang^3
#
#
#
# Elastic Constant Matrix: (Units=GPa)
#
#
# Indices 1 2 3 4 5 6 
#
# 1 51.1922 3.2089 -10.7961 0.0000 -10.4843 0.0000
# 2 3.2089 170.0934 117.6397 0.0000 2.6902 0.0000
# 3 -10.7961 117.6397 190.7538 0.0000 -23.7024 0.0000
# 4 0.0000 0.0000 0.0000 24.4480 0.0000 0.9366
# 5 -10.4843 2.6902 -23.7024 0.0000 27.8542 0.0000
# 6 0.0000 0.0000 0.0000 0.9366 0.0000 2.8728
#
#
#
# Elastic Compliance Matrix: (Units=1/GPa)
#
#
# Indices 1 2 3 4 5 6 
#
# 1 0.024306 -0.005140 0.006423 0.000000 0.015111 0.000000
# 2 -0.005140 0.012780 -0.009579 0.000000 -0.011320 0.000000
# 3 0.006423 -0.009579 0.013339 0.000000 0.014694 0.000000
# 4 0.000000 0.000000 0.000000 0.041421 0.000000 -0.013504
# 5 0.015111 -0.011320 0.014694 0.000000 0.055186 0.000000
# 6 0.000000 0.000000 0.000000 -0.013504 0.000000 0.352495
#
#
# Mechanical properties :
#
#
# Convention : Reuss Voigt Hill
#
# Bulk Modulus (GPa) = 29.55679 70.23824 49.89751
# Shear Modulus (GPa) = 9.48053 31.16746 20.32399
#
# Velocity S-wave (km/s) = 2.07511 3.76249 3.03829
# Velocity P-wave (km/s) = 4.37792 7.12583 5.91370
#
# Compressibility (1/GPa) = 0.03383318
#
# Stress axis : x y z
#
# Youngs Moduli (GPa) = 41.14265 78.24510 74.96624
#
# Poissons Ratio (x) = 0.40216 -0.48151
# Poissons Ratio (y) = 0.21146 0.71812
# Poissons Ratio (z) = -0.26426 0.74953
#
# Static dielectric constant tensor:
#      x y z
#    x 1.873180 0.000000 0.019240 
#    y 0.000000 1.794920 0.000000 
#    z 0.019240 0.000000 1.806850 
# 
# From -- ./inp_files/323761.got.cif
#   From: 2010.05.17/outbox.cif.g08.bks.cpg/sg12_162_cif.got.tgz:323761.got - 2010.06.03 13:09:07.
