data_PCOD9178123
_publ_section_title
;
Structure prediction by ZEFSAII (Michael W. Deem and Ramdas Pophale) SiO2 
 PCOD9178123
Probable space group: C 2/M
;
_chemical_formula_sum "Si O2"
_cell_formula_units_Z 56
_cell_length_a 27.217497
_cell_length_b 7.792454
_cell_length_c 14.129030
_cell_angle_alpha 90.000000
_cell_angle_beta 119.016829
_cell_angle_gamma 90.000000
_cell_volume 2620.494810
_symmetry_space_group_name_H-M "C 2/M"
_symmetry_group_IT_number 12
_symmetry_cell_setting 'monoclinic'
loop_
_space_group_symop_operation_xyz
x,y,z
-x,y,-z
-x,-y,-z
x,-y,z
1/2+x,1/2+y,z
1/2-x,1/2+y,-z
1/2-x,1/2-y,-z
1/2+x,1/2-y,z
loop_
_atom_site_type_symbol
_atom_site_label
_atom_site_fract_x
_atom_site_fract_y
_atom_site_fract_z
Si Si1 0.109189 0.798986 0.378547
Si Si2 0.283052 0.796163 0.627243
Si Si3 0.176961 0.196202 0.830103
Si Si4 0.303471 0.297150 0.947672
Si Si5 0.411917 0.207709 0.953185
Si Si6 0.483777 0.795674 0.840185
Si Si7 0.825891 0.212085 0.375079
O O1 0.154535 0.766565 0.337039
O O2 0.048438 0.739815 0.286775
O O3 0.135521 0.728396 0.501046
O O4 0.105869 0.000000 0.389466
O O5 0.250000 0.750000 0.500000
O O6 0.238639 0.732007 0.663834
O O7 0.287448 0.000000 0.642988
O O8 0.169124 0.269727 0.927733
O O9 0.155174 0.271960 0.710988
O O10 0.157003 0.000000 0.815438
O O11 0.244732 0.201890 0.880762
O O12 0.291109 0.500000 0.946926
O O13 0.349317 0.272572 0.909730
O O14 0.443776 0.266985 0.888443
O O15 0.408484 0.000000 0.947414
O O16 0.453366 0.264911 0.077590
O O17 0.486247 0.000000 0.853066
O O18 0.825455 0.000000 0.374446
#
# Coordination Sequence:
#
# PCOD9178123 Si02
#       7
#     8   8   8   8   8   8   8
#     4  10  19  30  46  71 100 127 158 201 247 287
#     4   9  16  27  42  63  92 127 165 196 230 280
#     4   9  18  34  52  70  98 135 168 195 233 292
#     4  10  20  32  50  77 101 123 160 209 251 281
#     4   9  19  36  55  71  94 129 165 199 242 299
#     4   9  19  35  53  73  94 127 169 198 236 299
#     4   8  16  30  47  66  92 131 167 191 228 287
#
# _framework density 21.370010000000001
#
# number of rings (size 3 to 8) (size 9 to 14) (size 15 to 20)
#    0.000    2.857    0.000    3.000    2.000    1.714 
#    0.000    5.000    0.000    0.857    0.000    6.000 
#    0.000    0.000    0.000    0.000    0.000    0.000 
#
# Total GULP energy -156011.667545 kJ/mol
# GULP energy per Si atom -5571.845269 kJ/mol
# Density = 2.132137 g / cm^3
# Si number density = 21.370010 Si / 1000 Ang^3
#
#
#
# Elastic Constant Matrix: (Units=GPa)
#
#
# Indices 1 2 3 4 5 6 
#
# 1 28.3902 -4.2124 -5.4354 0.0000 3.2616 0.0000
# 2 -4.2124 29.0115 -3.9181 0.0000 2.8213 0.0000
# 3 -5.4354 -3.9181 92.9410 0.0000 3.7152 0.0000
# 4 0.0000 0.0000 0.0000 15.4691 0.0000 2.5493
# 5 3.2616 2.8213 3.7152 0.0000 34.5465 0.0000
# 6 0.0000 0.0000 0.0000 2.5493 0.0000 7.9029
#
#
#
# Elastic Compliance Matrix: (Units=1/GPa)
#
#
# Indices 1 2 3 4 5 6 
#
# 1 0.037128 0.006159 0.002602 0.000000 -0.004288 0.000000
# 2 0.006159 0.036001 0.002027 0.000000 -0.003740 0.000000
# 3 0.002602 0.002027 0.011061 0.000000 -0.001601 0.000000
# 4 0.000000 0.000000 0.000000 0.068275 0.000000 -0.022023
# 5 -0.004288 -0.003740 -0.001601 0.000000 0.029829 0.000000
# 6 0.000000 0.000000 0.000000 -0.022023 0.000000 0.133639
#
#
# Mechanical properties :
#
#
# Convention : Reuss Voigt Hill
#
# Bulk Modulus (GPa) = 9.45461 13.69013 11.57237
# Shear Modulus (GPa) = 15.16940 22.51095 18.84017
#
# Velocity S-wave (km/s) = 2.66718 3.24912 2.97243
# Velocity P-wave (km/s) = 3.73082 4.52723 4.14818
#
# Compressibility (1/GPa) = 0.10576849
#
# Stress axis : x y z
#
# Youngs Moduli (GPa) = 26.93373 27.77711 90.40643
#
# Poissons Ratio (x) = -0.17109 -0.23527
# Poissons Ratio (y) = -0.16590 -0.18329
# Poissons Ratio (z) = -0.07009 -0.05631
#
# Static dielectric constant tensor:
#      x y z
#    x 1.756270 0.000000 -0.020820 
#    y 0.000000 1.810470 0.000000 
#    z -0.020820 0.000000 1.862360 
# 
# From -- ./inp_files/243633.got.cif
#   From: 2010.05.17/outbox.cif.g08.bks.cpg/sg12_122_cif.got.tgz:243633.got - 2010.06.03 13:09:07.
