data_PCOD9178849
_publ_section_title
;
Structure prediction by ZEFSAII (Michael W. Deem and Ramdas Pophale) SiO2 
 PCOD9178849
Probable space group: C 2/M
;
_chemical_formula_sum "Si O2"
_cell_formula_units_Z 64
_cell_length_a 29.487308
_cell_length_b 7.394142
_cell_length_c 12.616738
_cell_angle_alpha 90.000000
_cell_angle_beta 84.275232
_cell_angle_gamma 90.000000
_cell_volume 2737.149714
_symmetry_space_group_name_H-M "C 2/M"
_symmetry_group_IT_number 12
_symmetry_cell_setting 'monoclinic'
loop_
_space_group_symop_operation_xyz
x,y,z
-x,y,-z
-x,-y,-z
x,-y,z
1/2+x,1/2+y,z
1/2-x,1/2+y,-z
1/2-x,1/2-y,-z
1/2+x,1/2-y,z
loop_
_atom_site_type_symbol
_atom_site_label
_atom_site_fract_x
_atom_site_fract_y
_atom_site_fract_z
Si Si1 0.323336 0.279145 0.348338
Si Si2 0.135621 0.220757 0.994369
Si Si3 0.273190 0.282705 0.151144
Si Si4 0.824921 0.203918 0.578451
Si Si5 0.174262 0.207132 0.192337
Si Si6 0.929334 0.719802 0.552699
Si Si7 0.510881 0.215734 0.664509
Si Si8 0.912121 0.785974 0.199162
O O1 0.324998 0.500000 0.354188
O O2 0.286489 0.230771 0.268321
O O3 0.311614 0.212766 0.468593
O O4 0.372659 0.218057 0.289783
O O5 0.183264 0.272345 0.927574
O O6 0.097785 0.280501 0.917951
O O7 0.134326 0.000000 0.000945
O O8 0.139255 0.285442 0.114649
O O9 0.270377 0.500000 0.146644
O O10 0.224665 0.205954 0.130194
O O11 0.818114 0.294202 0.694425
O O12 0.879788 0.198717 0.559262
O O13 0.805769 0.000000 0.586481
O O14 0.160103 0.000000 0.216197
O O15 0.924978 0.500000 0.553762
O O16 0.957152 0.774014 0.441093
O O17 0.960031 0.776919 0.646445
O O18 0.537910 0.259832 0.764660
O O19 0.509035 0.000000 0.659070
O O20 0.904100 0.000000 0.196419
#
# Coordination Sequence:
#
# PCOD9178849 Si02
#       8
#     8   8   8   8   8   8   8   8
#     4   8  15  28  44  65  91 118 148 185 229 267
#     4   8  16  31  49  68  91 121 153 190 235 268
#     4   9  17  31  50  66  86 119 157 193 229 274
#     4  10  19  31  47  66  93 125 155 188 222 266
#     4  10  20  32  46  67  94 121 153 194 233 265
#     4   9  18  31  46  67  98 127 145 175 226 280
#     4   9  17  29  46  71  99 120 142 181 233 271
#     4   9  15  27  49  70  90 119 153 187 223 269
#
# _framework density 23.381986999999999
#
# number of rings (size 3 to 8) (size 9 to 14) (size 15 to 20)
#    0.000    3.000    1.250    2.625    0.000    1.500 
#    0.000    5.000    0.000    0.750    0.000    5.250 
#    0.000    0.000    0.000    0.000    0.000    0.000 
#
# Total GULP energy -178486.641162 kJ/mol
# GULP energy per Si atom -5577.707536 kJ/mol
# Density = 2.332877 g / cm^3
# Si number density = 23.381987 Si / 1000 Ang^3
#
#
#
# Elastic Constant Matrix: (Units=GPa)
#
#
# Indices 1 2 3 4 5 6 
#
# 1 29.6661 -6.3345 9.2296 0.0000 24.4695 0.0000
# 2 -6.3345 83.0072 4.6616 0.0000 -2.7136 0.0000
# 3 9.2296 4.6616 147.7712 0.0000 45.0588 0.0000
# 4 0.0000 0.0000 0.0000 -19.1002 0.0000 3.2364
# 5 24.4695 -2.7136 45.0588 0.0000 36.5577 0.0000
# 6 0.0000 0.0000 0.0000 3.2364 0.0000 -4.8774
#
#
#
# Elastic Compliance Matrix: (Units=1/GPa)
#
#
# Indices 1 2 3 4 5 6 
#
# 1 0.118351 0.003894 0.026518 0.000000 -0.111612 0.000000
# 2 0.003894 0.012307 -0.000185 0.000000 -0.001465 0.000000
# 3 0.026518 -0.000185 0.016875 0.000000 -0.038563 0.000000
# 4 0.000000 0.000000 0.000000 -0.058988 0.000000 -0.039141
# 5 -0.111612 -0.001465 -0.038563 0.000000 0.149482 0.000000
# 6 0.000000 0.000000 0.000000 -0.039141 0.000000 -0.230999
#
#
# Mechanical properties :
#
#
# Convention : Reuss Voigt Hill
#
# Bulk Modulus (GPa) = 4.80798 30.61755 17.71276
# Shear Modulus (GPa) = 314.40432 19.37522 166.88977
#
# Velocity S-wave (km/s) = 11.60846 2.88173 8.45756
# Velocity P-wave (km/s) = 13.48094 4.91889 10.14720
#
# Compressibility (1/GPa) = 0.20798736
#
# Stress axis : x y z
#
# Youngs Moduli (GPa) = 8.44947 81.25608 59.25759
#
# Poissons Ratio (x) = -0.31639 -1.57141
# Poissons Ratio (y) = -0.03290 0.01094
# Poissons Ratio (z) = -0.22406 0.01501
#
# Static dielectric constant tensor:
#      x y z
#    x 1.850150 0.000000 0.013710 
#    y 0.000000 1.869770 0.000000 
#    z 0.013710 0.000000 1.986040 
# 
# From -- ./inp_files/182138.got.cif
#   From: 2010.05.17/outbox.cif.g08.bks.cpg/sg12_92_cif.got.tgz:182138.got - 2010.06.03 13:09:07.
