data_PCOD9178027
_publ_section_title
;
Structure prediction by ZEFSAII (Michael W. Deem and Ramdas Pophale) SiO2 
 PCOD9178027
Probable space group: C 2/M
;
_chemical_formula_sum "Si O2"
_cell_formula_units_Z 40
_cell_length_a 14.357859
_cell_length_b 9.438288
_cell_length_c 17.713676
_cell_angle_alpha 90.000000
_cell_angle_beta 49.044232
_cell_angle_gamma 90.000000
_cell_volume 1812.853419
_symmetry_space_group_name_H-M "C 2/M"
_symmetry_group_IT_number 12
_symmetry_cell_setting 'monoclinic'
loop_
_space_group_symop_operation_xyz
x,y,z
-x,y,-z
-x,-y,-z
x,-y,z
1/2+x,1/2+y,z
1/2-x,1/2+y,-z
1/2-x,1/2-y,-z
1/2+x,1/2-y,z
loop_
_atom_site_type_symbol
_atom_site_label
_atom_site_fract_x
_atom_site_fract_y
_atom_site_fract_z
Si Si1 0.929264 0.660307 0.111519
Si Si2 0.716367 0.336926 0.697556
Si Si3 0.338774 0.842868 0.901163
Si Si4 0.026765 0.840414 0.283223
Si Si5 0.655395 0.329893 0.494383
O O1 0.884049 0.500000 0.118295
O O2 0.828059 0.760338 0.202764
O O3 0.035190 0.646746 0.118243
O O4 0.000000 0.716199 0.000000
O O5 0.754097 0.500000 0.688243
O O6 0.594809 0.339472 0.706958
O O7 0.817232 0.243981 0.599531
O O8 0.377292 0.767035 0.803640
O O9 0.287888 0.000000 0.916438
O O10 0.250000 0.750000 0.000000
O O11 0.974757 0.809927 0.394176
O O12 0.076298 0.000000 0.254831
O O13 0.678091 0.500000 0.478876
O O14 0.750000 0.250000 0.500000
#
# Coordination Sequence:
#
# PCOD9178027 Si02
#       5
#     8   8   8   8   8
#     4   9  18  32  48  66  89 119 154 188 222 262
#     4   9  16  25  39  61  88 116 145 180 222 267
#     4  10  19  30  46  66  90 119 149 184 222 263
#     4   8  15  26  39  58  85 114 145 180 217 259
#     4   9  15  23  37  58  85 115 144 179 222 266
#
# _framework density 22.064661999999998
#
# number of rings (size 3 to 8) (size 9 to 14) (size 15 to 20)
#    0.000    3.000    0.000    3.000    0.000    6.800 
#    0.000    0.000    0.000    0.000    0.000    1.400 
#    0.000   11.200    0.000    0.000    0.000    0.000 
#
# Total GULP energy -111627.071864 kJ/mol
# GULP energy per Si atom -5581.353593 kJ/mol
# Density = 2.201444 g / cm^3
# Si number density = 22.064662 Si / 1000 Ang^3
#
#
#
# Elastic Constant Matrix: (Units=GPa)
#
#
# Indices 1 2 3 4 5 6 
#
# 1 64.7862 8.9598 7.0127 0.0000 5.0687 0.0000
# 2 8.9598 199.0391 157.0980 0.0000 -0.8490 0.0000
# 3 7.0127 157.0980 230.9407 0.0000 18.0034 0.0000
# 4 0.0000 0.0000 0.0000 39.4939 0.0000 1.1050
# 5 5.0687 -0.8490 18.0034 0.0000 14.0399 0.0000
# 6 0.0000 0.0000 0.0000 1.1050 0.0000 -1.0206
#
#
#
# Elastic Compliance Matrix: (Units=1/GPa)
#
#
# Indices 1 2 3 4 5 6 
#
# 1 0.016141 -0.001823 0.001347 0.000000 -0.007665 0.000000
# 2 -0.001823 0.012928 -0.009835 0.000000 0.014051 0.000000
# 3 0.001347 -0.009835 0.012292 0.000000 -0.016843 0.000000
# 4 0.000000 0.000000 0.000000 0.024576 0.000000 0.026609
# 5 -0.007665 0.014051 -0.016843 0.000000 0.096441 0.000000
# 6 0.000000 0.000000 0.000000 0.026609 0.000000 -0.951039
#
#
# Mechanical properties :
#
#
# Convention : Reuss Voigt Hill
#
# Bulk Modulus (GPa) = 48.21126 93.43409 70.82268
# Shear Modulus (GPa) = -6.56921 31.94902 12.68991
#
# Velocity S-wave (km/s) = -1.72734 3.80935 2.40077
# Velocity P-wave (km/s) = 4.23310 7.86039 6.31288
#
# Compressibility (1/GPa) = 0.02074204
#
# Stress axis : x y z
#
# Youngs Moduli (GPa) = 61.95276 77.34943 81.35218
#
# Poissons Ratio (x) = 0.14099 -0.10961
# Poissons Ratio (y) = 0.11292 0.80006
# Poissons Ratio (z) = -0.08347 0.76070
#
# Static dielectric constant tensor:
#      x y z
#    x 2.011660 0.000000 0.015610 
#    y 0.000000 1.777870 0.000000 
#    z 0.015610 0.000000 1.793590 
# 
# From -- ./inp_files/171583.got.cif
#   From: 2010.05.17/outbox.cif.g08.bks.cpg/sg12_86_cif.got.tgz:171583.got - 2010.06.03 13:09:07.
