data_PCOD9178232
_publ_section_title
;
Structure prediction by ZEFSAII (Michael W. Deem and Ramdas Pophale) SiO2 
 PCOD9178232
Probable space group: C 2/M
;
_chemical_formula_sum "Si O2"
_cell_formula_units_Z 48
_cell_length_a 8.648201
_cell_length_b 32.796928
_cell_length_c 10.476287
_cell_angle_alpha 90.000000
_cell_angle_beta 114.377796
_cell_angle_gamma 90.000000
_cell_volume 2706.513390
_symmetry_space_group_name_H-M "C 2/M"
_symmetry_group_IT_number 12
_symmetry_cell_setting 'monoclinic'
loop_
_space_group_symop_operation_xyz
x,y,z
-x,y,-z
-x,-y,-z
x,-y,z
1/2+x,1/2+y,z
1/2-x,1/2+y,-z
1/2-x,1/2-y,-z
1/2+x,1/2-y,z
loop_
_atom_site_type_symbol
_atom_site_label
_atom_site_fract_x
_atom_site_fract_y
_atom_site_fract_z
Si Si1 0.644157 0.955524 0.159073
Si Si2 0.394773 0.793341 0.662296
Si Si3 0.232477 0.206659 0.337704
Si Si4 0.485084 0.544476 0.840927
Si Si5 0.014534 0.628707 0.157815
Si Si6 0.856719 0.128707 0.842185
O O1 0.827111 0.952294 0.154221
O O2 0.606029 0.914128 0.221257
O O3 0.635641 0.000000 0.222088
O O4 0.500000 0.956326 0.000000
O O5 0.582631 0.791843 0.665261
O O6 0.264577 0.798060 0.500000
O O7 0.357098 0.750000 0.714196
O O8 0.390714 0.832114 0.753055
O O9 0.137659 0.167886 0.246945
O O10 0.413553 0.500000 0.777912
O O11 0.384773 0.585872 0.778743
O O12 0.500000 0.543674 0.000000
O O13 0.826155 0.627440 0.152309
O O14 0.000000 0.632182 0.000000
O O15 0.000000 0.132182 0.000000
#
# Coordination Sequence:
#
# PCOD9178232 Si02
#       6
#     8   8   8   8   8   8
#     4   9  16  26  42  65  93 123 154 187 224 269
#     4   9  19  35  52  69  90 120 157 192 228 273
#     4   9  19  35  52  69  90 120 157 192 228 273
#     4   9  16  26  42  65  93 123 154 187 224 269
#     4  10  19  30  47  71  97 122 151 190 231 272
#     4  10  19  30  47  71  97 122 151 190 231 272
#
# _framework density 17.734994
#
# number of rings (size 3 to 8) (size 9 to 14) (size 15 to 20)
#    0.000    2.667    0.000    4.000    0.000    5.333 
#    0.000    3.333    0.000    1.000    0.000    7.000 
#    0.000    0.000    0.000    0.000    0.000    0.000 
#
# Total GULP energy -133690.144124 kJ/mol
# GULP energy per Si atom -5570.422672 kJ/mol
# Density = 1.769463 g / cm^3
# Si number density = 17.734994 Si / 1000 Ang^3
#
#
#
# Elastic Constant Matrix: (Units=GPa)
#
#
# Indices 1 2 3 4 5 6 
#
# 1 43.8746 47.2162 14.8491 0.0000 -0.0119 0.0000
# 2 47.2162 233.5176 59.7482 0.0000 0.2340 0.0000
# 3 14.8491 59.7482 29.9396 0.0000 -0.2483 0.0000
# 4 0.0000 0.0000 0.0000 -3.3426 0.0000 -0.6816
# 5 -0.0119 0.2340 -0.2483 0.0000 14.1909 0.0000
# 6 0.0000 0.0000 0.0000 -0.6816 0.0000 33.1668
#
#
#
# Elastic Compliance Matrix: (Units=1/GPa)
#
#
# Indices 1 2 3 4 5 6 
#
# 1 0.029582 -0.004551 -0.005589 0.000000 0.000002 0.000000
# 2 -0.004551 0.009453 -0.016612 0.000000 -0.000450 0.000000
# 3 -0.005589 -0.016612 0.069336 0.000000 0.001482 0.000000
# 4 0.000000 0.000000 0.000000 -0.297918 0.000000 -0.006122
# 5 0.000002 -0.000450 0.001482 0.000000 0.070501 0.000000
# 6 0.000000 0.000000 0.000000 -0.006122 0.000000 0.030025
#
#
# Mechanical properties :
#
#
# Convention : Reuss Voigt Hill
#
# Bulk Modulus (GPa) = 18.22591 61.21764 39.72178
# Shear Modulus (GPa) = -290.21307 21.17091 -134.52108
#
# Velocity S-wave (km/s) = -12.80601 3.45880 -8.71868
# Velocity P-wave (km/s) = 14.43466 7.10943 8.88300
#
# Compressibility (1/GPa) = 0.05486694
#
# Stress axis : x y z
#
# Youngs Moduli (GPa) = 33.80468 105.78231 14.42258
#
# Poissons Ratio (x) = 0.48145 0.08060
# Poissons Ratio (y) = 0.15386 0.23959
# Poissons Ratio (z) = 0.18893 1.75724
#
# Static dielectric constant tensor:
#      x y z
#    x 1.582770 0.000000 0.000000 
#    y 0.000000 1.659490 0.000000 
#    z 0.000000 0.000000 1.582690 
# 
# From -- ./inp_files/124858.got.cif
#   From: 2010.05.17/outbox.cif.g08.bks.cpg/sg12_63_cif.got.tgz:124858.got - 2010.06.03 13:09:07.
