data_PCOD9178010
_publ_section_title
;
Structure prediction by ZEFSAII (Michael W. Deem and Ramdas Pophale) SiO2 
 PCOD9178010
Probable space group: C 2/M
;
_chemical_formula_sum "Si O2"
_cell_formula_units_Z 56
_cell_length_a 33.596012
_cell_length_b 7.520092
_cell_length_c 24.567383
_cell_angle_alpha 90.000000
_cell_angle_beta 157.157277
_cell_angle_gamma 90.000000
_cell_volume 2409.508831
_symmetry_space_group_name_H-M "C 2/M"
_symmetry_group_IT_number 12
_symmetry_cell_setting 'monoclinic'
loop_
_space_group_symop_operation_xyz
x,y,z
-x,y,-z
-x,-y,-z
x,-y,z
1/2+x,1/2+y,z
1/2-x,1/2+y,-z
1/2-x,1/2-y,-z
1/2+x,1/2-y,z
loop_
_atom_site_type_symbol
_atom_site_label
_atom_site_fract_x
_atom_site_fract_y
_atom_site_fract_z
Si Si1 0.797396 0.704428 0.888559
Si Si2 0.636785 0.212671 0.334561
Si Si3 0.278718 0.784708 0.668376
Si Si4 0.054971 0.786817 0.404691
Si Si5 0.090342 0.216983 0.572194
Si Si6 0.416705 0.705436 0.937112
Si Si7 0.555365 0.212733 0.838653
O O1 0.769750 0.500000 0.865253
O O2 0.697354 0.783062 0.733172
O O3 0.889515 0.707538 0.960131
O O4 0.844691 0.782390 0.003544
O O5 0.750000 0.250000 0.500000
O O6 0.644476 0.277798 0.281969
O O7 0.545041 0.284482 0.255718
O O8 0.625229 0.000000 0.318033
O O9 0.162002 0.726367 0.511799
O O10 0.314546 0.719169 0.771856
O O11 0.280271 0.000000 0.671195
O O12 0.060735 0.721479 0.474074
O O13 0.962552 0.742192 0.247774
O O14 0.057576 0.000000 0.410302
O O15 0.000000 0.259101 0.500000
O O16 0.098568 0.000000 0.578476
O O17 0.442125 0.500000 0.978850
O O18 0.500000 0.784873 0.000000
O O19 0.556979 0.000000 0.848044
#
# Coordination Sequence:
#
# PCOD9178010 Si02
#       7
#     8   8   8   8   8   8   8
#     4  10  20  38  60  82 111 148 191 232 278 338
#     4  10  19  30  45  70 104 144 187 226 266 314
#     4  10  19  33  52  75 103 144 195 234 269 323
#     4  10  19  34  57  82 107 141 183 229 277 327
#     4   9  18  36  63  89 108 136 186 240 286 337
#     4  11  23  35  50  78 114 150 187 231 282 327
#     4  10  21  34  52  79 112 150 183 224 279 329
#
# _framework density 23.241250999999998
#
# number of rings (size 3 to 8) (size 9 to 14) (size 15 to 20)
#    0.000    2.000    2.857    1.286    0.000    4.000 
#    0.000    0.714    0.000    1.714    0.000    0.000 
#    0.000    0.000    0.000    0.000    0.000    0.000 
#
# Total GULP energy -156341.576687 kJ/mol
# GULP energy per Si atom -5583.627739 kJ/mol
# Density = 2.318835 g / cm^3
# Si number density = 23.241251 Si / 1000 Ang^3
#
#
#
# Elastic Constant Matrix: (Units=GPa)
#
#
# Indices 1 2 3 4 5 6 
#
# 1 99.1046 4.3545 74.7916 0.0000 -22.4476 0.0000
# 2 4.3545 64.8892 2.3139 0.0001 -0.9925 -0.0001
# 3 74.7916 2.3139 167.6743 0.0000 -40.8697 0.0000
# 4 0.0000 0.0001 0.0000 17.0692 0.0000 -5.1601
# 5 -22.4476 -0.9925 -40.8697 0.0000 37.0408 0.0000
# 6 0.0000 -0.0001 0.0000 -5.1601 0.0000 2.4548
#
#
#
# Elastic Compliance Matrix: (Units=1/GPa)
#
#
# Indices 1 2 3 4 5 6 
#
# 1 0.015403 -0.000773 -0.006278 0.000000 0.002387 0.000000
# 2 -0.000773 0.015459 0.000162 0.000000 0.000124 0.000001
# 3 -0.006278 0.000162 0.010718 0.000000 0.008026 0.000000
# 4 0.000000 0.000000 0.000000 0.160715 0.000000 0.337833
# 5 0.002387 0.000124 0.008026 0.000000 0.037303 0.000000
# 6 0.000000 0.000001 0.000000 0.337833 0.000000 1.117515
#
#
# Mechanical properties :
#
#
# Convention : Reuss Voigt Hill
#
# Bulk Modulus (GPa) = 35.96971 54.95423 45.46197
# Shear Modulus (GPa) = 3.62277 27.99349 15.80813
#
# Velocity S-wave (km/s) = 1.24986 3.47432 2.61085
# Velocity P-wave (km/s) = 4.19442 6.30801 5.35650
#
# Compressibility (1/GPa) = 0.02780117
#
# Stress axis : x y z
#
# Youngs Moduli (GPa) = 64.92328 64.68760 93.29804
#
# Poissons Ratio (x) = 0.05002 0.58573
# Poissons Ratio (y) = 0.05020 -0.01510
# Poissons Ratio (z) = 0.40759 -0.01047
#
# Static dielectric constant tensor:
#      x y z
#    x 1.855560 0.000000 -0.025050 
#    y 0.000000 1.878020 0.000000 
#    z -0.025050 0.000000 1.952080 
# 
# From -- ./inp_files/329680.got.cif
#   From: 2010.05.17/outbox.cif.g08.bks.cpg/sg12_165_cif.got.tgz:329680.got - 2010.06.03 13:09:07.
