data_PCOD9178638
_publ_section_title
;
Structure prediction by ZEFSAII (Michael W. Deem and Ramdas Pophale) SiO2 
 PCOD9178638
Probable space group: C 2/M
;
_chemical_formula_sum "Si O2"
_cell_formula_units_Z 56
_cell_length_a 26.073117
_cell_length_b 7.629268
_cell_length_c 15.533402
_cell_angle_alpha 90.000000
_cell_angle_beta 105.869649
_cell_angle_gamma 90.000000
_cell_volume 2972.118660
_symmetry_space_group_name_H-M "C 2/M"
_symmetry_group_IT_number 12
_symmetry_cell_setting 'monoclinic'
loop_
_space_group_symop_operation_xyz
x,y,z
-x,y,-z
-x,-y,-z
x,-y,z
1/2+x,1/2+y,z
1/2-x,1/2+y,-z
1/2-x,1/2-y,-z
1/2+x,1/2-y,z
loop_
_atom_site_type_symbol
_atom_site_label
_atom_site_fract_x
_atom_site_fract_y
_atom_site_fract_z
Si Si1 0.873882 0.707568 0.598691
Si Si2 0.819943 0.212104 0.394722
Si Si3 0.331933 0.702903 0.095860
Si Si4 0.783921 0.791758 0.899561
Si Si5 0.298196 0.211694 0.712964
Si Si6 0.512470 0.790561 0.409891
Si Si7 0.099743 0.211777 0.718536
O O1 0.880490 0.500000 0.617088
O O2 0.837884 0.730309 0.497317
O O3 0.842565 0.778839 0.666966
O O4 0.932372 0.780772 0.603393
O O5 0.760783 0.272916 0.342505
O O6 0.863087 0.272886 0.343757
O O7 0.819915 0.000000 0.393678
O O8 0.346661 0.500000 0.089068
O O9 0.275058 0.710636 0.119041
O O10 0.375536 0.779685 0.180611
O O11 0.319347 0.777551 0.995523
O O12 0.806965 0.759652 0.816120
O O13 0.776886 0.000000 0.909066
O O14 0.297247 0.000000 0.707479
O O15 0.500000 0.720109 0.500000
O O16 0.460990 0.758918 0.327854
O O17 0.519490 0.000000 0.422258
O O18 0.103813 0.000000 0.721625
#
# Coordination Sequence:
#
# PCOD9178638 Si02
#       7
#     8   8   8   8   8   8   8
#     4  10  21  35  51  70  98 138 172 203 249 295
#     4  10  19  31  49  73 101 132 164 202 245 295
#     4   9  18  34  51  73 105 133 161 201 250 299
#     4  10  19  30  51  78 102 130 164 203 247 296
#     4  10  20  35  51  70 103 139 166 200 249 300
#     4  10  20  34  50  71  99 129 167 213 248 282
#     4  10  19  32  52  74  99 131 163 198 248 299
#
# _framework density 18.841778000000001
#
# number of rings (size 3 to 8) (size 9 to 14) (size 15 to 20)
#    0.000    2.143    2.857    0.857    0.000    3.143 
#    0.000    0.000    0.000    0.857    0.000    6.000 
#    0.000    0.000    0.000    0.000    0.000    0.000 
#
# Total GULP energy -156272.200617 kJ/mol
# GULP energy per Si atom -5581.150022 kJ/mol
# Density = 1.879889 g / cm^3
# Si number density = 18.841778 Si / 1000 Ang^3
#
#
#
# Elastic Constant Matrix: (Units=GPa)
#
#
# Indices 1 2 3 4 5 6 
#
# 1 116.0177 5.9853 80.9023 0.0000 -15.3682 0.0000
# 2 5.9853 33.8674 -10.8327 0.0000 -1.8381 0.0000
# 3 80.9023 -10.8327 156.9783 0.0000 -4.9909 0.0000
# 4 0.0000 0.0000 0.0000 15.2250 0.0000 0.2154
# 5 -15.3682 -1.8381 -4.9909 0.0000 24.0718 0.0000
# 6 0.0000 0.0000 0.0000 0.2154 0.0000 4.9452
#
#
#
# Elastic Compliance Matrix: (Units=1/GPa)
#
#
# Indices 1 2 3 4 5 6 
#
# 1 0.015579 -0.004922 -0.008118 0.000000 0.007887 0.000000
# 2 -0.004922 0.031931 0.004749 0.000000 0.000281 0.000000
# 3 -0.008118 0.004749 0.010800 0.000000 -0.002581 0.000000
# 4 0.000000 0.000000 0.000000 0.065722 0.000000 -0.002863
# 5 0.007887 0.000281 -0.002581 0.000000 0.046064 0.000000
# 6 0.000000 0.000000 0.000000 -0.002863 0.000000 0.202343
#
#
# Mechanical properties :
#
#
# Convention : Reuss Voigt Hill
#
# Bulk Modulus (GPa) = 23.96455 50.99702 37.48078
# Shear Modulus (GPa) = 12.40915 24.23563 18.32239
#
# Velocity S-wave (km/s) = 2.56910 3.59035 3.12177
# Velocity P-wave (km/s) = 4.64185 6.65674 5.73842
#
# Compressibility (1/GPa) = 0.04172831
#
# Stress axis : x y z
#
# Youngs Moduli (GPa) = 64.19002 31.31759 92.59582
#
# Poissons Ratio (x) = 0.15413 0.75167
# Poissons Ratio (y) = 0.31592 -0.43973
# Poissons Ratio (z) = 0.52108 -0.14872
#
# Static dielectric constant tensor:
#      x y z
#    x 1.638580 0.000000 -0.004340 
#    y 0.000000 1.635300 0.000000 
#    z -0.004340 0.000000 1.656530 
# 
# From -- ./inp_files/237790.got.cif
#   From: 2010.05.17/outbox.cif.g08.bks.cpg/sg12_119_cif.got.tgz:237790.got - 2010.06.03 13:09:07.
