data_PCOD9178865
_publ_section_title
;
Structure prediction by ZEFSAII (Michael W. Deem and Ramdas Pophale) SiO2 
 PCOD9178865
Probable space group: C 2/M
;
_chemical_formula_sum "Si O2"
_cell_formula_units_Z 64
_cell_length_a 30.143561
_cell_length_b 7.249061
_cell_length_c 14.677715
_cell_angle_alpha 90.000000
_cell_angle_beta 126.775801
_cell_angle_gamma 90.000000
_cell_volume 2568.968411
_symmetry_space_group_name_H-M "C 2/M"
_symmetry_group_IT_number 12
_symmetry_cell_setting 'monoclinic'
loop_
_space_group_symop_operation_xyz
x,y,z
-x,y,-z
-x,-y,-z
x,-y,z
1/2+x,1/2+y,z
1/2-x,1/2+y,-z
1/2-x,1/2-y,-z
1/2+x,1/2-y,z
loop_
_atom_site_type_symbol
_atom_site_label
_atom_site_fract_x
_atom_site_fract_y
_atom_site_fract_z
Si Si1 0.173288 0.722172 0.771380
Si Si2 0.542169 0.206585 0.829889
Si Si3 0.061071 0.724016 0.544850
Si Si4 0.338942 0.777600 0.694307
Si Si5 0.838593 0.726487 0.047790
Si Si6 0.941941 0.707608 0.939738
Si Si7 0.778748 0.713094 0.789829
Si Si8 0.418653 0.775761 0.637373
O O1 0.173789 0.500000 0.771890
O O2 0.111338 0.781260 0.670795
O O3 0.190872 0.782580 0.894312
O O4 0.216003 0.780222 0.746198
O O5 0.597777 0.289854 0.857563
O O6 0.479584 0.281178 0.751391
O O7 0.536849 0.000000 0.782563
O O8 0.562742 0.192376 0.958951
O O9 0.059236 0.500000 0.543300
O O10 0.077744 0.779181 0.463086
O O11 0.000000 0.786391 0.500000
O O12 0.388788 0.722615 0.824251
O O13 0.288252 0.715866 0.697799
O O14 0.365174 0.713092 0.630291
O O15 0.332737 0.000000 0.675467
O O16 0.839120 0.500000 0.045232
O O17 0.812424 0.790376 0.919580
O O18 0.947958 0.500000 0.906233
O O19 0.000000 0.805072 0.000000
O O20 0.797491 0.500000 0.808013
O O21 0.417140 0.000000 0.640096
#
# Coordination Sequence:
#
# PCOD9178865 Si02
#       8
#     8   8   8   8   8   8   8   8
#     4  10  20  33  48  66  91 121 154 189 224 267
#     4   9  13  18  33  59  90 118 141 173 225 277
#     4   9  17  30  46  65  88 117 151 186 226 272
#     4   9  15  23  36  59  90 120 147 181 226 270
#     4   9  16  26  42  65  92 122 151 183 227 274
#     4   9  12  16  28  51  86 120 141 167 218 276
#     4  10  19  31  47  67  93 122 153 188 225 267
#     4   9  15  22  37  61  90 120 149 185 229 272
#
# _framework density 24.912721999999999
#
# number of rings (size 3 to 8) (size 9 to 14) (size 15 to 20)
#    0.000    2.750    2.500    1.125    0.000    3.000 
#    0.000    0.625    0.000    0.375    0.000    0.000 
#    0.000    5.500    0.000    0.000    0.000    0.000 
#
# Total GULP energy -178316.861563 kJ/mol
# GULP energy per Si atom -5572.401924 kJ/mol
# Density = 2.485602 g / cm^3
# Si number density = 24.912722 Si / 1000 Ang^3
#
#
#
# Elastic Constant Matrix: (Units=GPa)
#
#
# Indices 1 2 3 4 5 6 
#
# 1 201.4401 -0.6925 57.0551 0.0000 -26.4809 0.0000
# 2 -0.6925 107.6897 -0.0857 0.0000 -3.6037 0.0000
# 3 57.0551 -0.0857 76.3123 0.0000 -25.3279 0.0000
# 4 0.0000 0.0000 0.0000 7.0936 0.0000 13.5394
# 5 -26.4809 -3.6037 -25.3279 0.0000 44.7354 0.0000
# 6 0.0000 0.0000 0.0000 13.5394 0.0000 20.8719
#
#
#
# Elastic Compliance Matrix: (Units=1/GPa)
#
#
# Indices 1 2 3 4 5 6 
#
# 1 0.006361 0.000082 -0.004315 0.000000 0.001329 0.000000
# 2 0.000082 0.009318 0.000264 0.000000 0.000949 0.000000
# 3 -0.004315 0.000264 0.019074 0.000000 0.008266 0.000000
# 4 0.000000 0.000000 0.000000 -0.591963 0.000000 0.384001
# 5 0.001329 0.000949 0.008266 0.000000 0.027897 0.000000
# 6 0.000000 0.000000 0.000000 0.384001 0.000000 -0.201187
#
#
# Mechanical properties :
#
#
# Convention : Reuss Voigt Hill
#
# Bulk Modulus (GPa) = 37.29112 55.33287 46.31200
# Shear Modulus (GPa) = -7.00651 36.48453 14.73901
#
# Velocity S-wave (km/s) = -1.67885 3.83102 2.43497
# Velocity P-wave (km/s) = 3.35308 6.46745 5.15126
#
# Compressibility (1/GPa) = 0.02681604
#
# Stress axis : x y z
#
# Youngs Moduli (GPa) = 157.19812 107.31428 52.42770
#
# Poissons Ratio (x) = -0.00880 0.22622
# Poissons Ratio (y) = -0.01288 -0.01384
# Poissons Ratio (z) = 0.67829 -0.02834
#
# Static dielectric constant tensor:
#      x y z
#    x 2.051740 0.000000 -0.013250 
#    y 0.000000 2.173400 0.000000 
#    z -0.013250 0.000000 1.942600 
# 
# From -- ./inp_files/249223.got.cif
#   From: 2010.05.17/outbox.cif.g08.bks.cpg/sg12_125_cif.got.tgz:249223.got - 2010.06.03 13:09:07.
