data_PCOD9178246
_publ_section_title
;
Structure prediction by ZEFSAII (Michael W. Deem and Ramdas Pophale) SiO2 
 PCOD9178246
Probable space group: C 2/M
;
_chemical_formula_sum "Si O2"
_cell_formula_units_Z 48
_cell_length_a 20.044163
_cell_length_b 7.462376
_cell_length_c 31.038910
_cell_angle_alpha 90.000000
_cell_angle_beta 30.099323
_cell_angle_gamma 90.000000
_cell_volume 2328.321230
_symmetry_space_group_name_H-M "C 2/M"
_symmetry_group_IT_number 12
_symmetry_cell_setting 'monoclinic'
loop_
_space_group_symop_operation_xyz
x,y,z
-x,y,-z
-x,-y,-z
x,-y,z
1/2+x,1/2+y,z
1/2-x,1/2+y,-z
1/2-x,1/2-y,-z
1/2+x,1/2-y,z
loop_
_atom_site_type_symbol
_atom_site_label
_atom_site_fract_x
_atom_site_fract_y
_atom_site_fract_z
Si Si1 0.421361 0.220385 0.257253
Si Si2 0.502538 0.204563 0.120386
Si Si3 0.884637 0.282106 0.030923
Si Si4 0.623051 0.283870 0.402898
Si Si5 0.603979 0.791845 0.230278
Si Si6 0.296600 0.789243 0.735505
O O1 0.497465 0.282707 0.171301
O O2 0.267692 0.275070 0.339215
O O3 0.492826 0.283652 0.260507
O O4 0.424327 0.000000 0.254604
O O5 0.347769 0.203427 0.191886
O O6 0.549096 0.000000 0.098987
O O7 0.583143 0.283786 0.035334
O O8 0.885488 0.500000 0.029795
O O9 0.743443 0.220013 0.127229
O O10 0.000000 0.226734 0.000000
O O11 0.500000 0.218502 0.500000
O O12 0.622643 0.500000 0.404787
O O13 0.619014 0.232390 0.355021
O O14 0.631523 0.715374 0.262252
O O15 0.568165 0.000000 0.256850
O O16 0.269870 0.000000 0.757319
#
# Coordination Sequence:
#
# PCOD9178246 Si02
#       6
#     8   8   8   8   8   8
#     4   8  16  32  51  70  96 127 161 199 241 289
#     4   9  17  32  51  68  92 132 174 206 238 277
#     4  10  19  30  47  71  98 129 170 213 242 271
#     4   9  18  35  59  78  92 121 163 199 234 288
#     4  10  20  32  47  70 101 134 161 195 245 293
#     4  10  19  30  48  73 100 128 158 195 243 291
#
# _framework density 20.615713
#
# number of rings (size 3 to 8) (size 9 to 14) (size 15 to 20)
#    0.000    2.667    1.667    1.500    0.000    2.667 
#    0.000    4.167    0.000    0.000    0.000    0.000 
#    0.000    0.000    0.000    0.000    0.000    0.000 
#
# Total GULP energy -133919.361890 kJ/mol
# GULP energy per Si atom -5579.973412 kJ/mol
# Density = 2.056879 g / cm^3
# Si number density = 20.615713 Si / 1000 Ang^3
#
#
#
# Elastic Constant Matrix: (Units=GPa)
#
#
# Indices 1 2 3 4 5 6 
#
# 1 160.7571 -8.4216 53.4056 -0.0041 11.8515 0.0059
# 2 -8.4216 62.0503 -13.0507 -0.0113 -2.5176 0.0113
# 3 53.4056 -13.0507 93.2276 0.0014 23.6017 -0.0057
# 4 -0.0041 -0.0113 0.0014 11.4743 0.0005 -1.1793
# 5 11.8515 -2.5176 23.6017 0.0005 24.3423 -0.0031
# 6 0.0059 0.0113 -0.0057 -1.1793 -0.0031 6.5358
#
#
#
# Elastic Compliance Matrix: (Units=1/GPa)
#
#
# Indices 1 2 3 4 5 6 
#
# 1 0.007692 0.000112 -0.004567 0.000002 0.000694 -0.000010
# 2 0.000112 0.016616 0.002440 0.000014 -0.000701 -0.000025
# 3 -0.004567 0.002440 0.017305 0.000000 -0.014303 0.000008
# 4 0.000002 0.000014 0.000000 0.088798 0.000000 0.016022
# 5 0.000694 -0.000701 -0.014303 0.000000 0.054538 0.000014
# 6 -0.000010 -0.000025 0.000008 0.016022 0.000014 0.155895
#
#
# Mechanical properties :
#
#
# Convention : Reuss Voigt Hill
#
# Bulk Modulus (GPa) = 26.60837 42.21128 34.40983
# Shear Modulus (GPa) = 13.98984 27.41058 20.70021
#
# Velocity S-wave (km/s) = 2.60782 3.65032 3.17219
# Velocity P-wave (km/s) = 4.69068 6.18758 5.49039
#
# Compressibility (1/GPa) = 0.03758216
#
# Stress axis : x y z
#
# Youngs Moduli (GPa) = 129.99926 60.18379 57.78723
#
# Poissons Ratio (x) = -0.00672 0.26389
# Poissons Ratio (y) = -0.01452 -0.14097
# Poissons Ratio (z) = 0.59366 -0.14682
#
# Static dielectric constant tensor:
#      x y z
#    x 1.754240 0.000000 0.016230 
#    y 0.000000 1.763500 0.000000 
#    z 0.016230 0.000000 1.691230 
# 
# From -- ./inp_files/230359.got.cif
#   From: 2010.05.17/outbox.cif.g08.bks.cpg/sg12_116_cif.got.tgz:230359.got - 2010.06.03 13:09:07.
