data_PCOD9178321
_publ_section_title
;
Structure prediction by ZEFSAII (Michael W. Deem and Ramdas Pophale) SiO2 
 PCOD9178321
Probable space group: C 2/M
;
_chemical_formula_sum "Si O2"
_cell_formula_units_Z 64
_cell_length_a 30.144693
_cell_length_b 8.975448
_cell_length_c 15.751945
_cell_angle_alpha 90.000000
_cell_angle_beta 119.255706
_cell_angle_gamma 90.000000
_cell_volume 3718.265619
_symmetry_space_group_name_H-M "C 2/M"
_symmetry_group_IT_number 12
_symmetry_cell_setting 'monoclinic'
loop_
_space_group_symop_operation_xyz
x,y,z
-x,y,-z
-x,-y,-z
x,-y,z
1/2+x,1/2+y,z
1/2-x,1/2+y,-z
1/2-x,1/2-y,-z
1/2+x,1/2-y,z
loop_
_atom_site_type_symbol
_atom_site_label
_atom_site_fract_x
_atom_site_fract_y
_atom_site_fract_z
Si Si1 0.210223 0.820819 0.280441
Si Si2 0.589799 0.176463 0.562746
Si Si3 0.127740 0.822978 0.338035
Si Si4 0.533044 0.824220 0.330536
Si Si5 0.314909 0.323128 0.431435
Si Si6 0.278421 0.677832 0.905298
Si Si7 0.829096 0.677164 0.113664
Si Si8 0.430973 0.677246 0.279997
O O1 0.159569 0.780317 0.284743
O O2 0.259041 0.741328 0.366259
O O3 0.208409 0.785047 0.179080
O O4 0.216884 0.000000 0.294844
O O5 0.556469 0.200243 0.446935
O O6 0.645490 0.240857 0.593689
O O7 0.567188 0.258480 0.622727
O O8 0.592596 0.000000 0.582087
O O9 0.075873 0.735707 0.306653
O O10 0.164146 0.796984 0.453783
O O11 0.116995 0.000000 0.325491
O O12 0.480142 0.738141 0.276817
O O13 0.525129 0.000000 0.312536
O O14 0.315955 0.500000 0.416558
O O15 0.285843 0.500000 0.925074
O O16 0.219066 0.709029 0.869857
O O17 0.311224 0.766643 0.004700
O O18 0.837668 0.500000 0.121976
O O19 0.879201 0.760588 0.191139
O O20 0.430794 0.500000 0.281338
#
# Coordination Sequence:
#
# PCOD9178321 Si02
#       8
#     8   8   8   8   8   8   8   8
#     4  10  19  32  52  75 103 139 175 212 257 308
#     4  10  20  34  51  73 104 139 174 210 252 303
#     4   9  19  34  50  72 103 139 177 216 257 299
#     4  10  21  36  53  73 101 138 176 214 255 299
#     4  10  19  30  47  74 107 139 175 215 252 298
#     4   9  19  35  54  77 104 134 167 205 252 305
#     4  10  20  35  55  78 106 136 166 204 251 305
#     4  12  23  34  53  78 104 134 170 211 254 304
#
# _framework density 17.212326999999998
#
# number of rings (size 3 to 8) (size 9 to 14) (size 15 to 20)
#    0.000    2.000    0.000    4.125    0.000    6.000 
#    0.000    0.000    0.000    0.750    0.000    5.250 
#    0.000    0.000    0.000    0.000    0.000    0.000 
#
# Total GULP energy -178744.811387 kJ/mol
# GULP energy per Si atom -5585.775356 kJ/mol
# Density = 1.717315 g / cm^3
# Si number density = 17.212327 Si / 1000 Ang^3
#
#
#
# Elastic Constant Matrix: (Units=GPa)
#
#
# Indices 1 2 3 4 5 6 
#
# 1 131.2500 63.5383 52.6508 0.0000 -8.6561 0.0000
# 2 63.5383 71.7554 42.8611 0.0000 1.7616 0.0000
# 3 52.6508 42.8611 48.7436 0.0000 -8.2031 0.0000
# 4 0.0000 0.0000 0.0000 25.7663 0.0000 3.1424
# 5 -8.6561 1.7616 -8.2031 0.0000 20.7469 0.0000
# 6 0.0000 0.0000 0.0000 3.1424 0.0000 29.3921
#
#
#
# Elastic Compliance Matrix: (Units=1/GPa)
#
#
# Indices 1 2 3 4 5 6 
#
# 1 0.015493 -0.008882 -0.008259 0.000000 0.003953 0.000000
# 2 -0.008882 0.038528 -0.027273 0.000000 -0.017761 0.000000
# 3 -0.008259 -0.027273 0.057023 0.000000 0.021416 0.000000
# 4 0.000000 0.000000 0.000000 0.039323 0.000000 -0.004204
# 5 0.003953 -0.017761 0.021416 0.000000 0.059825 0.000000
# 6 0.000000 0.000000 0.000000 -0.004204 0.000000 0.034472
#
#
# Mechanical properties :
#
#
# Convention : Reuss Voigt Hill
#
# Bulk Modulus (GPa) = 45.01602 63.31660 54.16631
# Shear Modulus (GPa) = 14.66713 21.36101 18.01407
#
# Velocity S-wave (km/s) = 2.92229 3.52665 3.23860
# Velocity P-wave (km/s) = 6.13160 7.31085 6.74704
#
# Compressibility (1/GPa) = 0.02221431
#
# Stress axis : x y z
#
# Youngs Moduli (GPa) = 64.54607 25.95485 17.53686
#
# Poissons Ratio (x) = 0.23054 0.14484
# Poissons Ratio (y) = 0.57332 0.47829
# Poissons Ratio (z) = 0.53309 0.70788
#
# Static dielectric constant tensor:
#      x y z
#    x 1.575920 0.000000 -0.007750 
#    y 0.000000 1.570740 0.000000 
#    z -0.007750 0.000000 1.564100 
# 
# From -- ./inp_files/244160.got.cif
#   From: 2010.05.17/outbox.cif.g08.bks.cpg/sg12_123_cif.got.tgz:244160.got - 2010.06.03 13:09:07.
