data_PCOD9178855
_publ_section_title
;
Structure prediction by ZEFSAII (Michael W. Deem and Ramdas Pophale) SiO2 
 PCOD9178855
Probable space group: C 2/M
;
_chemical_formula_sum "Si O2"
_cell_formula_units_Z 48
_cell_length_a 21.090343
_cell_length_b 7.486873
_cell_length_c 20.946433
_cell_angle_alpha 90.000000
_cell_angle_beta 130.854862
_cell_angle_gamma 90.000000
_cell_volume 2501.657970
_symmetry_space_group_name_H-M "C 2/M"
_symmetry_group_IT_number 12
_symmetry_cell_setting 'monoclinic'
loop_
_space_group_symop_operation_xyz
x,y,z
-x,y,-z
-x,-y,-z
x,-y,z
1/2+x,1/2+y,z
1/2-x,1/2+y,-z
1/2-x,1/2-y,-z
1/2+x,1/2-y,z
loop_
_atom_site_type_symbol
_atom_site_label
_atom_site_fract_x
_atom_site_fract_y
_atom_site_fract_z
Si Si1 0.003681 0.280818 0.724029
Si Si2 0.392677 0.797143 0.094671
Si Si3 0.239054 0.711958 0.084586
Si Si4 0.344498 0.785654 0.268764
Si Si5 0.402579 0.218256 0.442547
Si Si6 0.344561 0.213585 0.542591
O O1 0.005570 0.500000 0.727415
O O2 0.033353 0.216862 0.813509
O O3 0.074326 0.225744 0.718847
O O4 0.913828 0.222015 0.638990
O O5 0.314585 0.797881 0.093497
O O6 0.417615 0.000000 0.095723
O O7 0.348825 0.720059 0.002385
O O8 0.242391 0.500000 0.073814
O O9 0.262729 0.738191 0.173728
O O10 0.353001 0.721796 0.346782
O O11 0.348718 0.000000 0.273148
O O12 0.500000 0.268897 0.500000
O O13 0.366000 0.280829 0.485756
O O14 0.400788 0.000000 0.441814
O O15 0.250000 0.250000 0.500000
O O16 0.355313 0.000000 0.547299
#
# Coordination Sequence:
#
# PCOD9178855 Si02
#       6
#     8   8   8   8   8   8
#     4   8  13  24  43  62  80 109 147 181 210 248
#     4   8  14  24  38  56  80 113 149 178 207 252
#     4   9  15  22  34  58  90 114 134 171 224 268
#     4   9  15  25  43  64  84 109 147 185 214 251
#     4   9  15  27  49  70  83 110 158 195 212 247
#     4  10  19  31  47  67  91 116 146 185 225 263
#
# _framework density 19.187276000000001
#
# number of rings (size 3 to 8) (size 9 to 14) (size 15 to 20)
#    0.000    3.167    1.667    1.500    0.000    0.667 
#    0.000    4.167    0.000    1.000    0.000    1.167 
#    0.000    9.333    0.000    0.000    0.000    0.000 
#
# Total GULP energy -133628.814658 kJ/mol
# GULP energy per Si atom -5567.867277 kJ/mol
# Density = 1.914361 g / cm^3
# Si number density = 19.187276 Si / 1000 Ang^3
#
#
#
# Elastic Constant Matrix: (Units=GPa)
#
#
# Indices 1 2 3 4 5 6 
#
# 1 69.0597 -1.4040 68.4805 0.0000 1.9997 0.0000
# 2 -1.4040 56.2986 3.1665 0.0000 -0.3263 0.0000
# 3 68.4805 3.1665 257.5457 0.0000 -2.1535 0.0000
# 4 0.0000 0.0000 0.0000 15.2027 0.0000 3.1544
# 5 1.9997 -0.3263 -2.1535 0.0000 15.7592 0.0000
# 6 0.0000 0.0000 0.0000 3.1544 0.0000 9.2806
#
#
#
# Elastic Compliance Matrix: (Units=1/GPa)
#
#
# Indices 1 2 3 4 5 6 
#
# 1 0.019863 0.000776 -0.005318 0.000000 -0.003231 0.000000
# 2 0.000776 0.017807 -0.000423 0.000000 0.000212 0.000000
# 3 -0.005318 -0.000423 0.005314 0.000000 0.001392 0.000000
# 4 0.000000 0.000000 0.000000 0.070769 0.000000 -0.024054
# 5 -0.003231 0.000212 0.001392 0.000000 0.064060 0.000000
# 6 0.000000 0.000000 0.000000 -0.024054 0.000000 0.115927
#
#
# Mechanical properties :
#
#
# Convention : Reuss Voigt Hill
#
# Bulk Modulus (GPa) = 30.25530 58.15445 44.20488
# Shear Modulus (GPa) = 15.88874 28.89255 22.39065
#
# Velocity S-wave (km/s) = 2.88077 3.88470 3.41978
# Velocity P-wave (km/s) = 5.18341 7.10604 6.21947
#
# Compressibility (1/GPa) = 0.03305206
#
# Stress axis : x y z
#
# Youngs Moduli (GPa) = 50.34476 56.15825 188.19239
#
# Poissons Ratio (x) = -0.04356 1.00082
# Poissons Ratio (y) = -0.03905 0.07969
# Poissons Ratio (z) = 0.26774 0.02378
#
# Static dielectric constant tensor:
#      x y z
#    x 1.600720 0.000000 -0.009880 
#    y 0.000000 3.371290 0.000000 
#    z -0.009880 0.000000 1.762080 
# 
# From -- ./inp_files/236605.got.cif
#   From: 2010.05.17/outbox.cif.g08.bks.cpg/sg12_119_cif.got.tgz:236605.got - 2010.06.03 13:09:07.
