data_PCOD9178038
_publ_section_title
;
Structure prediction by ZEFSAII (Michael W. Deem and Ramdas Pophale) SiO2 
 PCOD9178038
Probable space group: C 2/M
;
_chemical_formula_sum "Si O2"
_cell_formula_units_Z 56
_cell_length_a 15.743761
_cell_length_b 7.620138
_cell_length_c 19.453374
_cell_angle_alpha 90.000000
_cell_angle_beta 61.282293
_cell_angle_gamma 90.000000
_cell_volume 2046.749632
_symmetry_space_group_name_H-M "C 2/M"
_symmetry_group_IT_number 12
_symmetry_cell_setting 'monoclinic'
loop_
_space_group_symop_operation_xyz
x,y,z
-x,y,-z
-x,-y,-z
x,-y,z
1/2+x,1/2+y,z
1/2-x,1/2+y,-z
1/2-x,1/2-y,-z
1/2+x,1/2-y,z
loop_
_atom_site_type_symbol
_atom_site_label
_atom_site_fract_x
_atom_site_fract_y
_atom_site_fract_z
Si Si1 0.333638 0.784492 0.237396
Si Si2 0.988657 0.715579 0.911208
Si Si3 0.394440 0.795970 0.805370
Si Si4 0.385409 0.705709 0.659642
Si Si5 0.142527 0.293811 0.476169
Si Si6 0.866458 0.297885 0.373634
Si Si7 0.300551 0.208843 0.053925
O O1 0.400446 0.733494 0.147172
O O2 0.223668 0.722304 0.284244
O O3 0.381323 0.725774 0.291257
O O4 0.331097 0.000000 0.238579
O O5 0.988385 0.500000 0.915344
O O6 0.939958 0.775659 0.857896
O O7 0.911357 0.772456 0.999152
O O8 0.431027 0.732051 0.717071
O O9 0.279026 0.771955 0.860893
O O10 0.415553 0.000000 0.799201
O O11 0.380427 0.500000 0.649749
O O12 0.413090 0.780738 0.574611
O O13 0.159413 0.500000 0.481116
O O14 0.101474 0.221079 0.564765
O O15 0.248102 0.206807 0.424931
O O16 0.898824 0.500000 0.359356
O O17 0.306286 0.000000 0.061528
O O18 0.250000 0.250000 0.000000
#
# Coordination Sequence:
#
# PCOD9178038 Si02
#       7
#     8   8   8   8   8   8   8
#     4   8  14  27  46  68  91 113 145 186 222 258
#     4   8  15  28  48  70  88 111 146 186 221 256
#     4  10  19  31  48  68  90 117 149 185 223 264
#     4  10  19  30  46  67  91 119 148 183 225 265
#     4   9  15  24  40  63  90 117 147 182 218 259
#     4   8  14  24  41  64  88 116 148 182 218 256
#     4   9  16  28  47  69  90 115 149 185 220 259
#
# _framework density 27.360457
#
# number of rings (size 3 to 8) (size 9 to 14) (size 15 to 20)
#    0.000    3.143    0.000    3.429    0.000    0.571 
#    0.000    0.714    0.000   30.857    0.000    6.000 
#    0.000    0.000    0.000    0.000    0.000    0.000 
#
# Total GULP energy -156409.183948 kJ/mol
# GULP energy per Si atom -5586.042284 kJ/mol
# Density = 2.729818 g / cm^3
# Si number density = 27.360457 Si / 1000 Ang^3
#
#
#
# Elastic Constant Matrix: (Units=GPa)
#
#
# Indices 1 2 3 4 5 6 
#
# 1 88.3794 -9.3269 6.3923 0.0000 1.4392 0.0000
# 2 -9.3269 70.4957 11.5851 0.0001 -1.1659 0.0001
# 3 6.3923 11.5851 253.4747 0.0000 1.9434 0.0000
# 4 0.0000 0.0001 0.0000 18.9657 0.0000 1.3780
# 5 1.4392 -1.1659 1.9434 0.0000 57.9829 0.0000
# 6 0.0000 0.0001 0.0000 1.3780 0.0000 -3.7183
#
#
#
# Elastic Compliance Matrix: (Units=1/GPa)
#
#
# Indices 1 2 3 4 5 6 
#
# 1 0.011511 0.001578 -0.000361 0.000000 -0.000242 0.000000
# 2 0.001578 0.014515 -0.000705 0.000000 0.000276 0.000000
# 3 -0.000361 -0.000705 0.003988 0.000000 -0.000139 0.000000
# 4 0.000000 0.000000 0.000000 0.051344 0.000000 0.019028
# 5 -0.000242 0.000276 -0.000139 0.000000 0.017263 0.000000
# 6 0.000000 0.000000 0.000000 0.019028 0.000000 -0.261888
#
#
# Mechanical properties :
#
#
# Convention : Reuss Voigt Hill
#
# Bulk Modulus (GPa) = 32.21824 47.73897 39.97861
# Shear Modulus (GPa) = -32.47889 41.55934 4.54022
#
# Velocity S-wave (km/s) = -3.44913 3.90161 1.28958
# Velocity P-wave (km/s) = 2.01519 6.14677 4.10620
#
# Compressibility (1/GPa) = 0.03103832
#
# Stress axis : x y z
#
# Youngs Moduli (GPa) = 86.87017 68.89633 250.77984
#
# Poissons Ratio (x) = -0.10874 0.09043
# Poissons Ratio (y) = -0.13711 0.17688
# Poissons Ratio (z) = 0.03132 0.04859
#
# Static dielectric constant tensor:
#      x y z
#    x 2.314610 0.000000 0.038270 
#    y 0.000000 2.021170 0.000000 
#    z 0.038270 0.000000 2.140480 
# 
# From -- ./inp_files/313662.got.cif
#   From: 2010.05.17/outbox.cif.g08.bks.cpg/sg12_157_cif.got.tgz:313662.got - 2010.06.03 13:09:07.
