data_PCOD9178574
_publ_section_title
;
Structure prediction by ZEFSAII (Michael W. Deem and Ramdas Pophale) SiO2 
 PCOD9178574
Probable space group: C 2/M
;
_chemical_formula_sum "Si O2"
_cell_formula_units_Z 56
_cell_length_a 17.010965
_cell_length_b 15.331327
_cell_length_c 11.927227
_cell_angle_alpha 90.000000
_cell_angle_beta 57.616175
_cell_angle_gamma 90.000000
_cell_volume 2626.861158
_symmetry_space_group_name_H-M "C 2/M"
_symmetry_group_IT_number 12
_symmetry_cell_setting 'monoclinic'
loop_
_space_group_symop_operation_xyz
x,y,z
-x,y,-z
-x,-y,-z
x,-y,z
1/2+x,1/2+y,z
1/2-x,1/2+y,-z
1/2-x,1/2-y,-z
1/2+x,1/2-y,z
loop_
_atom_site_type_symbol
_atom_site_label
_atom_site_fract_x
_atom_site_fract_y
_atom_site_fract_z
Si Si1 0.760259 0.850777 0.093387
Si Si2 0.885687 0.599697 0.988979
Si Si3 0.697485 0.895921 0.697592
Si Si4 0.897382 0.100283 0.585090
Si Si5 0.409339 0.405719 0.149302
Si Si6 0.958611 0.275552 0.228995
Si Si7 0.372700 0.296511 0.800172
O O1 0.688265 0.892608 0.058153
O O2 0.816027 0.901961 0.144962
O O3 0.701436 0.771820 0.191295
O O4 0.840599 0.811918 0.951776
O O5 0.920532 0.500000 0.963651
O O6 0.969862 0.666639 0.902029
O O7 0.835548 0.616690 0.146625
O O8 0.804058 0.865851 0.597974
O O9 0.625971 0.839515 0.680963
O O10 0.692202 0.000000 0.681388
O O11 0.873264 0.113252 0.734521
O O12 0.000000 0.139431 0.500000
O O13 0.904655 0.000000 0.546658
O O14 0.410408 0.500000 0.210695
O O15 0.420056 0.315003 0.207404
O O16 0.500000 0.406688 0.000000
O O17 0.026498 0.246547 0.276393
#
# Coordination Sequence:
#
# PCOD9178574 Si02
#       7
#     8   8   8   8   8   8   8
#     4  10  19  32  49  72 104 137 170 209 261 316
#     4  10  19  30  50  76 104 138 172 211 261 316
#     4  10  19  32  53  76 102 136 171 218 268 305
#     4  10  21  37  56  76 100 136 184 229 262 301
#     4  11  21  29  41  65 103 145 173 198 240 308
#     4  11  21  32  48  75 110 138 170 208 261 327
#     4  10  20  32  52  73  99 135 169 213 263 315
#
# _framework density 21.318218999999999
#
# number of rings (size 3 to 8) (size 9 to 14) (size 15 to 20)
#    0.000    1.714    2.857    3.000    2.000    2.286 
#    0.000    0.714    0.000    0.000    0.000    0.000 
#    0.000   33.714    0.000    0.000    0.000    0.000 
#
# Total GULP energy -156022.323329 kJ/mol
# GULP energy per Si atom -5572.225833 kJ/mol
# Density = 2.126970 g / cm^3
# Si number density = 21.318219 Si / 1000 Ang^3
#
#
#
# Elastic Constant Matrix: (Units=GPa)
#
#
# Indices 1 2 3 4 5 6 
#
# 1 101.0499 35.3158 25.3107 0.0000 -39.3594 0.0000
# 2 35.3158 95.6559 9.6213 0.0000 -11.8985 0.0000
# 3 25.3107 9.6213 25.7091 0.0000 -22.3738 0.0000
# 4 0.0000 0.0000 0.0000 -1.8752 0.0000 1.6769
# 5 -39.3594 -11.8985 -22.3738 0.0000 30.1124 0.0000
# 6 0.0000 0.0000 0.0000 1.6769 0.0000 7.7850
#
#
#
# Elastic Compliance Matrix: (Units=1/GPa)
#
#
# Indices 1 2 3 4 5 6 
#
# 1 0.023012 -0.005090 0.010402 0.000000 0.035796 0.000000
# 2 -0.005090 0.012128 -0.003246 0.000000 -0.004272 0.000000
# 3 0.010402 -0.003246 0.114853 0.000000 0.097650 0.000000
# 4 0.000000 0.000000 0.000000 -0.447145 0.000000 0.096316
# 5 0.035796 -0.004272 0.097650 0.000000 0.150865 0.000000
# 6 0.000000 0.000000 0.000000 0.096316 0.000000 0.107706
#
#
# Mechanical properties :
#
#
# Convention : Reuss Voigt Hill
#
# Bulk Modulus (GPa) = 6.48819 40.32338 23.40578
# Shear Modulus (GPa) = 577.13729 17.34891 297.24310
#
# Velocity S-wave (km/s) = 16.47157 2.85582 11.82092
# Velocity P-wave (km/s) = 19.09975 5.46172 14.04690
#
# Compressibility (1/GPa) = 0.15412621
#
# Stress axis : x y z
#
# Youngs Moduli (GPa) = 43.45489 82.45177 8.70675
#
# Poissons Ratio (x) = 0.41965 -0.09056
# Poissons Ratio (y) = 0.22117 0.02826
# Poissons Ratio (z) = -0.45200 0.26763
#
# Static dielectric constant tensor:
#      x y z
#    x 1.823270 0.000000 -0.022350 
#    y 0.000000 1.841270 0.000000 
#    z -0.022350 0.000000 1.783660 
# 
# From -- ./inp_files/225201.got.cif
#   From: 2010.05.17/outbox.cif.g08.bks.cpg/sg12_113_cif.got.tgz:225201.got - 2010.06.03 13:09:07.
