data_PCOD9178994
_publ_section_title
;
Structure prediction by ZEFSAII (Michael W. Deem and Ramdas Pophale) SiO2 
 PCOD9178994
Probable space group: C 2/M
;
_chemical_formula_sum "Si O2"
_cell_formula_units_Z 56
_cell_length_a 18.886557
_cell_length_b 7.588362
_cell_length_c 24.161736
_cell_angle_alpha 90.000000
_cell_angle_beta 52.995639
_cell_angle_gamma 90.000000
_cell_volume 2765.366352
_symmetry_space_group_name_H-M "C 2/M"
_symmetry_group_IT_number 12
_symmetry_cell_setting 'monoclinic'
loop_
_space_group_symop_operation_xyz
x,y,z
-x,y,-z
-x,-y,-z
x,-y,z
1/2+x,1/2+y,z
1/2-x,1/2+y,-z
1/2-x,1/2-y,-z
1/2+x,1/2-y,z
loop_
_atom_site_type_symbol
_atom_site_label
_atom_site_fract_x
_atom_site_fract_y
_atom_site_fract_z
Si Si1 0.653252 0.708546 0.067723
Si Si2 0.032268 0.707177 0.215928
Si Si3 0.369296 0.700494 0.216744
Si Si4 0.271128 0.286054 0.367269
Si Si5 0.508286 0.716503 0.932793
Si Si6 0.419647 0.783988 0.498238
Si Si7 0.939846 0.708208 0.364261
O O1 0.644427 0.500000 0.073552
O O2 0.626111 0.772946 0.141661
O O3 0.578213 0.776224 0.060607
O O4 0.750000 0.750000 0.000000
O O5 0.009431 0.500000 0.225621
O O6 0.959272 0.800881 0.211623
O O7 0.015802 0.772539 0.285996
O O8 0.340821 0.500000 0.218733
O O9 0.298559 0.779509 0.292937
O O10 0.404717 0.777446 0.142290
O O11 0.271986 0.500000 0.364486
O O12 0.175411 0.227632 0.433186
O O13 0.347666 0.234039 0.374660
O O14 0.510257 0.500000 0.931022
O O15 0.500000 0.771486 0.000000
O O16 0.500000 0.731122 0.500000
O O17 0.433884 0.719286 0.428820
O O18 0.417674 0.000000 0.498491
O O19 0.954832 0.500000 0.364139
#
# Coordination Sequence:
#
# PCOD9178994 Si02
#       7
#     8   8   8   8   8   8   8
#     4  10  19  31  48  69  94 122 151 185 224 267
#     4   9  16  27  44  66  90 116 149 187 226 266
#     4   8  14  25  42  65  88 112 147 187 227 268
#     4   9  16  27  46  68  87 113 150 188 225 268
#     4   8  14  26  44  65  88 113 144 184 223 258
#     4   9  17  29  44  65  94 122 148 184 231 276
#     4   9  17  29  47  69  89 113 149 191 229 267
#
# _framework density 20.250481000000001
#
# number of rings (size 3 to 8) (size 9 to 14) (size 15 to 20)
#    0.000    3.143    0.000    2.143    0.000    0.571 
#    0.000    1.429    0.000   19.286    0.000    6.000 
#    0.000    0.000    0.000    0.000    0.000    0.000 
#
# Total GULP energy -155961.463489 kJ/mol
# GULP energy per Si atom -5570.052267 kJ/mol
# Density = 2.020439 g / cm^3
# Si number density = 20.250481 Si / 1000 Ang^3
#
#
#
# Elastic Constant Matrix: (Units=GPa)
#
#
# Indices 1 2 3 4 5 6 
#
# 1 56.9022 -6.0662 85.3081 -0.0001 5.5576 0.0003
# 2 -6.0662 48.4483 3.5255 -0.0004 2.4585 0.0010
# 3 85.3081 3.5255 269.6207 0.0000 12.4716 0.0000
# 4 -0.0001 -0.0004 0.0000 10.6765 -0.0001 -0.1515
# 5 5.5576 2.4585 12.4716 -0.0001 28.9469 0.0000
# 6 0.0003 0.0010 0.0000 -0.1515 0.0000 14.1752
#
#
#
# Elastic Compliance Matrix: (Units=1/GPa)
#
#
# Indices 1 2 3 4 5 6 
#
# 1 0.034831 0.005282 -0.010978 0.000001 -0.002406 -0.000001
# 2 0.005282 0.021541 -0.001858 0.000001 -0.002043 -0.000002
# 3 -0.010978 -0.001858 0.007246 0.000000 -0.000856 0.000000
# 4 0.000001 0.000001 0.000000 0.093678 0.000000 0.001001
# 5 -0.002406 -0.002043 -0.000856 0.000000 0.035550 0.000000
# 6 -0.000001 -0.000002 0.000000 0.001001 0.000000 0.070556
#
#
# Mechanical properties :
#
#
# Convention : Reuss Voigt Hill
#
# Bulk Modulus (GPa) = 20.61484 60.05622 40.33553
# Shear Modulus (GPa) = 16.96748 30.23997 23.60373
#
# Velocity S-wave (km/s) = 2.89776 3.86851 3.41778
# Velocity P-wave (km/s) = 4.62580 7.04804 5.96125
#
# Compressibility (1/GPa) = 0.04850874
#
# Stress axis : x y z
#
# Youngs Moduli (GPa) = 28.71027 46.42349 138.00056
#
# Poissons Ratio (x) = -0.24521 1.51500
# Poissons Ratio (y) = -0.15165 0.25646
# Poissons Ratio (z) = 0.31519 0.08627
#
# Static dielectric constant tensor:
#      x y z
#    x 1.669950 0.000000 0.000010 
#    y 0.000000 1.768630 0.000000 
#    z 0.000010 0.000000 1.798380 
# 
# From -- ./inp_files/345488.got.cif
#   From: 2010.05.17/outbox.cif.g08.bks.cpg/sg12_173_cif.got.tgz:345488.got - 2010.06.03 13:09:07.
