data_PCOD9178686
_publ_section_title
;
Structure prediction by ZEFSAII (Michael W. Deem and Ramdas Pophale) SiO2 
 PCOD9178686
Probable space group: C 2/M
;
_chemical_formula_sum "Si O2"
_cell_formula_units_Z 64
_cell_length_a 20.533362
_cell_length_b 9.189876
_cell_length_c 21.031193
_cell_angle_alpha 90.000000
_cell_angle_beta 63.618353
_cell_angle_gamma 90.000000
_cell_volume 3555.256418
_symmetry_space_group_name_H-M "C 2/M"
_symmetry_group_IT_number 12
_symmetry_cell_setting 'monoclinic'
loop_
_space_group_symop_operation_xyz
x,y,z
-x,y,-z
-x,-y,-z
x,-y,z
1/2+x,1/2+y,z
1/2-x,1/2+y,-z
1/2-x,1/2-y,-z
1/2+x,1/2-y,z
loop_
_atom_site_type_symbol
_atom_site_label
_atom_site_fract_x
_atom_site_fract_y
_atom_site_fract_z
Si Si1 0.921572 0.324217 0.897869
Si Si2 0.365645 0.826670 0.443983
Si Si3 0.444220 0.166658 0.084371
Si Si4 0.507153 0.326130 0.422381
Si Si5 0.670640 0.326310 0.306010
Si Si6 0.762791 0.825645 0.591818
Si Si7 0.834985 0.172878 0.048884
Si Si8 0.820878 0.673742 0.831428
O O1 0.916253 0.500000 0.906839
O O2 0.891443 0.283276 0.841971
O O3 0.004643 0.286203 0.879406
O O4 0.869871 0.252276 0.973206
O O5 0.444936 0.756436 0.410633
O O6 0.316819 0.797215 0.402588
O O7 0.320170 0.756135 0.521789
O O8 0.370234 0.000000 0.450174
O O9 0.379167 0.269284 0.091180
O O10 0.419207 0.000000 0.104445
O O11 0.500000 0.165524 0.000000
O O12 0.500000 0.286990 0.500000
O O13 0.495583 0.500000 0.422503
O O14 0.588278 0.293263 0.363915
O O15 0.676458 0.500000 0.295316
O O16 0.723451 0.283875 0.341287
O O17 0.685092 0.249744 0.233420
O O18 0.776636 0.000000 0.580539
O O19 0.750522 0.206720 0.095726
O O20 0.844151 0.000000 0.038479
O O21 0.822897 0.500000 0.821377
#
# Coordination Sequence:
#
# PCOD9178686 Si02
#       8
#     8   8   8   8   8   8   8   8
#     4   9  18  34  54  75 102 137 174 212 255 303
#     4  10  19  30  53  84 106 129 168 214 256 302
#     4   8  15  29  50  74  99 130 168 207 249 300
#     4  10  19  35  56  76 104 138 168 209 260 309
#     4  10  21  37  56  74  98 140 181 209 253 316
#     4   9  18  35  53  74 106 137 167 208 256 307
#     4  10  19  31  51  79 106 133 168 214 264 304
#     4  10  22  37  51  73 106 138 169 216 267 302
#
# _framework density 18.001515000000001
#
# number of rings (size 3 to 8) (size 9 to 14) (size 15 to 20)
#    0.000    2.500    1.250    1.875    0.000    5.500 
#    0.000    1.250    0.000    7.500    0.000    0.000 
#    0.000    0.000    0.000    0.000    0.000    0.000 
#
# Total GULP energy -178449.703080 kJ/mol
# GULP energy per Si atom -5576.553221 kJ/mol
# Density = 1.796054 g / cm^3
# Si number density = 18.001515 Si / 1000 Ang^3
#
#
#
# Elastic Constant Matrix: (Units=GPa)
#
#
# Indices 1 2 3 4 5 6 
#
# 1 113.6478 30.0757 18.3706 0.0000 31.6498 0.0000
# 2 30.0757 16.0648 11.6366 0.0000 6.2361 -0.0001
# 3 18.3706 11.6366 38.5898 0.0000 22.8467 0.0000
# 4 0.0000 0.0000 0.0000 23.4527 0.0000 -2.0101
# 5 31.6498 6.2361 22.8467 0.0000 26.1774 0.0000
# 6 0.0000 -0.0001 0.0000 -2.0101 0.0000 29.0404
#
#
#
# Elastic Compliance Matrix: (Units=1/GPa)
#
#
# Indices 1 2 3 4 5 6 
#
# 1 0.054291 -0.111030 0.063808 0.000000 -0.094880 0.000000
# 2 -0.111030 0.306925 -0.157016 0.000000 0.198162 0.000001
# 3 0.063808 -0.157016 0.137422 0.000000 -0.159679 0.000000
# 4 0.000000 0.000000 0.000000 0.042894 0.000000 0.002969
# 5 -0.094880 0.198162 -0.159679 0.000000 0.245071 0.000000
# 6 0.000000 0.000001 0.000000 0.002969 0.000000 0.034640
#
#
# Mechanical properties :
#
#
# Convention : Reuss Voigt Hill
#
# Bulk Modulus (GPa) = 11.09114 32.05203 21.57159
# Shear Modulus (GPa) = 3.96897 22.94874 13.45886
#
# Velocity S-wave (km/s) = 1.48647 3.57434 2.73729
# Velocity P-wave (km/s) = 3.02005 5.90579 4.69037
#
# Compressibility (1/GPa) = 0.09016207
#
# Stress axis : x y z
#
# Youngs Moduli (GPa) = 18.41933 3.25813 7.27686
#
# Poissons Ratio (x) = 0.36175 -0.46432
# Poissons Ratio (y) = 2.04509 1.14259
# Poissons Ratio (z) = -1.17530 0.51158
#
# Static dielectric constant tensor:
#      x y z
#    x 1.653510 0.000000 0.019330 
#    y 0.000000 1.600290 0.000000 
#    z 0.019330 0.000000 1.595390 
# 
# From -- ./inp_files/319805.got.cif
#   From: 2010.05.17/outbox.cif.g08.bks.cpg/sg12_160_cif.got.tgz:319805.got - 2010.06.03 13:09:07.
