data_PCOD9178252
_publ_section_title
;
Structure prediction by ZEFSAII (Michael W. Deem and Ramdas Pophale) SiO2 
 PCOD9178252
Probable space group: C 2/M
;
_chemical_formula_sum "Si O2"
_cell_formula_units_Z 64
_cell_length_a 16.007026
_cell_length_b 14.673680
_cell_length_c 29.413727
_cell_angle_alpha 90.000000
_cell_angle_beta 149.096886
_cell_angle_gamma 90.000000
_cell_volume 3548.252550
_symmetry_space_group_name_H-M "C 2/M"
_symmetry_group_IT_number 12
_symmetry_cell_setting 'monoclinic'
loop_
_space_group_symop_operation_xyz
x,y,z
-x,y,-z
-x,-y,-z
x,-y,z
1/2+x,1/2+y,z
1/2-x,1/2+y,-z
1/2-x,1/2-y,-z
1/2+x,1/2-y,z
loop_
_atom_site_type_symbol
_atom_site_label
_atom_site_fract_x
_atom_site_fract_y
_atom_site_fract_z
Si Si1 0.128062 0.790620 0.878024
Si Si2 0.651417 0.604452 0.134528
Si Si3 0.723910 0.603622 0.061445
Si Si4 0.742927 0.397210 0.763066
Si Si5 0.349256 0.891667 0.399100
Si Si6 0.948164 0.393075 0.026322
Si Si7 0.770753 0.794653 0.744046
Si Si8 0.014925 0.105394 0.739979
O O1 0.154506 0.683125 0.895131
O O2 0.107545 0.825660 0.816593
O O3 0.959361 0.818264 0.821894
O O4 0.291469 0.839665 0.970904
O O5 0.667939 0.500000 0.158581
O O6 0.709772 0.607176 0.109705
O O7 0.748885 0.669785 0.213730
O O8 0.457904 0.624479 0.041588
O O9 0.767244 0.500000 0.068115
O O10 0.747954 0.500000 0.746607
O O11 0.745597 0.313368 0.730200
O O12 0.587104 0.388752 0.723419
O O13 0.899159 0.385539 0.869041
O O14 0.500000 0.860016 0.500000
O O15 0.334234 0.843850 0.343306
O O16 0.176890 0.877478 0.344276
O O17 0.366749 0.000000 0.400093
O O18 0.906780 0.500000 0.002502
O O19 0.000000 0.359701 0.000000
O O20 0.045923 0.000000 0.769799
#
# Coordination Sequence:
#
# PCOD9178252 Si02
#       8
#     8   8   8   8   8   8   8   8
#     4  11  20  29  47  70  98 135 172 215 252 284
#     4   9  18  32  47  66  93 130 169 207 245 284
#     4   9  19  32  46  63  93 139 181 203 227 282
#     4  10  20  33  49  72 105 140 171 206 244 291
#     4   9  19  37  60  82 101 122 154 207 269 318
#     4  10  19  30  47  71  99 134 178 217 244 280
#     4  11  22  33  49  77 104 128 164 211 260 301
#     4   9  17  32  54  77  99 128 167 204 252 308
#
# _framework density 18.037047000000001
#
# number of rings (size 3 to 8) (size 9 to 14) (size 15 to 20)
#    0.000    2.250    1.250    3.000    1.750    4.000 
#    0.000    3.125    0.000    0.375    0.000    0.000 
#    0.000    0.000    0.000    0.000    0.000    0.000 
#
# Total GULP energy -178651.613020 kJ/mol
# GULP energy per Si atom -5582.862907 kJ/mol
# Density = 1.799599 g / cm^3
# Si number density = 18.037047 Si / 1000 Ang^3
#
#
#
# Elastic Constant Matrix: (Units=GPa)
#
#
# Indices 1 2 3 4 5 6 
#
# 1 27.9807 11.8694 23.4639 0.0000 -3.9009 0.0000
# 2 11.8694 69.0908 47.0858 0.0001 -5.8178 0.0000
# 3 23.4639 47.0858 88.9097 0.0000 -4.7249 0.0000
# 4 0.0000 0.0001 0.0000 19.1187 0.0000 0.6944
# 5 -3.9009 -5.8178 -4.7249 0.0000 16.3003 0.0000
# 6 0.0000 0.0000 0.0000 0.6944 0.0000 16.3766
#
#
#
# Elastic Compliance Matrix: (Units=1/GPa)
#
#
# Indices 1 2 3 4 5 6 
#
# 1 0.046901 0.001192 -0.012584 0.000000 0.008002 0.000000
# 2 0.001192 0.023035 -0.012250 0.000000 0.004956 0.000000
# 3 -0.012584 -0.012250 0.020987 0.000000 -0.001300 0.000000
# 4 0.000000 0.000000 0.000000 0.052386 0.000000 -0.002221
# 5 0.008002 0.004956 -0.001300 0.000000 0.064655 0.000000
# 6 0.000000 0.000000 0.000000 -0.002221 0.000000 0.061157
#
#
# Mechanical properties :
#
#
# Convention : Reuss Voigt Hill
#
# Bulk Modulus (GPa) = 22.91509 38.97994 30.94751
# Shear Modulus (GPa) = 15.10799 17.26326 16.18563
#
# Velocity S-wave (km/s) = 2.89729 3.09706 2.99884
# Velocity P-wave (km/s) = 4.89126 5.86916 5.40238
#
# Compressibility (1/GPa) = 0.04363937
#
# Stress axis : x y z
#
# Youngs Moduli (GPa) = 21.32146 43.41242 47.64879
#
# Poissons Ratio (x) = -0.05176 0.59960
# Poissons Ratio (y) = -0.02542 0.58372
# Poissons Ratio (z) = 0.26830 0.53182
#
# Static dielectric constant tensor:
#      x y z
#    x 1.652730 0.000000 -0.003060 
#    y 0.000000 1.651840 0.000000 
#    z -0.003060 0.000000 1.580430 
# 
# From -- ./inp_files/296674.got.cif
#   From: 2010.05.17/outbox.cif.g08.bks.cpg/sg12_149_cif.got.tgz:296674.got - 2010.06.03 13:09:07.
