data_PCOD9178946
_publ_section_title
;
Structure prediction by ZEFSAII (Michael W. Deem and Ramdas Pophale) SiO2 
 PCOD9178946
Probable space group: C 2/M
;
_chemical_formula_sum "Si O2"
_cell_formula_units_Z 64
_cell_length_a 32.173619
_cell_length_b 8.568490
_cell_length_c 14.595486
_cell_angle_alpha 90.000000
_cell_angle_beta 89.233948
_cell_angle_gamma 90.000000
_cell_volume 4023.314209
_symmetry_space_group_name_H-M "C 2/M"
_symmetry_group_IT_number 12
_symmetry_cell_setting 'monoclinic'
loop_
_space_group_symop_operation_xyz
x,y,z
-x,y,-z
-x,-y,-z
x,-y,z
1/2+x,1/2+y,z
1/2-x,1/2+y,-z
1/2-x,1/2-y,-z
1/2+x,1/2-y,z
loop_
_atom_site_type_symbol
_atom_site_label
_atom_site_fract_x
_atom_site_fract_y
_atom_site_fract_z
Si Si1 0.747734 0.187784 0.603565
Si Si2 0.043864 0.183848 0.100771
Si Si3 0.075636 0.311263 0.707677
Si Si4 0.494673 0.686495 0.606763
Si Si5 0.343074 0.810912 0.407478
Si Si6 0.951437 0.685566 0.093869
Si Si7 0.082982 0.315184 0.278974
Si Si8 0.338750 0.312427 0.615483
O O1 0.750000 0.250000 0.500000
O O2 0.701450 0.234479 0.636156
O O3 0.791713 0.236781 0.645656
O O4 0.748459 0.000000 0.602343
O O5 0.073463 0.235052 0.182096
O O6 0.999627 0.271541 0.112195
O O7 0.035851 0.000000 0.105483
O O8 0.060266 0.229146 0.999746
O O9 0.071977 0.500000 0.702283
O O10 0.035719 0.237993 0.659754
O O11 0.117564 0.263683 0.654326
O O12 0.074204 0.269763 0.815075
O O13 0.500000 0.728465 0.500000
O O14 0.489523 0.500000 0.613743
O O15 0.454551 0.766122 0.652468
O O16 0.345254 0.741093 0.509751
O O17 0.343813 0.000000 0.416003
O O18 0.948454 0.500000 0.079989
O O19 0.082613 0.500000 0.267145
O O20 0.125884 0.260509 0.322711
O O21 0.341765 0.500000 0.618851
#
# Coordination Sequence:
#
# PCOD9178946 Si02
#       8
#     8   8   8   8   8   8   8   8
#     4   8  15  28  47  68  95 126 161 200 239 279
#     4  11  21  34  52  72  93 122 158 203 247 288
#     4  10  20  32  49  71  97 129 163 195 233 282
#     4  11  23  35  47  66  96 131 165 199 234 277
#     4   9  17  31  49  72  99 132 166 197 234 283
#     4  10  19  33  51  72  96 125 159 199 241 287
#     4  12  23  35  50  69  94 128 164 201 242 290
#     4  10  19  31  47  71  99 130 164 203 243 282
#
# _framework density 15.907282
#
# number of rings (size 3 to 8) (size 9 to 14) (size 15 to 20)
#    0.000    1.875    1.250    4.875    0.000    4.500 
#    0.000    0.000    0.000    0.000    0.000    0.875 
#    0.000    0.000    0.000    0.000    0.000    0.000 
#
# Total GULP energy -178501.254388 kJ/mol
# GULP energy per Si atom -5578.164200 kJ/mol
# Density = 1.587108 g / cm^3
# Si number density = 15.907282 Si / 1000 Ang^3
#
#
#
# Elastic Constant Matrix: (Units=GPa)
#
#
# Indices 1 2 3 4 5 6 
#
# 1 79.7898 1.2288 28.1165 0.0000 24.3860 0.0000
# 2 1.2288 19.6403 6.9728 0.0000 2.7973 0.0000
# 3 28.1165 6.9728 80.0158 0.0000 10.1521 0.0000
# 4 0.0000 0.0000 0.0000 18.8513 0.0000 4.9187
# 5 24.3860 2.7973 10.1521 0.0000 10.9459 0.0000
# 6 0.0000 0.0000 0.0000 4.9187 0.0000 18.5843
#
#
#
# Elastic Compliance Matrix: (Units=1/GPa)
#
#
# Indices 1 2 3 4 5 6 
#
# 1 0.042551 0.012190 -0.004070 0.000000 -0.094138 0.000000
# 2 0.012190 0.057100 -0.004491 0.000000 -0.037586 0.000000
# 3 -0.004070 -0.004491 0.014760 0.000000 -0.003474 0.000000
# 4 0.000000 0.000000 0.000000 0.056982 0.000000 -0.015081
# 5 -0.094138 -0.037586 -0.003474 0.000000 0.313912 0.000000
# 6 0.000000 0.000000 0.000000 -0.015081 0.000000 0.057800
#
#
# Mechanical properties :
#
#
# Convention : Reuss Voigt Hill
#
# Bulk Modulus (GPa) = 8.21898 28.00912 18.11405
# Shear Modulus (GPa) = 8.67448 19.21814 13.94631
#
# Velocity S-wave (km/s) = 2.33773 3.47959 2.96417
# Velocity P-wave (km/s) = 3.53053 5.81286 4.80906
#
# Compressibility (1/GPa) = 0.12166958
#
# Stress axis : x y z
#
# Youngs Moduli (GPa) = 23.50144 17.51303 67.75142
#
# Poissons Ratio (x) = -0.21349 0.27576
# Poissons Ratio (y) = -0.28649 0.30425
# Poissons Ratio (z) = 0.09566 0.07864
#
# Static dielectric constant tensor:
#      x y z
#    x 1.544860 0.000000 -0.003060 
#    y 0.000000 1.539860 0.000000 
#    z -0.003060 0.000000 1.515530 
# 
# From -- ./inp_files/248495.got.cif
#   From: 2010.05.17/outbox.cif.g08.bks.cpg/sg12_125_cif.got.tgz:248495.got - 2010.06.03 13:09:07.
