data_PCOD9178920
_publ_section_title
;
Structure prediction by ZEFSAII (Michael W. Deem and Ramdas Pophale) SiO2 
 PCOD9178920
Probable space group: C 2/M
;
_chemical_formula_sum "Si O2"
_cell_formula_units_Z 56
_cell_length_a 17.016925
_cell_length_b 24.674251
_cell_length_c 9.478402
_cell_angle_alpha 90.000000
_cell_angle_beta 122.860630
_cell_angle_gamma 90.000000
_cell_volume 3342.995585
_symmetry_space_group_name_H-M "C 2/M"
_symmetry_group_IT_number 12
_symmetry_cell_setting 'monoclinic'
loop_
_space_group_symop_operation_xyz
x,y,z
-x,y,-z
-x,-y,-z
x,-y,z
1/2+x,1/2+y,z
1/2-x,1/2+y,-z
1/2-x,1/2-y,-z
1/2+x,1/2-y,z
loop_
_atom_site_type_symbol
_atom_site_label
_atom_site_fract_x
_atom_site_fract_y
_atom_site_fract_z
Si Si1 0.814254 0.698767 0.390503
Si Si2 0.796354 0.372095 0.797159
Si Si3 0.022483 0.211628 0.857182
Si Si4 0.069771 0.558356 0.936492
Si Si5 0.766662 0.812187 0.985018
Si Si6 0.964124 0.664587 0.752002
Si Si7 0.841013 0.183499 0.520584
O O1 0.902609 0.670496 0.550592
O O2 0.833314 0.763525 0.411777
O O3 0.725758 0.693064 0.409113
O O4 0.787414 0.675870 0.212942
O O5 0.770888 0.342517 0.916312
O O6 0.884806 0.344522 0.798698
O O7 0.706858 0.365913 0.608891
O O8 0.832683 0.429203 0.889946
O O9 0.122237 0.184918 0.926637
O O10 0.014783 0.277155 0.822031
O O11 0.944923 0.183660 0.682336
O O12 0.000000 0.204905 0.000000
O O13 0.070082 0.500000 0.861477
O O14 0.031864 0.612296 0.819765
O O15 0.000000 0.554440 0.000000
O O16 0.750000 0.750000 0.000000
#
# Coordination Sequence:
#
# PCOD9178920 Si02
#       7
#     8   8   8   8   8   8   8
#     4   9  17  29  44  63  94 132 167 192 230 291
#     4  10  19  31  47  70 100 123 155 211 245 275
#     4  11  19  29  46  66  98 137 165 185 225 292
#     4   9  17  32  55  78  95 124 168 206 244 294
#     4  12  20  28  43  68  97 129 167 202 233 284
#     4   9  18  32  50  66  95 136 164 192 240 287
#     4   9  17  31  44  63  92 133 166 193 231 286
#
# _framework density 16.751443999999999
#
# number of rings (size 3 to 8) (size 9 to 14) (size 15 to 20)
#    0.000    2.143    2.857    3.857    0.000    0.571 
#    0.000    2.143    0.000    1.714    0.000    2.000 
#    0.000    1.143    0.000    0.000    0.000    0.000 
#
# Total GULP energy -155924.178091 kJ/mol
# GULP energy per Si atom -5568.720646 kJ/mol
# Density = 1.671332 g / cm^3
# Si number density = 16.751444 Si / 1000 Ang^3
#
#
#
# Elastic Constant Matrix: (Units=GPa)
#
#
# Indices 1 2 3 4 5 6 
#
# 1 42.5534 21.0305 38.7002 0.0000 7.3199 0.0000
# 2 21.0305 58.3235 31.0937 0.0000 10.0143 0.0000
# 3 38.7002 31.0937 129.9395 0.0000 13.7633 0.0000
# 4 0.0000 0.0000 0.0000 12.7538 0.0000 -3.7456
# 5 7.3199 10.0143 13.7633 0.0000 25.2611 0.0000
# 6 0.0000 0.0000 0.0000 -3.7456 0.0000 -4.3156
#
#
#
# Elastic Compliance Matrix: (Units=1/GPa)
#
#
# Indices 1 2 3 4 5 6 
#
# 1 0.035482 -0.007867 -0.008412 0.000000 -0.002580 0.000000
# 2 -0.007867 0.022158 -0.002409 0.000000 -0.005192 0.000000
# 3 -0.008412 -0.002409 0.011057 0.000000 -0.002631 0.000000
# 4 0.000000 0.000000 0.000000 0.062482 0.000000 -0.054229
# 5 -0.002580 -0.005192 -0.002631 0.000000 0.043826 0.000000
# 6 0.000000 0.000000 0.000000 -0.054229 0.000000 -0.184651
#
#
# Mechanical properties :
#
#
# Convention : Reuss Voigt Hill
#
# Bulk Modulus (GPa) = 31.92787 45.82946 38.87866
# Shear Modulus (GPa) = 130.99386 16.07267 73.53327
#
# Velocity S-wave (km/s) = 8.85259 3.10091 6.63264
# Velocity P-wave (km/s) = 11.11720 6.34340 9.05072
#
# Compressibility (1/GPa) = 0.03132060
#
# Stress axis : x y z
#
# Youngs Moduli (GPa) = 28.18356 45.12973 90.44442
#
# Poissons Ratio (x) = 0.35502 0.76081
# Poissons Ratio (y) = 0.22171 0.21792
# Poissons Ratio (z) = 0.23708 0.10874
#
# Static dielectric constant tensor:
#      x y z
#    x 1.533710 0.000000 0.021590 
#    y 0.000000 1.660090 0.000000 
#    z 0.021590 0.000000 1.617760 
# 
# From -- ./inp_files/67050.got.cif
#   From: 2010.05.17/outbox.cif.g08.bks.cpg/sg12_34_cif.got.tgz:67050.got - 2010.06.03 13:09:07.
