data_PCOD9178909
_publ_section_title
;
Structure prediction by ZEFSAII (Michael W. Deem and Ramdas Pophale) SiO2 
 PCOD9178909
Probable space group: C 2/M
;
_chemical_formula_sum "Si O2"
_cell_formula_units_Z 56
_cell_length_a 29.816379
_cell_length_b 8.630093
_cell_length_c 17.913653
_cell_angle_alpha 90.000000
_cell_angle_beta 130.815876
_cell_angle_gamma 90.000000
_cell_volume 3488.539736
_symmetry_space_group_name_H-M "C 2/M"
_symmetry_group_IT_number 12
_symmetry_cell_setting 'monoclinic'
loop_
_space_group_symop_operation_xyz
x,y,z
-x,y,-z
-x,-y,-z
x,-y,z
1/2+x,1/2+y,z
1/2-x,1/2+y,-z
1/2-x,1/2-y,-z
1/2+x,1/2-y,z
loop_
_atom_site_type_symbol
_atom_site_label
_atom_site_fract_x
_atom_site_fract_y
_atom_site_fract_z
Si Si1 0.407945 0.317189 0.928297
Si Si2 0.233165 0.684550 0.862051
Si Si3 0.046656 0.316761 0.868694
Si Si4 0.277757 0.184867 0.765783
Si Si5 0.422469 0.187309 0.783007
Si Si6 0.158481 0.815600 0.911299
Si Si7 0.712191 0.185367 0.391152
O O1 0.416482 0.500000 0.948889
O O2 0.338413 0.275219 0.849637
O O3 0.432191 0.264056 0.874453
O O4 0.434997 0.224495 0.026677
O O5 0.233694 0.500000 0.852882
O O6 0.232867 0.766970 0.781766
O O7 0.180612 0.734735 0.859951
O O8 0.293822 0.730064 0.972352
O O9 0.052640 0.500000 0.863159
O O10 0.093241 0.231133 0.866529
O O11 0.977273 0.273505 0.788942
O O12 0.262438 0.225367 0.663531
O O13 0.289042 0.000000 0.780892
O O14 0.357093 0.234639 0.684221
O O15 0.422184 0.000000 0.792857
O O16 0.162972 0.000000 0.907493
O O17 0.750000 0.250000 0.500000
O O18 0.712351 0.000000 0.396847
#
# Coordination Sequence:
#
# PCOD9178909 Si02
#       7
#     8   8   8   8   8   8   8
#     4  11  20  29  43  67  96 127 163 200 234 276
#     4  10  19  31  47  69  96 129 167 202 238 279
#     4  11  20  31  47  65  93 132 166 196 234 280
#     4  10  19  32  50  70  97 130 162 198 241 288
#     4   9  20  35  48  66  93 127 162 195 237 290
#     4  10  20  31  45  67  98 131 166 204 236 274
#     4   9  19  35  53  74  97 122 156 198 244 291
#
# _framework density 16.052561000000001
#
# number of rings (size 3 to 8) (size 9 to 14) (size 15 to 20)
#    0.000    2.000    1.429    4.286    0.000    6.857 
#    0.000    0.000    0.000    0.000    0.000    1.000 
#    0.000    8.000    0.000    0.000    0.000    0.000 
#
# Total GULP energy -156204.727232 kJ/mol
# GULP energy per Si atom -5578.740258 kJ/mol
# Density = 1.601603 g / cm^3
# Si number density = 16.052561 Si / 1000 Ang^3
#
#
#
# Elastic Constant Matrix: (Units=GPa)
#
#
# Indices 1 2 3 4 5 6 
#
# 1 109.5301 14.7662 37.4910 0.0000 -13.0667 0.0000
# 2 14.7662 22.4538 9.2565 0.0000 -3.3243 0.0000
# 3 37.4910 9.2565 72.9298 0.0000 -9.5749 0.0000
# 4 0.0000 0.0000 0.0000 21.4654 0.0000 -4.5896
# 5 -13.0667 -3.3243 -9.5749 0.0000 13.0415 0.0000
# 6 0.0000 0.0000 0.0000 -4.5896 0.0000 27.6096
#
#
#
# Elastic Compliance Matrix: (Units=1/GPa)
#
#
# Indices 1 2 3 4 5 6 
#
# 1 0.012326 -0.005042 -0.004696 0.000000 0.007616 0.000000
# 2 -0.005042 0.049906 -0.003027 0.000000 0.005447 0.000000
# 3 -0.004696 -0.003027 0.017476 0.000000 0.007353 0.000000
# 4 0.000000 0.000000 0.000000 0.048303 0.000000 0.008030
# 5 0.007616 0.005447 0.007353 0.000000 0.091096 0.000000
# 6 0.000000 0.000000 0.000000 0.008030 0.000000 0.037554
#
#
# Mechanical properties :
#
#
# Convention : Reuss Voigt Hill
#
# Bulk Modulus (GPa) = 18.45831 36.43791 27.44811
# Shear Modulus (GPa) = 16.65272 21.98331 19.31801
#
# Velocity S-wave (km/s) = 3.22434 3.70463 3.47280
# Velocity P-wave (km/s) = 5.03840 6.40683 5.76337
#
# Compressibility (1/GPa) = 0.05417614
#
# Stress axis : x y z
#
# Youngs Moduli (GPa) = 81.13061 20.03770 57.22223
#
# Poissons Ratio (x) = 0.10103 0.26874
# Poissons Ratio (y) = 0.40907 0.17322
# Poissons Ratio (z) = 0.38102 0.06066
#
# Static dielectric constant tensor:
#      x y z
#    x 1.576270 0.000000 0.002830 
#    y 0.000000 1.536200 0.000000 
#    z 0.002830 0.000000 1.515580 
# 
# From -- ./inp_files/244288.got.cif
#   From: 2010.05.17/outbox.cif.g08.bks.cpg/sg12_123_cif.got.tgz:244288.got - 2010.06.03 13:09:07.
