data_PCOD9178335
_publ_section_title
;
Structure prediction by ZEFSAII (Michael W. Deem and Ramdas Pophale) SiO2 
 PCOD9178335
Probable space group: C 2/M
;
_chemical_formula_sum "Si O2"
_cell_formula_units_Z 64
_cell_length_a 15.023082
_cell_length_b 18.540973
_cell_length_c 15.201420
_cell_angle_alpha 90.000000
_cell_angle_beta 116.999729
_cell_angle_gamma 90.000000
_cell_volume 3772.746703
_symmetry_space_group_name_H-M "C 2/M"
_symmetry_group_IT_number 12
_symmetry_cell_setting 'monoclinic'
loop_
_space_group_symop_operation_xyz
x,y,z
-x,y,-z
-x,-y,-z
x,-y,z
1/2+x,1/2+y,z
1/2-x,1/2+y,-z
1/2-x,1/2-y,-z
1/2+x,1/2-y,z
loop_
_atom_site_type_symbol
_atom_site_label
_atom_site_fract_x
_atom_site_fract_y
_atom_site_fract_z
Si Si1 0.896853 0.084609 0.909024
Si Si2 0.863075 0.916442 0.353749
Si Si3 0.704754 0.416250 0.955930
Si Si4 0.596030 0.583892 0.422695
Si Si5 0.390266 0.173747 0.982672
Si Si6 0.741517 0.719149 0.769263
Si Si7 0.362045 0.677789 0.720180
Si Si8 0.584419 0.721673 0.839250
O O1 0.871011 0.125363 0.808716
O O2 0.912758 0.000000 0.896652
O O3 0.813751 0.090752 0.947711
O O4 0.000000 0.112182 0.000000
O O5 0.867488 0.905699 0.461025
O O6 0.789348 0.860096 0.276717
O O7 0.976131 0.903606 0.370206
O O8 0.837992 0.000000 0.324923
O O9 0.685521 0.500000 0.923770
O O10 0.627574 0.358990 0.878469
O O11 0.814482 0.389719 0.977219
O O12 0.611133 0.500000 0.406982
O O13 0.646701 0.633825 0.373429
O O14 0.397495 0.229204 0.067218
O O15 0.500000 0.151279 0.000000
O O16 0.335403 0.213695 0.877252
O O17 0.772812 0.768212 0.702100
O O18 0.650507 0.748631 0.787145
O O19 0.468272 0.718574 0.765470
#
# Coordination Sequence:
#
# PCOD9178335 Si02
#       8
#     8   8   8   8   8   8   8   8
#     4  10  19  30  47  76 108 137 175 221 267 314
#     4   9  19  38  58  80 109 135 172 222 279 324
#     4  10  21  34  50  71 100 140 179 228 265 295
#     4   9  19  36  59  83 108 135 165 223 283 324
#     4  11  22  37  52  73 109 150 186 213 252 313
#     4  11  22  33  54  82 103 148 180 215 265 312
#     4  12  20  31  55  80 108 140 180 215 257 329
#     4  11  21  35  51  73 111 144 180 217 259 316
#
# _framework density 16.963767000000001
#
# number of rings (size 3 to 8) (size 9 to 14) (size 15 to 20)
#    0.000    1.625    3.750    4.125    0.000    3.250 
#    0.000    0.000    0.000    0.000    0.000    0.000 
#    0.000    2.000    0.000    0.000    0.000    0.000 
#
# Total GULP energy -178655.369705 kJ/mol
# GULP energy per Si atom -5582.980303 kJ/mol
# Density = 1.692516 g / cm^3
# Si number density = 16.963767 Si / 1000 Ang^3
#
#
#
# Elastic Constant Matrix: (Units=GPa)
#
#
# Indices 1 2 3 4 5 6 
#
# 1 110.7459 35.8004 20.7803 0.0000 -18.0761 0.0000
# 2 35.8004 63.2554 24.5803 0.0000 -13.9388 0.0000
# 3 20.7803 24.5803 44.7754 0.0000 -14.9907 0.0000
# 4 0.0000 0.0000 0.0000 29.1214 0.0000 -9.3899
# 5 -18.0761 -13.9388 -14.9907 0.0000 22.6418 0.0000
# 6 0.0000 0.0000 0.0000 -9.3899 0.0000 26.2090
#
#
#
# Elastic Compliance Matrix: (Units=1/GPa)
#
#
# Indices 1 2 3 4 5 6 
#
# 1 0.011756 -0.005101 -0.000726 0.000000 0.005764 0.000000
# 2 -0.005101 0.023085 -0.008879 0.000000 0.004261 0.000000
# 3 -0.000726 -0.008879 0.032789 0.000000 0.015663 0.000000
# 4 0.000000 0.000000 0.000000 0.038824 0.000000 0.013910
# 5 0.005764 0.004261 0.015663 0.000000 0.061761 0.000000
# 6 0.000000 0.000000 0.000000 0.013910 0.000000 0.043138
#
#
# Mechanical properties :
#
#
# Convention : Reuss Voigt Hill
#
# Bulk Modulus (GPa) = 26.16565 42.34429 34.25497
# Shear Modulus (GPa) = 19.72351 24.76883 22.24617
#
# Velocity S-wave (km/s) = 3.41352 3.82527 3.62525
# Velocity P-wave (km/s) = 5.56723 6.67279 6.14492
#
# Compressibility (1/GPa) = 0.03821804
#
# Stress axis : x y z
#
# Youngs Moduli (GPa) = 85.06496 43.31783 30.49814
#
# Poissons Ratio (x) = 0.22097 0.02213
# Poissons Ratio (y) = 0.43393 0.27080
# Poissons Ratio (z) = 0.06172 0.38463
#
# Static dielectric constant tensor:
#      x y z
#    x 1.587780 0.000000 -0.019750 
#    y 0.000000 1.584430 0.000000 
#    z -0.019750 0.000000 1.569310 
# 
# From -- ./inp_files/216374.got.cif
#   From: 2010.05.17/outbox.cif.g08.bks.cpg/sg12_109_cif.got.tgz:216374.got - 2010.06.03 13:09:07.
