data_PCOD9178845
_publ_section_title
;
Structure prediction by ZEFSAII (Michael W. Deem and Ramdas Pophale) SiO2 
 PCOD9178845
Probable space group: C 2/M
;
_chemical_formula_sum "Si O2"
_cell_formula_units_Z 56
_cell_length_a 32.898700
_cell_length_b 8.989185
_cell_length_c 16.325359
_cell_angle_alpha 90.000000
_cell_angle_beta 50.181050
_cell_angle_gamma 90.000000
_cell_volume 3708.203846
_symmetry_space_group_name_H-M "C 2/M"
_symmetry_group_IT_number 12
_symmetry_cell_setting 'monoclinic'
loop_
_space_group_symop_operation_xyz
x,y,z
-x,y,-z
-x,-y,-z
x,-y,z
1/2+x,1/2+y,z
1/2-x,1/2+y,-z
1/2-x,1/2-y,-z
1/2+x,1/2-y,z
loop_
_atom_site_type_symbol
_atom_site_label
_atom_site_fract_x
_atom_site_fract_y
_atom_site_fract_z
Si Si1 0.506324 0.676519 0.798740
Si Si2 0.308713 0.323402 0.833351
Si Si3 0.803308 0.177049 0.034027
Si Si4 0.600855 0.820890 0.992793
Si Si5 0.556938 0.170516 0.880425
Si Si6 0.985101 0.678013 0.385974
Si Si7 0.586135 0.822046 0.366469
O O1 0.500451 0.500000 0.807276
O O2 0.548896 0.728328 0.811800
O O3 0.521107 0.735440 0.690157
O O4 0.450523 0.751659 0.896512
O O5 0.302574 0.500000 0.830495
O O6 0.255283 0.240575 0.875231
O O7 0.360169 0.263302 0.721014
O O8 0.315368 0.294311 0.922244
O O9 0.846948 0.258051 0.032437
O O10 0.804825 0.000000 0.045225
O O11 0.596667 0.782761 0.901382
O O12 0.597977 0.000000 0.002898
O O13 0.567894 0.000000 0.841588
O O14 0.500000 0.170172 0.000000
O O15 0.984232 0.500000 0.372340
O O16 0.041495 0.713300 0.355838
O O17 0.940606 0.711799 0.511453
O O18 0.595086 0.000000 0.351371
#
# Coordination Sequence:
#
# PCOD9178845 Si02
#       7
#     8   8   8   8   8   8   8
#     4  11  20  28  43  68  95 122 152 186 224 266
#     4  10  20  32  46  66  93 123 152 186 226 265
#     4  10  20  32  47  68  92 120 154 187 222 266
#     4  10  19  31  47  66  91 122 153 186 226 270
#     4   8  16  30  45  62  87 120 152 182 222 269
#     4   9  18  32  48  66  90 121 155 187 224 269
#     4   9  18  32  49  67  88 119 156 191 225 263
#
# _framework density 15.101649999999999
#
# number of rings (size 3 to 8) (size 9 to 14) (size 15 to 20)
#    0.000    2.429    0.000    5.143    0.000    8.286 
#    0.000    1.429    0.000    0.000    0.000    1.000 
#    0.000    0.000    0.000    0.000    0.000    0.000 
#
# Total GULP energy -156153.165041 kJ/mol
# GULP energy per Si atom -5576.898751 kJ/mol
# Density = 1.506728 g / cm^3
# Si number density = 15.101650 Si / 1000 Ang^3
#
#
#
# Elastic Constant Matrix: (Units=GPa)
#
#
# Indices 1 2 3 4 5 6 
#
# 1 123.9678 66.4311 52.4042 0.0000 8.3348 0.0000
# 2 66.4311 75.1888 49.4306 0.0000 9.4840 0.0000
# 3 52.4042 49.4306 72.1444 0.0000 3.1017 0.0000
# 4 0.0000 0.0000 0.0000 22.0009 0.0000 -4.0792
# 5 8.3348 9.4840 3.1017 0.0000 24.4082 0.0000
# 6 0.0000 0.0000 0.0000 -4.0792 0.0000 23.1515
#
#
#
# Elastic Compliance Matrix: (Units=1/GPa)
#
#
# Indices 1 2 3 4 5 6 
#
# 1 0.015789 -0.011585 -0.003512 0.000000 -0.000444 0.000000
# 2 -0.011585 0.034083 -0.014617 0.000000 -0.007429 0.000000
# 3 -0.003512 -0.014617 0.026275 0.000000 0.003540 0.000000
# 4 0.000000 0.000000 0.000000 0.046988 0.000000 0.008279
# 5 -0.000444 -0.007429 0.003540 0.000000 0.043558 0.000000
# 6 0.000000 0.000000 0.000000 0.008279 0.000000 0.044653
#
#
# Mechanical properties :
#
#
# Convention : Reuss Voigt Hill
#
# Bulk Modulus (GPa) = 59.81720 67.53697 63.67709
# Shear Modulus (GPa) = 18.09310 20.78112 19.43711
#
# Velocity S-wave (km/s) = 3.46509 3.71358 3.59149
# Velocity P-wave (km/s) = 7.46357 7.95024 7.71074
#
# Compressibility (1/GPa) = 0.01671760
#
# Stress axis : x y z
#
# Youngs Moduli (GPa) = 63.33344 29.34038 38.05850
#
# Poissons Ratio (x) = 0.33992 0.13367
# Poissons Ratio (y) = 0.73374 0.55632
# Poissons Ratio (z) = 0.22244 0.42888
#
# Static dielectric constant tensor:
#      x y z
#    x 1.500710 0.000000 0.013180 
#    y 0.000000 1.499200 0.000000 
#    z 0.013180 0.000000 1.478130 
# 
# From -- ./inp_files/237820.got.cif
#   From: 2010.05.17/outbox.cif.g08.bks.cpg/sg12_119_cif.got.tgz:237820.got - 2010.06.03 13:09:07.
