data_PCOD9178652
_publ_section_title
;
Structure prediction by ZEFSAII (Michael W. Deem and Ramdas Pophale) SiO2 
 PCOD9178652
Probable space group: C 2/M
;
_chemical_formula_sum "Si O2"
_cell_formula_units_Z 56
_cell_length_a 20.842409
_cell_length_b 28.139731
_cell_length_c 11.636691
_cell_angle_alpha 90.000000
_cell_angle_beta 26.295568
_cell_angle_gamma 90.000000
_cell_volume 3023.450699
_symmetry_space_group_name_H-M "C 2/M"
_symmetry_group_IT_number 12
_symmetry_cell_setting 'monoclinic'
loop_
_space_group_symop_operation_xyz
x,y,z
-x,y,-z
-x,-y,-z
x,-y,z
1/2+x,1/2+y,z
1/2-x,1/2+y,-z
1/2-x,1/2-y,-z
1/2+x,1/2-y,z
loop_
_atom_site_type_symbol
_atom_site_label
_atom_site_fract_x
_atom_site_fract_y
_atom_site_fract_z
Si Si1 0.575593 0.211243 0.504383
Si Si2 0.082341 0.819769 0.491166
Si Si3 0.956370 0.944079 0.936253
Si Si4 0.229198 0.555742 0.614485
Si Si5 0.346644 0.139055 0.942836
Si Si6 0.188984 0.139402 0.949351
Si Si7 0.501303 0.055858 0.188881
O O1 0.500000 0.213086 0.500000
O O2 0.614637 0.265158 0.471849
O O3 0.452844 0.184575 0.774773
O O4 0.715460 0.177806 0.271786
O O5 0.000000 0.818452 0.500000
O O6 0.968121 0.839985 0.765084
O O7 0.224204 0.850913 0.235602
O O8 0.106227 0.930141 0.631140
O O9 0.834644 0.909067 0.083208
O O10 0.921610 0.000000 0.974295
O O11 0.000000 0.938082 0.000000
O O12 0.241115 0.500000 0.567426
O O13 0.143914 0.574861 0.640376
O O14 0.124279 0.558500 0.891735
O O15 0.441700 0.092075 0.808770
O O16 0.270366 0.133646 0.941261
O O17 0.487585 0.000000 0.243838
#
# Coordination Sequence:
#
# PCOD9178652 Si02
#       7
#     8   8   8   8   8   8   8
#     4   9  18  32  50  76 106 132 164 205 248 301
#     4   9  17  32  53  76 102 132 166 204 249 302
#     4  10  21  35  52  71  98 138 177 204 238 298
#     4   8  16  32  50  70  93 129 178 209 231 282
#     4  10  19  30  51  81 104 130 165 202 259 307
#     4  10  20  33  51  78 105 130 166 210 253 298
#     4   9  17  30  51  76 103 129 162 209 251 294
#
# _framework density 18.521882999999999
#
# number of rings (size 3 to 8) (size 9 to 14) (size 15 to 20)
#    0.000    2.714    0.000    2.571    2.000    4.000 
#    0.000    0.000    0.000    8.571    7.429    0.000 
#    0.000    0.000    0.000    0.000    0.000    0.000 
#
# Total GULP energy -155925.382519 kJ/mol
# GULP energy per Si atom -5568.763661 kJ/mol
# Density = 1.847973 g / cm^3
# Si number density = 18.521883 Si / 1000 Ang^3
#
#
#
# Elastic Constant Matrix: (Units=GPa)
#
#
# Indices 1 2 3 4 5 6 
#
# 1 32.0043 40.7061 5.3587 -0.0035 -8.9188 0.0190
# 2 40.7061 109.7424 13.7131 0.0003 -14.4576 0.0011
# 3 5.3587 13.7131 50.7522 0.0030 -2.5560 0.0061
# 4 -0.0035 0.0003 0.0030 21.4017 0.0024 5.0249
# 5 -8.9188 -14.4576 -2.5560 0.0024 16.0044 -0.0110
# 6 0.0190 0.0011 0.0061 5.0249 -0.0110 -19.7896
#
#
#
# Elastic Compliance Matrix: (Units=1/GPa)
#
#
# Indices 1 2 3 4 5 6 
#
# 1 0.062467 -0.021082 -0.000106 -0.000003 0.015750 0.000049
# 2 -0.021082 0.017742 -0.002372 0.000001 0.003900 -0.000022
# 3 -0.000106 -0.002372 0.020409 -0.000004 0.001058 0.000004
# 4 -0.000003 0.000001 -0.000004 0.044096 0.000000 0.011197
# 5 0.015750 0.003900 0.001058 0.000000 0.074952 -0.000026
# 6 0.000049 -0.000022 0.000004 0.011197 -0.000026 -0.047689
#
#
# Mechanical properties :
#
#
# Convention : Reuss Voigt Hill
#
# Bulk Modulus (GPa) = 18.69216 34.67275 26.68245
# Shear Modulus (GPa) = 21.10322 12.37137 16.73730
#
# Velocity S-wave (km/s) = 3.37911 2.58724 3.00934
# Velocity P-wave (km/s) = 5.03372 5.26171 5.14898
#
# Compressibility (1/GPa) = 0.05349836
#
# Stress axis : x y z
#
# Youngs Moduli (GPa) = 16.00843 56.36221 48.99841
#
# Poissons Ratio (x) = 1.18825 0.00519
# Poissons Ratio (y) = 0.33750 0.11620
# Poissons Ratio (z) = 0.00170 0.13367
#
# Static dielectric constant tensor:
#      x y z
#    x 1.629730 0.000000 -0.012170 
#    y 0.000000 1.632800 0.000000 
#    z -0.012170 0.000000 1.711940 
# 
# From -- ./inp_files/170500.got.cif
#   From: 2010.05.17/outbox.cif.g08.bks.cpg/sg12_86_cif.got.tgz:170500.got - 2010.06.03 13:09:07.
