data_PCOD9178290
_publ_section_title
;
Structure prediction by ZEFSAII (Michael W. Deem and Ramdas Pophale) SiO2 
 PCOD9178290
Probable space group: C 2/M
;
_chemical_formula_sum "Si O2"
_cell_formula_units_Z 64
_cell_length_a 25.556666
_cell_length_b 8.923746
_cell_length_c 18.152812
_cell_angle_alpha 90.000000
_cell_angle_beta 103.093172
_cell_angle_gamma 90.000000
_cell_volume 4032.325561
_symmetry_space_group_name_H-M "C 2/M"
_symmetry_group_IT_number 12
_symmetry_cell_setting 'monoclinic'
loop_
_space_group_symop_operation_xyz
x,y,z
-x,y,-z
-x,-y,-z
x,-y,z
1/2+x,1/2+y,z
1/2-x,1/2+y,-z
1/2-x,1/2-y,-z
1/2+x,1/2-y,z
loop_
_atom_site_type_symbol
_atom_site_label
_atom_site_fract_x
_atom_site_fract_y
_atom_site_fract_z
Si Si1 0.839009 0.320642 0.662564
Si Si2 0.130045 0.679352 0.926160
Si Si3 0.192799 0.320152 0.504743
Si Si4 0.785034 0.820686 0.340681
Si Si5 0.202892 0.680047 0.812342
Si Si6 0.320216 0.319730 0.913946
Si Si7 0.404190 0.319719 0.812710
Si Si8 0.985062 0.180542 0.079773
O O1 0.842587 0.500000 0.670797
O O2 0.844412 0.283355 0.577495
O O3 0.778188 0.277781 0.668278
O O4 0.881342 0.245480 0.729985
O O5 0.128989 0.500000 0.930784
O O6 0.157934 0.720432 0.857851
O O7 0.070440 0.744333 0.915273
O O8 0.165197 0.743316 0.004693
O O9 0.197160 0.500000 0.510659
O O10 0.250000 0.250000 0.500000
O O11 0.181983 0.251804 0.581294
O O12 0.802986 0.761025 0.267411
O O13 0.788117 0.000000 0.346216
O O14 0.202067 0.500000 0.800746
O O15 0.261113 0.717976 0.865522
O O16 0.323359 0.500000 0.924016
O O17 0.364014 0.275118 0.866283
O O18 0.402743 0.500000 0.808723
O O19 0.464448 0.274645 0.853627
O O20 0.978991 0.000000 0.081135
O O21 0.000000 0.217739 0.000000
#
# Coordination Sequence:
#
# PCOD9178290 Si02
#       8
#     8   8   8   8   8   8   8   8
#     4   9  18  30  45  71 103 129 159 201 245 290
#     4  11  23  35  50  74  98 128 169 211 252 292
#     4   9  17  29  45  68 100 136 167 198 242 294
#     4  10  19  30  47  73 101 133 168 200 243 294
#     4  10  21  35  50  71 101 134 168 202 245 300
#     4  10  19  34  52  70  97 134 167 201 247 295
#     4  10  19  31  52  74  93 129 170 202 246 295
#     4  10  20  37  54  69  93 128 170 209 247 298
#
# _framework density 15.871734
#
# number of rings (size 3 to 8) (size 9 to 14) (size 15 to 20)
#    0.000    2.125    2.500    2.250    0.000    5.250 
#    0.000    0.000    0.000    0.000    0.000    0.875 
#    0.000    7.000    0.000    0.000    0.000    0.000 
#
# Total GULP energy -178485.761524 kJ/mol
# GULP energy per Si atom -5577.680048 kJ/mol
# Density = 1.583561 g / cm^3
# Si number density = 15.871734 Si / 1000 Ang^3
#
#
#
# Elastic Constant Matrix: (Units=GPa)
#
#
# Indices 1 2 3 4 5 6 
#
# 1 67.5553 29.6835 59.0341 0.0000 -13.5615 0.0000
# 2 29.6835 33.2924 55.4008 0.0000 -3.0479 0.0000
# 3 59.0341 55.4008 173.1597 0.0000 -1.6892 0.0000
# 4 0.0000 0.0000 0.0000 32.9347 0.0000 1.6843
# 5 -13.5615 -3.0479 -1.6892 0.0000 17.0078 0.0000
# 6 0.0000 0.0000 0.0000 1.6843 0.0000 19.2439
#
#
#
# Elastic Compliance Matrix: (Units=1/GPa)
#
#
# Indices 1 2 3 4 5 6 
#
# 1 0.030944 -0.018081 -0.004560 0.000000 0.020981 0.000000
# 2 -0.018081 0.076365 -0.018293 0.000000 -0.002549 0.000000
# 3 -0.004560 -0.018293 0.013128 0.000000 -0.005610 0.000000
# 4 0.000000 0.000000 0.000000 0.030500 0.000000 -0.002669
# 5 0.020981 -0.002549 -0.005610 0.000000 0.074512 0.000000
# 6 0.000000 0.000000 0.000000 -0.002669 0.000000 0.052198
#
#
# Mechanical properties :
#
#
# Convention : Reuss Voigt Hill
#
# Bulk Modulus (GPa) = 25.92739 62.47160 44.19949
# Shear Modulus (GPa) = 13.42748 22.49655 17.96201
#
# Velocity S-wave (km/s) = 2.91176 3.76892 3.36772
# Velocity P-wave (km/s) = 5.26075 7.64103 6.55976
#
# Compressibility (1/GPa) = 0.03856925
#
# Stress axis : x y z
#
# Youngs Moduli (GPa) = 32.31649 13.09492 76.17502
#
# Poissons Ratio (x) = 0.23676 0.34737
# Poissons Ratio (y) = 0.58430 1.39348
# Poissons Ratio (z) = 0.14737 0.23955
#
# Static dielectric constant tensor:
#      x y z
#    x 1.509120 0.000000 -0.001500 
#    y 0.000000 1.529970 0.000000 
#    z -0.001500 0.000000 1.540190 
# 
# From -- ./inp_files/244052.got.cif
#   From: 2010.05.17/outbox.cif.g08.bks.cpg/sg12_123_cif.got.tgz:244052.got - 2010.06.03 13:09:07.
