data_PCOD9178266
_publ_section_title
;
Structure prediction by ZEFSAII (Michael W. Deem and Ramdas Pophale) SiO2 
 PCOD9178266
Probable space group: C 2/M
;
_chemical_formula_sum "Si O2"
_cell_formula_units_Z 48
_cell_length_a 20.083320
_cell_length_b 7.602094
_cell_length_c 27.997831
_cell_angle_alpha 90.000000
_cell_angle_beta 33.600989
_cell_angle_gamma 90.000000
_cell_volume 2365.576172
_symmetry_space_group_name_H-M "C 2/M"
_symmetry_group_IT_number 12
_symmetry_cell_setting 'monoclinic'
loop_
_space_group_symop_operation_xyz
x,y,z
-x,y,-z
-x,-y,-z
x,-y,z
1/2+x,1/2+y,z
1/2-x,1/2+y,-z
1/2-x,1/2-y,-z
1/2+x,1/2-y,z
loop_
_atom_site_type_symbol
_atom_site_label
_atom_site_fract_x
_atom_site_fract_y
_atom_site_fract_z
Si Si1 0.636251 0.204860 0.264905
Si Si2 0.124456 0.791094 0.599727
Si Si3 0.820521 0.794589 0.230751
Si Si4 0.804360 0.202060 0.877691
Si Si5 0.065499 0.216409 0.741585
Si Si6 0.037621 0.714136 0.031274
O O1 0.493208 0.217028 0.356273
O O2 0.711511 0.279439 0.264245
O O3 0.670991 0.294953 0.194162
O O4 0.669733 0.000000 0.238857
O O5 0.250000 0.750000 0.500000
O O6 0.116589 0.729871 0.659512
O O7 0.108984 0.000000 0.609717
O O8 0.855282 0.720442 0.261526
O O9 0.938503 0.778781 0.127398
O O10 0.791898 0.000000 0.255783
O O11 0.926219 0.278029 0.827611
O O12 0.797610 0.000000 0.897846
O O13 0.671791 0.278983 0.963838
O O14 0.062452 0.000000 0.744305
O O15 0.038389 0.500000 0.031462
O O16 0.000000 0.766894 0.000000
#
# Coordination Sequence:
#
# PCOD9178266 Si02
#       6
#     8   8   8   8   8   8
#     4  10  19  31  51  77 103 131 168 209 251 299
#     4  10  20  37  61  81 101 129 164 204 248 304
#     4  10  20  33  50  74 104 136 171 212 254 298
#     4   9  17  32  51  69  97 140 181 214 250 299
#     4   8  17  34  53  73 100 134 168 206 256 304
#     4  10  19  30  47  72 103 138 179 217 254 298
#
# _framework density 20.291039999999999
#
# number of rings (size 3 to 8) (size 9 to 14) (size 15 to 20)
#    0.000    2.500    1.667    2.000    0.000    2.333 
#    0.000    5.000    0.000    5.000    0.000    0.000 
#    0.000    0.000    0.000    0.000    0.000    0.000 
#
# Total GULP energy -133904.560881 kJ/mol
# GULP energy per Si atom -5579.356703 kJ/mol
# Density = 2.024486 g / cm^3
# Si number density = 20.291040 Si / 1000 Ang^3
#
#
#
# Elastic Constant Matrix: (Units=GPa)
#
#
# Indices 1 2 3 4 5 6 
#
# 1 142.3130 -6.1822 48.8059 -0.0129 -24.1567 0.0191
# 2 -6.1822 45.8772 -16.1579 -0.0097 0.8233 -0.0040
# 3 48.8059 -16.1579 107.5264 -0.0023 -19.4617 0.0069
# 4 -0.0129 -0.0097 -0.0023 19.9055 0.0013 2.4408
# 5 -24.1567 0.8233 -19.4617 0.0013 22.1667 -0.0054
# 6 0.0191 -0.0040 0.0069 2.4408 -0.0054 8.9297
#
#
#
# Elastic Compliance Matrix: (Units=1/GPa)
#
#
# Indices 1 2 3 4 5 6 
#
# 1 0.009297 0.000124 -0.002816 0.000007 0.007655 -0.000015
# 2 0.000124 0.023143 0.003912 0.000011 0.002710 0.000006
# 3 -0.002816 0.003912 0.012584 0.000001 0.007834 0.000003
# 4 0.000007 0.000011 0.000001 0.051979 0.000001 -0.014208
# 5 0.007655 0.002710 0.007834 0.000001 0.060233 0.000015
# 6 -0.000015 0.000006 0.000003 -0.014208 0.000015 0.115869
#
#
# Mechanical properties :
#
#
# Convention : Reuss Voigt Hill
#
# Bulk Modulus (GPa) = 21.06851 38.73869 29.90360
# Shear Modulus (GPa) = 17.45276 28.15044 22.80160
#
# Velocity S-wave (km/s) = 2.93596 3.72873 3.35584
# Velocity P-wave (km/s) = 4.67962 6.13766 5.45755
#
# Compressibility (1/GPa) = 0.04746420
#
# Stress axis : x y z
#
# Youngs Moduli (GPa) = 107.55883 43.20931 79.46590
#
# Poissons Ratio (x) = -0.00535 0.22377
# Poissons Ratio (y) = -0.01331 -0.31087
# Poissons Ratio (z) = 0.30287 -0.16904
#
# Static dielectric constant tensor:
#      x y z
#    x 1.739270 0.000000 -0.030820 
#    y 0.000000 1.778890 -0.000010 
#    z -0.030820 -0.000010 1.697170 
# 
# From -- ./inp_files/221613.got.cif
#   From: 2010.05.17/outbox.cif.g08.bks.cpg/sg12_111_cif.got.tgz:221613.got - 2010.06.03 13:09:07.
