data_PCOD9178083
_publ_section_title
;
Structure prediction by ZEFSAII (Michael W. Deem and Ramdas Pophale) SiO2 
 PCOD9178083
Probable space group: C 2/M
;
_chemical_formula_sum "Si O2"
_cell_formula_units_Z 56
_cell_length_a 24.031606
_cell_length_b 8.641982
_cell_length_c 19.462023
_cell_angle_alpha 90.000000
_cell_angle_beta 128.013589
_cell_angle_gamma 90.000000
_cell_volume 3184.459895
_symmetry_space_group_name_H-M "C 2/M"
_symmetry_group_IT_number 12
_symmetry_cell_setting 'monoclinic'
loop_
_space_group_symop_operation_xyz
x,y,z
-x,y,-z
-x,-y,-z
x,-y,z
1/2+x,1/2+y,z
1/2-x,1/2+y,-z
1/2-x,1/2-y,-z
1/2+x,1/2-y,z
loop_
_atom_site_type_symbol
_atom_site_label
_atom_site_fract_x
_atom_site_fract_y
_atom_site_fract_z
Si Si1 0.631574 0.686350 0.017306
Si Si2 0.561756 0.314723 0.598518
Si Si3 0.212812 0.322259 0.709880
Si Si4 0.860805 0.314896 0.822986
Si Si5 0.505237 0.186505 0.163523
Si Si6 0.784009 0.678102 0.120199
Si Si7 0.937958 0.687684 0.248883
O O1 0.634090 0.500000 0.017541
O O2 0.627281 0.740458 0.093115
O O3 0.707095 0.746255 0.043954
O O4 0.562881 0.747363 0.927029
O O5 0.500000 0.264143 0.500000
O O6 0.563476 0.500000 0.601682
O O7 0.638567 0.253645 0.634255
O O8 0.548919 0.252821 0.665737
O O9 0.214898 0.500000 0.689410
O O10 0.282981 0.234798 0.739610
O O11 0.215683 0.321976 0.795786
O O12 0.863477 0.500000 0.832359
O O13 0.922812 0.264108 0.818686
O O14 0.496038 0.228392 0.236414
O O15 0.501784 0.000000 0.156494
O O16 0.784307 0.500000 0.096322
O O17 0.860997 0.746505 0.163065
O O18 0.932886 0.500000 0.250218
#
# Coordination Sequence:
#
# PCOD9178083 Si02
#       7
#     8   8   8   8   8   8   8
#     4  10  19  30  46  69  95 129 177 222 253 287
#     4  10  20  34  55  83 108 126 150 191 243 297
#     4   9  17  31  52  76  99 126 163 202 242 291
#     4  10  19  32  49  69  98 134 172 213 253 289
#     4  10  21  33  46  68  99 136 173 211 253 291
#     4   7  13  27  45  65  90 120 157 202 243 280
#     4   9  18  34  52  70  98 134 169 202 243 300
#
# _framework density 17.585398999999999
#
# number of rings (size 3 to 8) (size 9 to 14) (size 15 to 20)
#    0.000    2.714    0.000    3.857    0.000    5.143 
#    0.000    0.714    0.000    0.857    0.000    0.000 
#    0.000    0.000    0.000    0.000    0.000    0.000 
#
# Total GULP energy -156076.223828 kJ/mol
# GULP energy per Si atom -5574.150851 kJ/mol
# Density = 1.754537 g / cm^3
# Si number density = 17.585399 Si / 1000 Ang^3
#
#
#
# Elastic Constant Matrix: (Units=GPa)
#
#
# Indices 1 2 3 4 5 6 
#
# 1 110.6382 15.4399 47.3279 0.0000 7.8197 0.0000
# 2 15.4399 14.3869 14.3204 0.0000 2.6375 0.0000
# 3 47.3279 14.3204 103.0085 0.0000 17.0597 0.0000
# 4 0.0000 0.0000 0.0000 20.5851 0.0000 6.2142
# 5 7.8197 2.6375 17.0597 0.0000 18.1426 0.0000
# 6 0.0000 0.0000 0.0000 6.2142 0.0000 19.2498
#
#
#
# Elastic Compliance Matrix: (Units=1/GPa)
#
#
# Indices 1 2 3 4 5 6 
#
# 1 0.012113 -0.008661 -0.004388 0.000000 0.000165 0.000000
# 2 -0.008661 0.086895 -0.007849 0.000000 -0.001519 0.000000
# 3 -0.004388 -0.007849 0.014584 0.000000 -0.010681 0.000000
# 4 0.000000 0.000000 0.000000 0.053824 0.000000 -0.017375
# 5 0.000165 -0.001519 -0.010681 0.000000 0.065312 0.000000
# 6 0.000000 0.000000 0.000000 -0.017375 0.000000 0.057558
#
#
# Mechanical properties :
#
#
# Convention : Reuss Voigt Hill
#
# Bulk Modulus (GPa) = 13.92880 42.46777 28.19828
# Shear Modulus (GPa) = 14.04434 21.65853 17.85143
#
# Velocity S-wave (km/s) = 2.82908 3.51325 3.18956
# Velocity P-wave (km/s) = 4.31387 6.37645 5.44374
#
# Compressibility (1/GPa) = 0.07179369
#
# Stress axis : x y z
#
# Youngs Moduli (GPa) = 82.55720 11.50820 68.56622
#
# Poissons Ratio (x) = 0.09968 0.30090
# Poissons Ratio (y) = 0.71506 0.53819
# Poissons Ratio (z) = 0.36230 0.09033
#
# Static dielectric constant tensor:
#      x y z
#    x 1.630070 0.000000 0.012510 
#    y 0.000000 1.603420 0.000000 
#    z 0.012510 0.000000 1.586890 
# 
# From -- ./inp_files/323797.got.cif
#   From: 2010.05.17/outbox.cif.g08.bks.cpg/sg12_162_cif.got.tgz:323797.got - 2010.06.03 13:09:07.
