data_PCOD9178400
_publ_section_title
;
Structure prediction by ZEFSAII (Michael W. Deem and Ramdas Pophale) SiO2 
 PCOD9178400
Probable space group: C 2/M
;
_chemical_formula_sum "Si O2"
_cell_formula_units_Z 64
_cell_length_a 30.451598
_cell_length_b 8.975813
_cell_length_c 15.891930
_cell_angle_alpha 90.000000
_cell_angle_beta 118.908394
_cell_angle_gamma 90.000000
_cell_volume 3802.453850
_symmetry_space_group_name_H-M "C 2/M"
_symmetry_group_IT_number 12
_symmetry_cell_setting 'monoclinic'
loop_
_space_group_symop_operation_xyz
x,y,z
-x,y,-z
-x,-y,-z
x,-y,z
1/2+x,1/2+y,z
1/2-x,1/2+y,-z
1/2-x,1/2-y,-z
1/2+x,1/2-y,z
loop_
_atom_site_type_symbol
_atom_site_label
_atom_site_fract_x
_atom_site_fract_y
_atom_site_fract_z
Si Si1 0.975149 0.178808 0.107792
Si Si2 0.544376 0.820595 0.732808
Si Si3 0.211329 0.178157 0.662198
Si Si4 0.922207 0.820680 0.883024
Si Si5 0.566232 0.178701 0.432188
Si Si6 0.159812 0.822360 0.436351
Si Si7 0.117914 0.321120 0.656662
Si Si8 0.320951 0.821248 0.722840
O O1 0.956172 0.252926 0.175065
O O2 0.032290 0.223504 0.137339
O O3 0.975011 0.000000 0.116618
O O4 0.941563 0.214607 0.994913
O O5 0.491175 0.783277 0.639731
O O6 0.589525 0.769996 0.714263
O O7 0.546664 0.000000 0.740567
O O8 0.192076 0.213208 0.549634
O O9 0.172346 0.253503 0.689295
O O10 0.269333 0.223042 0.721370
O O11 0.207882 0.000000 0.668651
O O12 0.870598 0.742838 0.811952
O O13 0.916678 0.000000 0.871869
O O14 0.604019 0.263597 0.405237
O O15 0.583559 0.215290 0.543190
O O16 0.572378 0.000000 0.426783
O O17 0.180173 0.742200 0.372767
O O18 0.159515 0.000000 0.423858
O O19 0.121888 0.500000 0.663076
O O20 0.322892 0.000000 0.721499
#
# Coordination Sequence:
#
# PCOD9178400 Si02
#       8
#     8   8   8   8   8   8   8   8
#     4   9  19  35  53  73  99 128 155 190 237 288
#     4  10  19  30  48  74 100 127 161 199 238 283
#     4   9  20  35  48  67  97 130 164 202 239 276
#     4   9  19  36  54  73  98 126 157 192 235 288
#     4   9  17  30  47  69 100 133 162 195 236 280
#     4  10  19  31  47  69  99 132 164 196 232 280
#     4   9  18  32  49  69  96 131 167 200 235 277
#     4  11  21  32  49  73  98 125 160 200 242 285
#
# _framework density 16.831237000000002
#
# number of rings (size 3 to 8) (size 9 to 14) (size 15 to 20)
#    0.000    2.500    0.000    3.000    0.000    7.000 
#    0.000    1.250    0.000    4.500    0.000    0.000 
#    0.000    0.000    0.000    0.000    0.000    0.000 
#
# Total GULP energy -178539.522493 kJ/mol
# GULP energy per Si atom -5579.360078 kJ/mol
# Density = 1.679293 g / cm^3
# Si number density = 16.831237 Si / 1000 Ang^3
#
#
#
# Elastic Constant Matrix: (Units=GPa)
#
#
# Indices 1 2 3 4 5 6 
#
# 1 155.5246 41.3036 63.1682 0.0000 -6.0548 0.0000
# 2 41.3036 21.9495 24.6967 0.0000 0.5987 0.0000
# 3 63.1682 24.6967 52.7937 0.0000 -5.0031 0.0000
# 4 0.0000 0.0000 0.0000 27.1446 0.0000 -2.1007
# 5 -6.0548 0.5987 -5.0031 0.0000 27.1017 0.0000
# 6 0.0000 0.0000 0.0000 -2.1007 0.0000 29.2755
#
#
#
# Elastic Compliance Matrix: (Units=1/GPa)
#
#
# Indices 1 2 3 4 5 6 
#
# 1 0.015104 -0.017637 -0.009633 0.000000 0.001986 0.000000
# 2 -0.017637 0.119880 -0.036235 0.000000 -0.013278 0.000000
# 3 -0.009633 -0.036235 0.048132 0.000000 0.007534 0.000000
# 4 0.000000 0.000000 0.000000 0.037045 0.000000 0.002658
# 5 0.001986 -0.013278 0.007534 0.000000 0.039026 0.000000
# 6 0.000000 0.000000 0.000000 0.002658 0.000000 0.034349
#
#
# Mechanical properties :
#
#
# Convention : Reuss Voigt Hill
#
# Bulk Modulus (GPa) = 17.82337 54.28943 36.05640
# Shear Modulus (GPa) = 11.38312 23.44432 17.41372
#
# Velocity S-wave (km/s) = 2.60342 3.73621 3.22002
# Velocity P-wave (km/s) = 4.43277 7.13706 5.94084
#
# Compressibility (1/GPa) = 0.05610610
#
# Stress axis : x y z
#
# Youngs Moduli (GPa) = 66.20887 8.34170 20.77616
#
# Poissons Ratio (x) = 0.14712 0.20014
# Poissons Ratio (y) = 1.16772 0.75282
# Poissons Ratio (z) = 0.63780 0.30226
#
# Static dielectric constant tensor:
#      x y z
#    x 1.564370 0.000000 0.005020 
#    y 0.000000 1.560950 0.000000 
#    z 0.005020 0.000000 1.556160 
# 
# From -- ./inp_files/249173.got.cif
#   From: 2010.05.17/outbox.cif.g08.bks.cpg/sg12_125_cif.got.tgz:249173.got - 2010.06.03 13:09:07.
