data_PCOD9178033
_publ_section_title
;
Structure prediction by ZEFSAII (Michael W. Deem and Ramdas Pophale) SiO2 
 PCOD9178033
Probable space group: C 2/M
;
_chemical_formula_sum "Si O2"
_cell_formula_units_Z 56
_cell_length_a 13.938831
_cell_length_b 9.211605
_cell_length_c 26.327102
_cell_angle_alpha 90.000000
_cell_angle_beta 46.692929
_cell_angle_gamma 90.000000
_cell_volume 2459.857769
_symmetry_space_group_name_H-M "C 2/M"
_symmetry_group_IT_number 12
_symmetry_cell_setting 'monoclinic'
loop_
_space_group_symop_operation_xyz
x,y,z
-x,y,-z
-x,-y,-z
x,-y,z
1/2+x,1/2+y,z
1/2-x,1/2+y,-z
1/2-x,1/2-y,-z
1/2+x,1/2-y,z
loop_
_atom_site_type_symbol
_atom_site_label
_atom_site_fract_x
_atom_site_fract_y
_atom_site_fract_z
Si Si1 0.156138 0.337731 0.662242
Si Si2 0.264120 0.669384 0.760642
Si Si3 0.478223 0.164263 0.627854
Si Si4 0.528179 0.826555 0.908729
Si Si5 0.552349 0.330272 0.203847
Si Si6 0.138302 0.338220 0.478081
Si Si7 0.208886 0.673109 0.944750
O O1 0.199110 0.500000 0.659502
O O2 0.048462 0.348403 0.656328
O O3 0.270163 0.248930 0.593167
O O4 0.077659 0.259497 0.735759
O O5 0.246420 0.500000 0.755516
O O6 0.346339 0.746168 0.686232
O O7 0.123758 0.734030 0.830192
O O8 0.356977 0.672681 0.777711
O O9 0.589614 0.227545 0.549494
O O10 0.446782 0.000000 0.621469
O O11 0.617282 0.814886 0.927517
O O12 0.512495 0.000000 0.905194
O O13 0.384392 0.765782 0.976527
O O14 0.521751 0.500000 0.205560
O O15 0.648546 0.269609 0.124678
O O16 0.194410 0.500000 0.466912
O O17 0.000000 0.350420 0.500000
O O18 0.225995 0.500000 0.947350
#
# Coordination Sequence:
#
# PCOD9178033 Si02
#       7
#     8   8   8   8   8   8   8
#     4  10  19  30  46  67  90 114 139 172 214 258
#     4   8  13  21  36  58  82 110 143 176 207 243
#     4   9  18  31  46  65  88 113 141 174 213 255
#     4   7   9  14  26  48  77 106 138 173 205 235
#     4   8  13  22  37  57  81 111 146 177 204 240
#     4  10  21  36  51  65  83 109 142 179 215 253
#     4   7   9  14  27  48  75 107 140 173 204 233
#
# _framework density 22.765543000000001
#
# number of rings (size 3 to 8) (size 9 to 14) (size 15 to 20)
#    0.000    3.571    0.000    3.429    0.000    1.429 
#    0.000    0.000    0.000    0.857    0.000    6.000 
#    0.000    1.143    0.000    2.286    0.000    5.143 
#
# Total GULP energy -156083.804178 kJ/mol
# GULP energy per Si atom -5574.421578 kJ/mol
# Density = 2.271373 g / cm^3
# Si number density = 22.765543 Si / 1000 Ang^3
#
#
#
# Elastic Constant Matrix: (Units=GPa)
#
#
# Indices 1 2 3 4 5 6 
#
# 1 39.8172 4.0384 29.1472 0.0000 -3.1488 0.0000
# 2 4.0384 61.5730 91.9017 0.0000 -24.1585 0.0000
# 3 29.1472 91.9017 288.8223 0.0000 -31.0264 0.0000
# 4 0.0000 0.0000 0.0000 33.6842 0.0000 -5.4428
# 5 -3.1488 -24.1585 -31.0264 0.0000 51.6312 0.0000
# 6 0.0000 0.0000 0.0000 -5.4428 0.0000 -3.7706
#
#
#
# Elastic Compliance Matrix: (Units=1/GPa)
#
#
# Indices 1 2 3 4 5 6 
#
# 1 0.027857 0.005195 -0.004298 0.000000 0.001547 0.000000
# 2 0.005195 0.036550 -0.010993 0.000000 0.010813 0.000000
# 3 -0.004298 -0.010993 0.007283 0.000000 -0.001029 0.000000
# 4 0.000000 0.000000 0.000000 0.024073 0.000000 -0.034748
# 5 0.001547 0.010813 -0.001029 0.000000 0.023904 0.000000
# 6 0.000000 0.000000 0.000000 -0.034748 0.000000 -0.215050
#
#
# Mechanical properties :
#
#
# Convention : Reuss Voigt Hill
#
# Bulk Modulus (GPa) = 19.41811 71.15411 45.28611
# Shear Modulus (GPa) = -86.16761 33.98397 -26.09182
#
# Velocity S-wave (km/s) = -6.15891 3.86784 -3.38910
# Velocity P-wave (km/s) = 6.48291 7.16031 2.14964
#
# Compressibility (1/GPa) = 0.05149832
#
# Stress axis : x y z
#
# Youngs Moduli (GPa) = 35.89825 27.35980 137.29910
#
# Poissons Ratio (x) = -0.14213 0.59012
# Poissons Ratio (y) = -0.18649 1.50929
# Poissons Ratio (z) = 0.15429 0.30076
#
# Static dielectric constant tensor:
#      x y z
#    x 1.923940 0.000000 0.042570 
#    y 0.000000 1.816430 0.000000 
#    z 0.042570 0.000000 1.924610 
# 
# From -- ./inp_files/342036.got.cif
#   From: 2010.05.17/outbox.cif.g08.bks.cpg/sg12_172_cif.got.tgz:342036.got - 2010.06.03 13:09:07.
