data_PCOD9178534
_publ_section_title
;
Structure prediction by ZEFSAII (Michael W. Deem and Ramdas Pophale) SiO2 
 PCOD9178534
Probable space group: C 2/M
;
_chemical_formula_sum "Si O2"
_cell_formula_units_Z 56
_cell_length_a 24.983401
_cell_length_b 7.388322
_cell_length_c 14.347384
_cell_angle_alpha 90.000000
_cell_angle_beta 55.671891
_cell_angle_gamma 90.000000
_cell_volume 2187.038373
_symmetry_space_group_name_H-M "C 2/M"
_symmetry_group_IT_number 12
_symmetry_cell_setting 'monoclinic'
loop_
_space_group_symop_operation_xyz
x,y,z
-x,y,-z
-x,-y,-z
x,-y,z
1/2+x,1/2+y,z
1/2-x,1/2+y,-z
1/2-x,1/2-y,-z
1/2+x,1/2-y,z
loop_
_atom_site_type_symbol
_atom_site_label
_atom_site_fract_x
_atom_site_fract_y
_atom_site_fract_z
Si Si1 0.162697 0.785436 0.528010
Si Si2 0.843957 0.786469 0.954624
Si Si3 0.242266 0.276588 0.194348
Si Si4 0.106061 0.702004 0.294250
Si Si5 0.299936 0.702016 0.315358
Si Si6 0.479974 0.783020 0.328192
Si Si7 0.977137 0.717047 0.919467
O O1 0.224283 0.694460 0.420810
O O2 0.162794 0.715015 0.634966
O O3 0.090804 0.757174 0.562801
O O4 0.176909 0.000000 0.516513
O O5 0.865370 0.690307 0.839357
O O6 0.902131 0.760202 0.971763
O O7 0.840277 0.000000 0.938281
O O8 0.776905 0.723216 0.065352
O O9 0.240883 0.500000 0.198808
O O10 0.168685 0.213139 0.282433
O O11 0.291580 0.209391 0.224644
O O12 0.096385 0.500000 0.343219
O O13 0.036524 0.787427 0.341259
O O14 0.326365 0.500000 0.276248
O O15 0.488656 0.718024 0.211787
O O16 0.488533 0.000000 0.317196
O O17 0.985687 0.500000 0.912390
O O18 0.000000 0.782485 0.000000
#
# Coordination Sequence:
#
# PCOD9178534 Si02
#       7
#     8   8   8   8   8   8   8
#     4  10  20  34  54  77 102 130 163 207 262 310
#     4  10  19  30  49  77 107 136 169 209 258 301
#     4   9  18  33  54  77 101 133 174 216 253 298
#     4   9  18  35  54  73 102 139 177 209 244 299
#     4   9  19  36  55  75 100 129 167 211 254 305
#     4   9  18  32  52  73  97 134 171 203 247 300
#     4   9  19  34  49  71 104 139 176 211 244 296
#
# _framework density 25.605402999999999
#
# number of rings (size 3 to 8) (size 9 to 14) (size 15 to 20)
#    0.000    2.714    0.000    2.143    2.000    3.143 
#    0.000    3.571    0.000    4.286    0.000    0.000 
#    0.000    0.000    0.000    0.000    0.000    0.000 
#
# Total GULP energy -156299.535227 kJ/mol
# GULP energy per Si atom -5582.126258 kJ/mol
# Density = 2.554712 g / cm^3
# Si number density = 25.605403 Si / 1000 Ang^3
#
#
#
# Elastic Constant Matrix: (Units=GPa)
#
#
# Indices 1 2 3 4 5 6 
#
# 1 56.6596 -12.7612 -1.1109 0.0001 -18.3271 0.0004
# 2 -12.7612 104.2306 -10.9339 0.0002 4.5115 0.0007
# 3 -1.1109 -10.9339 37.3383 0.0000 -13.1155 0.0000
# 4 0.0001 0.0002 0.0000 4.6394 0.0000 -3.4567
# 5 -18.3271 4.5115 -13.1155 0.0000 50.3531 0.0001
# 6 0.0004 0.0007 0.0000 -3.4567 0.0001 3.1553
#
#
#
# Elastic Compliance Matrix: (Units=1/GPa)
#
#
# Indices 1 2 3 4 5 6 
#
# 1 0.021122 0.002679 0.004435 -0.000019 0.008603 -0.000024
# 2 0.002679 0.010239 0.003410 -0.000014 0.000946 -0.000018
# 3 0.004435 0.003410 0.031230 -0.000008 0.009443 -0.000011
# 4 -0.000019 -0.000014 -0.000008 1.172924 -0.000011 1.284945
# 5 0.008603 0.000946 0.009443 -0.000011 0.025366 -0.000014
# 6 -0.000024 -0.000018 -0.000011 1.284945 -0.000014 1.724591
#
#
# Mechanical properties :
#
#
# Convention : Reuss Voigt Hill
#
# Bulk Modulus (GPa) = 11.95617 16.51293 14.23455
# Shear Modulus (GPa) = 1.67095 26.49852 14.08474
#
# Velocity S-wave (km/s) = 0.80870 3.22045 2.34790
# Velocity P-wave (km/s) = 2.35617 4.50459 3.59464
#
# Compressibility (1/GPa) = 0.08363884
#
# Stress axis : x y z
#
# Youngs Moduli (GPa) = 47.34335 97.66677 32.02081
#
# Poissons Ratio (x) = -0.26164 -0.14201
# Poissons Ratio (y) = -0.12683 -0.10920
# Poissons Ratio (z) = -0.20996 -0.33307
#
# Static dielectric constant tensor:
#      x y z
#    x 2.066150 0.000000 0.051230 
#    y 0.000000 2.122710 0.000000 
#    z 0.051230 0.000000 2.020710 
# 
# From -- ./inp_files/238338.got.cif
#   From: 2010.05.17/outbox.cif.g08.bks.cpg/sg12_120_cif.got.tgz:238338.got - 2010.06.03 13:09:07.
