data_PCOD9178339
_publ_section_title
;
Structure prediction by ZEFSAII (Michael W. Deem and Ramdas Pophale) SiO2 
 PCOD9178339
Probable space group: C 2/M
;
_chemical_formula_sum "Si O2"
_cell_formula_units_Z 56
_cell_length_a 22.034315
_cell_length_b 11.535287
_cell_length_c 23.499356
_cell_angle_alpha 90.000000
_cell_angle_beta 28.214230
_cell_angle_gamma 90.000000
_cell_volume 2823.797114
_symmetry_space_group_name_H-M "C 2/M"
_symmetry_group_IT_number 12
_symmetry_cell_setting 'monoclinic'
loop_
_space_group_symop_operation_xyz
x,y,z
-x,y,-z
-x,-y,-z
x,-y,z
1/2+x,1/2+y,z
1/2-x,1/2+y,-z
1/2-x,1/2-y,-z
1/2+x,1/2-y,z
loop_
_atom_site_type_symbol
_atom_site_label
_atom_site_fract_x
_atom_site_fract_y
_atom_site_fract_z
Si Si1 0.625312 0.302322 0.668830
Si Si2 0.434186 0.374141 0.156981
Si Si3 0.201435 0.792799 0.950881
Si Si4 0.118753 0.370427 0.856463
Si Si5 0.647383 0.371863 0.521811
Si Si6 0.354579 0.629320 0.745659
Si Si7 0.403302 0.129790 0.871382
O O1 0.587978 0.371193 0.756441
O O2 0.635086 0.368169 0.600986
O O3 0.755156 0.230582 0.573092
O O4 0.512033 0.209187 0.754392
O O5 0.386123 0.500000 0.175231
O O6 0.382558 0.250450 0.176906
O O7 0.586969 0.365650 0.018697
O O8 0.303276 0.735004 0.825466
O O9 0.276135 0.861285 0.938049
O O10 0.131211 0.684668 0.039574
O O11 0.103871 0.500000 0.841258
O O12 0.256180 0.372815 0.774566
O O13 0.000000 0.362798 0.000000
O O14 0.695067 0.500000 0.465816
O O15 0.506327 0.355942 0.611306
O O16 0.341780 0.500000 0.783975
O O17 0.447666 0.000000 0.839423
#
# Coordination Sequence:
#
# PCOD9178339 Si02
#       7
#     8   8   8   8   8   8   8
#     4  10  21  36  56  82 114 149 191 230 286 341
#     4  11  23  38  59  86 120 154 190 235 291 350
#     4  10  19  32  49  80 113 148 185 227 285 342
#     4  10  21  38  60  85 115 151 196 240 284 339
#     4  10  20  36  59  83 111 148 193 240 285 337
#     4  10  19  35  57  81 111 148 190 238 288 336
#     4  10  19  30  47  76 114 149 185 227 278 341
#
# _framework density 19.831451999999999
#
# number of rings (size 3 to 8) (size 9 to 14) (size 15 to 20)
#    0.000    1.857    2.857    1.714    0.000    3.143 
#    0.000    0.714    0.000    3.429    0.000    0.000 
#    0.000    0.000    0.000    0.000    0.000    0.000 
#
# Total GULP energy -156062.307741 kJ/mol
# GULP energy per Si atom -5573.653848 kJ/mol
# Density = 1.978631 g / cm^3
# Si number density = 19.831452 Si / 1000 Ang^3
#
#
#
# Elastic Constant Matrix: (Units=GPa)
#
#
# Indices 1 2 3 4 5 6 
#
# 1 45.9613 27.0334 8.0748 0.0000 -22.6191 0.0000
# 2 27.0334 135.6509 14.9513 0.0000 -3.8049 -0.0001
# 3 8.0748 14.9513 54.9444 0.0001 -21.8688 -0.0002
# 4 0.0000 0.0000 0.0001 -22.6928 0.0000 -12.5530
# 5 -22.6191 -3.8049 -21.8688 0.0000 30.6457 0.0000
# 6 0.0000 -0.0001 -0.0002 -12.5530 0.0000 -3.9669
#
#
#
# Elastic Compliance Matrix: (Units=1/GPa)
#
#
# Indices 1 2 3 4 5 6 
#
# 1 0.045102 -0.009178 0.012103 0.000000 0.040786 0.000001
# 2 -0.009178 0.009480 -0.004831 0.000000 -0.009044 0.000000
# 3 0.012103 -0.004831 0.029404 -0.000001 0.029316 0.000002
# 4 0.000000 0.000000 -0.000001 0.058718 -0.000001 -0.185811
# 5 0.040786 -0.009044 0.029316 -0.000001 0.082532 0.000001
# 6 0.000001 0.000000 0.000002 -0.185811 0.000001 0.335902
#
#
# Mechanical properties :
#
#
# Convention : Reuss Voigt Hill
#
# Bulk Modulus (GPa) = 12.47291 37.40840 24.94065
# Shear Modulus (GPa) = 8.45060 13.23033 10.84046
#
# Velocity S-wave (km/s) = 2.06651 2.58570 2.34055
# Velocity P-wave (km/s) = 3.46368 5.27434 4.46182
#
# Compressibility (1/GPa) = 0.08017378
#
# Stress axis : x y z
#
# Youngs Moduli (GPa) = 22.17217 105.48892 34.00856
#
# Poissons Ratio (x) = 0.96819 -0.41160
# Poissons Ratio (y) = 0.20350 0.16428
# Poissons Ratio (z) = -0.26834 0.50957
#
# Static dielectric constant tensor:
#      x y z
#    x 1.737770 0.000000 -0.002280 
#    y 0.000000 1.730200 0.000000 
#    z -0.002280 0.000000 1.687310 
# 
# From -- ./inp_files/346991.got.cif
#   From: 2010.05.17/outbox.cif.g08.bks.cpg/sg12_174_cif.got.tgz:346991.got - 2010.06.03 13:09:07.
