data_PCOD9178378
_publ_section_title
;
Structure prediction by ZEFSAII (Michael W. Deem and Ramdas Pophale) SiO2 
 PCOD9178378
Probable space group: C 2/M
;
_chemical_formula_sum "Si O2"
_cell_formula_units_Z 64
_cell_length_a 21.124650
_cell_length_b 7.448957
_cell_length_c 19.449971
_cell_angle_alpha 90.000000
_cell_angle_beta 96.036890
_cell_angle_gamma 90.000000
_cell_volume 3043.608695
_symmetry_space_group_name_H-M "C 2/M"
_symmetry_group_IT_number 12
_symmetry_cell_setting 'monoclinic'
loop_
_space_group_symop_operation_xyz
x,y,z
-x,y,-z
-x,-y,-z
x,-y,z
1/2+x,1/2+y,z
1/2-x,1/2+y,-z
1/2-x,1/2-y,-z
1/2+x,1/2-y,z
loop_
_atom_site_type_symbol
_atom_site_label
_atom_site_fract_x
_atom_site_fract_y
_atom_site_fract_z
Si Si1 0.333576 0.784294 0.070399
Si Si2 0.397849 0.780446 0.213886
Si Si3 0.690250 0.712964 0.083097
Si Si4 0.973537 0.710036 0.701589
Si Si5 0.347936 0.282716 0.772515
Si Si6 0.687138 0.214602 0.536871
Si Si7 0.213679 0.718983 0.694007
Si Si8 0.556194 0.780378 0.454490
O O1 0.381884 0.721527 0.134537
O O2 0.262236 0.716026 0.080374
O O3 0.331421 0.000000 0.074141
O O4 0.346394 0.740669 0.992519
O O5 0.464218 0.715917 0.253172
O O6 0.339429 0.728083 0.256653
O O7 0.399102 0.000000 0.212913
O O8 0.697196 0.500000 0.093475
O O9 0.658430 0.780384 0.149283
O O10 0.987742 0.500000 0.691916
O O11 0.911471 0.723692 0.741713
O O12 0.958378 0.784059 0.624205
O O13 0.348716 0.500000 0.771965
O O14 0.284001 0.224443 0.725421
O O15 0.750000 0.250000 0.500000
O O16 0.695982 0.281691 0.615652
O O17 0.624096 0.281970 0.491322
O O18 0.679807 0.000000 0.541618
O O19 0.214159 0.500000 0.693618
O O20 0.500000 0.730008 0.500000
O O21 0.558243 0.000000 0.453061
#
# Coordination Sequence:
#
# PCOD9178378 Si02
#       8
#     8   8   8   8   8   8   8   8
#     4   9  16  29  51  75  96 119 157 206 243 275
#     4   9  16  30  51  74  95 122 164 206 237 275
#     4   9  17  30  49  73  98 125 157 195 241 289
#     4  10  20  32  50  74 101 129 160 202 246 286
#     4  10  19  33  51  71  99 133 164 195 237 293
#     4  10  19  30  48  72  98 126 158 199 243 286
#     4   9  16  29  51  73  91 123 169 203 231 280
#     4   9  17  31  50  73  98 127 164 204 244 285
#
# _framework density 21.027668999999999
#
# number of rings (size 3 to 8) (size 9 to 14) (size 15 to 20)
#    0.000    2.625    1.250    1.500    0.000    3.500 
#    0.000    1.250    0.000    9.000    0.000    0.000 
#    0.000    0.000    0.000    0.000    0.000    0.000 
#
# Total GULP energy -178688.717498 kJ/mol
# GULP energy per Si atom -5584.022422 kJ/mol
# Density = 2.097981 g / cm^3
# Si number density = 21.027669 Si / 1000 Ang^3
#
#
#
# Elastic Constant Matrix: (Units=GPa)
#
#
# Indices 1 2 3 4 5 6 
#
# 1 126.2571 -13.3813 67.6523 0.0000 18.3371 0.0000
# 2 -13.3813 58.9506 -7.9236 0.0000 2.9364 0.0000
# 3 67.6523 -7.9236 188.0381 0.0000 13.7941 0.0000
# 4 0.0000 0.0000 0.0000 4.1962 0.0000 -8.4266
# 5 18.3371 2.9364 13.7941 0.0000 30.3527 0.0000
# 6 0.0000 0.0000 0.0000 -8.4266 0.0000 15.2117
#
#
#
# Elastic Compliance Matrix: (Units=1/GPa)
#
#
# Indices 1 2 3 4 5 6 
#
# 1 0.010719 0.002235 -0.003384 0.000000 -0.005154 0.000000
# 2 0.002235 0.017650 0.000170 0.000000 -0.003135 0.000000
# 3 -0.003384 0.000170 0.006615 0.000000 -0.000978 0.000000
# 4 0.000000 0.000000 0.000000 -2.119341 0.000000 -1.174025
# 5 -0.005154 -0.003135 -0.000978 0.000000 0.036807 0.000000
# 6 0.000000 0.000000 0.000000 -1.174025 0.000000 -0.584621
#
#
# Mechanical properties :
#
#
# Convention : Reuss Voigt Hill
#
# Bulk Modulus (GPa) = 30.28105 51.77116 41.02611
# Shear Modulus (GPa) = -1.90898 31.74534 14.91818
#
# Velocity S-wave (km/s) = -0.95384 3.88969 2.66645
# Velocity P-wave (km/s) = 3.63576 6.69678 5.38821
#
# Compressibility (1/GPa) = 0.03302395
#
# Stress axis : x y z
#
# Youngs Moduli (GPa) = 93.29082 56.65848 151.18198
#
# Poissons Ratio (x) = -0.12663 0.51164
# Poissons Ratio (y) = -0.20851 -0.02564
# Poissons Ratio (z) = 0.31572 -0.00961
#
# Static dielectric constant tensor:
#      x y z
#    x 1.690460 0.000000 0.021280 
#    y 0.000000 2.038370 0.000000 
#    z 0.021280 0.000000 1.750210 
# 
# From -- ./inp_files/276599.got.cif
#   From: 2010.05.17/outbox.cif.g08.bks.cpg/sg12_139_cif.got.tgz:276599.got - 2010.06.03 13:09:07.
