data_PCOD9178337
_publ_section_title
;
Structure prediction by ZEFSAII (Michael W. Deem and Ramdas Pophale) SiO2 
 PCOD9178337
Probable space group: C 2/M
;
_chemical_formula_sum "Si O2"
_cell_formula_units_Z 64
_cell_length_a 25.509736
_cell_length_b 9.399219
_cell_length_c 14.508442
_cell_angle_alpha 90.000000
_cell_angle_beta 78.545527
_cell_angle_gamma 90.000000
_cell_volume 3409.426118
_symmetry_space_group_name_H-M "C 2/M"
_symmetry_group_IT_number 12
_symmetry_cell_setting 'monoclinic'
loop_
_space_group_symop_operation_xyz
x,y,z
-x,y,-z
-x,-y,-z
x,-y,z
1/2+x,1/2+y,z
1/2-x,1/2+y,-z
1/2-x,1/2-y,-z
1/2+x,1/2-y,z
loop_
_atom_site_type_symbol
_atom_site_label
_atom_site_fract_x
_atom_site_fract_y
_atom_site_fract_z
Si Si1 0.532904 0.835861 0.133229
Si Si2 0.573297 0.332855 0.609094
Si Si3 0.686914 0.669308 0.877173
Si Si4 0.573531 0.331532 0.826361
Si Si5 0.369136 0.669613 0.588225
Si Si6 0.859021 0.830666 0.916537
Si Si7 0.467431 0.163941 0.643154
Si Si8 0.212086 0.830002 0.235469
O O1 0.478074 0.757488 0.124778
O O2 0.586228 0.753092 0.085718
O O3 0.534022 0.832045 0.244874
O O4 0.533462 0.000000 0.103486
O O5 0.559041 0.500000 0.604178
O O6 0.582893 0.307457 0.713668
O O7 0.622634 0.304538 0.523349
O O8 0.523003 0.238304 0.596786
O O9 0.694785 0.500000 0.862885
O O10 0.628354 0.705015 0.858026
O O11 0.733787 0.751455 0.809816
O O12 0.682849 0.700896 0.987362
O O13 0.562805 0.500000 0.843394
O O14 0.375275 0.500000 0.601772
O O15 0.417644 0.749637 0.621122
O O16 0.314215 0.710943 0.657585
O O17 0.832027 0.796709 0.828109
O O18 0.870419 0.000000 0.915014
O O19 0.465472 0.000000 0.614683
O O20 0.220763 0.000000 0.230380
#
# Coordination Sequence:
#
# PCOD9178337 Si02
#       8
#     8   8   8   8   8   8   8   8
#     4  10  20  33  53  82 111 140 171 213 264 312
#     4   9  18  32  52  74 101 139 177 210 248 306
#     4  10  22  38  57  78 101 137 182 222 261 308
#     4   9  19  37  56  75 105 143 179 215 256 306
#     4  10  19  32  51  76 103 136 176 210 252 312
#     4  10  20  36  57  80 106 137 173 214 265 320
#     4  10  19  30  47  76 111 139 166 208 262 311
#     4  10  21  36  55  78 106 137 172 218 267 312
#
# _framework density 18.771487
#
# number of rings (size 3 to 8) (size 9 to 14) (size 15 to 20)
#    0.000    2.250    1.250    1.500    0.000    5.500 
#    0.000    3.125    0.000    0.000    0.000    0.000 
#    0.000    0.000    0.000    0.000    0.000    0.000 
#
# Total GULP energy -178623.091919 kJ/mol
# GULP energy per Si atom -5581.971622 kJ/mol
# Density = 1.872876 g / cm^3
# Si number density = 18.771487 Si / 1000 Ang^3
#
#
#
# Elastic Constant Matrix: (Units=GPa)
#
#
# Indices 1 2 3 4 5 6 
#
# 1 72.6039 36.5849 26.8854 0.0000 -25.1838 0.0000
# 2 36.5849 37.6909 30.1923 0.0000 -15.7566 0.0000
# 3 26.8854 30.1923 58.5371 0.0000 -26.6884 0.0000
# 4 0.0000 0.0000 0.0000 20.6122 0.0000 -9.6629
# 5 -25.1838 -15.7566 -26.6884 0.0000 30.5843 0.0000
# 6 0.0000 0.0000 0.0000 -9.6629 0.0000 25.0921
#
#
#
# Elastic Compliance Matrix: (Units=1/GPa)
#
#
# Indices 1 2 3 4 5 6 
#
# 1 0.032862 -0.031988 0.010345 0.000000 0.019607 0.000000
# 2 -0.031988 0.076793 -0.031367 0.000000 -0.014149 0.000000
# 3 0.010345 -0.031367 0.041562 0.000000 0.028626 0.000000
# 4 0.000000 0.000000 0.000000 0.059203 0.000000 0.022799
# 5 0.019607 -0.014149 0.028626 0.000000 0.066531 0.000000
# 6 0.000000 0.000000 0.000000 0.022799 0.000000 0.048633
#
#
# Mechanical properties :
#
#
# Convention : Reuss Voigt Hill
#
# Bulk Modulus (GPa) = 22.12607 39.57302 30.84955
# Shear Modulus (GPa) = 11.19393 20.26901 15.73147
#
# Velocity S-wave (km/s) = 2.44463 3.28956 2.89805
# Velocity P-wave (km/s) = 4.44758 5.96284 5.26006
#
# Compressibility (1/GPa) = 0.04519555
#
# Stress axis : x y z
#
# Youngs Moduli (GPa) = 30.43000 13.02204 24.06060
#
# Poissons Ratio (x) = 0.41655 -0.24890
# Poissons Ratio (y) = 0.97340 0.75472
# Poissons Ratio (z) = -0.31479 0.40847
#
# Static dielectric constant tensor:
#      x y z
#    x 1.603740 0.000000 0.007110 
#    y 0.000000 1.627940 0.000000 
#    z 0.007110 0.000000 1.695810 
# 
# From -- ./inp_files/243889.got.cif
#   From: 2010.05.17/outbox.cif.g08.bks.cpg/sg12_122_cif.got.tgz:243889.got - 2010.06.03 13:09:07.
