data_PCOD9178465
_publ_section_title
;
Structure prediction by ZEFSAII (Michael W. Deem and Ramdas Pophale) SiO2 
 PCOD9178465
Probable space group: C 2/M
;
_chemical_formula_sum "Si O2"
_cell_formula_units_Z 64
_cell_length_a 21.239501
_cell_length_b 8.403913
_cell_length_c 22.605479
_cell_angle_alpha 90.000000
_cell_angle_beta 118.052037
_cell_angle_gamma 90.000000
_cell_volume 3560.939081
_symmetry_space_group_name_H-M "C 2/M"
_symmetry_group_IT_number 12
_symmetry_cell_setting 'monoclinic'
loop_
_space_group_symop_operation_xyz
x,y,z
-x,y,-z
-x,-y,-z
x,-y,z
1/2+x,1/2+y,z
1/2-x,1/2+y,-z
1/2-x,1/2-y,-z
1/2+x,1/2-y,z
loop_
_atom_site_type_symbol
_atom_site_label
_atom_site_fract_x
_atom_site_fract_y
_atom_site_fract_z
Si Si1 0.581644 0.308430 0.539550
Si Si2 0.667920 0.690654 0.820263
Si Si3 0.209703 0.692161 0.040667
Si Si4 0.026810 0.692532 0.823562
Si Si5 0.330638 0.309758 0.535837
Si Si6 0.545661 0.194543 0.963986
Si Si7 0.595725 0.189784 0.673648
Si Si8 0.949442 0.308016 0.672832
O O1 0.500000 0.249181 0.500000
O O2 0.579848 0.500000 0.535786
O O3 0.627703 0.250236 0.504436
O O4 0.611009 0.259043 0.616190
O O5 0.666165 0.500000 0.816839
O O6 0.742336 0.742228 0.882287
O O7 0.603381 0.748220 0.833911
O O8 0.651146 0.758287 0.748324
O O9 0.208806 0.500000 0.039156
O O10 0.250000 0.750000 0.000000
O O11 0.127972 0.746444 0.005492
O O12 0.028950 0.500000 0.823559
O O13 0.016256 0.743882 0.886550
O O14 0.969164 0.742246 0.748530
O O15 0.330033 0.500000 0.534038
O O16 0.250000 0.250000 0.500000
O O17 0.377279 0.255950 0.612642
O O18 0.545111 0.000000 0.964256
O O19 0.500000 0.248351 0.000000
O O20 0.517320 0.244061 0.662525
O O21 0.593886 0.000000 0.669662
O O22 0.947255 0.500000 0.670679
#
# Coordination Sequence:
#
# PCOD9178465 Si02
#       8
#     8   8   8   8   8   8   8   8
#     4  10  20  36  57  82 110 139 176 222 273 318
#     4  10  19  30  48  77 109 139 175 222 273 322
#     4  10  19  31  51  77 104 136 176 220 267 317
#     4   9  17  31  52  77 104 137 178 222 265 319
#     4  11  23  38  57  80 110 146 179 222 269 320
#     4   9  17  31  52  77 105 138 178 222 265 315
#     4  10  20  33  54  82 110 142 179 224 270 320
#     4   9  18  32  51  78 107 137 178 221 267 320
#
# _framework density 17.972785999999999
#
# number of rings (size 3 to 8) (size 9 to 14) (size 15 to 20)
#    0.000    2.250    2.500    1.875    0.000    3.750 
#    0.000    1.250    0.000    6.000    0.000    0.000 
#    0.000    0.000    0.000    0.000    0.000    0.000 
#
# Total GULP energy -178506.844056 kJ/mol
# GULP energy per Si atom -5578.338877 kJ/mol
# Density = 1.793188 g / cm^3
# Si number density = 17.972786 Si / 1000 Ang^3
#
#
#
# Elastic Constant Matrix: (Units=GPa)
#
#
# Indices 1 2 3 4 5 6 
#
# 1 119.3132 16.4747 88.7743 0.0000 0.8658 0.0000
# 2 16.4747 6.5763 14.8009 0.0000 2.9052 0.0000
# 3 88.7743 14.8009 165.7910 0.0000 3.1414 0.0000
# 4 0.0000 0.0000 0.0000 22.7508 0.0000 1.1376
# 5 0.8658 2.9052 3.1414 0.0000 30.5316 0.0000
# 6 0.0000 0.0000 0.0000 1.1376 0.0000 20.2048
#
#
#
# Elastic Compliance Matrix: (Units=1/GPa)
#
#
# Indices 1 2 3 4 5 6 
#
# 1 0.017550 -0.030081 -0.006770 0.000000 0.003061 0.000000
# 2 -0.030081 0.250415 -0.005824 0.000000 -0.022376 0.000000
# 3 -0.006770 -0.005824 0.010182 0.000000 -0.000301 0.000000
# 4 0.000000 0.000000 0.000000 0.044079 0.000000 -0.002482
# 5 0.003061 -0.022376 -0.000301 0.000000 0.034826 0.000000
# 6 0.000000 0.000000 0.000000 -0.002482 0.000000 0.049633
#
#
# Mechanical properties :
#
#
# Convention : Reuss Voigt Hill
#
# Bulk Modulus (GPa) = 5.18683 59.08672 32.13677
# Shear Modulus (GPa) = 8.98795 26.13945 17.56370
#
# Velocity S-wave (km/s) = 2.23869 3.81778 3.12947
# Velocity P-wave (km/s) = 3.09427 7.23747 5.56577
#
# Compressibility (1/GPa) = 0.19279605
#
# Stress axis : x y z
#
# Youngs Moduli (GPa) = 56.98141 3.99337 98.21038
#
# Poissons Ratio (x) = 0.12013 0.66485
# Poissons Ratio (y) = 1.71407 0.57202
# Poissons Ratio (z) = 0.38574 0.02326
#
# Static dielectric constant tensor:
#      x y z
#    x 1.592060 0.000000 -0.000010 
#    y 0.000000 1.615900 0.000000 
#    z -0.000010 0.000000 1.632100 
# 
# From -- ./inp_files/320186.got.cif
#   From: 2010.05.17/outbox.cif.g08.bks.cpg/sg12_161_cif.got.tgz:320186.got - 2010.06.03 13:09:07.
