data_PCOD9178690
_publ_section_title
;
Structure prediction by ZEFSAII (Michael W. Deem and Ramdas Pophale) SiO2 
 PCOD9178690
Probable space group: C 2/M
;
_chemical_formula_sum "Si O2"
_cell_formula_units_Z 64
_cell_length_a 17.451868
_cell_length_b 21.748832
_cell_length_c 11.569234
_cell_angle_alpha 90.000000
_cell_angle_beta 54.549674
_cell_angle_gamma 90.000000
_cell_volume 3577.147277
_symmetry_space_group_name_H-M "C 2/M"
_symmetry_group_IT_number 12
_symmetry_cell_setting 'monoclinic'
loop_
_space_group_symop_operation_xyz
x,y,z
-x,y,-z
-x,-y,-z
x,-y,z
1/2+x,1/2+y,z
1/2-x,1/2+y,-z
1/2-x,1/2-y,-z
1/2+x,1/2-y,z
loop_
_atom_site_type_symbol
_atom_site_label
_atom_site_fract_x
_atom_site_fract_y
_atom_site_fract_z
Si Si1 0.002300 0.889533 0.130324
Si Si2 0.693836 0.429734 0.015770
Si Si3 0.155780 0.708320 0.723570
Si Si4 0.422241 0.262122 0.646957
Si Si5 0.695334 0.184336 0.421527
Si Si6 0.270439 0.829048 0.118996
Si Si7 0.952192 0.746590 0.878511
Si Si8 0.301846 0.573008 0.264378
O O1 0.893319 0.900616 0.253053
O O2 0.081296 0.923328 0.136154
O O3 0.036095 0.818766 0.102045
O O4 0.000000 0.913664 0.000000
O O5 0.723323 0.500000 0.006667
O O6 0.753165 0.383492 0.043169
O O7 0.698130 0.414611 0.874682
O O8 0.213455 0.772669 0.690175
O O9 0.172774 0.693772 0.575255
O O10 0.196135 0.658897 0.778865
O O11 0.046248 0.716229 0.845944
O O12 0.500000 0.296451 0.500000
O O13 0.383689 0.209591 0.595712
O O14 0.331900 0.299516 0.770694
O O15 0.464357 0.239476 0.730015
O O16 0.716323 0.113380 0.383751
O O17 0.351652 0.782285 0.001561
O O18 0.297717 0.500000 0.283284
#
# Coordination Sequence:
#
# PCOD9178690 Si02
#       8
#     8   8   8   8   8   8   8   8
#     4  10  19  30  53  84 116 145 182 235 289 343
#     4  10  21  37  54  80 117 153 193 239 283 338
#     4  10  21  35  56  82 117 149 185 238 294 336
#     4  11  22  35  55  84 119 150 180 234 296 342
#     4  10  20  36  54  83 115 153 190 228 286 350
#     4  11  23  35  58  86 113 151 198 232 286 347
#     4  12  20  35  57  91 117 146 185 244 292 341
#     4  10  20  35  58  83 115 155 193 234 285 345
#
# _framework density 17.891352000000001
#
# number of rings (size 3 to 8) (size 9 to 14) (size 15 to 20)
#    0.000    1.500    3.750    2.625    5.250    1.500 
#    0.000    0.625    0.000    3.000    0.000    0.000 
#    0.000    0.000    0.000    0.000    0.000    0.000 
#
# Total GULP energy -178203.601664 kJ/mol
# GULP energy per Si atom -5568.862552 kJ/mol
# Density = 1.785063 g / cm^3
# Si number density = 17.891352 Si / 1000 Ang^3
#
#
#
# Elastic Constant Matrix: (Units=GPa)
#
#
# Indices 1 2 3 4 5 6 
#
# 1 101.3166 41.2523 29.8246 0.0000 4.1250 0.0000
# 2 41.2523 83.1930 25.8407 0.0000 -2.9806 0.0000
# 3 29.8246 25.8407 82.0773 0.0000 -4.6950 0.0000
# 4 0.0000 0.0000 0.0000 15.1250 0.0000 4.6302
# 5 4.1250 -2.9806 -4.6950 0.0000 29.7682 0.0000
# 6 0.0000 0.0000 0.0000 4.6302 0.0000 20.5546
#
#
#
# Elastic Compliance Matrix: (Units=1/GPa)
#
#
# Indices 1 2 3 4 5 6 
#
# 1 0.013239 -0.005678 -0.003189 0.000000 -0.002906 0.000000
# 2 -0.005678 0.015772 -0.002792 0.000000 0.001926 0.000000
# 3 -0.003189 -0.002792 0.014360 0.000000 0.002427 0.000000
# 4 0.000000 0.000000 0.000000 0.071013 0.000000 -0.015997
# 5 -0.002906 0.001926 0.002427 0.000000 0.034571 0.000000
# 6 0.000000 0.000000 0.000000 -0.015997 0.000000 0.052254
#
#
# Mechanical properties :
#
#
# Convention : Reuss Voigt Hill
#
# Bulk Modulus (GPa) = 49.86932 51.15797 50.51365
# Shear Modulus (GPa) = 21.62502 24.40085 23.01294
#
# Velocity S-wave (km/s) = 3.48039 3.69702 3.59034
# Velocity P-wave (km/s) = 6.63963 6.84688 6.74405
#
# Compressibility (1/GPa) = 0.02005241
#
# Stress axis : x y z
#
# Youngs Moduli (GPa) = 75.53328 63.40282 69.63580
#
# Poissons Ratio (x) = 0.36002 0.22209
# Poissons Ratio (y) = 0.42890 0.19443
# Poissons Ratio (z) = 0.24090 0.17703
#
# Static dielectric constant tensor:
#      x y z
#    x 1.668820 0.000000 -0.021280 
#    y 0.000000 1.600550 0.000000 
#    z -0.021280 0.000000 1.669410 
# 
# From -- ./inp_files/159537.got.cif
#   From: 2010.05.17/outbox.cif.g08.bks.cpg/sg12_80_cif.got.tgz:159537.got - 2010.06.03 13:09:07.
