data_PCOD9178218
_publ_section_title
;
Structure prediction by ZEFSAII (Michael W. Deem and Ramdas Pophale) SiO2 
 PCOD9178218
Probable space group: C 2/M
;
_chemical_formula_sum "Si O2"
_cell_formula_units_Z 56
_cell_length_a 25.092401
_cell_length_b 7.998989
_cell_length_c 13.925549
_cell_angle_alpha 90.000000
_cell_angle_beta 55.544745
_cell_angle_gamma 90.000000
_cell_volume 2304.709882
_symmetry_space_group_name_H-M "C 2/M"
_symmetry_group_IT_number 12
_symmetry_cell_setting 'monoclinic'
loop_
_space_group_symop_operation_xyz
x,y,z
-x,y,-z
-x,-y,-z
x,-y,z
1/2+x,1/2+y,z
1/2-x,1/2+y,-z
1/2-x,1/2-y,-z
1/2+x,1/2-y,z
loop_
_atom_site_type_symbol
_atom_site_label
_atom_site_fract_x
_atom_site_fract_y
_atom_site_fract_z
Si Si1 0.891948 0.314256 0.041116
Si Si2 0.006102 0.201158 0.800422
Si Si3 0.149541 0.795568 0.618584
Si Si4 0.140759 0.801595 0.409258
Si Si5 0.062437 0.190481 0.320464
Si Si6 0.276694 0.693408 0.281387
Si Si7 0.321227 0.812791 0.908471
O O1 0.896153 0.500000 0.078448
O O2 0.843496 0.207474 0.154977
O O3 0.961905 0.253696 0.934762
O O4 0.855038 0.322319 0.977012
O O5 0.980599 0.266284 0.721765
O O6 0.080326 0.247915 0.735174
O O7 0.001348 0.000000 0.799295
O O8 0.145508 0.736278 0.513166
O O9 0.205658 0.732592 0.631817
O O10 0.154072 0.000000 0.612524
O O11 0.081764 0.733138 0.404258
O O12 0.214274 0.776847 0.297202
O O13 0.128850 0.000000 0.426352
O O14 0.133773 0.192806 0.199658
O O15 0.039437 0.000000 0.358140
O O16 0.259934 0.500000 0.307687
O O17 0.320995 0.000000 0.865540
O O18 0.250000 0.750000 0.000000
#
# Coordination Sequence:
#
# PCOD9178218 Si02
#       7
#     8   8   8   8   8   8   8
#     4  10  21  36  53  77 108 141 175 219 270 318
#     4   9  18  36  58  81 108 140 177 217 263 319
#     4   9  20  37  57  79 107 142 181 223 264 309
#     4  10  20  36  56  81 111 141 175 220 268 315
#     4   9  18  31  52  79 105 134 171 213 261 314
#     4  11  22  36  55  80 107 142 184 222 263 314
#     4  10  19  30  47  71 103 138 172 212 262 315
#
# _framework density 24.298069000000002
#
# number of rings (size 3 to 8) (size 9 to 14) (size 15 to 20)
#    0.000    2.286    0.000    2.571    0.000    6.857 
#    0.000    8.571    0.000    0.000    0.000    5.000 
#    0.000    0.000    0.000    0.000    0.000    0.000 
#
# Total GULP energy -156311.526848 kJ/mol
# GULP energy per Si atom -5582.554530 kJ/mol
# Density = 2.424277 g / cm^3
# Si number density = 24.298069 Si / 1000 Ang^3
#
#
#
# Elastic Constant Matrix: (Units=GPa)
#
#
# Indices 1 2 3 4 5 6 
#
# 1 125.6388 5.1171 8.0384 0.0000 9.6469 0.0000
# 2 5.1171 45.3517 0.0775 0.0000 -0.7299 0.0000
# 3 8.0384 0.0775 57.5122 0.0000 -5.0185 0.0000
# 4 0.0000 0.0000 0.0000 14.6708 0.0000 0.7099
# 5 9.6469 -0.7299 -5.0185 0.0000 37.9908 0.0000
# 6 0.0000 0.0000 0.0000 0.7099 0.0000 11.0757
#
#
#
# Elastic Compliance Matrix: (Units=1/GPa)
#
#
# Indices 1 2 3 4 5 6 
#
# 1 0.008262 -0.000967 -0.001354 0.000000 -0.002295 0.000000
# 2 -0.000967 0.022170 0.000166 0.000000 0.000693 0.000000
# 3 -0.001354 0.000166 0.017812 0.000000 0.002700 0.000000
# 4 0.000000 0.000000 0.000000 0.068375 0.000000 -0.004382
# 5 -0.002295 0.000693 0.002700 0.000000 0.027275 0.000000
# 6 0.000000 0.000000 0.000000 -0.004382 0.000000 0.090569
#
#
# Mechanical properties :
#
#
# Convention : Reuss Voigt Hill
#
# Bulk Modulus (GPa) = 22.76133 28.32984 25.54558
# Shear Modulus (GPa) = 19.73040 27.09877 23.41458
#
# Velocity S-wave (km/s) = 2.85268 3.34318 3.10762
# Velocity P-wave (km/s) = 4.49869 5.15627 4.83866
#
# Compressibility (1/GPa) = 0.04393417
#
# Stress axis : x y z
#
# Youngs Moduli (GPa) = 121.04274 45.10629 56.14131
#
# Poissons Ratio (x) = 0.04361 0.07600
# Poissons Ratio (y) = 0.11702 -0.00931
# Poissons Ratio (z) = 0.16385 -0.00748
#
# Static dielectric constant tensor:
#      x y z
#    x 1.944940 0.000000 0.030230 
#    y 0.000000 1.910160 0.000000 
#    z 0.030230 0.000000 2.029480 
# 
# From -- ./inp_files/238398.got.cif
#   From: 2010.05.17/outbox.cif.g08.bks.cpg/sg12_120_cif.got.tgz:238398.got - 2010.06.03 13:09:07.
