data_PCOD9178118
_publ_section_title
;
Structure prediction by ZEFSAII (Michael W. Deem and Ramdas Pophale) SiO2 
 PCOD9178118
Probable space group: C 2/M
;
_chemical_formula_sum "Si O2"
_cell_formula_units_Z 48
_cell_length_a 30.114997
_cell_length_b 7.253668
_cell_length_c 8.236056
_cell_angle_alpha 90.000000
_cell_angle_beta 76.315599
_cell_angle_gamma 90.000000
_cell_volume 1748.048018
_symmetry_space_group_name_H-M "C 2/M"
_symmetry_group_IT_number 12
_symmetry_cell_setting 'monoclinic'
loop_
_space_group_symop_operation_xyz
x,y,z
-x,y,-z
-x,-y,-z
x,-y,z
1/2+x,1/2+y,z
1/2-x,1/2+y,-z
1/2-x,1/2-y,-z
1/2+x,1/2-y,z
loop_
_atom_site_type_symbol
_atom_site_label
_atom_site_fract_x
_atom_site_fract_y
_atom_site_fract_z
Si Si1 0.819003 0.278020 0.884415
Si Si2 0.016204 0.224880 0.246613
Si Si3 0.344580 0.725121 0.372547
Si Si4 0.261946 0.287938 0.258321
Si Si5 0.931879 0.777033 0.125214
Si Si6 0.596340 0.711219 0.380221
O O1 0.818871 0.500000 0.884380
O O2 0.785492 0.208385 0.767500
O O3 0.870069 0.211900 0.805190
O O4 0.795097 0.216700 0.070835
O O5 0.047405 0.288414 0.369057
O O6 0.964571 0.278948 0.247917
O O7 0.016275 0.000000 0.255722
O O8 0.044303 0.280884 0.060935
O O9 0.342082 0.500000 0.379471
O O10 0.293941 0.790600 0.372651
O O11 0.380293 0.779660 0.200715
O O12 0.370871 0.791349 0.509963
O O13 0.252980 0.500000 0.302903
O O14 0.932494 0.000000 0.122048
O O15 0.587677 0.500000 0.437960
#
# Coordination Sequence:
#
# PCOD9178118 Si02
#       6
#     8   8   8   8   8   8
#     4  10  20  33  50  71  93 121 158 197 235 275
#     4   8  14  24  41  66  94 123 154 191 232 271
#     4   9  17  28  45  70  98 126 154 189 235 282
#     4   9  18  34  53  71  92 119 155 198 238 276
#     4   8  13  23  40  65  95 122 152 192 234 271
#     4  10  19  30  46  70  99 129 157 186 228 280
#
# _framework density 27.459198000000001
#
# number of rings (size 3 to 8) (size 9 to 14) (size 15 to 20)
#    0.000    3.000    0.000    2.500    0.000    4.667 
#    0.000    4.167    0.000    0.000    0.000   11.667 
#    0.000    0.000    0.000    0.000    0.000    0.000 
#
# Total GULP energy -134258.058172 kJ/mol
# GULP energy per Si atom -5594.085757 kJ/mol
# Density = 2.739670 g / cm^3
# Si number density = 27.459198 Si / 1000 Ang^3
#
#
#
# Elastic Constant Matrix: (Units=GPa)
#
#
# Indices 1 2 3 4 5 6 
#
# 1 210.2637 2.7059 32.6629 0.0000 31.1508 0.0000
# 2 2.7059 144.0310 5.1976 0.0000 4.6868 0.0000
# 3 32.6629 5.1976 80.8058 0.0000 19.7518 0.0000
# 4 0.0000 0.0000 0.0000 -3.7306 0.0000 -7.8713
# 5 31.1508 4.6868 19.7518 0.0000 65.1282 0.0000
# 6 0.0000 0.0000 0.0000 -7.8713 0.0000 -7.2404
#
#
#
# Elastic Compliance Matrix: (Units=1/GPa)
#
#
# Indices 1 2 3 4 5 6 
#
# 1 0.005315 0.000026 -0.001651 0.000000 -0.002043 0.000000
# 2 0.000026 0.006969 -0.000360 0.000000 -0.000405 0.000000
# 3 -0.001651 -0.000360 0.013897 0.000000 -0.003399 0.000000
# 4 0.000000 0.000000 0.000000 0.207189 0.000000 -0.225242
# 5 -0.002043 -0.000405 -0.003399 0.000000 0.017392 0.000000
# 6 0.000000 0.000000 0.000000 -0.225242 0.000000 0.106755
#
#
# Mechanical properties :
#
#
# Convention : Reuss Voigt Hill
#
# Bulk Modulus (GPa) = 45.02164 57.35924 51.19044
# Shear Modulus (GPa) = 13.55427 37.13372 25.34399
#
# Velocity S-wave (km/s) = 2.22415 3.68138 3.04134
# Velocity P-wave (km/s) = 4.79867 6.24535 5.56918
#
# Compressibility (1/GPa) = 0.02221154
#
# Stress axis : x y z
#
# Youngs Moduli (GPa) = 188.15691 143.50049 71.96045
#
# Poissons Ratio (x) = -0.00376 0.11877
# Poissons Ratio (y) = -0.00493 0.02590
# Poissons Ratio (z) = 0.31055 0.05164
#
# Static dielectric constant tensor:
#      x y z
#    x 2.065000 0.000000 0.037450 
#    y 0.000000 2.058340 0.000000 
#    z 0.037450 0.000000 2.211230 
# 
# From -- ./inp_files/108580.got.cif
#   From: 2010.05.17/outbox.cif.g08.bks.cpg/sg12_55_cif.got.tgz:108580.got - 2010.06.03 13:09:07.
