data_PCOD9178925
_publ_section_title
;
Structure prediction by ZEFSAII (Michael W. Deem and Ramdas Pophale) SiO2 
 PCOD9178925
Probable space group: C 2/M
;
_chemical_formula_sum "Si O2"
_cell_formula_units_Z 64
_cell_length_a 14.966775
_cell_length_b 7.430212
_cell_length_c 34.716014
_cell_angle_alpha 90.000000
_cell_angle_beta 127.879969
_cell_angle_gamma 90.000000
_cell_volume 3047.198387
_symmetry_space_group_name_H-M "C 2/M"
_symmetry_group_IT_number 12
_symmetry_cell_setting 'monoclinic'
loop_
_space_group_symop_operation_xyz
x,y,z
-x,y,-z
-x,-y,-z
x,-y,z
1/2+x,1/2+y,z
1/2-x,1/2+y,-z
1/2-x,1/2-y,-z
1/2+x,1/2-y,z
loop_
_atom_site_type_symbol
_atom_site_label
_atom_site_fract_x
_atom_site_fract_y
_atom_site_fract_z
Si Si1 0.093770 0.207653 0.553103
Si Si2 0.458807 0.291357 0.814220
Si Si3 0.495598 0.782663 0.260615
Si Si4 0.393527 0.784929 0.996540
Si Si5 0.292681 0.219621 0.263002
Si Si6 0.361423 0.283857 0.077200
Si Si7 0.048363 0.282518 0.627869
Si Si8 0.845129 0.280437 0.630348
O O1 0.051142 0.211936 0.585614
O O2 0.220074 0.286682 0.587904
O O3 0.000000 0.289099 0.500000
O O4 0.108354 0.000000 0.544397
O O5 0.444743 0.500000 0.821898
O O6 0.502750 0.284365 0.782220
O O7 0.332349 0.213072 0.779274
O O8 0.549709 0.213341 0.867947
O O9 0.384129 0.729347 0.254919
O O10 0.603075 0.723065 0.314802
O O11 0.497498 0.000000 0.259814
O O12 0.267712 0.715377 0.952429
O O13 0.391150 0.000000 0.990092
O O14 0.500000 0.715194 0.000000
O O15 0.403287 0.752840 0.044888
O O16 0.344371 0.276133 0.317845
O O17 0.290205 0.000000 0.263388
O O18 0.354731 0.500000 0.079686
O O19 0.050162 0.500000 0.626430
O O20 0.936782 0.230610 0.622272
O O21 0.842173 0.500000 0.630794
#
# Coordination Sequence:
#
# PCOD9178925 Si02
#       8
#     8   8   8   8   8   8   8   8
#     4  10  20  32  46  67  94 120 147 186 237 279
#     4  10  19  31  47  70 101 125 145 187 237 270
#     4   9  17  31  50  69  90 122 160 186 216 273
#     4   9  18  34  53  69  90 123 160 195 228 265
#     4   8  16  31  49  68  92 123 153 183 226 276
#     4   9  19  33  48  70  97 124 154 188 230 275
#     4   9  17  32  52  68  86 119 159 189 218 268
#     4   8  16  32  50  66  90 123 153 185 227 273
#
# _framework density 21.002897999999998
#
# number of rings (size 3 to 8) (size 9 to 14) (size 15 to 20)
#    0.000    3.000    0.000    2.250    0.000    2.500 
#    0.000    3.750    0.000    0.000    0.000    0.000 
#    0.000    0.000    0.000    0.000    0.000    0.000 
#
# Total GULP energy -178570.663728 kJ/mol
# GULP energy per Si atom -5580.333241 kJ/mol
# Density = 2.095509 g / cm^3
# Si number density = 21.002898 Si / 1000 Ang^3
#
#
#
# Elastic Constant Matrix: (Units=GPa)
#
#
# Indices 1 2 3 4 5 6 
#
# 1 279.7518 38.5707 69.3620 0.0001 218.7764 0.0000
# 2 38.5707 77.5592 -13.2363 0.0000 63.4896 0.0000
# 3 69.3620 -13.2363 225.4274 0.0000 -41.7884 0.0000
# 4 0.0001 0.0000 0.0000 -27.4888 0.0001 -36.0599
# 5 218.7764 63.4896 -41.7884 0.0001 306.9973 0.0000
# 6 0.0000 0.0000 0.0000 -36.0599 0.0000 -5.3692
#
#
#
# Elastic Compliance Matrix: (Units=1/GPa)
#
#
# Indices 1 2 3 4 5 6 
#
# 1 0.012693 0.000908 -0.005708 0.000000 -0.010010 0.000000
# 2 0.000908 0.015609 -0.000083 0.000000 -0.003886 0.000000
# 3 -0.005708 -0.000083 0.007124 0.000000 0.005055 0.000000
# 4 0.000000 0.000000 0.000000 0.004658 0.000000 -0.031282
# 5 -0.010010 -0.003886 0.005055 0.000000 0.011883 0.000000
# 6 0.000000 0.000000 0.000000 -0.031282 0.000000 0.023847
#
#
# Mechanical properties :
#
#
# Convention : Reuss Voigt Hill
#
# Bulk Modulus (GPa) = 38.97140 85.79237 62.38189
# Shear Modulus (GPa) = 53.11626 87.36400 70.24013
#
# Velocity S-wave (km/s) = 5.03437 6.45651 5.78927
# Velocity P-wave (km/s) = 7.23800 9.82438 8.62865
#
# Compressibility (1/GPa) = 0.02565984
#
# Stress axis : x y z
#
# Youngs Moduli (GPa) = 78.78471 64.06539 140.36402
#
# Poissons Ratio (x) = -0.05816 0.80116
# Poissons Ratio (y) = -0.07152 0.01169
# Poissons Ratio (z) = 0.44968 0.00533
#
# Static dielectric constant tensor:
#      x y z
#    x 1.737390 0.000000 0.039280 
#    y 0.000000 1.786510 0.000000 
#    z 0.039280 0.000000 1.733560 
# 
# From -- ./inp_files/359996.got.cif
#   From: 2010.05.17/outbox.cif.g08.bks.cpg/sg12_180_cif.got.tgz:359996.got - 2010.06.03 13:09:07.
