data_PCOD9178708
_publ_section_title
;
Structure prediction by ZEFSAII (Michael W. Deem and Ramdas Pophale) SiO2 
 PCOD9178708
Probable space group: C 2/M
;
_chemical_formula_sum "Si O2"
_cell_formula_units_Z 56
_cell_length_a 21.069856
_cell_length_b 8.851076
_cell_length_c 22.916554
_cell_angle_alpha 90.000000
_cell_angle_beta 131.728332
_cell_angle_gamma 90.000000
_cell_volume 3189.522810
_symmetry_space_group_name_H-M "C 2/M"
_symmetry_group_IT_number 12
_symmetry_cell_setting 'monoclinic'
loop_
_space_group_symop_operation_xyz
x,y,z
-x,y,-z
-x,-y,-z
x,-y,z
1/2+x,1/2+y,z
1/2-x,1/2+y,-z
1/2-x,1/2-y,-z
1/2+x,1/2-y,z
loop_
_atom_site_type_symbol
_atom_site_label
_atom_site_fract_x
_atom_site_fract_y
_atom_site_fract_z
Si Si1 0.551816 0.681958 0.730057
Si Si2 0.983373 0.817780 0.156621
Si Si3 0.180682 0.318521 0.001727
Si Si4 0.175867 0.818201 0.240412
Si Si5 0.244207 0.182034 0.405772
Si Si6 0.753931 0.182056 0.171913
Si Si7 0.613618 0.180431 0.418544
O O1 0.547123 0.500000 0.724104
O O2 0.531577 0.724628 0.784824
O O3 0.647369 0.729433 0.772796
O O4 0.479618 0.751255 0.644937
O O5 0.078157 0.776655 0.194481
O O6 0.974781 0.000000 0.147823
O O7 0.911068 0.741658 0.073467
O O8 0.183740 0.500000 0.999805
O O9 0.206084 0.273627 0.083005
O O10 0.250000 0.250000 0.000000
O O11 0.231302 0.773017 0.330963
O O12 0.210033 0.747587 0.202155
O O13 0.179250 0.000000 0.237897
O O14 0.334010 0.220472 0.490778
O O15 0.171089 0.255524 0.400841
O O16 0.233401 0.000000 0.402624
O O17 0.752667 0.000000 0.173955
O O18 0.609690 0.000000 0.412039
#
# Coordination Sequence:
#
# PCOD9178708 Si02
#       7
#     8   8   8   8   8   8   8
#     4  10  19  37  58  78 112 150 183 226 279 329
#     4  10  20  37  60  83 110 146 188 228 274 328
#     4  11  22  38  59  84 113 145 184 232 279 324
#     4  10  21  38  59  81 111 151 185 224 276 331
#     4   9  18  35  54  78 115 151 180 222 280 328
#     4  10  23  40  57  79 112 150 182 225 281 332
#     4  10  19  30  54  88 112 138 187 236 270 319
#
# _framework density 17.557485
#
# number of rings (size 3 to 8) (size 9 to 14) (size 15 to 20)
#    0.000    2.000    2.857    0.857    0.000    4.571 
#    0.000    3.571    0.000    4.286    0.000    0.000 
#    0.000    0.000    0.000    0.000    0.000    0.000 
#
# Total GULP energy -156295.942631 kJ/mol
# GULP energy per Si atom -5581.997951 kJ/mol
# Density = 1.751752 g / cm^3
# Si number density = 17.557485 Si / 1000 Ang^3
#
#
#
# Elastic Constant Matrix: (Units=GPa)
#
#
# Indices 1 2 3 4 5 6 
#
# 1 135.5163 33.7872 90.5428 0.0000 -5.7455 0.0000
# 2 33.7872 17.8421 43.9634 0.0000 1.1519 0.0000
# 3 90.5428 43.9634 178.1848 0.0000 2.4932 0.0000
# 4 0.0000 0.0000 0.0000 32.8596 0.0000 2.1926
# 5 -5.7455 1.1519 2.4932 0.0000 30.7524 0.0000
# 6 0.0000 0.0000 0.0000 2.1926 0.0000 32.1036
#
#
#
# Elastic Compliance Matrix: (Units=1/GPa)
#
#
# Indices 1 2 3 4 5 6 
#
# 1 0.014547 -0.024094 -0.001500 0.000000 0.003742 0.000000
# 2 -0.024094 0.183057 -0.032801 0.000000 -0.008699 0.000000
# 3 -0.001500 -0.032801 0.014470 0.000000 -0.000225 0.000000
# 4 0.000000 0.000000 0.000000 0.030572 0.000000 -0.002088
# 5 0.003742 -0.008699 -0.000225 0.000000 0.033561 0.000000
# 6 0.000000 0.000000 0.000000 -0.002088 0.000000 0.031292
#
#
# Mechanical properties :
#
#
# Convention : Reuss Voigt Hill
#
# Bulk Modulus (GPa) = 10.49474 74.23668 42.36571
# Shear Modulus (GPa) = 10.96374 30.02642 20.49508
#
# Velocity S-wave (km/s) = 2.50161 4.13992 3.42030
# Velocity P-wave (km/s) = 3.78608 8.07624 6.30714
#
# Compressibility (1/GPa) = 0.09528586
#
# Stress axis : x y z
#
# Youngs Moduli (GPa) = 68.74355 5.46278 69.10737
#
# Poissons Ratio (x) = 0.13162 0.10363
# Poissons Ratio (y) = 1.65628 2.26678
# Poissons Ratio (z) = 0.10309 0.17918
#
# Static dielectric constant tensor:
#      x y z
#    x 1.564500 0.000000 0.008460 
#    y 0.000000 1.592450 0.000000 
#    z 0.008460 0.000000 1.603020 
# 
# From -- ./inp_files/320222.got.cif
#   From: 2010.05.17/outbox.cif.g08.bks.cpg/sg12_161_cif.got.tgz:320222.got - 2010.06.03 13:09:07.
