data_PCOD9178270
_publ_section_title
;
Structure prediction by ZEFSAII (Michael W. Deem and Ramdas Pophale) SiO2 
 PCOD9178270
Probable space group: C 2/M
;
_chemical_formula_sum "Si O2"
_cell_formula_units_Z 56
_cell_length_a 18.028961
_cell_length_b 13.577073
_cell_length_c 14.399362
_cell_angle_alpha 90.000000
_cell_angle_beta 92.518118
_cell_angle_gamma 90.000000
_cell_volume 3521.279802
_symmetry_space_group_name_H-M "C 2/M"
_symmetry_group_IT_number 12
_symmetry_cell_setting 'monoclinic'
loop_
_space_group_symop_operation_xyz
x,y,z
-x,y,-z
-x,-y,-z
x,-y,z
1/2+x,1/2+y,z
1/2-x,1/2+y,-z
1/2-x,1/2-y,-z
1/2+x,1/2-y,z
loop_
_atom_site_type_symbol
_atom_site_label
_atom_site_fract_x
_atom_site_fract_y
_atom_site_fract_z
Si Si1 0.708441 0.283257 0.590858
Si Si2 0.053172 0.109946 0.592222
Si Si3 0.084404 0.380331 0.898664
Si Si4 0.911924 0.619532 0.894663
Si Si5 0.156147 0.618294 0.301507
Si Si6 0.136111 0.612707 0.705364
Si Si7 0.008263 0.311090 0.388525
O O1 0.750000 0.250000 0.500000
O O2 0.634726 0.349108 0.569953
O O3 0.766187 0.343000 0.656739
O O4 0.682285 0.185989 0.644057
O O5 0.015399 0.200743 0.644887
O O6 0.000000 0.101728 0.500000
O O7 0.058255 0.000000 0.634166
O O8 0.084732 0.500000 0.897318
O O9 0.131221 0.350621 0.811530
O O10 0.997890 0.350915 0.883423
O O11 0.110065 0.348285 0.002580
O O12 0.911651 0.500000 0.895693
O O13 0.862078 0.650023 0.805173
O O14 0.153511 0.500000 0.305985
O O15 0.090152 0.660879 0.361767
O O16 0.162386 0.500000 0.703347
O O17 0.051819 0.617617 0.661841
O O18 0.000000 0.316182 0.500000
#
# Coordination Sequence:
#
# PCOD9178270 Si02
#       7
#     8   8   8   8   8   8   8
#     4  11  23  34  45  69 101 131 168 204 239 286
#     4   9  18  34  51  63  85 126 167 200 233 276
#     4   8  13  26  47  73  97 120 153 193 241 295
#     4   8  14  25  47  74  98 120 148 194 248 296
#     4  11  20  32  49  72 100 127 155 201 256 292
#     4  10  19  32  49  69  96 129 162 199 243 288
#     4  10  19  30  47  72  95 119 161 204 237 284
#
# _framework density 15.903309
#
# number of rings (size 3 to 8) (size 9 to 14) (size 15 to 20)
#    0.000    2.429    1.429    4.286    0.000    3.429 
#    0.000    1.429    0.000    0.000    0.000    0.000 
#    0.000   10.286    0.000    0.000    0.000    0.000 
#
# Total GULP energy -155898.600359 kJ/mol
# GULP energy per Si atom -5567.807156 kJ/mol
# Density = 1.586711 g / cm^3
# Si number density = 15.903309 Si / 1000 Ang^3
#
#
#
# Elastic Constant Matrix: (Units=GPa)
#
#
# Indices 1 2 3 4 5 6 
#
# 1 95.3753 31.6450 43.2980 0.0000 6.0491 0.0000
# 2 31.6450 75.0185 26.9646 0.0000 -4.4993 0.0000
# 3 43.2980 26.9646 114.6057 0.0000 -2.0339 0.0000
# 4 0.0000 0.0000 0.0000 12.1951 0.0000 1.5542
# 5 6.0491 -4.4993 -2.0339 0.0000 26.3595 0.0000
# 6 0.0000 0.0000 0.0000 1.5542 0.0000 13.6014
#
#
#
# Elastic Compliance Matrix: (Units=1/GPa)
#
#
# Indices 1 2 3 4 5 6 
#
# 1 0.014324 -0.004735 -0.004376 0.000000 -0.004433 0.000000
# 2 -0.004735 0.016258 -0.001970 0.000000 0.003710 0.000000
# 3 -0.004376 -0.001970 0.010869 0.000000 0.001507 0.000000
# 4 0.000000 0.000000 0.000000 0.083212 0.000000 -0.009509
# 5 -0.004433 0.003710 0.001507 0.000000 0.039704 0.000000
# 6 0.000000 0.000000 0.000000 -0.009509 0.000000 0.074608
#
#
# Mechanical properties :
#
#
# Convention : Reuss Voigt Hill
#
# Bulk Modulus (GPa) = 51.84629 54.31274 53.07952
# Shear Modulus (GPa) = 18.68681 22.63731 20.66206
#
# Velocity S-wave (km/s) = 3.43158 3.77694 3.60839
# Velocity P-wave (km/s) = 6.95505 7.29701 7.12808
#
# Compressibility (1/GPa) = 0.01928778
#
# Stress axis : x y z
#
# Youngs Moduli (GPa) = 69.81394 61.50731 92.00291
#
# Poissons Ratio (x) = 0.29124 0.40261
# Poissons Ratio (y) = 0.33058 0.18129
# Poissons Ratio (z) = 0.30551 0.12120
#
# Static dielectric constant tensor:
#      x y z
#    x 1.521480 0.000000 0.007940 
#    y 0.000000 1.550700 0.000000 
#    z 0.007940 0.000000 1.561450 
# 
# From -- ./inp_files/224335.got.cif
#   From: 2010.05.17/outbox.cif.g08.bks.cpg/sg12_113_cif.got.tgz:224335.got - 2010.06.03 13:09:07.
