data_PCOD9178360
_publ_section_title
;
Structure prediction by ZEFSAII (Michael W. Deem and Ramdas Pophale) SiO2 
 PCOD9178360
Probable space group: C 2/M
;
_chemical_formula_sum "Si O2"
_cell_formula_units_Z 64
_cell_length_a 24.728249
_cell_length_b 7.532989
_cell_length_c 15.925437
_cell_angle_alpha 90.000000
_cell_angle_beta 77.916212
_cell_angle_gamma 90.000000
_cell_volume 2900.821264
_symmetry_space_group_name_H-M "C 2/M"
_symmetry_group_IT_number 12
_symmetry_cell_setting 'monoclinic'
loop_
_space_group_symop_operation_xyz
x,y,z
-x,y,-z
-x,-y,-z
x,-y,z
1/2+x,1/2+y,z
1/2-x,1/2+y,-z
1/2-x,1/2-y,-z
1/2+x,1/2-y,z
loop_
_atom_site_type_symbol
_atom_site_label
_atom_site_fract_x
_atom_site_fract_y
_atom_site_fract_z
Si Si1 0.461296 0.782841 0.937703
Si Si2 0.546983 0.201316 0.239869
Si Si3 0.668669 0.205208 0.455879
Si Si4 0.948998 0.281686 0.575358
Si Si5 0.784109 0.285928 0.200020
Si Si6 0.791685 0.790948 0.381675
Si Si7 0.328708 0.705908 0.825863
Si Si8 0.334401 0.214458 0.008087
O O1 0.475693 0.718306 0.839288
O O2 0.463209 0.000000 0.934279
O O3 0.500000 0.722849 0.000000
O O4 0.398543 0.734004 0.978895
O O5 0.539498 0.281669 0.333695
O O6 0.613429 0.196767 0.203646
O O7 0.525579 0.000000 0.251464
O O8 0.611511 0.279094 0.437320
O O9 0.728594 0.283185 0.410144
O O10 0.670774 0.212485 0.556719
O O11 0.669978 0.000000 0.428678
O O12 0.947349 0.500000 0.576830
O O13 0.000000 0.230131 0.500000
O O14 0.783218 0.500000 0.196306
O O15 0.810286 0.235805 0.280081
O O16 0.720383 0.224220 0.216092
O O17 0.812245 0.222875 0.104899
O O18 0.789286 0.000000 0.399781
O O19 0.339165 0.500000 0.803221
O O20 0.308398 0.718061 0.929336
O O21 0.330423 0.000000 0.007271
#
# Coordination Sequence:
#
# PCOD9178360 Si02
#       8
#     8   8   8   8   8   8   8   8
#     4   8  14  27  47  71  95 122 160 201 240 288
#     4   9  17  31  51  73  99 129 166 209 250 298
#     4   9  18  34  53  73 101 131 166 214 260 304
#     4   9  17  31  52  80 104 126 168 222 269 304
#     4  10  20  32  46  72 104 131 163 204 250 298
#     4  10  20  33  52  75 100 135 173 206 249 309
#     4  10  19  30  48  72 100 132 167 203 243 298
#     4   9  18  32  48  69  99 130 163 205 250 295
#
# _framework density 22.062719000000001
#
# number of rings (size 3 to 8) (size 9 to 14) (size 15 to 20)
#    0.000    2.750    0.000    2.625    0.000    3.000 
#    2.250    0.625    0.000    7.500    0.000    0.000 
#    0.000    0.000    0.000    0.000    0.000    0.000 
#
# Total GULP energy -178556.891824 kJ/mol
# GULP energy per Si atom -5579.902870 kJ/mol
# Density = 2.201250 g / cm^3
# Si number density = 22.062719 Si / 1000 Ang^3
#
#
#
# Elastic Constant Matrix: (Units=GPa)
#
#
# Indices 1 2 3 4 5 6 
#
# 1 70.7675 2.1752 44.8334 0.0000 29.1320 0.0000
# 2 2.1752 61.7501 -5.8366 0.0000 -2.3666 0.0000
# 3 44.8334 -5.8366 165.6031 0.0000 28.4238 0.0000
# 4 0.0000 0.0000 0.0000 9.6517 0.0000 5.4468
# 5 29.1320 -2.3666 28.4238 0.0000 32.4964 0.0000
# 6 0.0000 0.0000 0.0000 5.4468 0.0000 5.5025
#
#
#
# Elastic Compliance Matrix: (Units=1/GPa)
#
#
# Indices 1 2 3 4 5 6 
#
# 1 0.024031 -0.001882 -0.003355 0.000000 -0.018746 0.000000
# 2 -0.001882 0.016414 0.000698 0.000000 0.002272 0.000000
# 3 -0.003355 0.000698 0.007585 0.000000 -0.003576 0.000000
# 4 0.000000 0.000000 0.000000 0.234737 0.000000 -0.232360
# 5 -0.018746 0.002272 -0.003576 0.000000 0.050871 0.000000
# 6 0.000000 0.000000 0.000000 -0.232360 0.000000 0.411743
#
#
# Mechanical properties :
#
#
# Convention : Reuss Voigt Hill
#
# Bulk Modulus (GPa) = 25.67242 42.27383 33.97312
# Shear Modulus (GPa) = 6.51515 26.66003 16.58759
#
# Velocity S-wave (km/s) = 1.72030 3.47994 2.74494
# Velocity P-wave (km/s) = 3.95060 5.94550 5.04759
#
# Compressibility (1/GPa) = 0.03895231
#
# Stress axis : x y z
#
# Youngs Moduli (GPa) = 41.61346 60.92492 131.83600
#
# Poissons Ratio (x) = 0.11466 0.44226
# Poissons Ratio (y) = 0.07832 -0.09203
# Poissons Ratio (z) = 0.13960 -0.04253
#
# Static dielectric constant tensor:
#      x y z
#    x 1.788270 0.000000 0.015350 
#    y 0.000000 1.836580 0.000000 
#    z 0.015350 0.000000 1.840580 
# 
# From -- ./inp_files/243785.got.cif
#   From: 2010.05.17/outbox.cif.g08.bks.cpg/sg12_122_cif.got.tgz:243785.got - 2010.06.03 13:09:07.
