data_PCOD9178415
_publ_section_title
;
Structure prediction by ZEFSAII (Michael W. Deem and Ramdas Pophale) SiO2 
 PCOD9178415
Probable space group: C 2/M
;
_chemical_formula_sum "Si O2"
_cell_formula_units_Z 56
_cell_length_a 26.021501
_cell_length_b 9.395523
_cell_length_c 14.664931
_cell_angle_alpha 90.000000
_cell_angle_beta 116.973481
_cell_angle_gamma 90.000000
_cell_volume 3195.336305
_symmetry_space_group_name_H-M "C 2/M"
_symmetry_group_IT_number 12
_symmetry_cell_setting 'monoclinic'
loop_
_space_group_symop_operation_xyz
x,y,z
-x,y,-z
-x,-y,-z
x,-y,z
1/2+x,1/2+y,z
1/2-x,1/2+y,-z
1/2-x,1/2-y,-z
1/2+x,1/2-y,z
loop_
_atom_site_type_symbol
_atom_site_label
_atom_site_fract_x
_atom_site_fract_y
_atom_site_fract_z
Si Si1 0.741334 0.670356 0.778922
Si Si2 0.593952 0.169619 0.226605
Si Si3 0.280144 0.830880 0.606246
Si Si4 0.375111 0.661696 0.207825
Si Si5 0.293024 0.338990 0.972683
Si Si6 0.566449 0.660998 0.025581
Si Si7 0.035588 0.330925 0.820436
O O1 0.748253 0.500000 0.799894
O O2 0.750260 0.700364 0.679847
O O3 0.677471 0.707299 0.767416
O O4 0.789766 0.754475 0.875669
O O5 0.651834 0.202961 0.328772
O O6 0.594192 0.260123 0.134015
O O7 0.533349 0.197300 0.229685
O O8 0.595001 0.000000 0.205506
O O9 0.250000 0.750000 0.500000
O O10 0.275352 0.000000 0.587826
O O11 0.391548 0.500000 0.246144
O O12 0.430417 0.760915 0.237012
O O13 0.346797 0.655428 0.083934
O O14 0.273238 0.500000 0.941245
O O15 0.250000 0.250000 0.000000
O O16 0.590290 0.500000 0.028481
O O17 0.500000 0.643125 0.000000
O O18 0.561458 0.762631 0.933937
O O19 0.044455 0.500000 0.828065
#
# Coordination Sequence:
#
# PCOD9178415 Si02
#       7
#     8   8   8   8   8   8   8
#     4   9  19  35  53  74 102 135 172 217 264 310
#     4   9  19  35  52  74 103 135 172 215 261 309
#     4  10  22  40  60  80 101 129 171 224 276 317
#     4   9  18  31  47  73 108 140 172 210 250 300
#     4   9  17  29  46  71 104 140 176 211 249 300
#     4   9  17  29  46  71 104 140 175 209 248 299
#     4  10  19  30  48  74 107 143 175 206 248 307
#
# _framework density 17.525542000000002
#
# number of rings (size 3 to 8) (size 9 to 14) (size 15 to 20)
#    0.000    2.714    0.000    2.143    2.000    6.286 
#    0.000    0.000    0.000    0.857    0.000    6.000 
#    0.000    0.000    0.000    0.000    0.000    0.000 
#
# Total GULP energy -155897.224041 kJ/mol
# GULP energy per Si atom -5567.758001 kJ/mol
# Density = 1.748565 g / cm^3
# Si number density = 17.525542 Si / 1000 Ang^3
#
#
#
# Elastic Constant Matrix: (Units=GPa)
#
#
# Indices 1 2 3 4 5 6 
#
# 1 103.1247 48.1561 31.4830 0.0000 -0.2578 0.0000
# 2 48.1561 66.2677 38.3693 0.0000 2.3859 0.0000
# 3 31.4830 38.3693 96.7543 0.0000 3.2320 0.0000
# 4 0.0000 0.0000 0.0000 26.0689 0.0000 -0.6834
# 5 -0.2578 2.3859 3.2320 0.0000 18.2171 0.0000
# 6 0.0000 0.0000 0.0000 -0.6834 0.0000 24.0639
#
#
#
# Elastic Compliance Matrix: (Units=1/GPa)
#
#
# Indices 1 2 3 4 5 6 
#
# 1 0.014767 -0.010355 -0.000755 0.000000 0.001699 0.000000
# 2 -0.010355 0.026875 -0.007208 0.000000 -0.002387 0.000000
# 3 -0.000755 -0.007208 0.013489 0.000000 -0.001460 0.000000
# 4 0.000000 0.000000 0.000000 0.038388 0.000000 0.001090
# 5 0.001699 -0.002387 -0.001460 0.000000 0.055489 0.000000
# 6 0.000000 0.000000 0.000000 0.001090 0.000000 0.041587
#
#
# Mechanical properties :
#
#
# Convention : Reuss Voigt Hill
#
# Bulk Modulus (GPa) = 54.07457 55.79593 54.93525
# Shear Modulus (GPa) = 21.42266 23.54588 22.48427
#
# Velocity S-wave (km/s) = 3.50003 3.66938 3.58570
# Velocity P-wave (km/s) = 6.87425 7.06106 6.96828
#
# Compressibility (1/GPa) = 0.01849298
#
# Stress axis : x y z
#
# Youngs Moduli (GPa) = 67.71676 37.20943 74.13641
#
# Poissons Ratio (x) = 0.38531 0.05601
# Poissons Ratio (y) = 0.70121 0.53441
# Poissons Ratio (z) = 0.05116 0.26822
#
# Static dielectric constant tensor:
#      x y z
#    x 1.665650 0.000000 0.014210 
#    y 0.000000 1.615600 0.000000 
#    z 0.014210 0.000000 1.559380 
# 
# From -- ./inp_files/244326.got.cif
#   From: 2010.05.17/outbox.cif.g08.bks.cpg/sg12_123_cif.got.tgz:244326.got - 2010.06.03 13:09:07.
