data_PCOD9178227
_publ_section_title
;
Structure prediction by ZEFSAII (Michael W. Deem and Ramdas Pophale) SiO2 
 PCOD9178227
Probable space group: C 2/M
;
_chemical_formula_sum "Si O2"
_cell_formula_units_Z 64
_cell_length_a 19.834329
_cell_length_b 8.165035
_cell_length_c 26.263872
_cell_angle_alpha 90.000000
_cell_angle_beta 124.203109
_cell_angle_gamma 90.000000
_cell_volume 3517.759309
_symmetry_space_group_name_H-M "C 2/M"
_symmetry_group_IT_number 12
_symmetry_cell_setting 'monoclinic'
loop_
_space_group_symop_operation_xyz
x,y,z
-x,y,-z
-x,-y,-z
x,-y,z
1/2+x,1/2+y,z
1/2-x,1/2+y,-z
1/2-x,1/2-y,-z
1/2+x,1/2-y,z
loop_
_atom_site_type_symbol
_atom_site_label
_atom_site_fract_x
_atom_site_fract_y
_atom_site_fract_z
Si Si1 0.508320 0.304347 0.946453
Si Si2 0.306593 0.799297 0.679067
Si Si3 0.036171 0.694798 0.318870
Si Si4 0.661546 0.303547 0.944895
Si Si5 0.525375 0.697789 0.430078
Si Si6 0.098079 0.690411 0.186726
Si Si7 0.447438 0.694540 0.189352
Si Si8 0.370836 0.699779 0.431295
O O1 0.517622 0.500000 0.953788
O O2 0.588966 0.241647 0.951201
O O3 0.430022 0.271622 0.877618
O O4 0.500000 0.238087 0.000000
O O5 0.379707 0.747256 0.672385
O O6 0.329297 0.745753 0.746284
O O7 0.218816 0.743784 0.622267
O O8 0.306864 0.000000 0.679765
O O9 0.033192 0.500000 0.312383
O O10 0.034219 0.740271 0.376881
O O11 0.961237 0.766730 0.254154
O O12 0.660414 0.500000 0.946776
O O13 0.634500 0.258575 0.875722
O O14 0.750000 0.250000 0.000000
O O15 0.526019 0.500000 0.429215
O O16 0.440183 0.748602 0.420198
O O17 0.596761 0.750960 0.499333
O O18 0.112297 0.500000 0.182538
O O19 0.019782 0.712333 0.190492
O O20 0.459956 0.500000 0.186996
O O21 0.369449 0.500000 0.430918
#
# Coordination Sequence:
#
# PCOD9178227 Si02
#       8
#     8   8   8   8   8   8   8   8
#     4   9  18  33  50  67  92 127 162 193 226 270
#     4   8  15  28  46  68  93 119 150 191 234 274
#     4  10  19  30  47  71  96 121 150 191 239 276
#     4   9  18  31  49  71  93 121 154 190 232 273
#     4   9  17  30  50  70  89 122 161 191 224 272
#     4   9  16  27  46  71  95 120 150 189 239 282
#     4   9  17  31  49  68  92 124 159 189 223 273
#     4   8  15  30  49  67  90 123 160 190 222 274
#
# _framework density 18.1934
#
# number of rings (size 3 to 8) (size 9 to 14) (size 15 to 20)
#    0.000    3.125    0.000    3.375    0.000    3.250 
#    0.000    2.500    0.000   12.750    0.000    0.000 
#    0.000    0.000    0.000    0.000    0.000    0.000 
#
# Total GULP energy -178148.560818 kJ/mol
# GULP energy per Si atom -5567.142526 kJ/mol
# Density = 1.815199 g / cm^3
# Si number density = 18.193400 Si / 1000 Ang^3
#
#
#
# Elastic Constant Matrix: (Units=GPa)
#
#
# Indices 1 2 3 4 5 6 
#
# 1 60.0681 10.7313 88.4994 0.0000 -1.9607 0.0000
# 2 10.7313 11.0120 13.5150 0.0000 2.0890 0.0000
# 3 88.4994 13.5150 215.0996 0.0000 3.0017 0.0000
# 4 0.0000 0.0000 0.0000 25.2205 0.0000 -5.4794
# 5 -1.9607 2.0890 3.0017 0.0000 32.5677 0.0000
# 6 0.0000 0.0000 0.0000 -5.4794 0.0000 11.4550
#
#
#
# Elastic Compliance Matrix: (Units=1/GPa)
#
#
# Indices 1 2 3 4 5 6 
#
# 1 0.048812 -0.026016 -0.018536 0.000000 0.006316 0.000000
# 2 -0.026016 0.113351 0.003710 0.000000 -0.009179 0.000000
# 3 -0.018536 0.003710 0.012077 0.000000 -0.002467 0.000000
# 4 0.000000 0.000000 0.000000 0.044249 0.000000 0.021166
# 5 0.006316 -0.009179 -0.002467 0.000000 0.031902 0.000000
# 6 0.000000 0.000000 0.000000 0.021166 0.000000 0.097423
#
#
# Mechanical properties :
#
#
# Convention : Reuss Voigt Hill
#
# Bulk Modulus (GPa) = 10.80441 56.85234 33.82838
# Shear Modulus (GPa) = 10.86129 25.41090 18.13610
#
# Velocity S-wave (km/s) = 2.44599 3.74131 3.16072
# Velocity P-wave (km/s) = 3.73212 7.06965 5.65282
#
# Compressibility (1/GPa) = 0.09255476
#
# Stress axis : x y z
#
# Youngs Moduli (GPa) = 20.48686 8.82213 82.80327
#
# Poissons Ratio (x) = 0.22952 1.53487
# Poissons Ratio (y) = 0.53299 -0.30721
# Poissons Ratio (z) = 0.37975 -0.03273
#
# Static dielectric constant tensor:
#      x y z
#    x 1.611580 0.000000 -0.000440 
#    y 0.000000 1.641970 0.000000 
#    z -0.000440 0.000000 1.660600 
# 
# From -- ./inp_files/365205.got.cif
#   From: 2010.05.17/outbox.cif.g08.bks.cpg/sg12_183_cif.got.tgz:365205.got - 2010.06.03 13:09:07.
