data_PCOD9178135
_publ_section_title
;
Structure prediction by ZEFSAII (Michael W. Deem and Ramdas Pophale) SiO2 
 PCOD9178135
Probable space group: C 2/M
;
_chemical_formula_sum "Si O2"
_cell_formula_units_Z 64
_cell_length_a 32.443742
_cell_length_b 16.821055
_cell_length_c 6.722710
_cell_angle_alpha 90.000000
_cell_angle_beta 84.928928
_cell_angle_gamma 90.000000
_cell_volume 3654.477607
_symmetry_space_group_name_H-M "C 2/M"
_symmetry_group_IT_number 12
_symmetry_cell_setting 'monoclinic'
loop_
_space_group_symop_operation_xyz
x,y,z
-x,y,-z
-x,-y,-z
x,-y,z
1/2+x,1/2+y,z
1/2-x,1/2+y,-z
1/2-x,1/2-y,-z
1/2+x,1/2-y,z
loop_
_atom_site_type_symbol
_atom_site_label
_atom_site_fract_x
_atom_site_fract_y
_atom_site_fract_z
Si Si1 0.958930 0.086710 0.651105
Si Si2 0.676957 0.907607 0.839890
Si Si3 0.454606 0.716119 0.988997
Si Si4 0.761432 0.405449 0.847836
Si Si5 0.175629 0.167702 0.778896
Si Si6 0.370210 0.210127 0.903918
Si Si7 0.910358 0.908606 0.290116
Si Si8 0.320155 0.200524 0.542301
O O1 0.959970 0.155311 0.806818
O O2 0.920466 0.095242 0.519026
O O3 0.000000 0.088373 0.500000
O O4 0.957151 0.000000 0.749585
O O5 0.670850 0.860887 0.638862
O O6 0.673671 0.000000 0.804664
O O7 0.720330 0.892133 0.937625
O O8 0.643535 0.875878 0.011795
O O9 0.417211 0.773164 0.943366
O O10 0.500000 0.752843 0.000000
O O11 0.438432 0.658911 0.173664
O O12 0.768234 0.500000 0.798350
O O13 0.713730 0.382420 0.846132
O O14 0.785923 0.343946 0.693043
O O15 0.136774 0.113032 0.737330
O O16 0.189393 0.219348 0.578985
O O17 0.158117 0.228176 0.955311
O O18 0.357835 0.217359 0.678477
O O19 0.919966 0.000000 0.225237
#
# Coordination Sequence:
#
# PCOD9178135 Si02
#       8
#     8   8   8   8   8   8   8   8
#     4  10  19  30  46  71  98 131 175 214 242 277
#     4   9  19  36  56  77 100 125 162 207 250 299
#     4  11  20  33  52  73  99 132 169 208 249 294
#     4  10  20  33  51  76 102 133 173 209 243 289
#     4  10  20  33  49  72 106 139 168 205 249 292
#     4   9  21  35  51  77 102 130 165 203 250 299
#     4  10  20  33  48  69 101 140 175 208 247 287
#     4  10  19  34  54  75 100 131 168 207 248 295
#
# _framework density 17.512764000000001
#
# number of rings (size 3 to 8) (size 9 to 14) (size 15 to 20)
#    0.000    2.125    1.250    2.250    0.000    6.500 
#    0.000    0.000    0.000    6.375    0.000    0.875 
#    0.000    0.000    0.000    0.000    0.000    0.000 
#
# Total GULP energy -178328.623037 kJ/mol
# GULP energy per Si atom -5572.769470 kJ/mol
# Density = 1.747290 g / cm^3
# Si number density = 17.512764 Si / 1000 Ang^3
#
#
#
# Elastic Constant Matrix: (Units=GPa)
#
#
# Indices 1 2 3 4 5 6 
#
# 1 111.9002 22.0287 15.4957 0.0000 22.0531 0.0000
# 2 22.0287 26.3558 10.7460 0.0000 16.5539 0.0000
# 3 15.4957 10.7460 67.3985 0.0000 18.9627 0.0000
# 4 0.0000 0.0000 0.0000 22.0716 0.0000 3.3927
# 5 22.0531 16.5539 18.9627 0.0000 22.6544 0.0000
# 6 0.0000 0.0000 0.0000 3.3927 0.0000 16.0287
#
#
#
# Elastic Compliance Matrix: (Units=1/GPa)
#
#
# Indices 1 2 3 4 5 6 
#
# 1 0.011373 -0.004635 0.000374 0.000000 -0.007998 0.000000
# 2 -0.004635 0.072953 0.004137 0.000000 -0.052258 0.000000
# 3 0.000374 0.004137 0.019679 0.000000 -0.019860 0.000000
# 4 0.000000 0.000000 0.000000 0.046831 0.000000 -0.009912
# 5 -0.007998 -0.052258 -0.019860 0.000000 0.106736 0.000000
# 6 0.000000 0.000000 0.000000 -0.009912 0.000000 0.064486
#
#
# Mechanical properties :
#
#
# Convention : Reuss Voigt Hill
#
# Bulk Modulus (GPa) = 9.63789 33.57726 21.60758
# Shear Modulus (GPa) = 14.00985 22.64322 18.32653
#
# Velocity S-wave (km/s) = 2.83146 3.59967 3.23842
# Velocity P-wave (km/s) = 4.02552 6.04082 5.13305
#
# Compressibility (1/GPa) = 0.10375711
#
# Stress axis : x y z
#
# Youngs Moduli (GPa) = 87.92437 13.70750 50.81566
#
# Poissons Ratio (x) = 0.06354 -0.01902
# Poissons Ratio (y) = 0.40757 -0.21023
# Poissons Ratio (z) = -0.03292 -0.05671
#
# Static dielectric constant tensor:
#      x y z
#    x 1.632940 0.000000 0.002500 
#    y 0.000000 -1.688570 0.000000 
#    z 0.002500 0.000000 1.611020 
# 
# From -- ./inp_files/32049.got.cif
#   From: 2010.05.17/outbox.cif.g08.bks.cpg/sg12_17_cif.got.tgz:32049.got - 2010.06.03 13:09:07.
