data_PCOD9178626
_publ_section_title
;
Structure prediction by ZEFSAII (Michael W. Deem and Ramdas Pophale) SiO2 
 PCOD9178626
Probable space group: C 2/M
;
_chemical_formula_sum "Si O2"
_cell_formula_units_Z 48
_cell_length_a 15.382914
_cell_length_b 14.295858
_cell_length_c 27.912005
_cell_angle_alpha 90.000000
_cell_angle_beta 19.231428
_cell_angle_gamma 90.000000
_cell_volume 2021.823190
_symmetry_space_group_name_H-M "C 2/M"
_symmetry_group_IT_number 12
_symmetry_cell_setting 'monoclinic'
loop_
_space_group_symop_operation_xyz
x,y,z
-x,y,-z
-x,-y,-z
x,-y,z
1/2+x,1/2+y,z
1/2-x,1/2+y,-z
1/2-x,1/2-y,-z
1/2+x,1/2-y,z
loop_
_atom_site_type_symbol
_atom_site_label
_atom_site_fract_x
_atom_site_fract_y
_atom_site_fract_z
Si Si1 0.597322 0.113279 0.842048
Si Si2 0.073714 0.204412 0.640780
Si Si3 0.214580 0.889643 0.957841
Si Si4 0.371908 0.611898 0.843534
Si Si5 0.912387 0.393716 0.601640
Si Si6 0.639152 0.890703 0.229984
O O1 0.875978 0.162704 0.704339
O O2 0.427159 0.147082 0.884856
O O3 0.635053 0.000000 0.819797
O O4 0.406668 0.131464 0.986994
O O5 0.941874 0.166099 0.759030
O O6 0.075610 0.315654 0.644138
O O7 0.369458 0.166477 0.485812
O O8 0.312999 0.882557 0.852029
O O9 0.194314 0.000000 0.979774
O O10 0.910921 0.858003 0.114426
O O11 0.386726 0.500000 0.825870
O O12 0.606227 0.633124 0.759446
O O13 0.930602 0.500000 0.609711
O O14 0.000000 0.393598 0.500000
O O15 0.589326 0.000000 0.265799
#
# Coordination Sequence:
#
# PCOD9178626 Si02
#       6
#     8   8   8   8   8   8
#     4  10  19  30  50  84 112 126 158 217 267 300
#     4  11  19  28  51  81 104 133 169 216 255 294
#     4   8  17  34  50  68 101 141 173 208 255 305
#     4   9  18  31  48  76 113 142 162 193 256 328
#     4   8  15  30  49  71 105 145 169 189 245 328
#     4   9  19  35  51  69  99 142 183 210 247 302
#
# _framework density 23.740947999999999
#
# number of rings (size 3 to 8) (size 9 to 14) (size 15 to 20)
#    0.000    2.833    0.000    4.000    4.667    2.000 
#    0.000    0.000    0.000    5.500    4.333    0.000 
#    0.000    0.000    0.000    3.167    0.000    0.000 
#
# Total GULP energy -134254.835074 kJ/mol
# GULP energy per Si atom -5593.951461 kJ/mol
# Density = 2.368691 g / cm^3
# Si number density = 23.740948 Si / 1000 Ang^3
#
#
#
# Elastic Constant Matrix: (Units=GPa)
#
#
# Indices 1 2 3 4 5 6 
#
# 1 116.4167 30.6521 23.8834 -2.9826 -12.4433 2.5001
# 2 30.6521 108.4930 56.8709 2.6049 -17.8381 -2.1935
# 3 23.8834 56.8709 100.7457 -6.9013 -31.4606 5.6534
# 4 -2.9826 2.6049 -6.9013 -826.9765 0.4160 706.4419
# 5 -12.4433 -17.8381 -31.4606 0.4160 40.5943 -0.4937
# 6 2.5001 -2.1935 5.6534 706.4419 -0.4937 -587.4779
#
#
#
# Elastic Compliance Matrix: (Units=1/GPa)
#
#
# Indices 1 2 3 4 5 6 
#
# 1 0.009425 -0.002114 -0.000569 -0.000004 0.001520 0.000037
# 2 -0.002114 0.013557 -0.007239 -0.000013 -0.000303 -0.000145
# 3 -0.000569 -0.007239 0.017270 0.000148 0.010032 0.000361
# 4 -0.000004 -0.000013 0.000148 0.044409 0.000302 0.053403
# 5 0.001520 -0.000303 0.010032 0.000302 0.032744 0.000440
# 6 0.000037 -0.000145 0.000361 0.053403 0.000440 0.062519
#
#
# Mechanical properties :
#
#
# Convention : Reuss Voigt Hill
#
# Bulk Modulus (GPa) = 49.00026 60.94093 54.97060
# Shear Modulus (GPa) = 24.20515 -260.48876 -118.14180
#
# Velocity S-wave (km/s) = 3.19651 -10.48616 -7.06193
# Velocity P-wave (km/s) = 5.85730 10.99490 6.57951
#
# Compressibility (1/GPa) = 0.02040805
#
# Stress axis : x y z
#
# Youngs Moduli (GPa) = 106.10487 73.76503 57.90495
#
# Poissons Ratio (x) = 0.15593 0.03293
# Poissons Ratio (y) = 0.22429 0.41916
# Poissons Ratio (z) = 0.06034 0.53397
#
# Static dielectric constant tensor:
#      x y z
#    x 1.939480 0.000040 0.001760 
#    y 0.000040 1.885570 0.000110 
#    z 0.001760 0.000110 1.851380 
# 
# From -- ./inp_files/376577.got.cif
#   From: 2010.05.17/outbox.cif.g08.bks.cpg/sg12_189_cif.got.tgz:376577.got - 2010.06.03 13:09:07.
