data_PCOD9178102
_publ_section_title
;
Structure prediction by ZEFSAII (Michael W. Deem and Ramdas Pophale) SiO2 
 PCOD9178102
Probable space group: C 2/M
;
_chemical_formula_sum "Si O2"
_cell_formula_units_Z 64
_cell_length_a 25.050438
_cell_length_b 17.116055
_cell_length_c 18.879911
_cell_angle_alpha 90.000000
_cell_angle_beta 158.324145
_cell_angle_gamma 90.000000
_cell_volume 2989.944540
_symmetry_space_group_name_H-M "C 2/M"
_symmetry_group_IT_number 12
_symmetry_cell_setting 'monoclinic'
loop_
_space_group_symop_operation_xyz
x,y,z
-x,y,-z
-x,-y,-z
x,-y,z
1/2+x,1/2+y,z
1/2-x,1/2+y,-z
1/2-x,1/2-y,-z
1/2+x,1/2-y,z
loop_
_atom_site_type_symbol
_atom_site_label
_atom_site_fract_x
_atom_site_fract_y
_atom_site_fract_z
Si Si1 0.751050 0.088080 0.648209
Si Si2 0.706140 0.754895 0.279722
Si Si3 0.116861 0.088893 0.346974
Si Si4 0.076897 0.638232 0.219775
Si Si5 0.207263 0.585821 0.191913
Si Si6 0.347192 0.416056 0.210770
Si Si7 0.488679 0.705574 0.289095
Si Si8 0.553568 0.868518 0.786527
O O1 0.801050 0.164976 0.753912
O O2 0.830729 0.097363 0.669816
O O3 0.576738 0.093270 0.418939
O O4 0.783443 0.000000 0.714550
O O5 0.583939 0.781125 0.184636
O O6 0.721002 0.831610 0.249014
O O7 0.853228 0.757085 0.506013
O O8 0.263933 0.102248 0.574369
O O9 0.002538 0.151264 0.236649
O O10 0.066314 0.000000 0.294299
O O11 0.016420 0.648967 0.223256
O O12 0.961581 0.584962 0.038196
O O13 0.240062 0.500000 0.264611
O O14 0.299773 0.593033 0.233709
O O15 0.419204 0.500000 0.291869
O O16 0.447508 0.349553 0.303303
O O17 0.198812 0.415276 0.982155
O O18 0.396014 0.783955 0.177775
#
# Coordination Sequence:
#
# PCOD9178102 Si02
#       8
#     8   8   8   8   8   8   8   8
#     4   9  17  31  51  74  98 123 155 197 241 283
#     4  10  20  31  47  71  97 129 162 195 236 281
#     4   9  16  27  47  75 102 124 148 186 240 293
#     4   9  17  30  49  71  97 123 155 194 235 284
#     4  10  21  34  48  68  96 131 167 199 231 274
#     4  10  20  33  48  68  95 128 162 194 232 281
#     4  10  19  30  46  70 100 128 154 189 235 285
#     4   9  17  31  50  72  94 122 156 194 238 284
#
# _framework density 21.405080000000002
#
# number of rings (size 3 to 8) (size 9 to 14) (size 15 to 20)
#    0.000    2.500    0.000    2.625    0.000   10.000 
#    0.000    1.250    0.000    1.500    0.000   16.625 
#    0.000    0.000    0.000    0.000    0.000    0.000 
#
# Total GULP energy -178261.420345 kJ/mol
# GULP energy per Si atom -5570.669386 kJ/mol
# Density = 2.135636 g / cm^3
# Si number density = 21.405080 Si / 1000 Ang^3
#
#
#
# Elastic Constant Matrix: (Units=GPa)
#
#
# Indices 1 2 3 4 5 6 
#
# 1 23.8834 23.2203 0.9539 -0.0011 4.2337 -0.0020
# 2 23.2203 193.7187 13.8908 -0.0013 -6.1295 -0.0023
# 3 0.9539 13.8908 30.4315 0.0004 4.3014 0.0018
# 4 -0.0011 -0.0013 0.0004 134.1103 -0.0002 227.1758
# 5 4.2337 -6.1295 4.3014 -0.0002 17.7886 0.0003
# 6 -0.0020 -0.0023 0.0018 227.1758 0.0003 460.3054
#
#
#
# Elastic Compliance Matrix: (Units=1/GPa)
#
#
# Indices 1 2 3 4 5 6 
#
# 1 0.051157 -0.006888 0.003724 0.000000 -0.015449 0.000000
# 2 -0.006888 0.006375 -0.003351 0.000000 0.004646 0.000000
# 3 0.003724 -0.003351 0.035785 0.000001 -0.010694 0.000000
# 4 0.000000 0.000000 0.000001 0.045472 0.000001 -0.022442
# 5 -0.015449 0.004646 -0.010694 0.000001 0.064079 0.000000
# 6 0.000000 0.000000 0.000000 -0.022442 0.000000 0.013248
#
#
# Mechanical properties :
#
#
# Convention : Reuss Voigt Hill
#
# Bulk Modulus (GPa) = 12.45523 36.01818 24.23670
# Shear Modulus (GPa) = 19.53831 136.43877 77.98854
#
# Velocity S-wave (km/s) = 3.02452 7.99248 6.04266
# Velocity P-wave (km/s) = 4.24598 10.10131 7.74806
#
# Compressibility (1/GPa) = 0.08028759
#
# Stress axis : x y z
#
# Youngs Moduli (GPa) = 19.54785 156.86237 27.94470
#
# Poissons Ratio (x) = 1.08044 -0.10407
# Poissons Ratio (y) = 0.13464 0.09364
# Poissons Ratio (z) = -0.07280 0.52561
#
# Static dielectric constant tensor:
#      x y z
#    x 1.774570 0.000000 -0.014800 
#    y 0.000000 1.855260 0.000000 
#    z -0.014800 0.000000 1.820160 
# 
# From -- ./inp_files/328673.got.cif
#   From: 2010.05.17/outbox.cif.g08.bks.cpg/sg12_165_cif.got.tgz:328673.got - 2010.06.03 13:09:07.
