data_PCOD9178637
_publ_section_title
;
Structure prediction by ZEFSAII (Michael W. Deem and Ramdas Pophale) SiO2 
 PCOD9178637
Probable space group: C 2/M
;
_chemical_formula_sum "Si O2"
_cell_formula_units_Z 52
_cell_length_a 22.403102
_cell_length_b 8.465660
_cell_length_c 11.169506
_cell_angle_alpha 90.000000
_cell_angle_beta 83.237341
_cell_angle_gamma 90.000000
_cell_volume 2103.636822
_symmetry_space_group_name_H-M "C 2/M"
_symmetry_group_IT_number 12
_symmetry_cell_setting 'monoclinic'
loop_
_space_group_symop_operation_xyz
x,y,z
-x,y,-z
-x,-y,-z
x,-y,z
1/2+x,1/2+y,z
1/2-x,1/2+y,-z
1/2-x,1/2-y,-z
1/2+x,1/2-y,z
loop_
_atom_site_type_symbol
_atom_site_label
_atom_site_fract_x
_atom_site_fract_y
_atom_site_fract_z
Si Si1 0.422266 0.827732 0.758749
Si Si2 0.067400 0.000000 0.341346
Si Si3 0.133504 0.000000 0.552139
Si Si4 0.736129 0.316219 0.803942
Si Si5 0.943503 0.666588 0.203734
Si Si6 0.175183 0.325712 0.601809
Si Si7 0.836091 0.317878 0.975896
Si Si8 0.052115 0.000000 0.796519
O O1 0.402733 0.667177 0.700343
O O2 0.494173 0.836507 0.737665
O O3 0.401034 0.812498 0.900989
O O4 0.398681 0.000000 0.721370
O O5 0.074286 0.000000 0.482531
O O6 0.006298 0.000000 0.277537
O O7 0.169359 0.164200 0.527490
O O8 0.109444 0.000000 0.694208
O O9 0.740536 0.500000 0.769971
O O10 0.724762 0.209889 0.691619
O O11 0.792372 0.274615 0.875029
O O12 0.680262 0.287482 0.907671
O O13 0.939426 0.500000 0.136273
O O14 0.888228 0.667538 0.309800
O O15 0.946845 0.833994 0.136592
O O16 0.183676 0.500000 0.544369
O O17 0.821488 0.500000 0.011654
#
# Coordination Sequence:
#
# PCOD9178637 Si02
#       8
#     8   4   4   8   8   8   8   4
#     4   9  18  34  52  75 104 136 167 212 253 301
#     4  10  19  30  51  77 102 137 175 207 254 301
#     4  10  19  32  49  75 106 135 175 213 246 299
#     4  10  19  33  54  80 104 128 167 214 256 303
#     4   8  15  28  48  71 100 133 170 200 247 303
#     4  10  19  33  52  75 103 140 169 208 255 300
#     4   9  19  34  54  79 103 129 166 212 258 304
#     4   8  15  28  46  70 101 132 165 214 254 286
#
# _framework density 24.719097999999999
#
# number of rings (size 3 to 8) (size 9 to 14) (size 15 to 20)
#    0.000    2.769    0.769    0.692    1.077    1.231 
#    0.000    0.769    0.000   14.769    0.000    0.000 
#    0.000    0.000    0.000    0.000    0.000    0.000 
#
# Total GULP energy -144997.526063 kJ/mol
# GULP energy per Si atom -5576.827925 kJ/mol
# Density = 2.466284 g / cm^3
# Si number density = 24.719098 Si / 1000 Ang^3
#
#
#
# Elastic Constant Matrix: (Units=GPa)
#
#
# Indices 1 2 3 4 5 6 
#
# 1 49.2199 16.8942 39.6363 0.0000 9.3700 0.0000
# 2 16.8942 247.2595 29.1913 0.0000 6.0818 0.0000
# 3 39.6363 29.1913 49.6174 0.0000 14.7577 0.0000
# 4 0.0000 0.0000 0.0000 -49.7562 0.0000 -49.9697
# 5 9.3700 6.0818 14.7577 0.0000 33.0536 0.0000
# 6 0.0000 0.0000 0.0000 -49.9697 0.0000 -25.9725
#
#
#
# Elastic Compliance Matrix: (Units=1/GPa)
#
#
# Indices 1 2 3 4 5 6 
#
# 1 0.058273 0.001685 -0.049050 0.000000 0.005071 0.000000
# 2 0.001685 0.004399 -0.004095 0.000000 0.000541 0.000000
# 3 -0.049050 -0.004095 0.066174 0.000000 -0.014887 0.000000
# 4 0.000000 0.000000 0.000000 0.021560 0.000000 -0.041480
# 5 0.005071 0.000541 -0.014887 0.000000 0.035364 0.000000
# 6 0.000000 0.000000 0.000000 -0.041480 0.000000 0.041302
#
#
# Mechanical properties :
#
#
# Convention : Reuss Voigt Hill
#
# Bulk Modulus (GPa) = 38.57136 57.50447 48.03792
# Shear Modulus (GPa) = 14.76520 8.82331 11.79426
#
# Velocity S-wave (km/s) = 2.44666 1.89134 2.18670
# Velocity P-wave (km/s) = 4.85997 5.29936 5.08441
#
# Compressibility (1/GPa) = 0.02592597
#
# Stress axis : x y z
#
# Youngs Moduli (GPa) = 17.16070 227.30530 15.11165
#
# Poissons Ratio (x) = -0.38290 0.74122
# Poissons Ratio (y) = -0.02891 0.06188
# Poissons Ratio (z) = 0.84173 0.93080
#
# Static dielectric constant tensor:
#      x y z
#    x 2.021340 0.000000 0.004810 
#    y 0.000000 2.018830 0.000000 
#    z 0.004810 0.000000 1.884850 
# 
# From -- ./inp_files/180045.got.cif
#   From: 2010.05.17/outbox.cif.g08.bks.cpg/sg12_91_cif.got.tgz:180045.got - 2010.06.03 13:09:07.
