data_PCOD9178217
_publ_section_title
;
Structure prediction by ZEFSAII (Michael W. Deem and Ramdas Pophale) SiO2 
 PCOD9178217
Probable space group: C 2/M
;
_chemical_formula_sum "Si O2"
_cell_formula_units_Z 58
_cell_length_a 23.825657
_cell_length_b 7.649660
_cell_length_c 17.148535
_cell_angle_alpha 90.000000
_cell_angle_beta 101.711149
_cell_angle_gamma 90.000000
_cell_volume 3060.399022
_symmetry_space_group_name_H-M "C 2/M"
_symmetry_group_IT_number 12
_symmetry_cell_setting 'monoclinic'
loop_
_space_group_symop_operation_xyz
x,y,z
-x,y,-z
-x,-y,-z
x,-y,z
1/2+x,1/2+y,z
1/2-x,1/2+y,-z
1/2-x,1/2-y,-z
1/2+x,1/2-y,z
loop_
_atom_site_type_symbol
_atom_site_label
_atom_site_fract_x
_atom_site_fract_y
_atom_site_fract_z
Si Si1 0.188744 0.789434 0.755406
Si Si2 0.558697 0.711896 0.736477
Si Si3 0.500000 0.500000 0.000000
Si Si4 0.805050 0.791334 0.067153
Si Si5 0.973620 0.214526 0.575406
Si Si6 0.155076 0.202493 0.451817
Si Si7 0.564995 0.196568 0.918492
Si Si8 0.263833 0.204248 0.392608
O O1 0.122373 0.736581 0.726303
O O2 0.205606 0.731713 0.846863
O O3 0.227307 0.722743 0.696255
O O4 0.191081 0.000000 0.753319
O O5 0.557749 0.500000 0.740404
O O6 0.512208 0.767911 0.659796
O O7 0.550885 0.778200 0.822304
O O8 0.465892 0.346027 0.040830
O O9 0.865684 0.715269 0.055950
O O10 0.813317 0.000000 0.071753
O O11 0.750000 0.750000 0.000000
O O12 0.908367 0.277977 0.565554
O O13 0.000000 0.269612 0.500000
O O14 0.973430 0.000000 0.574158
O O15 0.203788 0.277747 0.408251
O O16 0.183916 0.210443 0.545280
O O17 0.148092 0.000000 0.426986
O O18 0.548848 0.000000 0.937174
O O19 0.265654 0.000000 0.414335
#
# Coordination Sequence:
#
# PCOD9178217 Si02
#       8
#     8   8   2   8   8   8   8   8
#     4   9  18  32  54  78 105 142 181 227 279 342
#     4   9  17  34  56  81 114 146 190 245 295 343
#     4  12  22  44  64  90 126 156 210 254 292 386
#     4  10  20  38  61  89 122 154 194 249 306 362
#     4   9  16  28  52  79 103 142 192 237 284 340
#     4   9  18  32  48  70 100 138 182 224 279 337
#     4  11  22  39  65  93 122 163 204 251 310 369
#     4  10  19  30  47  71 102 138 179 226 276 336
#
# _framework density 18.951778000000001
#
# number of rings (size 3 to 8) (size 9 to 14) (size 15 to 20)
#    0.000    2.345    1.379    2.690    0.000    5.517 
#    0.000    2.069    3.034    3.310    0.000    0.000 
#    0.000    0.000    0.000    0.000    0.000    0.000 
#
# Total GULP energy -161531.809148 kJ/mol
# GULP energy per Si atom -5570.062384 kJ/mol
# Density = 1.890864 g / cm^3
# Si number density = 18.951778 Si / 1000 Ang^3
#
#
#
# Elastic Constant Matrix: (Units=GPa)
#
#
# Indices 1 2 3 4 5 6 
#
# 1 129.5028 23.7770 99.0057 0.0000 7.6308 0.0000
# 2 23.7770 84.2457 21.7811 0.0000 -7.5896 0.0000
# 3 99.0057 21.7811 115.7704 0.0000 -0.3360 0.0000
# 4 0.0000 0.0000 0.0000 14.3664 0.0000 4.3809
# 5 7.6308 -7.5896 -0.3360 0.0000 35.8517 0.0000
# 6 0.0000 0.0000 0.0000 4.3809 0.0000 11.2278
#
#
#
# Elastic Compliance Matrix: (Units=1/GPa)
#
#
# Indices 1 2 3 4 5 6 
#
# 1 0.023532 -0.002040 -0.019757 0.000000 -0.005626 0.000000
# 2 -0.002040 0.012905 -0.000674 0.000000 0.003160 0.000000
# 3 -0.019757 -0.000674 0.025673 0.000000 0.004303 0.000000
# 4 0.000000 0.000000 0.000000 0.079007 0.000000 -0.030827
# 5 -0.005626 0.003160 0.004303 0.000000 0.029799 0.000000
# 6 0.000000 0.000000 0.000000 -0.030827 0.000000 0.101093
#
#
# Mechanical properties :
#
#
# Convention : Reuss Voigt Hill
#
# Bulk Modulus (GPa) = 58.24904 68.73850 63.49377
# Shear Modulus (GPa) = 15.49546 24.61952 20.05749
#
# Velocity S-wave (km/s) = 2.86252 3.60816 3.25675
# Velocity P-wave (km/s) = 6.45968 7.32853 6.90778
#
# Compressibility (1/GPa) = 0.01716767
#
# Stress axis : x y z
#
# Youngs Moduli (GPa) = 42.49468 77.49054 38.95129
#
# Poissons Ratio (x) = 0.15811 0.76956
# Poissons Ratio (y) = 0.08671 0.02625
# Poissons Ratio (z) = 0.83957 0.05221
#
# Static dielectric constant tensor:
#      x y z
#    x 1.652970 0.000000 0.000390 
#    y 0.000000 1.718250 0.000000 
#    z 0.000390 0.000000 1.632550 
# 
# From -- ./inp_files/237761.got.cif
#   From: 2010.05.17/outbox.cif.g08.bks.cpg/sg12_119_cif.got.tgz:237761.got - 2010.06.03 13:09:07.
