data_PCOD9178666
_publ_section_title
;
Structure prediction by ZEFSAII (Michael W. Deem and Ramdas Pophale) SiO2 
 PCOD9178666
Probable space group: C 2/M
;
_chemical_formula_sum "Si O2"
_cell_formula_units_Z 56
_cell_length_a 11.211774
_cell_length_b 14.112344
_cell_length_c 21.993984
_cell_angle_alpha 90.000000
_cell_angle_beta 140.554763
_cell_angle_gamma 90.000000
_cell_volume 2210.975226
_symmetry_space_group_name_H-M "C 2/M"
_symmetry_group_IT_number 12
_symmetry_cell_setting 'monoclinic'
loop_
_space_group_symop_operation_xyz
x,y,z
-x,y,-z
-x,-y,-z
x,-y,z
1/2+x,1/2+y,z
1/2-x,1/2+y,-z
1/2-x,1/2-y,-z
1/2+x,1/2-y,z
loop_
_atom_site_type_symbol
_atom_site_label
_atom_site_fract_x
_atom_site_fract_y
_atom_site_fract_z
Si Si1 0.851238 0.107831 0.394033
Si Si2 0.252743 0.887151 0.040578
Si Si3 0.545799 0.395407 0.297668
Si Si4 0.473931 0.807335 0.671519
Si Si5 0.331294 0.890152 0.797191
Si Si6 0.150663 0.112643 0.142538
Si Si7 0.880066 0.605673 0.514135
O O1 0.650806 0.109564 0.348471
O O2 0.796531 0.150907 0.307438
O O3 0.000000 0.152026 0.500000
O O4 0.917261 0.000000 0.410064
O O5 0.462258 0.851290 0.109470
O O6 0.208101 0.873658 0.094393
O O7 0.254725 0.000000 0.030149
O O8 0.063927 0.855139 0.932104
O O9 0.597411 0.500000 0.288857
O O10 0.577787 0.281873 0.304942
O O11 0.319400 0.395122 0.208476
O O12 0.665391 0.401452 0.407700
O O13 0.693262 0.830574 0.760071
O O14 0.414601 0.815341 0.577911
O O15 0.364460 0.000000 0.791262
O O16 0.163259 0.000000 0.159397
O O17 0.935693 0.500000 0.558305
O O18 0.000000 0.622172 0.500000
#
# Coordination Sequence:
#
# PCOD9178666 Si02
#       7
#     8   8   8   8   8   8   8
#     4  10  19  30  51  86 119 139 165 218 282 340
#     4   8  14  27  50  80 118 145 159 203 285 355
#     4  10  23  39  53  75 108 147 191 231 269 316
#     4  12  21  33  56  83 110 143 187 227 265 321
#     4   9  16  31  51  74 108 145 172 210 282 340
#     4   9  16  28  50  86 118 137 165 213 278 346
#     4  10  22  40  57  75 106 147 185 224 269 321
#
# _framework density 25.328191
#
# number of rings (size 3 to 8) (size 9 to 14) (size 15 to 20)
#    0.000    2.286    1.429    3.429    0.000    4.000 
#    0.000    0.714    0.000    0.429    0.000    2.000 
#    0.000    0.714    0.000    0.000    0.000    0.000 
#
# Total GULP energy -155873.351013 kJ/mol
# GULP energy per Si atom -5566.905393 kJ/mol
# Density = 2.527054 g / cm^3
# Si number density = 25.328191 Si / 1000 Ang^3
#
#
#
# Elastic Constant Matrix: (Units=GPa)
#
#
# Indices 1 2 3 4 5 6 
#
# 1 49.0987 14.1448 10.7949 0.0000 23.7985 0.0000
# 2 14.1448 125.2972 21.5797 0.0001 2.2769 -0.0001
# 3 10.7949 21.5797 132.7452 0.0004 49.5899 -0.0001
# 4 0.0000 0.0001 0.0004 -112.1430 0.0000 56.9479
# 5 23.7985 2.2769 49.5899 0.0000 35.3187 0.0000
# 6 0.0000 -0.0001 -0.0001 56.9479 0.0000 -20.3049
#
#
#
# Elastic Compliance Matrix: (Units=1/GPa)
#
#
# Indices 1 2 3 4 5 6 
#
# 1 0.045705 -0.007325 0.018513 0.000000 -0.056318 0.000000
# 2 -0.007325 0.009521 -0.005398 0.000000 0.011901 0.000000
# 3 0.018513 -0.005398 0.024050 0.000000 -0.045895 0.000000
# 4 0.000000 0.000000 0.000000 0.021019 0.000000 0.058952
# 5 -0.056318 0.011901 -0.045895 0.000000 0.129934 0.000000
# 6 0.000000 0.000000 0.000000 0.058952 0.000000 0.116089
#
#
# Mechanical properties :
#
#
# Convention : Reuss Voigt Hill
#
# Bulk Modulus (GPa) = 11.00635 44.46443 27.73539
# Shear Modulus (GPa) = 13.69774 -2.05107 5.82333
#
# Velocity S-wave (km/s) = 2.32805 -0.90086 1.51794
# Velocity P-wave (km/s) = 3.40314 4.06342 3.74785
#
# Compressibility (1/GPa) = 0.09085665
#
# Stress axis : x y z
#
# Youngs Moduli (GPa) = 21.87952 105.02727 41.57973
#
# Poissons Ratio (x) = 0.76929 -0.76976
# Poissons Ratio (y) = 0.16026 0.22445
# Poissons Ratio (z) = -0.40505 0.56694
#
# Static dielectric constant tensor:
#      x y z
#    x 2.117780 0.000000 -0.000240 
#    y 0.000000 2.101510 0.000000 
#    z -0.000240 0.000000 2.029890 
# 
# From -- ./inp_files/376402.got.cif
#   From: 2010.05.17/outbox.cif.g08.bks.cpg/sg12_189_cif.got.tgz:376402.got - 2010.06.03 13:09:07.
