data_PCOD9178726
_publ_section_title
;
Structure prediction by ZEFSAII (Michael W. Deem and Ramdas Pophale) SiO2 
 PCOD9178726
Probable space group: C 2/M
;
_chemical_formula_sum "Si O2"
_cell_formula_units_Z 56
_cell_length_a 19.938635
_cell_length_b 15.244086
_cell_length_c 11.259668
_cell_angle_alpha 90.000000
_cell_angle_beta 74.491054
_cell_angle_gamma 90.000000
_cell_volume 3297.722474
_symmetry_space_group_name_H-M "C 2/M"
_symmetry_group_IT_number 12
_symmetry_cell_setting 'monoclinic'
loop_
_space_group_symop_operation_xyz
x,y,z
-x,y,-z
-x,-y,-z
x,-y,z
1/2+x,1/2+y,z
1/2-x,1/2+y,-z
1/2-x,1/2-y,-z
1/2+x,1/2-y,z
loop_
_atom_site_type_symbol
_atom_site_label
_atom_site_fract_x
_atom_site_fract_y
_atom_site_fract_z
Si Si1 0.694035 0.272013 0.126041
Si Si2 0.039109 0.106059 0.363658
Si Si3 0.212138 0.597998 0.230781
Si Si4 0.199964 0.901050 0.308757
Si Si5 0.222945 0.844421 0.556371
Si Si6 0.363475 0.400403 0.026911
Si Si7 0.081420 0.106367 0.749938
O O1 0.670795 0.180335 0.195365
O O2 0.733995 0.329439 0.207339
O O3 0.750000 0.250000 0.000000
O O4 0.640221 0.334020 0.080721
O O5 0.119495 0.129501 0.337437
O O6 0.000000 0.137600 0.500000
O O7 0.991626 0.130942 0.274608
O O8 0.039001 0.000000 0.366229
O O9 0.182517 0.500000 0.231789
O O10 0.229506 0.618041 0.360145
O O11 0.286918 0.597309 0.126303
O O12 0.221643 0.898654 0.434900
O O13 0.207075 0.000000 0.259046
O O14 0.250000 0.750000 0.500000
O O15 0.145056 0.848383 0.648885
O O16 0.379744 0.500000 0.978997
O O17 0.413200 0.375352 0.112645
O O18 0.091788 0.000000 0.731963
#
# Coordination Sequence:
#
# PCOD9178726 Si02
#       7
#     8   8   8   8   8   8   8
#     4  10  19  31  44  62  90 128 166 199 231 277
#     4   9  16  27  45  70  98 128 158 185 228 293
#     4   9  17  29  43  60  87 123 156 187 231 282
#     4  11  20  30  47  72 101 128 157 197 237 281
#     4  11  18  27  43  69  98 127 155 193 235 284
#     4   8  15  27  44  62  86 122 154 183 225 273
#     4   9  16  29  47  67  96 133 158 182 232 292
#
# _framework density 16.981415999999999
#
# number of rings (size 3 to 8) (size 9 to 14) (size 15 to 20)
#    0.000    2.429    2.857    2.571    0.000    0.571 
#    0.000    0.714    0.000    3.429    0.000    0.000 
#    0.000    9.714    0.000    0.000    0.000    0.000 
#
# Total GULP energy -155918.354769 kJ/mol
# GULP energy per Si atom -5568.512670 kJ/mol
# Density = 1.694277 g / cm^3
# Si number density = 16.981416 Si / 1000 Ang^3
#
#
#
# Elastic Constant Matrix: (Units=GPa)
#
#
# Indices 1 2 3 4 5 6 
#
# 1 41.6272 20.5847 23.6420 0.0000 19.8295 0.0000
# 2 20.5847 107.0896 44.0989 0.0000 19.6549 0.0000
# 3 23.6420 44.0989 89.4081 0.0000 27.6025 0.0000
# 4 0.0000 0.0000 0.0000 29.3682 0.0000 10.6750
# 5 19.8295 19.6549 27.6025 0.0000 31.3532 0.0000
# 6 0.0000 0.0000 0.0000 10.6750 0.0000 7.2874
#
#
#
# Elastic Compliance Matrix: (Units=1/GPa)
#
#
# Indices 1 2 3 4 5 6 
#
# 1 0.035558 -0.002382 -0.002398 0.000000 -0.018885 0.000000
# 2 -0.002382 0.012101 -0.004754 0.000000 -0.001895 0.000000
# 3 -0.002398 -0.004754 0.017544 0.000000 -0.010948 0.000000
# 4 0.000000 0.000000 0.000000 0.072829 0.000000 -0.106683
# 5 -0.018885 -0.001895 -0.010948 0.000000 0.054665 0.000000
# 6 0.000000 0.000000 0.000000 -0.106683 0.000000 0.293499
#
#
# Mechanical properties :
#
#
# Convention : Reuss Voigt Hill
#
# Bulk Modulus (GPa) = 21.67475 46.08624 33.88050
# Shear Modulus (GPa) = 9.60355 23.58837 16.59596
#
# Velocity S-wave (km/s) = 2.38067 3.73107 3.12957
# Velocity P-wave (km/s) = 4.51091 6.76456 5.74924
#
# Compressibility (1/GPa) = 0.04613663
#
# Stress axis : x y z
#
# Youngs Moduli (GPa) = 28.12282 82.63672 57.00116
#
# Poissons Ratio (x) = 0.19680 0.13667
# Poissons Ratio (y) = 0.06697 0.27099
# Poissons Ratio (z) = 0.06743 0.39286
#
# Static dielectric constant tensor:
#      x y z
#    x 1.583010 0.000000 0.009400 
#    y 0.000000 1.617300 0.000000 
#    z 0.009400 0.000000 1.626710 
# 
# From -- ./inp_files/166636.got.cif
#   From: 2010.05.17/outbox.cif.g08.bks.cpg/sg12_84_cif.got.tgz:166636.got - 2010.06.03 13:09:07.
