data_PCOD9178719
_publ_section_title
;
Structure prediction by ZEFSAII (Michael W. Deem and Ramdas Pophale) SiO2 
 PCOD9178719
Probable space group: C 2/M
;
_chemical_formula_sum "Si O2"
_cell_formula_units_Z 56
_cell_length_a 12.267707
_cell_length_b 27.759808
_cell_length_c 8.560874
_cell_angle_alpha 90.000000
_cell_angle_beta 122.998657
_cell_angle_gamma 90.000000
_cell_volume 2445.096313
_symmetry_space_group_name_H-M "C 2/M"
_symmetry_group_IT_number 12
_symmetry_cell_setting 'monoclinic'
loop_
_space_group_symop_operation_xyz
x,y,z
-x,y,-z
-x,-y,-z
x,-y,z
1/2+x,1/2+y,z
1/2-x,1/2+y,-z
1/2-x,1/2-y,-z
1/2+x,1/2-y,z
loop_
_atom_site_type_symbol
_atom_site_label
_atom_site_fract_x
_atom_site_fract_y
_atom_site_fract_z
Si Si1 0.809833 0.446050 0.986415
Si Si2 0.306696 0.806045 0.221179
Si Si3 0.863269 0.798042 0.227974
Si Si4 0.645627 0.552299 0.175537
Si Si5 0.145151 0.357413 0.191983
Si Si6 0.005173 0.397938 0.672287
Si Si7 0.086277 0.846789 0.229552
O O1 0.788847 0.500000 0.912140
O O2 0.726318 0.438800 0.079434
O O3 0.953492 0.436837 0.166593
O O4 0.794097 0.403014 0.853077
O O5 0.390307 0.757574 0.285922
O O6 0.392423 0.854029 0.270426
O O7 0.206099 0.811821 0.284339
O O8 0.217001 0.801922 0.997274
O O9 0.754069 0.817062 0.261719
O O10 0.992744 0.828833 0.294947
O O11 0.686643 0.500000 0.273720
O O12 0.640657 0.598671 0.282164
O O13 0.500000 0.547563 0.000000
O O14 0.116354 0.371909 0.345861
O O15 0.000000 0.346240 0.000000
O O16 0.000000 0.421566 0.500000
O O17 0.000000 0.847107 0.000000
#
# Coordination Sequence:
#
# PCOD9178719 Si02
#       7
#     8   8   8   8   8   8   8
#     4  10  19  35  57  85 111 140 185 233 278 327
#     4  10  19  32  51  80 108 141 180 229 278 318
#     4  10  19  30  56  83 105 135 183 233 281 323
#     4   9  15  25  48  80 113 138 167 223 289 330
#     4  10  19  34  55  80 111 140 181 231 275 321
#     4  11  23  38  53  75 114 154 184 221 274 334
#     4   9  16  28  47  77 110 132 172 232 274 327
#
# _framework density 22.902984
#
# number of rings (size 3 to 8) (size 9 to 14) (size 15 to 20)
#    0.000    2.143    4.286    1.714    2.000    3.429 
#    0.000    0.714    0.000    0.000    0.000    0.000 
#    0.000    6.857    0.000    0.000    0.000    0.000 
#
# Total GULP energy -156189.209417 kJ/mol
# GULP energy per Si atom -5578.186051 kJ/mol
# Density = 2.285086 g / cm^3
# Si number density = 22.902984 Si / 1000 Ang^3
#
#
#
# Elastic Constant Matrix: (Units=GPa)
#
#
# Indices 1 2 3 4 5 6 
#
# 1 119.8741 33.8050 -5.6826 0.0000 -11.2389 0.0000
# 2 33.8050 104.7852 -9.1127 0.0000 1.2761 0.0000
# 3 -5.6826 -9.1127 43.9977 0.0000 6.4802 0.0000
# 4 0.0000 0.0000 0.0000 6.7277 0.0000 -7.0185
# 5 -11.2389 1.2761 6.4802 0.0000 17.3271 0.0000
# 6 0.0000 0.0000 0.0000 -7.0185 0.0000 24.6154
#
#
#
# Elastic Compliance Matrix: (Units=1/GPa)
#
#
# Indices 1 2 3 4 5 6 
#
# 1 0.009895 -0.003311 -0.000412 0.000000 0.006816 0.000000
# 2 -0.003311 0.010866 0.002389 0.000000 -0.003841 0.000000
# 3 -0.000412 0.002389 0.024590 0.000000 -0.009639 0.000000
# 4 0.000000 0.000000 0.000000 0.211570 0.000000 0.060324
# 5 0.006816 -0.003841 -0.009639 0.000000 0.066022 0.000000
# 6 0.000000 0.000000 0.000000 0.060324 0.000000 0.057825
#
#
# Mechanical properties :
#
#
# Convention : Reuss Voigt Hill
#
# Bulk Modulus (GPa) = 23.42865 34.07518 28.75192
# Shear Modulus (GPa) = 12.57341 26.37719 19.47530
#
# Velocity S-wave (km/s) = 2.34559 3.39734 2.91922
# Velocity P-wave (km/s) = 4.19374 5.50451 4.89321
#
# Compressibility (1/GPa) = 0.04268278
#
# Stress axis : x y z
#
# Youngs Moduli (GPa) = 101.05689 92.02950 40.66735
#
# Poissons Ratio (x) = 0.30473 0.01674
# Poissons Ratio (y) = 0.33462 -0.09714
# Poissons Ratio (z) = 0.04161 -0.21983
#
# Static dielectric constant tensor:
#      x y z
#    x 1.963060 0.000000 0.052980 
#    y 0.000000 1.870950 0.000000 
#    z 0.052980 0.000000 1.922440 
# 
# From -- ./inp_files/54333.got.cif
#   From: 2010.05.17/outbox.cif.g08.bks.cpg/sg12_28_cif.got.tgz:54333.got - 2010.06.03 13:09:07.
