data_PCOD9178575
_publ_section_title
;
Structure prediction by ZEFSAII (Michael W. Deem and Ramdas Pophale) SiO2 
 PCOD9178575
Probable space group: C 2/M
;
_chemical_formula_sum "Si O2"
_cell_formula_units_Z 48
_cell_length_a 28.625376
_cell_length_b 11.976342
_cell_length_c 13.472288
_cell_angle_alpha 90.000000
_cell_angle_beta 39.436509
_cell_angle_gamma 90.000000
_cell_volume 2933.883104
_symmetry_space_group_name_H-M "C 2/M"
_symmetry_group_IT_number 12
_symmetry_cell_setting 'monoclinic'
loop_
_space_group_symop_operation_xyz
x,y,z
-x,y,-z
-x,-y,-z
x,-y,z
1/2+x,1/2+y,z
1/2-x,1/2+y,-z
1/2-x,1/2-y,-z
1/2+x,1/2-y,z
loop_
_atom_site_type_symbol
_atom_site_label
_atom_site_fract_x
_atom_site_fract_y
_atom_site_fract_z
Si Si1 0.032247 0.633989 0.552400
Si Si2 0.668750 0.733470 0.802748
Si Si3 0.511055 0.500000 0.815485
Si Si4 0.188538 0.629893 0.379162
Si Si5 0.480830 0.744928 0.830904
Si Si6 0.619977 0.500000 0.806235
Si Si7 0.389681 0.128702 0.278508
O O1 0.025373 0.500000 0.570379
O O2 0.118807 0.658717 0.424875
O O3 0.000000 0.670804 0.500000
O O4 0.990498 0.685798 0.714877
O O5 0.745381 0.718117 0.733938
O O6 0.662163 0.613688 0.758110
O O7 0.657567 0.825223 0.735707
O O8 0.600054 0.747697 0.989442
O O9 0.501794 0.616400 0.775358
O O10 0.586893 0.500000 0.751141
O O11 0.447265 0.500000 0.004530
O O12 0.210471 0.500000 0.322291
O O13 0.157015 0.633031 0.543301
O O14 0.538711 0.794867 0.816739
O O15 0.411767 0.000000 0.225982
#
# Coordination Sequence:
#
# PCOD9178575 Si02
#       7
#     8   8   4   8   8   4   8
#     4   9  19  38  59  74  92 125 167 208 254 306
#     4  11  18  29  48  74 105 131 164 205 242 288
#     4   9  16  28  43  72 100 132 166 196 230 283
#     4   9  18  32  50  72  98 128 167 206 242 292
#     4  10  19  30  50  76  98 129 170 208 242 285
#     4   9  16  26  44  68 103 136 164 189 233 280
#     4  10  20  31  45  71 107 143 168 194 236 291
#
# _framework density 16.360571
#
# number of rings (size 3 to 8) (size 9 to 14) (size 15 to 20)
#    0.000    2.333    2.500    2.500    0.000    2.000 
#    0.000    1.250    0.000    0.000    0.000    0.000 
#    0.000    0.000    0.000    0.000    0.000    0.000 
#
# Total GULP energy -133749.018144 kJ/mol
# GULP energy per Si atom -5572.875756 kJ/mol
# Density = 1.632333 g / cm^3
# Si number density = 16.360571 Si / 1000 Ang^3
#
#
#
# Elastic Constant Matrix: (Units=GPa)
#
#
# Indices 1 2 3 4 5 6 
#
# 1 113.1531 30.6584 39.1090 0.0000 -9.2721 0.0000
# 2 30.6584 69.2057 19.3487 0.0000 -8.9257 0.0000
# 3 39.1090 19.3487 45.7366 0.0000 -16.4723 0.0000
# 4 0.0000 0.0000 0.0000 17.1530 0.0000 1.2597
# 5 -9.2721 -8.9257 -16.4723 0.0000 20.2095 0.0000
# 6 0.0000 0.0000 0.0000 1.2597 0.0000 20.2544
#
#
#
# Elastic Compliance Matrix: (Units=1/GPa)
#
#
# Indices 1 2 3 4 5 6 
#
# 1 0.013424 -0.003264 -0.011889 0.000000 -0.004973 0.000000
# 2 -0.003264 0.017254 -0.003260 0.000000 0.003466 0.000000
# 3 -0.011889 -0.003260 0.043777 0.000000 0.028788 0.000000
# 4 0.000000 0.000000 0.000000 0.058566 0.000000 -0.003642
# 5 -0.004973 0.003466 0.028788 0.000000 0.072195 0.000000
# 6 0.000000 0.000000 0.000000 -0.003642 0.000000 0.049598
#
#
# Mechanical properties :
#
#
# Convention : Reuss Voigt Hill
#
# Bulk Modulus (GPa) = 26.57474 45.14750 35.86112
# Shear Modulus (GPa) = 16.43747 20.78867 18.61307
#
# Velocity S-wave (km/s) = 3.17314 3.56849 3.37661
# Velocity P-wave (km/s) = 5.45009 6.68087 6.09662
#
# Compressibility (1/GPa) = 0.03762972
#
# Stress axis : x y z
#
# Youngs Moduli (GPa) = 74.49610 57.95708 22.84294
#
# Poissons Ratio (x) = 0.18919 0.27157
# Poissons Ratio (y) = 0.24317 0.07446
# Poissons Ratio (z) = 0.88565 0.18893
#
# Static dielectric constant tensor:
#      x y z
#    x 1.563020 0.000000 -0.038550 
#    y 0.000000 1.559230 0.000000 
#    z -0.038550 0.000000 1.548600 
# 
# From -- ./inp_files/250373.got.cif
#   From: 2010.05.17/outbox.cif.g08.bks.cpg/sg12_126_cif.got.tgz:250373.got - 2010.06.03 13:09:07.
