data_PCOD9178250
_publ_section_title
;
Structure prediction by ZEFSAII (Michael W. Deem and Ramdas Pophale) SiO2 
 PCOD9178250
Probable space group: C 2/M
;
_chemical_formula_sum "Si O2"
_cell_formula_units_Z 52
_cell_length_a 31.222738
_cell_length_b 19.575108
_cell_length_c 10.299128
_cell_angle_alpha 90.000000
_cell_angle_beta 29.554303
_cell_angle_gamma 90.000000
_cell_volume 3104.853727
_symmetry_space_group_name_H-M "C 2/M"
_symmetry_group_IT_number 12
_symmetry_cell_setting 'monoclinic'
loop_
_space_group_symop_operation_xyz
x,y,z
-x,y,-z
-x,-y,-z
x,-y,z
1/2+x,1/2+y,z
1/2-x,1/2+y,-z
1/2-x,1/2-y,-z
1/2+x,1/2-y,z
loop_
_atom_site_type_symbol
_atom_site_label
_atom_site_fract_x
_atom_site_fract_y
_atom_site_fract_z
Si Si1 0.267600 0.293712 0.765670
Si Si2 0.896559 0.707546 0.262902
Si Si3 0.000000 0.207516 0.500000
Si Si4 0.105795 0.304204 0.020717
Si Si5 0.015693 0.420310 0.611419
Si Si6 0.680059 0.344802 0.109274
Si Si7 0.831737 0.420414 0.595853
O O1 0.350735 0.263965 0.473053
O O2 0.296871 0.345149 0.799975
O O3 0.193013 0.321378 0.868424
O O4 0.221668 0.226581 0.948640
O O5 0.863416 0.633950 0.404432
O O6 0.871478 0.723538 0.180678
O O7 0.000000 0.709635 0.000000
O O8 0.044347 0.255007 0.271041
O O9 0.078275 0.162614 0.351093
O O10 0.050649 0.372042 0.140055
O O11 0.997491 0.500000 0.676743
O O12 0.109546 0.407028 0.428842
O O13 0.000000 0.404905 0.500000
O O14 0.732861 0.402800 0.894377
O O15 0.842971 0.500000 0.530808
#
# Coordination Sequence:
#
# PCOD9178250 Si02
#       7
#     8   8   4   8   8   8   8
#     4   9  19  31  49  73 101 131 165 204 252 299
#     4  11  20  31  48  72 104 137 168 202 254 303
#     4  10  20  32  54  78 100 126 172 210 254 302
#     4  11  19  31  49  72 105 134 168 206 250 299
#     4  10  19  30  47  71  99 134 171 203 243 292
#     4   9  18  33  52  72  98 129 163 211 254 293
#     4  10  21  35  50  72 102 135 170 210 248 295
#
# _framework density 16.747971
#
# number of rings (size 3 to 8) (size 9 to 14) (size 15 to 20)
#    0.000    2.000    2.308    2.308    4.308    0.923 
#    0.000    0.385    0.000    0.000    0.000    0.000 
#    0.000    3.692    0.000    0.000    0.000    0.000 
#
# Total GULP energy -144871.929227 kJ/mol
# GULP energy per Si atom -5571.997278 kJ/mol
# Density = 1.670985 g / cm^3
# Si number density = 16.747971 Si / 1000 Ang^3
#
#
#
# Elastic Constant Matrix: (Units=GPa)
#
#
# Indices 1 2 3 4 5 6 
#
# 1 89.5571 4.7360 40.1510 0.0000 -10.7740 0.0000
# 2 4.7360 25.4211 18.6189 0.0000 -9.2169 0.0000
# 3 40.1510 18.6189 100.4586 0.0000 -15.2870 0.0000
# 4 0.0000 0.0000 0.0000 10.6397 0.0000 1.8208
# 5 -10.7740 -9.2169 -15.2870 0.0000 32.0264 0.0000
# 6 0.0000 0.0000 0.0000 1.8208 0.0000 11.3415
#
#
#
# Elastic Compliance Matrix: (Units=1/GPa)
#
#
# Indices 1 2 3 4 5 6 
#
# 1 0.013868 0.002496 -0.005592 0.000000 0.002714 0.000000
# 2 0.002496 0.048997 -0.008417 0.000000 0.010923 0.000000
# 3 -0.005592 -0.008417 0.014120 0.000000 0.002436 0.000000
# 4 0.000000 0.000000 0.000000 0.096643 0.000000 -0.015515
# 5 0.002714 0.010923 0.002436 0.000000 0.036444 0.000000
# 6 0.000000 0.000000 0.000000 -0.015515 0.000000 0.090663
#
#
# Mechanical properties :
#
#
# Convention : Reuss Voigt Hill
#
# Bulk Modulus (GPa) = 18.53217 38.04985 28.29101
# Shear Modulus (GPa) = 14.63072 20.93024 17.78048
#
# Velocity S-wave (km/s) = 2.95885 3.53897 3.26183
# Velocity P-wave (km/s) = 4.77099 6.28231 5.57808
#
# Compressibility (1/GPa) = 0.05396022
#
# Stress axis : x y z
#
# Youngs Moduli (GPa) = 72.10968 20.40930 70.82091
#
# Poissons Ratio (x) = -0.05095 0.39605
# Poissons Ratio (y) = -0.18001 0.59607
# Poissons Ratio (z) = 0.40326 0.17178
#
# Static dielectric constant tensor:
#      x y z
#    x 1.614040 0.000000 0.027960 
#    y 0.000000 1.538890 0.000000 
#    z 0.027960 0.000000 1.582440 
# 
# From -- ./inp_files/113549.got.cif
#   From: 2010.05.17/outbox.cif.g08.bks.cpg/sg12_57_cif.got.tgz:113549.got - 2010.06.03 13:09:07.
