data_PCOD9178262
_publ_section_title
;
Structure prediction by ZEFSAII (Michael W. Deem and Ramdas Pophale) SiO2 
 PCOD9178262
Probable space group: C 2/M
;
_chemical_formula_sum "Si O2"
_cell_formula_units_Z 64
_cell_length_a 23.777510
_cell_length_b 9.170471
_cell_length_c 18.466204
_cell_angle_alpha 90.000000
_cell_angle_beta 89.382291
_cell_angle_gamma 90.000000
_cell_volume 4026.339614
_symmetry_space_group_name_H-M "C 2/M"
_symmetry_group_IT_number 12
_symmetry_cell_setting 'monoclinic'
loop_
_space_group_symop_operation_xyz
x,y,z
-x,y,-z
-x,-y,-z
x,-y,z
1/2+x,1/2+y,z
1/2-x,1/2+y,-z
1/2-x,1/2-y,-z
1/2+x,1/2-y,z
loop_
_atom_site_type_symbol
_atom_site_label
_atom_site_fract_x
_atom_site_fract_y
_atom_site_fract_z
Si Si1 0.819814 0.833205 0.067075
Si Si2 0.690345 0.674377 0.222757
Si Si3 0.499267 0.174809 0.585957
Si Si4 0.311214 0.323958 0.228218
Si Si5 0.809737 0.826023 0.502152
Si Si6 0.183128 0.333441 0.075106
Si Si7 0.886177 0.825151 0.638420
Si Si8 0.388039 0.674921 0.364291
O O1 0.834506 0.783885 0.148135
O O2 0.751436 0.834261 0.068660
O O3 0.838460 0.000000 0.055981
O O4 0.838174 0.734833 0.999694
O O5 0.697351 0.500000 0.218192
O O6 0.750931 0.746848 0.239367
O O7 0.670579 0.737978 0.145938
O O8 0.645561 0.707585 0.286221
O O9 0.500000 0.214381 0.500000
O O10 0.443864 0.241435 0.623474
O O11 0.554157 0.241429 0.623252
O O12 0.499209 0.000000 0.590863
O O13 0.302047 0.500000 0.227711
O O14 0.354828 0.289266 0.291095
O O15 0.750000 0.750000 0.500000
O O16 0.843987 0.786335 0.573633
O O17 0.847026 0.789125 0.431795
O O18 0.801582 0.000000 0.502697
O O19 0.164815 0.500000 0.084732
O O20 0.896261 0.000000 0.634981
O O21 0.398188 0.500000 0.365177
#
# Coordination Sequence:
#
# PCOD9178262 Si02
#       8
#     8   8   8   8   8   8   8   8
#     4   8  14  25  41  64  96 129 163 198 232 282
#     4  10  19  30  47  72 102 133 164 201 245 291
#     4  11  23  37  54  75  94 121 165 215 255 286
#     4   9  18  31  48  73 102 133 165 198 243 294
#     4  10  20  32  49  72  98 129 161 194 237 289
#     4   9  16  26  42  65  95 131 167 198 236 287
#     4  10  21  36  52  71  96 130 167 201 245 296
#     4  10  20  35  54  72  96 131 165 200 246 295
#
# _framework density 15.895331000000001
#
# number of rings (size 3 to 8) (size 9 to 14) (size 15 to 20)
#    0.000    2.375    1.250    2.625    0.000    6.000 
#    0.000    0.000    0.000    0.000    0.000    0.875 
#    0.000    7.000    0.000    0.000    0.000    0.000 
#
# Total GULP energy -178434.277536 kJ/mol
# GULP energy per Si atom -5576.071173 kJ/mol
# Density = 1.585915 g / cm^3
# Si number density = 15.895331 Si / 1000 Ang^3
#
#
#
# Elastic Constant Matrix: (Units=GPa)
#
#
# Indices 1 2 3 4 5 6 
#
# 1 106.7226 54.9999 69.2433 0.0000 -3.7159 0.0000
# 2 54.9999 56.6878 65.6167 0.0000 -1.3095 0.0000
# 3 69.2433 65.6167 156.8127 0.0000 -2.1571 0.0000
# 4 0.0000 0.0000 0.0000 18.6714 0.0000 0.4615
# 5 -3.7159 -1.3095 -2.1571 0.0000 1.6794 0.0000
# 6 0.0000 0.0000 0.0000 0.4615 0.0000 26.1805
#
#
#
# Elastic Compliance Matrix: (Units=1/GPa)
#
#
# Indices 1 2 3 4 5 6 
#
# 1 0.020215 -0.017587 -0.001161 0.000000 0.029525 0.000000
# 2 -0.017587 0.049629 -0.013238 0.000000 -0.017220 0.000000
# 3 -0.001161 -0.013238 0.012472 0.000000 0.003129 0.000000
# 4 0.000000 0.000000 0.000000 0.053581 0.000000 -0.000944
# 5 0.029525 -0.017220 0.003129 0.000000 0.651370 0.000000
# 6 0.000000 0.000000 0.000000 -0.000944 0.000000 0.038213
#
#
# Mechanical properties :
#
#
# Convention : Reuss Voigt Hill
#
# Bulk Modulus (GPa) = 54.51340 77.77145 66.14243
# Shear Modulus (GPa) = 5.58306 17.99714 11.79010
#
# Velocity S-wave (km/s) = 1.87617 3.36851 2.72643
# Velocity P-wave (km/s) = 6.25004 8.01016 7.18421
#
# Compressibility (1/GPa) = 0.01834411
#
# Stress axis : x y z
#
# Youngs Moduli (GPa) = 49.46821 20.14948 80.18049
#
# Poissons Ratio (x) = 0.35438 0.09308
# Poissons Ratio (y) = 0.87001 1.06140
# Poissons Ratio (z) = 0.05743 0.26673
#
# Static dielectric constant tensor:
#      x y z
#    x 1.490540 0.000000 0.004620 
#    y 0.000000 1.534900 0.000000 
#    z 0.004620 0.000000 1.543820 
# 
# From -- ./inp_files/287689.got.cif
#   From: 2010.05.17/outbox.cif.g08.bks.cpg/sg12_144_cif.got.tgz:287689.got - 2010.06.03 13:09:07.
