data_PCOD9178322
_publ_section_title
;
Structure prediction by ZEFSAII (Michael W. Deem and Ramdas Pophale) SiO2 
 PCOD9178322
Probable space group: C 2/M
;
_chemical_formula_sum "Si O2"
_cell_formula_units_Z 64
_cell_length_a 24.665946
_cell_length_b 14.845611
_cell_length_c 8.638535
_cell_angle_alpha 90.000000
_cell_angle_beta 75.970637
_cell_angle_gamma 90.000000
_cell_volume 3068.912567
_symmetry_space_group_name_H-M "C 2/M"
_symmetry_group_IT_number 12
_symmetry_cell_setting 'monoclinic'
loop_
_space_group_symop_operation_xyz
x,y,z
-x,y,-z
-x,-y,-z
x,-y,z
1/2+x,1/2+y,z
1/2-x,1/2+y,-z
1/2-x,1/2-y,-z
1/2+x,1/2-y,z
loop_
_atom_site_type_symbol
_atom_site_label
_atom_site_fract_x
_atom_site_fract_y
_atom_site_fract_z
Si Si1 0.026592 0.899584 0.131744
Si Si2 0.937962 0.656108 0.529194
Si Si3 0.576286 0.347998 0.611750
Si Si4 0.670147 0.099035 0.575191
Si Si5 0.258618 0.896531 0.787658
Si Si6 0.144821 0.711404 0.146999
Si Si7 0.656955 0.734492 0.805183
Si Si8 0.634451 0.602837 0.260257
O O1 0.977575 0.900075 0.291870
O O2 0.082275 0.873428 0.183166
O O3 0.041516 0.000000 0.066715
O O4 0.000000 0.850888 0.000000
O O5 0.944410 0.752905 0.442021
O O6 0.891902 0.605101 0.457527
O O7 0.906758 0.676362 0.713080
O O8 0.000000 0.616243 0.500000
O O9 0.615541 0.324921 0.729555
O O10 0.611368 0.394061 0.451159
O O11 0.712678 0.108415 0.402214
O O12 0.676772 0.182240 0.685875
O O13 0.678113 0.000000 0.640325
O O14 0.305771 0.861026 0.871455
O O15 0.206470 0.830465 0.824351
O O16 0.243083 0.000000 0.827979
O O17 0.168806 0.805242 0.207402
O O18 0.130097 0.726010 0.979046
O O19 0.654300 0.500000 0.215351
#
# Coordination Sequence:
#
# PCOD9178322 Si02
#       8
#     8   8   8   8   8   8   8   8
#     4  10  19  30  47  74 108 146 188 235 286 333
#     4   9  18  34  57  81 110 154 199 235 277 334
#     4  10  19  31  49  75 108 147 190 232 278 338
#     4   9  20  38  59  85 116 150 191 237 286 346
#     4  10  22  41  62  83 111 150 194 239 291 351
#     4  10  21  38  58  84 115 147 191 243 294 344
#     4  11  22  37  59  86 117 149 188 240 296 349
#     4  10  20  34  52  76 111 152 191 230 277 341
#
# _framework density 20.854291
#
# number of rings (size 3 to 8) (size 9 to 14) (size 15 to 20)
#    0.000    2.125    0.000    4.500    0.000    3.250 
#    0.000    3.750    0.000    0.750    0.000    0.000 
#    0.000    0.000    0.000    0.000    0.000    0.000 
#
# Total GULP energy -178530.576303 kJ/mol
# GULP energy per Si atom -5579.080509 kJ/mol
# Density = 2.080683 g / cm^3
# Si number density = 20.854291 Si / 1000 Ang^3
#
#
#
# Elastic Constant Matrix: (Units=GPa)
#
#
# Indices 1 2 3 4 5 6 
#
# 1 63.6262 3.9076 16.9667 0.0000 4.2052 0.0000
# 2 3.9076 86.1391 10.1790 0.0000 -1.3788 0.0000
# 3 16.9667 10.1790 88.7050 0.0000 13.0293 0.0000
# 4 0.0000 0.0000 0.0000 13.1930 0.0000 2.8745
# 5 4.2052 -1.3788 13.0293 0.0000 17.7452 0.0000
# 6 0.0000 0.0000 0.0000 2.8745 0.0000 5.4217
#
#
#
# Elastic Compliance Matrix: (Units=1/GPa)
#
#
# Indices 1 2 3 4 5 6 
#
# 1 0.016629 -0.000447 -0.002853 0.000000 -0.001881 0.000000
# 2 -0.000447 0.011853 -0.001598 0.000000 0.002200 0.000000
# 3 -0.002853 -0.001598 0.013362 0.000000 -0.009259 0.000000
# 4 0.000000 0.000000 0.000000 0.085698 0.000000 -0.045436
# 5 -0.001881 0.002200 -0.009259 0.000000 0.063769 0.000000
# 6 0.000000 0.000000 0.000000 -0.045436 0.000000 0.208536
#
#
# Mechanical properties :
#
#
# Convention : Reuss Voigt Hill
#
# Bulk Modulus (GPa) = 31.20251 33.39745 32.29998
# Shear Modulus (GPa) = 11.89551 21.09975 16.49763
#
# Velocity S-wave (km/s) = 2.39092 3.18428 2.81568
# Velocity P-wave (km/s) = 4.75569 5.43774 5.10811
#
# Compressibility (1/GPa) = 0.03204870
#
# Stress axis : x y z
#
# Youngs Moduli (GPa) = 60.13444 84.36355 74.83671
#
# Poissons Ratio (x) = 0.03774 0.21352
# Poissons Ratio (y) = 0.02690 0.11958
# Poissons Ratio (z) = 0.17157 0.13480
#
# Static dielectric constant tensor:
#      x y z
#    x 1.796730 0.000000 0.017550 
#    y 0.000000 1.825250 0.000000 
#    z 0.017550 0.000000 1.748730 
# 
# From -- ./inp_files/96902.got.cif
#   From: 2010.05.17/outbox.cif.g08.bks.cpg/sg12_49_cif.got.tgz:96902.got - 2010.06.03 13:09:07.
