data_PCOD9178632
_publ_section_title
;
Structure prediction by ZEFSAII (Michael W. Deem and Ramdas Pophale) SiO2 
 PCOD9178632
Probable space group: C 2/M
;
_chemical_formula_sum "Si O2"
_cell_formula_units_Z 64
_cell_length_a 14.130304
_cell_length_b 29.813937
_cell_length_c 7.968714
_cell_angle_alpha 90.000000
_cell_angle_beta 76.448276
_cell_angle_gamma 90.000000
_cell_volume 3263.595142
_symmetry_space_group_name_H-M "C 2/M"
_symmetry_group_IT_number 12
_symmetry_cell_setting 'monoclinic'
loop_
_space_group_symop_operation_xyz
x,y,z
-x,y,-z
-x,-y,-z
x,-y,z
1/2+x,1/2+y,z
1/2-x,1/2+y,-z
1/2-x,1/2-y,-z
1/2+x,1/2-y,z
loop_
_atom_site_type_symbol
_atom_site_label
_atom_site_fract_x
_atom_site_fract_y
_atom_site_fract_z
Si Si1 0.036874 0.668532 0.757736
Si Si2 0.650232 0.135292 0.036948
Si Si3 0.780380 0.643763 0.464264
Si Si4 0.281678 0.308354 0.184015
Si Si5 0.538743 0.728397 0.742694
Si Si6 0.636296 0.051729 0.592320
Si Si7 0.341887 0.280269 0.655275
Si Si8 0.583685 0.948633 0.218014
O O1 0.107490 0.659816 0.574485
O O2 0.023935 0.720479 0.797567
O O3 0.930411 0.648941 0.790210
O O4 0.097220 0.647341 0.886897
O O5 0.741257 0.167036 0.036497
O O6 0.650435 0.082579 0.072856
O O7 0.734367 0.654968 0.662305
O O8 0.786899 0.591724 0.409398
O O9 0.725685 0.677271 0.359179
O O10 0.394490 0.295318 0.147253
O O11 0.220007 0.262727 0.252770
O O12 0.606871 0.730432 0.546082
O O13 0.433845 0.709508 0.735668
O O14 0.533141 0.061123 0.729254
O O15 0.614942 0.054272 0.400616
O O16 0.664090 0.000000 0.617633
O O17 0.593373 0.000000 0.160378
#
# Coordination Sequence:
#
# PCOD9178632 Si02
#       8
#     8   8   8   8   8   8   8   8
#     4  11  21  31  45  68 105 130 163 199 236 283
#     4  11  22  31  45  74  97 136 165 193 248 283
#     4  11  18  32  51  71  94 128 165 201 238 289
#     4  11  19  31  52  71  89 130 171 197 241 285
#     4  10  19  33  46  71  99 123 166 203 232 291
#     4   9  17  28  50  76  95 122 163 208 246 285
#     4  10  19  30  51  74  93 126 165 203 249 276
#     4   9  17  31  48  71 100 128 162 202 243 293
#
# _framework density 19.610275000000001
#
# number of rings (size 3 to 8) (size 9 to 14) (size 15 to 20)
#    0.000    1.750    6.250    1.500    0.000    1.000 
#    0.000    1.875    0.000    0.000    0.000    7.875 
#    0.000    0.000    0.000    2.250    0.000    0.000 
#
# Total GULP energy -178629.296058 kJ/mol
# GULP energy per Si atom -5582.165502 kJ/mol
# Density = 1.956564 g / cm^3
# Si number density = 19.610275 Si / 1000 Ang^3
#
#
#
# Elastic Constant Matrix: (Units=GPa)
#
#
# Indices 1 2 3 4 5 6 
#
# 1 84.5201 36.5152 5.1570 0.0000 10.8703 0.0000
# 2 36.5152 138.5528 6.1611 0.0000 8.6682 0.0000
# 3 5.1570 6.1611 44.3803 0.0000 12.8870 0.0000
# 4 0.0000 0.0000 0.0000 8.2804 0.0000 8.8473
# 5 10.8703 8.6682 12.8870 0.0000 24.2311 0.0000
# 6 0.0000 0.0000 0.0000 8.8473 0.0000 19.6186
#
#
#
# Elastic Compliance Matrix: (Units=1/GPa)
#
#
# Indices 1 2 3 4 5 6 
#
# 1 0.013936 -0.003361 0.000371 0.000000 -0.005246 0.000000
# 2 -0.003361 0.008197 -0.000395 0.000000 -0.001215 0.000000
# 3 0.000371 -0.000395 0.026670 0.000000 -0.014209 0.000000
# 4 0.000000 0.000000 0.000000 0.233069 0.000000 -0.105106
# 5 -0.005246 -0.001215 -0.014209 0.000000 0.051614 0.000000
# 6 0.000000 0.000000 0.000000 -0.105106 0.000000 0.098371
#
#
# Mechanical properties :
#
#
# Convention : Reuss Voigt Hill
#
# Bulk Modulus (GPa) = 23.79092 40.34665 32.06878
# Shear Modulus (GPa) = 11.04636 25.06735 18.05685
#
# Velocity S-wave (km/s) = 2.37596 3.57918 3.03774
# Velocity P-wave (km/s) = 4.43679 6.14000 5.35652
#
# Compressibility (1/GPa) = 0.04203284
#
# Stress axis : x y z
#
# Youngs Moduli (GPa) = 71.75825 121.99919 37.49495
#
# Poissons Ratio (x) = 0.41003 -0.01390
# Poissons Ratio (y) = 0.24118 0.01480
# Poissons Ratio (z) = -0.02660 0.04815
#
# Static dielectric constant tensor:
#      x y z
#    x 1.695830 0.000000 -0.002500 
#    y 0.000000 1.745150 0.000000 
#    z -0.002500 0.000000 1.819480 
# 
# From -- ./inp_files/67840.got.cif
#   From: 2010.05.17/outbox.cif.g08.bks.cpg/sg12_34_cif.got.tgz:67840.got - 2010.06.03 13:09:07.
