data_PCOD9178346
_publ_section_title
;
Structure prediction by ZEFSAII (Michael W. Deem and Ramdas Pophale) SiO2 
 PCOD9178346
Probable space group: C 2/M
;
_chemical_formula_sum "Si O2"
_cell_formula_units_Z 50
_cell_length_a 24.156610
_cell_length_b 8.211550
_cell_length_c 13.361123
_cell_angle_alpha 90.000000
_cell_angle_beta 127.733230
_cell_angle_gamma 90.000000
_cell_volume 2096.083100
_symmetry_space_group_name_H-M "C 2/M"
_symmetry_group_IT_number 12
_symmetry_cell_setting 'monoclinic'
loop_
_space_group_symop_operation_xyz
x,y,z
-x,y,-z
-x,-y,-z
x,-y,z
1/2+x,1/2+y,z
1/2-x,1/2+y,-z
1/2-x,1/2-y,-z
1/2+x,1/2-y,z
loop_
_atom_site_type_symbol
_atom_site_label
_atom_site_fract_x
_atom_site_fract_y
_atom_site_fract_z
Si Si1 0.591808 0.322712 0.780535
Si Si2 0.727530 0.804417 0.863352
Si Si3 0.500000 0.000000 0.500000
Si Si4 0.565706 0.683523 0.478580
Si Si5 0.547147 0.185861 0.926015
Si Si6 0.833848 0.810446 0.809043
Si Si7 0.893243 0.692366 0.679584
O O1 0.609045 0.500000 0.843723
O O2 0.651270 0.273890 0.769318
O O3 0.514520 0.329793 0.651301
O O4 0.588662 0.195510 0.867132
O O5 0.778166 0.748783 0.829742
O O6 0.724563 0.000000 0.857888
O O7 0.750000 0.750000 0.000000
O O8 0.444432 0.145026 0.475051
O O9 0.580748 0.500000 0.536667
O O10 0.613249 0.715291 0.432830
O O11 0.469114 0.241038 0.811130
O O12 0.545066 0.000000 0.958587
O O13 0.591016 0.287517 0.053536
O O14 0.837836 0.725830 0.705689
O O15 0.820367 0.000000 0.777296
O O16 0.898059 0.500000 0.664447
#
# Coordination Sequence:
#
# PCOD9178346 Si02
#       7
#     8   8   2   8   8   8   8
#     4  10  20  34  53  77 112 149 188 234 284 325
#     4  11  22  33  49  72 109 155 202 242 273 311
#     4  12  22  40  68  94 118 140 182 220 306 368
#     4  10  22  39  62  92 121 144 176 231 290 357
#     4  10  19  30  48  70 101 149 192 232 270 325
#     4  11  22  32  45  72 107 151 201 237 272 318
#     4  10  20  35  52  76 110 148 188 227 284 339
#
# _framework density 23.854015
#
# number of rings (size 3 to 8) (size 9 to 14) (size 15 to 20)
#    0.000    1.600    2.400    3.120    2.240    5.760 
#    0.000    0.000    0.000    0.000    0.000    1.120 
#    0.000    0.000    0.000    0.000    0.000    0.000 
#
# Total GULP energy -139368.069659 kJ/mol
# GULP energy per Si atom -5574.722786 kJ/mol
# Density = 2.379972 g / cm^3
# Si number density = 23.854015 Si / 1000 Ang^3
#
#
#
# Elastic Constant Matrix: (Units=GPa)
#
#
# Indices 1 2 3 4 5 6 
#
# 1 136.8941 43.6941 17.4563 0.0000 -39.0550 0.0000
# 2 43.6941 116.9963 37.7296 0.0000 -19.1056 0.0000
# 3 17.4563 37.7296 24.4430 0.0000 -11.4044 0.0000
# 4 0.0000 0.0000 0.0000 18.3984 0.0000 -6.4049
# 5 -39.0550 -19.1056 -11.4044 0.0000 30.9254 0.0000
# 6 0.0000 0.0000 0.0000 -6.4049 0.0000 30.1522
#
#
#
# Elastic Compliance Matrix: (Units=1/GPa)
#
#
# Indices 1 2 3 4 5 6 
#
# 1 0.012003 -0.003056 0.002822 0.000000 0.014312 0.000000
# 2 -0.003056 0.017822 -0.026561 0.000000 -0.002643 0.000000
# 3 0.002822 -0.026561 0.089260 0.000000 0.020070 0.000000
# 4 0.000000 0.000000 0.000000 0.058693 0.000000 0.012468
# 5 0.014312 -0.002643 0.020070 0.000000 0.056178 0.000000
# 6 0.000000 0.000000 0.000000 0.012468 0.000000 0.035813
#
#
# Mechanical properties :
#
#
# Convention : Reuss Voigt Hill
#
# Bulk Modulus (GPa) = 15.26829 52.89926 34.08378
# Shear Modulus (GPa) = 14.48466 27.85876 21.17171
#
# Velocity S-wave (km/s) = 2.46686 3.42114 2.98242
# Velocity P-wave (km/s) = 3.81162 6.15061 5.11657
#
# Compressibility (1/GPa) = 0.06549520
#
# Stress axis : x y z
#
# Youngs Moduli (GPa) = 83.30956 56.10894 11.20322
#
# Poissons Ratio (x) = 0.17145 -0.03161
# Poissons Ratio (y) = 0.25457 0.29757
# Poissons Ratio (z) = -0.23507 1.49033
#
# Static dielectric constant tensor:
#      x y z
#    x 1.951790 0.000000 -0.002830 
#    y 0.000000 1.842730 0.000000 
#    z -0.002830 0.000000 1.998360 
# 
# From -- ./inp_files/237946.got.cif
#   From: 2010.05.17/outbox.cif.g08.bks.cpg/sg12_119_cif.got.tgz:237946.got - 2010.06.03 13:09:07.
