data_PCOD9178818
_publ_section_title
;
Structure prediction by ZEFSAII (Michael W. Deem and Ramdas Pophale) SiO2 
 PCOD9178818
Probable space group: C 2/M
;
_chemical_formula_sum "Si O2"
_cell_formula_units_Z 56
_cell_length_a 23.932605
_cell_length_b 15.474192
_cell_length_c 9.311542
_cell_angle_alpha 90.000000
_cell_angle_beta 44.227481
_cell_angle_gamma 90.000000
_cell_volume 2405.300270
_symmetry_space_group_name_H-M "C 2/M"
_symmetry_group_IT_number 12
_symmetry_cell_setting 'monoclinic'
loop_
_space_group_symop_operation_xyz
x,y,z
-x,y,-z
-x,-y,-z
x,-y,z
1/2+x,1/2+y,z
1/2-x,1/2+y,-z
1/2-x,1/2-y,-z
1/2+x,1/2-y,z
loop_
_atom_site_type_symbol
_atom_site_label
_atom_site_fract_x
_atom_site_fract_y
_atom_site_fract_z
Si Si1 0.172824 0.364483 0.337554
Si Si2 0.165882 0.847015 0.348167
Si Si3 0.934460 0.403961 0.717405
Si Si4 0.837144 0.322433 0.125329
Si Si5 0.066407 0.333033 0.780323
Si Si6 0.012117 0.860454 0.812399
Si Si7 0.846245 0.863686 0.967506
O O1 0.166320 0.259022 0.346258
O O2 0.143184 0.399093 0.240171
O O3 0.108736 0.386764 0.577969
O O4 0.263479 0.396712 0.190728
O O5 0.251667 0.867622 0.261155
O O6 0.092733 0.883760 0.577539
O O7 0.158182 0.874555 0.195962
O O8 0.964471 0.500000 0.682563
O O9 0.000000 0.353425 0.500000
O O10 0.907615 0.374544 0.920589
O O11 0.861216 0.304473 0.244870
O O12 0.838430 0.236849 0.025415
O O13 0.024025 0.244516 0.802236
O O14 0.000000 0.378226 0.000000
O O15 0.932497 0.887882 0.872756
O O16 0.000000 0.889197 0.000000
#
# Coordination Sequence:
#
# PCOD9178818 Si02
#       7
#     8   8   8   8   8   8   8
#     4  10  20  32  52  75 104 138 176 213 264 309
#     4  10  20  30  51  78 105 144 167 218 258 325
#     4  11  23  37  55  76 101 140 187 225 256 298
#     4  11  19  34  51  74 107 137 185 210 266 308
#     4  10  19  31  46  74 104 148 167 207 260 318
#     4  10  20  29  45  78 113 140 161 200 265 323
#     4  11  18  32  50  79 108 139 171 211 267 321
#
# _framework density 23.281915999999999
#
# number of rings (size 3 to 8) (size 9 to 14) (size 15 to 20)
#    0.000    1.571    5.714    2.143    4.000    1.714 
#    0.000    0.714    0.000    2.571    0.000    2.000 
#    0.000    1.143    0.000    0.000    0.000    0.000 
#
# Total GULP energy -156175.902225 kJ/mol
# GULP energy per Si atom -5577.710794 kJ/mol
# Density = 2.322893 g / cm^3
# Si number density = 23.281916 Si / 1000 Ang^3
#
#
#
# Elastic Constant Matrix: (Units=GPa)
#
#
# Indices 1 2 3 4 5 6 
#
# 1 158.5090 -1.5828 56.4318 0.0000 -11.0988 0.0000
# 2 -1.5828 27.8460 13.4742 0.0000 1.4022 0.0000
# 3 56.4318 13.4742 147.3164 0.0000 -11.7120 0.0000
# 4 0.0000 0.0000 0.0000 -5.0160 0.0000 -1.3947
# 5 -11.0988 1.4022 -11.7120 0.0000 42.0237 0.0000
# 6 0.0000 0.0000 0.0000 -1.3947 0.0000 -9.0525
#
#
#
# Elastic Compliance Matrix: (Units=1/GPa)
#
#
# Indices 1 2 3 4 5 6 
#
# 1 0.007446 0.001786 -0.002929 0.000000 0.001091 0.000000
# 2 0.001786 0.038214 -0.004339 0.000000 -0.002013 0.000000
# 3 -0.002929 -0.004339 0.008444 0.000000 0.001725 0.000000
# 4 0.000000 0.000000 0.000000 -0.208285 0.000000 0.032090
# 5 0.001091 -0.002013 0.001725 0.000000 0.024632 0.000000
# 6 0.000000 0.000000 0.000000 0.032090 0.000000 -0.115410
#
#
# Mechanical properties :
#
#
# Convention : Reuss Voigt Hill
#
# Bulk Modulus (GPa) = 23.18087 52.25754 37.71921
# Shear Modulus (GPa) = -22.76717 23.28091 0.25687
#
# Velocity S-wave (km/s) = -3.13052 3.16564 0.33252
# Velocity P-wave (km/s) = 1.75745 5.98799 4.04767
#
# Compressibility (1/GPa) = 0.04313902
#
# Stress axis : x y z
#
# Youngs Moduli (GPa) = 134.30601 26.16816 118.42693
#
# Poissons Ratio (x) = -0.04672 0.34685
# Poissons Ratio (y) = -0.23980 0.51388
# Poissons Ratio (z) = 0.39335 0.11355
#
# Static dielectric constant tensor:
#      x y z
#    x 1.916070 0.000000 -0.039430 
#    y 0.000000 1.927390 0.000000 
#    z -0.039430 0.000000 1.933550 
# 
# From -- ./inp_files/76950.got.cif
#   From: 2010.05.17/outbox.cif.g08.bks.cpg/sg12_39_cif.got.tgz:76950.got - 2010.06.03 13:09:07.
