data_PCOD9178132
_publ_section_title
;
Structure prediction by ZEFSAII (Michael W. Deem and Ramdas Pophale) SiO2 
 PCOD9178132
Probable space group: C 2/M
;
_chemical_formula_sum "Si O2"
_cell_formula_units_Z 48
_cell_length_a 28.990936
_cell_length_b 8.647221
_cell_length_c 11.703473
_cell_angle_alpha 90.000000
_cell_angle_beta 102.389618
_cell_angle_gamma 90.000000
_cell_volume 2865.627319
_symmetry_space_group_name_H-M "C 2/M"
_symmetry_group_IT_number 12
_symmetry_cell_setting 'monoclinic'
loop_
_space_group_symop_operation_xyz
x,y,z
-x,y,-z
-x,-y,-z
x,-y,z
1/2+x,1/2+y,z
1/2-x,1/2+y,-z
1/2-x,1/2-y,-z
1/2+x,1/2-y,z
loop_
_atom_site_type_symbol
_atom_site_label
_atom_site_fract_x
_atom_site_fract_y
_atom_site_fract_z
Si Si1 0.954094 0.186925 0.903781
Si Si2 0.024771 0.188054 0.340384
Si Si3 0.139672 0.686189 0.030340
Si Si4 0.742537 0.814816 0.123698
Si Si5 0.926730 0.186939 0.400808
Si Si6 0.839160 0.315242 0.220639
O O1 0.959570 0.241333 0.775883
O O2 0.906455 0.244076 0.937329
O O3 0.953609 0.000000 0.902975
O O4 0.000000 0.236699 0.000000
O O5 0.058633 0.234447 0.463031
O O6 0.971269 0.233617 0.344803
O O7 0.024753 0.000000 0.339662
O O8 0.136193 0.500000 0.029167
O O9 0.188379 0.728851 0.121867
O O10 0.145675 0.734643 0.900453
O O11 0.786732 0.749234 0.216783
O O12 0.745314 0.000000 0.123042
O O13 0.750000 0.750000 0.000000
O O14 0.878624 0.256484 0.328334
O O15 0.923711 0.000000 0.396373
O O16 0.837009 0.500000 0.219426
#
# Coordination Sequence:
#
# PCOD9178132 Si02
#       6
#     8   8   8   8   8   8
#     4  10  19  30  47  71  96 122 155 189 221 270
#     4   8  16  30  47  70  95 121 156 193 230 274
#     4   9  19  32  45  66  96 125 150 184 230 275
#     4   9  17  30  47  68  94 122 154 191 233 278
#     4   9  16  30  51  68  90 124 157 192 233 275
#     4  10  19  30  46  71  98 120 153 196 234 276
#
# _framework density 16.750260000000001
#
# number of rings (size 3 to 8) (size 9 to 14) (size 15 to 20)
#    0.000    2.833    0.000    4.000    0.000    5.667 
#    0.000    3.333    0.000    1.000    0.000    0.000 
#    0.000    0.000    0.000    0.000    0.000    0.000 
#
# Total GULP energy -133714.714238 kJ/mol
# GULP energy per Si atom -5571.446427 kJ/mol
# Density = 1.671214 g / cm^3
# Si number density = 16.750260 Si / 1000 Ang^3
#
#
#
# Elastic Constant Matrix: (Units=GPa)
#
#
# Indices 1 2 3 4 5 6 
#
# 1 162.8314 33.7843 76.1523 0.0000 26.6319 0.0000
# 2 33.7843 21.8523 22.4071 0.0000 7.9409 0.0000
# 3 76.1523 22.4071 85.9876 0.0000 14.4942 0.0000
# 4 0.0000 0.0000 0.0000 16.6246 0.0000 2.7601
# 5 26.6319 7.9409 14.4942 0.0000 33.4673 0.0000
# 6 0.0000 0.0000 0.0000 2.7601 0.0000 27.1463
#
#
#
# Elastic Compliance Matrix: (Units=1/GPa)
#
#
# Indices 1 2 3 4 5 6 
#
# 1 0.012531 -0.009802 -0.007826 0.000000 -0.004257 0.000000
# 2 -0.009802 0.072373 -0.009276 0.000000 -0.005355 0.000000
# 3 -0.007826 -0.009276 0.021097 0.000000 -0.000708 0.000000
# 4 0.000000 0.000000 0.000000 0.061184 0.000000 -0.006221
# 5 -0.004257 -0.005355 -0.000708 0.000000 0.034845 0.000000
# 6 0.000000 0.000000 0.000000 -0.006221 0.000000 0.037470
#
#
# Mechanical properties :
#
#
# Convention : Reuss Voigt Hill
#
# Bulk Modulus (GPa) = 19.15945 59.48429 39.32187
# Shear Modulus (GPa) = 16.09231 24.66948 20.38089
#
# Velocity S-wave (km/s) = 3.10291 3.84185 3.49198
# Velocity P-wave (km/s) = 4.92956 7.43433 6.30753
#
# Compressibility (1/GPa) = 0.05219356
#
# Stress axis : x y z
#
# Youngs Moduli (GPa) = 79.79921 13.81723 47.39964
#
# Poissons Ratio (x) = 0.13544 0.37096
# Poissons Ratio (y) = 0.78220 0.43967
# Poissons Ratio (z) = 0.62453 0.12817
#
# Static dielectric constant tensor:
#      x y z
#    x 1.564600 0.000000 0.012320 
#    y 0.000000 1.568100 0.000000 
#    z 0.012320 0.000000 1.554860 
# 
# From -- ./inp_files/172445.got.cif
#   From: 2010.05.17/outbox.cif.g08.bks.cpg/sg12_87_cif.got.tgz:172445.got - 2010.06.03 13:09:07.
