data_PCOD9178275
_publ_section_title
;
Structure prediction by ZEFSAII (Michael W. Deem and Ramdas Pophale) SiO2 
 PCOD9178275
Probable space group: C 2/M
;
_chemical_formula_sum "Si O2"
_cell_formula_units_Z 48
_cell_length_a 16.800494
_cell_length_b 24.043636
_cell_length_c 14.068508
_cell_angle_alpha 90.000000
_cell_angle_beta 33.132401
_cell_angle_gamma 90.000000
_cell_volume 3106.136121
_symmetry_space_group_name_H-M "C 2/M"
_symmetry_group_IT_number 12
_symmetry_cell_setting 'monoclinic'
loop_
_space_group_symop_operation_xyz
x,y,z
-x,y,-z
-x,-y,-z
x,-y,z
1/2+x,1/2+y,z
1/2-x,1/2+y,-z
1/2-x,1/2-y,-z
1/2+x,1/2-y,z
loop_
_atom_site_type_symbol
_atom_site_label
_atom_site_fract_x
_atom_site_fract_y
_atom_site_fract_z
Si Si1 0.174400 0.064520 0.436836
Si Si2 0.825752 0.222962 0.284533
Si Si3 0.826524 0.663087 0.393840
Si Si4 0.825560 0.064521 0.785661
Si Si5 0.673463 0.836912 0.046902
Si Si6 0.825761 0.777038 0.063952
O O1 0.256923 0.107857 0.420173
O O2 0.210042 0.074618 0.289966
O O3 0.999980 0.071204 0.621416
O O4 0.209331 0.000000 0.422817
O O5 0.794581 0.285027 0.354916
O O6 0.742981 0.180661 0.436296
O O7 0.785102 0.218080 0.214898
O O8 0.999996 0.214521 0.118780
O O9 0.999993 0.657872 0.228311
O O10 0.790615 0.000000 0.841513
O O11 0.743043 0.107857 0.934045
O O12 0.742983 0.819335 0.077735
O O13 0.705404 0.785028 0.944091
#
# Coordination Sequence:
#
# PCOD9178275 Si02
#       6
#     8   8   8   8   8   8
#     4   9  18  32  49  69  94 125 158 189 225 274
#     4   9  18  32  48  67  94 127 159 189 225 274
#     4  10  19  30  47  72  98 122 152 192 235 275
#     4   9  18  32  49  69  94 125 158 189 225 274
#     4  10  19  30  47  72  98 122 152 192 235 275
#     4   9  18  32  48  67  94 127 159 189 225 274
#
# _framework density 15.453282
#
# number of rings (size 3 to 8) (size 9 to 14) (size 15 to 20)
#    0.000    2.667    0.000    3.000    0.000    4.667 
#    0.000    1.667    0.000    1.000    0.000    7.000 
#    0.000    0.000    0.000    0.000    0.000    0.000 
#
# Total GULP energy -133841.902589 kJ/mol
# GULP energy per Si atom -5576.745941 kJ/mol
# Density = 1.541811 g / cm^3
# Si number density = 15.453282 Si / 1000 Ang^3
#
#
#
# Elastic Constant Matrix: (Units=GPa)
#
#
# Indices 1 2 3 4 5 6 
#
# 1 116.1052 75.4626 59.5592 0.0107 24.6056 -0.0079
# 2 75.4626 106.3369 68.6790 0.0140 14.2888 -0.0106
# 3 59.5592 68.6790 91.4042 0.0183 27.4342 -0.0152
# 4 0.0107 0.0140 0.0183 27.6679 -0.0118 -1.3640
# 5 24.6056 14.2888 27.4342 -0.0118 16.4776 0.0084
# 6 -0.0079 -0.0106 -0.0152 -1.3640 0.0084 27.0216
#
#
#
# Elastic Compliance Matrix: (Units=1/GPa)
#
#
# Indices 1 2 3 4 5 6 
#
# 1 0.021738 -0.015634 0.006509 -0.000017 -0.029741 0.000012
# 2 -0.015634 0.031292 -0.024361 0.000021 0.036771 -0.000016
# 3 0.006509 -0.024361 0.043137 -0.000043 -0.060415 0.000033
# 4 -0.000017 0.000021 -0.000043 0.036233 0.000103 0.001829
# 5 -0.029741 0.036771 -0.060415 0.000103 0.173800 -0.000077
# 6 0.000012 -0.000016 0.000033 0.001829 -0.000077 0.037100
#
#
# Mechanical properties :
#
#
# Convention : Reuss Voigt Hill
#
# Bulk Modulus (GPa) = 34.25398 80.13866 57.19632
# Shear Modulus (GPa) = 11.90463 21.57646 16.74054
#
# Velocity S-wave (km/s) = 2.77855 3.74068 3.29492
# Velocity P-wave (km/s) = 5.70159 8.40406 7.18109
#
# Compressibility (1/GPa) = 0.02919369
#
# Stress axis : x y z
#
# Youngs Moduli (GPa) = 46.00202 31.95702 23.18208
#
# Poissons Ratio (x) = 0.49962 -0.15089
# Poissons Ratio (y) = 0.71920 0.56475
# Poissons Ratio (z) = -0.29943 0.77852
#
# Static dielectric constant tensor:
#      x y z
#    x 1.499430 0.000000 -0.005940 
#    y 0.000000 1.491730 0.000000 
#    z -0.005940 0.000000 1.502260 
# 
# From -- ./inp_files/76717.got.cif
#   From: 2010.05.17/outbox.cif.g08.bks.cpg/sg12_39_cif.got.tgz:76717.got - 2010.06.03 13:09:07.
