data_PCOD9178668
_publ_section_title
;
Structure prediction by ZEFSAII (Michael W. Deem and Ramdas Pophale) SiO2 
 PCOD9178668
Probable space group: C 2/M
;
_chemical_formula_sum "Si O2"
_cell_formula_units_Z 52
_cell_length_a 27.164536
_cell_length_b 15.285829
_cell_length_c 9.432999
_cell_angle_alpha 90.000000
_cell_angle_beta 50.521248
_cell_angle_gamma 90.000000
_cell_volume 3023.290275
_symmetry_space_group_name_H-M "C 2/M"
_symmetry_group_IT_number 12
_symmetry_cell_setting 'monoclinic'
loop_
_space_group_symop_operation_xyz
x,y,z
-x,y,-z
-x,-y,-z
x,-y,z
1/2+x,1/2+y,z
1/2-x,1/2+y,-z
1/2-x,1/2-y,-z
1/2+x,1/2-y,z
loop_
_atom_site_type_symbol
_atom_site_label
_atom_site_fract_x
_atom_site_fract_y
_atom_site_fract_z
Si Si1 0.931651 0.897967 0.706781
Si Si2 0.675052 0.748256 0.163325
Si Si3 0.093593 0.265379 0.561580
Si Si4 0.482304 0.601306 0.195369
Si Si5 0.076246 0.600145 0.845280
Si Si6 0.887306 0.597203 0.898315
Si Si7 0.000000 0.351155 0.500000
O O1 0.871915 0.835047 0.783307
O O2 0.000000 0.882969 0.500000
O O3 0.954280 0.884890 0.826931
O O4 0.915373 0.000000 0.711691
O O5 0.659785 0.764376 0.356677
O O6 0.650373 0.827200 0.110920
O O7 0.750000 0.750000 0.000000
O O8 0.069858 0.171261 0.659444
O O9 0.094821 0.332242 0.689616
O O10 0.043461 0.296619 0.531117
O O11 0.462300 0.500000 0.254639
O O12 0.500000 0.614225 0.000000
O O13 0.093255 0.500000 0.775119
O O14 0.102619 0.617874 0.954562
O O15 0.000000 0.604464 0.000000
O O16 0.858860 0.500000 0.939445
O O17 0.953967 0.596704 0.689754
#
# Coordination Sequence:
#
# PCOD9178668 Si02
#       7
#     8   8   8   8   8   8   4
#     4  10  20  38  62  86 113 149 195 246 292 342
#     4  11  25  40  57  87 116 156 199 239 297 352
#     4  11  20  33  55  79 117 154 181 236 284 339
#     4  10  20  32  55  90 116 141 186 241 297 342
#     4  10  20  33  54  87 118 150 184 228 289 346
#     4  10  21  36  56  82 117 152 189 232 283 344
#     4  10  19  30  51  88 114 144 183 222 279 338
#
# _framework density 17.199802999999999
#
# number of rings (size 3 to 8) (size 9 to 14) (size 15 to 20)
#    0.000    1.692    3.077    2.538    3.231    3.077 
#    0.000    0.769    0.000    0.000    0.000    0.000 
#    0.000    0.000    0.000    0.000    0.000    0.000 
#
# Total GULP energy -144873.350707 kJ/mol
# GULP energy per Si atom -5572.051950 kJ/mol
# Density = 1.716066 g / cm^3
# Si number density = 17.199803 Si / 1000 Ang^3
#
#
#
# Elastic Constant Matrix: (Units=GPa)
#
#
# Indices 1 2 3 4 5 6 
#
# 1 67.0497 60.4857 65.9528 0.0000 1.4302 0.0000
# 2 60.4857 132.4123 82.4130 0.0000 1.9487 0.0000
# 3 65.9528 82.4130 130.8497 0.0000 6.7536 0.0000
# 4 0.0000 0.0000 0.0000 64.7782 0.0000 16.1088
# 5 1.4302 1.9487 6.7536 0.0000 36.3518 0.0000
# 6 0.0000 0.0000 0.0000 16.1088 0.0000 12.4107
#
#
#
# Elastic Compliance Matrix: (Units=1/GPa)
#
#
# Indices 1 2 3 4 5 6 
#
# 1 0.034140 -0.007996 -0.012242 0.000000 0.001360 0.000000
# 2 -0.007996 0.014317 -0.005012 0.000000 0.000478 0.000000
# 3 -0.012242 -0.005012 0.017094 0.000000 -0.002426 0.000000
# 4 0.000000 0.000000 0.000000 0.022795 0.000000 -0.029587
# 5 0.001360 0.000478 -0.002426 0.000000 0.027880 0.000000
# 6 0.000000 0.000000 0.000000 -0.029587 0.000000 0.118979
#
#
# Mechanical properties :
#
#
# Convention : Reuss Voigt Hill
#
# Bulk Modulus (GPa) = 66.43446 83.11274 74.77360
# Shear Modulus (GPa) = 17.19856 30.80547 24.00201
#
# Velocity S-wave (km/s) = 3.16559 4.23665 3.73967
# Velocity P-wave (km/s) = 7.21597 8.50642 7.88763
#
# Compressibility (1/GPa) = 0.01505243
#
# Stress axis : x y z
#
# Youngs Moduli (GPa) = 29.29113 69.84778 58.49839
#
# Poissons Ratio (x) = 0.55848 0.71614
# Poissons Ratio (y) = 0.23420 0.29318
# Poissons Ratio (z) = 0.35858 0.35006
#
# Static dielectric constant tensor:
#      x y z
#    x 1.582330 0.000000 0.017170 
#    y 0.000000 1.628840 0.000000 
#    z 0.017170 0.000000 1.595400 
# 
# From -- ./inp_files/104369.got.cif
#   From: 2010.05.17/outbox.cif.g08.bks.cpg/sg12_53_cif.got.tgz:104369.got - 2010.06.03 13:09:07.
