data_PCOD9178265
_publ_section_title
;
Structure prediction by ZEFSAII (Michael W. Deem and Ramdas Pophale) SiO2 
 PCOD9178265
Probable space group: C 2/M
;
_chemical_formula_sum "Si O2"
_cell_formula_units_Z 64
_cell_length_a 19.953292
_cell_length_b 9.102350
_cell_length_c 23.126464
_cell_angle_alpha 90.000000
_cell_angle_beta 56.807538
_cell_angle_gamma 90.000000
_cell_volume 3514.939530
_symmetry_space_group_name_H-M "C 2/M"
_symmetry_group_IT_number 12
_symmetry_cell_setting 'monoclinic'
loop_
_space_group_symop_operation_xyz
x,y,z
-x,y,-z
-x,-y,-z
x,-y,z
1/2+x,1/2+y,z
1/2-x,1/2+y,-z
1/2-x,1/2-y,-z
1/2+x,1/2-y,z
loop_
_atom_site_type_symbol
_atom_site_label
_atom_site_fract_x
_atom_site_fract_y
_atom_site_fract_z
Si Si1 0.123101 0.669536 0.551825
Si Si2 0.695155 0.174536 0.911072
Si Si3 0.926848 0.325704 0.132273
Si Si4 0.855343 0.173649 0.276873
Si Si5 0.108634 0.678203 0.064142
Si Si6 0.262262 0.330721 0.584901
Si Si7 0.007064 0.174294 0.691228
Si Si8 0.142716 0.323780 0.180677
O O1 0.193509 0.671152 0.567377
O O2 0.161966 0.747773 0.478082
O O3 0.049519 0.755754 0.615219
O O4 0.396754 0.000000 0.450163
O O5 0.617276 0.192298 0.907733
O O6 0.769068 0.262163 0.849613
O O7 0.714324 0.000000 0.903829
O O8 0.672124 0.228585 0.986207
O O9 0.926440 0.500000 0.146263
O O10 0.879097 0.242430 0.204754
O O11 0.018972 0.276194 0.089010
O O12 0.778495 0.250247 0.341903
O O13 0.930214 0.198227 0.285391
O O14 0.842461 0.000000 0.278824
O O15 0.110701 0.500000 0.060961
O O16 0.124828 0.721161 0.122374
O O17 0.280543 0.500000 0.589019
O O18 0.924777 0.252413 0.747308
O O19 0.996604 0.000000 0.689226
O O20 0.139512 0.500000 0.186180
#
# Coordination Sequence:
#
# PCOD9178265 Si02
#       8
#     8   8   8   8   8   8   8   8
#     4   9  16  26  42  67 100 134 168 209 257 303
#     4  10  21  36  54  76 103 135 172 215 261 314
#     4  10  19  34  55  76 101 135 175 215 258 311
#     4  10  19  30  47  72 102 134 170 215 261 305
#     4   9  18  34  56  78  99 131 174 215 260 313
#     4   9  16  26  42  66  99 136 171 207 251 305
#     4  10  19  31  48  71 100 135 174 213 256 308
#     4  11  21  34  53  76 104 136 171 216 263 311
#
# _framework density 18.207993999999999
#
# number of rings (size 3 to 8) (size 9 to 14) (size 15 to 20)
#    0.000    2.250    1.250    2.625    0.000    6.000 
#    0.000    1.250    0.000    1.500    0.000    0.875 
#    0.000    7.000    0.000    0.000    0.000    0.000 
#
# Total GULP energy -178560.820732 kJ/mol
# GULP energy per Si atom -5580.025648 kJ/mol
# Density = 1.816655 g / cm^3
# Si number density = 18.207994 Si / 1000 Ang^3
#
#
#
# Elastic Constant Matrix: (Units=GPa)
#
#
# Indices 1 2 3 4 5 6 
#
# 1 24.8065 11.7537 0.0558 0.0000 -12.7762 0.0002
# 2 11.7537 53.5219 31.0801 0.0000 -6.7944 0.0003
# 3 0.0558 31.0801 111.8845 0.0000 -17.8931 0.0000
# 4 0.0000 0.0000 0.0000 30.4804 0.0000 -1.7040
# 5 -12.7762 -6.7944 -17.8931 0.0000 16.1866 0.0000
# 6 0.0002 0.0003 0.0000 -1.7040 0.0000 16.0884
#
#
#
# Elastic Compliance Matrix: (Units=1/GPa)
#
#
# Indices 1 2 3 4 5 6 
#
# 1 0.096735 -0.021651 0.020315 0.000000 0.089723 -0.000001
# 2 -0.021651 0.027248 -0.010279 0.000000 -0.017015 0.000000
# 3 0.020315 -0.010279 0.016590 0.000000 0.030059 0.000000
# 4 0.000000 0.000000 0.000000 0.033003 0.000000 0.003495
# 5 0.089723 -0.017015 0.030059 0.000000 0.158685 -0.000001
# 6 -0.000001 0.000000 0.000000 0.003495 -0.000001 0.062527
#
#
# Mechanical properties :
#
#
# Convention : Reuss Voigt Hill
#
# Bulk Modulus (GPa) = 8.52199 30.66579 19.59389
# Shear Modulus (GPa) = 10.93772 22.37262 16.65517
#
# Velocity S-wave (km/s) = 2.45360 3.50912 3.02771
# Velocity P-wave (km/s) = 3.56614 5.77036 4.79658
#
# Compressibility (1/GPa) = 0.11734347
#
# Stress axis : x y z
#
# Youngs Moduli (GPa) = 10.33748 36.70022 60.27589
#
# Poissons Ratio (x) = 0.79458 -1.22450
# Poissons Ratio (y) = 0.22381 0.61960
# Poissons Ratio (z) = -0.21001 0.37726
#
# Static dielectric constant tensor:
#      x y z
#    x 1.614040 0.000000 0.000580 
#    y 0.000000 1.604500 0.000000 
#    z 0.000580 0.000000 1.606290 
# 
# From -- ./inp_files/365174.got.cif
#   From: 2010.05.17/outbox.cif.g08.bks.cpg/sg12_183_cif.got.tgz:365174.got - 2010.06.03 13:09:07.
