data_PCOD9178693
_publ_section_title
;
Structure prediction by ZEFSAII (Michael W. Deem and Ramdas Pophale) SiO2 
 PCOD9178693
Probable space group: C 2/M
;
_chemical_formula_sum "Si O2"
_cell_formula_units_Z 40
_cell_length_a 26.254918
_cell_length_b 7.688781
_cell_length_c 34.188963
_cell_angle_alpha 90.000000
_cell_angle_beta 159.998062
_cell_angle_gamma 90.000000
_cell_volume 2360.728961
_symmetry_space_group_name_H-M "C 2/M"
_symmetry_group_IT_number 12
_symmetry_cell_setting 'monoclinic'
loop_
_space_group_symop_operation_xyz
x,y,z
-x,y,-z
-x,-y,-z
x,-y,z
1/2+x,1/2+y,z
1/2-x,1/2+y,-z
1/2-x,1/2-y,-z
1/2+x,1/2-y,z
loop_
_atom_site_type_symbol
_atom_site_label
_atom_site_fract_x
_atom_site_fract_y
_atom_site_fract_z
Si Si1 0.205744 0.708335 0.616291
Si Si2 0.034196 0.701987 0.839382
Si Si3 0.365391 0.000000 0.958247
Si Si4 0.775681 0.198515 0.951836
Si Si5 0.376682 0.789978 0.354329
Si Si6 0.712456 0.000000 0.187945
O O1 0.214034 0.500000 0.620904
O O2 0.358023 0.779918 0.708871
O O3 0.189337 0.754240 0.650304
O O4 0.052084 0.755741 0.484039
O O5 0.073124 0.500000 0.873511
O O6 0.128284 0.757424 0.869408
O O7 0.095131 0.797192 0.921832
O O8 0.316060 0.831144 0.947044
O O9 0.296719 0.000000 0.865446
O O10 0.543769 0.000000 0.082297
O O11 0.756779 0.000000 0.924589
O O12 0.295025 0.671048 0.263988
O O13 0.362338 0.000000 0.338266
#
# Coordination Sequence:
#
# PCOD9178693 Si02
#       6
#     8   8   4   8   8   4
#     4   9  18  31  53  84 115 142 171 215 274 329
#     4  10  19  30  53  87 111 140 174 211 274 333
#     4  11  24  40  54  80 106 139 194 223 259 322
#     4  10  21  36  53  78 114 143 172 221 272 317
#     4   9  20  36  52  82 115 141 176 219 269 323
#     4  11  24  37  58  78 102 149 186 225 267 301
#
# _framework density 16.943918
#
# number of rings (size 3 to 8) (size 9 to 14) (size 15 to 20)
#    0.000    2.200    1.000    3.000    5.600    4.000 
#    0.000    2.000    0.000    1.200    0.000    0.000 
#    0.000    0.000    0.000    0.000    0.000    0.000 
#
# Total GULP energy -111600.375399 kJ/mol
# GULP energy per Si atom -5580.018770 kJ/mol
# Density = 1.690535 g / cm^3
# Si number density = 16.943918 Si / 1000 Ang^3
#
#
#
# Elastic Constant Matrix: (Units=GPa)
#
#
# Indices 1 2 3 4 5 6 
#
# 1 115.0191 63.9689 74.2604 0.0034 2.3579 -0.0008
# 2 63.9689 86.1010 49.9663 -0.2424 -9.3051 0.1270
# 3 74.2604 49.9663 112.9598 -0.0421 4.6579 0.0193
# 4 0.0034 -0.2424 -0.0421 -83.0799 0.0062 64.0233
# 5 2.3579 -9.3051 4.6579 0.0062 24.5663 -0.0060
# 6 -0.0008 0.1270 0.0193 64.0233 -0.0060 -13.5862
#
#
#
# Elastic Compliance Matrix: (Units=1/GPa)
#
#
# Indices 1 2 3 4 5 6 
#
# 1 0.019989 -0.010486 -0.008325 0.000019 -0.004312 -0.000022
# 2 -0.010486 0.022536 -0.003496 -0.000035 0.010206 0.000037
# 3 -0.008325 -0.003496 0.016019 0.000002 -0.003562 0.000000
# 4 0.000019 -0.000035 0.000002 0.004574 -0.000011 0.021555
# 5 -0.004312 0.010206 -0.003562 -0.000011 0.045661 0.000018
# 6 -0.000022 0.000037 0.000000 0.021555 0.000018 0.027971
#
#
# Mechanical properties :
#
#
# Convention : Reuss Voigt Hill
#
# Bulk Modulus (GPa) = 71.78328 76.71901 74.25115
# Shear Modulus (GPa) = 26.88053 -6.02768 10.42642
#
# Velocity S-wave (km/s) = 3.98734 -1.88816 2.48331
# Velocity P-wave (km/s) = 7.97845 6.37361 7.22076
#
# Compressibility (1/GPa) = 0.01393082
#
# Stress axis : x y z
#
# Youngs Moduli (GPa) = 50.02677 44.37272 62.42604
#
# Poissons Ratio (x) = 0.46528 0.51970
# Poissons Ratio (y) = 0.52457 0.21825
# Poissons Ratio (z) = 0.41647 0.15513
#
# Static dielectric constant tensor:
#      x y z
#    x 1.557080 0.000000 0.029390 
#    y 0.000000 1.602240 -0.000010 
#    z 0.029390 -0.000010 1.567500 
# 
# From -- ./inp_files/180323.got.cif
#   From: 2010.05.17/outbox.cif.g08.bks.cpg/sg12_91_cif.got.tgz:180323.got - 2010.06.03 13:09:07.
