data_PCOD9178680
_publ_section_title
;
Structure prediction by ZEFSAII (Michael W. Deem and Ramdas Pophale) SiO2 
 PCOD9178680
Probable space group: C 2/M
;
_chemical_formula_sum "Si O2"
_cell_formula_units_Z 48
_cell_length_a 14.587980
_cell_length_b 18.517271
_cell_length_c 18.174070
_cell_angle_alpha 90.000000
_cell_angle_beta 32.563132
_cell_angle_gamma 90.000000
_cell_volume 2642.354578
_symmetry_space_group_name_H-M "C 2/M"
_symmetry_group_IT_number 12
_symmetry_cell_setting 'monoclinic'
loop_
_space_group_symop_operation_xyz
x,y,z
-x,y,-z
-x,-y,-z
x,-y,z
1/2+x,1/2+y,z
1/2-x,1/2+y,-z
1/2-x,1/2-y,-z
1/2+x,1/2-y,z
loop_
_atom_site_type_symbol
_atom_site_label
_atom_site_fract_x
_atom_site_fract_y
_atom_site_fract_z
Si Si1 0.180216 0.800614 0.482663
Si Si2 0.812380 0.816205 0.891164
Si Si3 0.808177 0.582743 0.658967
Si Si4 0.323234 0.772015 0.739443
Si Si5 0.903426 0.084833 0.346050
Si Si6 0.461748 0.781295 0.167754
O O1 0.250000 0.750000 0.500000
O O2 0.321151 0.801239 0.323944
O O3 0.995122 0.765477 0.589998
O O4 0.163631 0.876866 0.534995
O O5 0.826355 0.749697 0.823102
O O6 0.908218 0.883656 0.791671
O O7 0.929472 0.788268 0.878888
O O8 0.619656 0.833303 0.043503
O O9 0.759501 0.500000 0.714584
O O10 0.807873 0.645101 0.721737
O O11 0.700270 0.603836 0.658854
O O12 0.000000 0.579631 0.500000
O O13 0.152992 0.734908 0.824547
O O14 0.896499 0.000000 0.357619
#
# Coordination Sequence:
#
# PCOD9178680 Si02
#       6
#     8   8   8   8   8   8
#     4  11  19  34  58  86 109 146 193 240 280 325
#     4  10  22  35  56  82 113 154 190 234 278 338
#     4  10  19  30  52  85 119 150 182 229 288 345
#     4  11  19  34  59  83 113 145 192 241 281 334
#     4  10  20  37  58  85 118 151 187 232 294 346
#     4  11  20  35  55  85 110 143 200 236 279 323
#
# _framework density 18.165617000000001
#
# number of rings (size 3 to 8) (size 9 to 14) (size 15 to 20)
#    0.000    1.500    5.000    3.000    0.000    0.000 
#    0.000    0.833    0.000   22.000    0.000    0.000 
#    0.000    0.000    0.000    0.000    0.000    0.000 
#
# Total GULP energy -133637.741789 kJ/mol
# GULP energy per Si atom -5568.239241 kJ/mol
# Density = 1.812427 g / cm^3
# Si number density = 18.165617 Si / 1000 Ang^3
#
#
#
# Elastic Constant Matrix: (Units=GPa)
#
#
# Indices 1 2 3 4 5 6 
#
# 1 53.2143 20.1419 21.3669 -0.0017 -18.2628 0.0009
# 2 20.1419 73.7294 20.1376 -0.0034 -4.2000 0.0010
# 3 21.3669 20.1376 130.3317 -0.0028 -15.1605 0.0037
# 4 -0.0017 -0.0034 -0.0028 9.7007 -0.0017 -3.5308
# 5 -18.2628 -4.2000 -15.1605 -0.0017 31.4936 -0.0009
# 6 0.0009 0.0010 0.0037 -3.5308 -0.0009 20.7933
#
#
#
# Elastic Compliance Matrix: (Units=1/GPa)
#
#
# Indices 1 2 3 4 5 6 
#
# 1 0.026474 -0.005954 -0.001829 0.000005 0.013677 0.000001
# 2 -0.005954 0.015523 -0.001677 0.000004 -0.002190 0.000000
# 3 -0.001829 -0.001677 0.008562 0.000002 0.002837 -0.000001
# 4 0.000005 0.000004 0.000002 0.109876 0.000011 0.018657
# 5 0.013677 -0.002190 0.002837 0.000011 0.040757 0.000003
# 6 0.000001 0.000000 -0.000001 0.018657 0.000003 0.051260
#
#
# Mechanical properties :
#
#
# Convention : Reuss Voigt Hill
#
# Bulk Modulus (GPa) = 31.60698 42.28536 36.94617
# Shear Modulus (GPa) = 17.73559 25.43947 21.58753
#
# Velocity S-wave (km/s) = 3.12801 3.74628 3.45102
# Velocity P-wave (km/s) = 5.52115 6.48390 6.02180
#
# Compressibility (1/GPa) = 0.03163859
#
# Stress axis : x y z
#
# Youngs Moduli (GPa) = 37.77299 64.42106 116.79826
#
# Poissons Ratio (x) = 0.38354 0.21366
# Poissons Ratio (y) = 0.22488 0.19588
# Poissons Ratio (z) = 0.06910 0.10804
#
# Static dielectric constant tensor:
#      x y z
#    x 1.644260 0.000000 0.000150 
#    y 0.000000 1.649570 0.000000 
#    z 0.000150 0.000000 1.662670 
# 
# From -- ./inp_files/311325.got.cif
#   From: 2010.05.17/outbox.cif.g08.bks.cpg/sg12_156_cif.got.tgz:311325.got - 2010.06.03 13:09:07.
