data_PCOD9178525
_publ_section_title
;
Structure prediction by ZEFSAII (Michael W. Deem and Ramdas Pophale) SiO2 
 PCOD9178525
Probable space group: C 2/M
;
_chemical_formula_sum "Si O2"
_cell_formula_units_Z 40
_cell_length_a 25.664278
_cell_length_b 9.093327
_cell_length_c 12.363888
_cell_angle_alpha 90.000000
_cell_angle_beta 121.005062
_cell_angle_gamma 90.000000
_cell_volume 2473.144320
_symmetry_space_group_name_H-M "C 2/M"
_symmetry_group_IT_number 12
_symmetry_cell_setting 'monoclinic'
loop_
_space_group_symop_operation_xyz
x,y,z
-x,y,-z
-x,-y,-z
x,-y,z
1/2+x,1/2+y,z
1/2-x,1/2+y,-z
1/2-x,1/2-y,-z
1/2+x,1/2-y,z
loop_
_atom_site_type_symbol
_atom_site_label
_atom_site_fract_x
_atom_site_fract_y
_atom_site_fract_z
Si Si1 0.165259 0.325216 0.326534
Si Si2 0.540328 0.324703 0.148186
Si Si3 0.300176 0.674261 0.409875
Si Si4 0.899764 0.324920 0.389664
Si Si5 0.503334 0.824433 0.681561
O O1 0.155964 0.500000 0.328257
O O2 0.106203 0.251110 0.212831
O O3 0.227767 0.300142 0.327841
O O4 0.176512 0.255735 0.456945
O O5 0.547655 0.500000 0.164931
O O6 0.508328 0.262468 0.221617
O O7 0.500000 0.291739 0.000000
O O8 0.310133 0.500000 0.432244
O O9 0.339095 0.737565 0.352868
O O10 0.888192 0.500000 0.375973
O O11 0.947948 0.297393 0.538470
O O12 0.935261 0.285551 0.317752
O O13 0.504069 0.000000 0.703148
#
# Coordination Sequence:
#
# PCOD9178525 Si02
#       5
#     8   8   8   8   8
#     4  10  20  33  49  72 102 135 170 204 246 301
#     4  11  23  36  51  74 103 133 170 214 251 289
#     4  10  19  30  49  77 105 131 162 206 254 298
#     4   9  17  30  50  76 105 132 161 204 252 300
#     4   9  18  32  50  74 102 133 169 203 246 302
#
# _framework density 16.173742000000001
#
# number of rings (size 3 to 8) (size 9 to 14) (size 15 to 20)
#    0.000    2.200    2.000    3.000    0.000    4.800 
#    0.000    2.000    0.000    1.200    0.000    0.000 
#    0.000    0.000    0.000    0.000    0.000    0.000 
#
# Total GULP energy -111568.058190 kJ/mol
# GULP energy per Si atom -5578.402910 kJ/mol
# Density = 1.613693 g / cm^3
# Si number density = 16.173742 Si / 1000 Ang^3
#
#
#
# Elastic Constant Matrix: (Units=GPa)
#
#
# Indices 1 2 3 4 5 6 
#
# 1 159.1898 79.1565 58.1761 0.0000 8.4539 0.0000
# 2 79.1565 75.5789 57.5809 0.0000 6.0605 0.0000
# 3 58.1761 57.5809 80.4933 0.0000 8.5207 0.0000
# 4 0.0000 0.0000 0.0000 22.6577 0.0000 -0.0999
# 5 8.4539 6.0605 8.5207 0.0000 18.1801 0.0000
# 6 0.0000 0.0000 0.0000 -0.0999 0.0000 33.7407
#
#
#
# Elastic Compliance Matrix: (Units=1/GPa)
#
#
# Indices 1 2 3 4 5 6 
#
# 1 0.013184 -0.014395 0.000957 0.000000 -0.001781 0.000000
# 2 -0.014395 0.044796 -0.021853 0.000000 0.002003 0.000000
# 3 0.000957 -0.021853 0.028031 0.000000 -0.006298 0.000000
# 4 0.000000 0.000000 0.000000 0.044136 0.000000 0.000131
# 5 -0.001781 0.002003 -0.006298 0.000000 0.058117 0.000000
# 6 0.000000 0.000000 0.000000 0.000131 0.000000 0.029638
#
#
# Mechanical properties :
#
#
# Convention : Reuss Voigt Hill
#
# Bulk Modulus (GPa) = 64.81100 78.34322 71.57711
# Shear Modulus (GPa) = 17.02841 22.93894 19.98367
#
# Velocity S-wave (km/s) = 3.24827 3.77009 3.51887
# Velocity P-wave (km/s) = 7.36391 8.21554 7.80135
#
# Compressibility (1/GPa) = 0.01542948
#
# Stress axis : x y z
#
# Youngs Moduli (GPa) = 75.84714 22.32360 35.67473
#
# Poissons Ratio (x) = 0.32134 -0.03413
# Poissons Ratio (y) = 1.09179 0.77960
# Poissons Ratio (z) = -0.07257 0.48784
#
# Static dielectric constant tensor:
#      x y z
#    x 1.569080 0.000000 0.004290 
#    y 0.000000 1.535680 0.000000 
#    z 0.004290 0.000000 1.504500 
# 
# From -- ./inp_files/162718.got.cif
#   From: 2010.05.17/outbox.cif.g08.bks.cpg/sg12_82_cif.got.tgz:162718.got - 2010.06.03 13:09:07.
