data_PCOD9178647
_publ_section_title
;
Structure prediction by ZEFSAII (Michael W. Deem and Ramdas Pophale) SiO2 
 PCOD9178647
Probable space group: C 2/M
;
_chemical_formula_sum "Si O2"
_cell_formula_units_Z 52
_cell_length_a 13.857335
_cell_length_b 14.115617
_cell_length_c 14.539261
_cell_angle_alpha 90.000000
_cell_angle_beta 50.991786
_cell_angle_gamma 90.000000
_cell_volume 2209.907441
_symmetry_space_group_name_H-M "C 2/M"
_symmetry_group_IT_number 12
_symmetry_cell_setting 'monoclinic'
loop_
_space_group_symop_operation_xyz
x,y,z
-x,y,-z
-x,-y,-z
x,-y,z
1/2+x,1/2+y,z
1/2-x,1/2+y,-z
1/2-x,1/2-y,-z
1/2+x,1/2-y,z
loop_
_atom_site_type_symbol
_atom_site_label
_atom_site_fract_x
_atom_site_fract_y
_atom_site_fract_z
Si Si1 0.382514 0.893901 0.675107
Si Si2 0.513012 0.183364 0.888733
Si Si3 0.000000 0.237169 0.500000
Si Si4 0.116904 0.146525 0.600054
Si Si5 0.008633 0.102642 0.856740
Si Si6 0.280178 0.108263 0.928067
Si Si7 0.634486 0.863711 0.638322
O O1 0.391294 0.811277 0.594614
O O2 0.515753 0.892999 0.648379
O O3 0.361210 0.000000 0.650480
O O4 0.288396 0.872001 0.814037
O O5 0.550539 0.294779 0.869653
O O6 0.602385 0.125146 0.765367
O O7 0.500000 0.147216 0.000000
O O8 0.377396 0.174617 0.922139
O O9 0.973331 0.171199 0.430005
O O10 0.238887 0.100915 0.482393
O O11 0.146359 0.250896 0.621091
O O12 0.053236 0.099032 0.724749
O O13 0.859656 0.108731 0.953301
O O14 0.672837 0.000000 0.089455
O O15 0.952416 0.000000 0.124805
#
# Coordination Sequence:
#
# PCOD9178647 Si02
#       7
#     8   8   4   8   8   8   8
#     4   9  17  31  52  78 104 130 164 211 264 310
#     4  10  20  33  56  84 107 135 174 224 272 309
#     4  10  19  30  51  80 104 128 166 218 262 306
#     4   9  18  33  50  69 100 138 173 208 251 303
#     4  10  21  37  55  75 106 147 181 212 259 322
#     4   9  19  36  56  78 106 141 179 214 259 321
#     4   8  17  33  49  70 101 138 172 203 250 313
#
# _framework density 23.530397000000001
#
# number of rings (size 3 to 8) (size 9 to 14) (size 15 to 20)
#    0.000    2.769    0.000    1.615    0.000    3.692 
#    0.000    0.385    0.000    4.615    0.000    0.000 
#    0.000    0.000    0.000    0.000    0.000    0.000 
#
# Total GULP energy -145129.333330 kJ/mol
# GULP energy per Si atom -5581.897436 kJ/mol
# Density = 2.347684 g / cm^3
# Si number density = 23.530397 Si / 1000 Ang^3
#
#
#
# Elastic Constant Matrix: (Units=GPa)
#
#
# Indices 1 2 3 4 5 6 
#
# 1 43.1433 10.5316 29.1568 0.0000 -4.0174 0.0000
# 2 10.5316 91.3557 7.4566 0.0000 -5.7323 0.0000
# 3 29.1568 7.4566 196.6171 0.0000 -0.8721 0.0000
# 4 0.0000 0.0000 0.0000 17.1699 0.0000 1.7204
# 5 -4.0174 -5.7323 -0.8721 0.0000 41.9061 0.0000
# 6 0.0000 0.0000 0.0000 1.7204 0.0000 7.1588
#
#
#
# Elastic Compliance Matrix: (Units=1/GPa)
#
#
# Indices 1 2 3 4 5 6 
#
# 1 0.026608 -0.002622 -0.003837 0.000000 0.002112 0.000000
# 2 -0.002622 0.011333 -0.000035 0.000000 0.001298 0.000000
# 3 -0.003837 -0.000035 0.005655 0.000000 -0.000255 0.000000
# 4 0.000000 0.000000 0.000000 0.059679 0.000000 -0.014342
# 5 0.002112 0.001298 -0.000255 0.000000 0.024238 0.000000
# 6 0.000000 0.000000 0.000000 -0.014342 0.000000 0.143135
#
#
# Mechanical properties :
#
#
# Convention : Reuss Voigt Hill
#
# Bulk Modulus (GPa) = 32.67076 47.26734 39.96905
# Shear Modulus (GPa) = 17.01616 32.17836 24.59726
#
# Velocity S-wave (km/s) = 2.69207 3.70202 3.23668
# Velocity P-wave (km/s) = 4.85568 6.19715 5.56697
#
# Compressibility (1/GPa) = 0.03060841
#
# Stress axis : x y z
#
# Youngs Moduli (GPa) = 37.58219 88.23950 176.82735
#
# Poissons Ratio (x) = 0.23134 0.67849
# Poissons Ratio (y) = 0.09853 0.00623
# Poissons Ratio (z) = 0.14420 0.00311
#
# Static dielectric constant tensor:
#      x y z
#    x 1.869820 0.000000 -0.017690 
#    y 0.000000 1.907780 0.000000 
#    z -0.017690 0.000000 1.928200 
# 
# From -- ./inp_files/225609.got.cif
#   From: 2010.05.17/outbox.cif.g08.bks.cpg/sg12_113_cif.got.tgz:225609.got - 2010.06.03 13:09:07.
