data_PCOD9178612
_publ_section_title
;
Structure prediction by ZEFSAII (Michael W. Deem and Ramdas Pophale) SiO2 
 PCOD9178612
Probable space group: C 2/M
;
_chemical_formula_sum "Si O2"
_cell_formula_units_Z 64
_cell_length_a 23.660101
_cell_length_b 14.464847
_cell_length_c 15.196389
_cell_angle_alpha 90.000000
_cell_angle_beta 38.477361
_cell_angle_gamma 90.000000
_cell_volume 3235.970760
_symmetry_space_group_name_H-M "C 2/M"
_symmetry_group_IT_number 12
_symmetry_cell_setting 'monoclinic'
loop_
_space_group_symop_operation_xyz
x,y,z
-x,y,-z
-x,-y,-z
x,-y,z
1/2+x,1/2+y,z
1/2-x,1/2+y,-z
1/2-x,1/2-y,-z
1/2+x,1/2-y,z
loop_
_atom_site_type_symbol
_atom_site_label
_atom_site_fract_x
_atom_site_fract_y
_atom_site_fract_z
Si Si1 0.398388 0.894524 0.144114
Si Si2 0.143423 0.150863 0.578483
Si Si3 0.560666 0.605651 0.163360
Si Si4 0.290229 0.898126 0.657031
Si Si5 0.419367 0.388847 0.664123
Si Si6 0.663693 0.866673 0.589742
Si Si7 0.213693 0.809207 0.302504
Si Si8 0.911614 0.890256 0.058981
O O1 0.391204 0.897903 0.258783
O O2 0.318290 0.831089 0.201239
O O3 0.385152 0.000000 0.127379
O O4 0.500000 0.863687 0.000000
O O5 0.232857 0.107906 0.511420
O O6 0.147788 0.256808 0.604521
O O7 0.159127 0.152524 0.454391
O O8 0.048036 0.106911 0.718151
O O9 0.594289 0.500000 0.128352
O O10 0.575044 0.648119 0.242610
O O11 0.601089 0.648524 0.024637
O O12 0.346293 0.899096 0.497914
O O13 0.309331 0.799801 0.679344
O O14 0.181489 0.886325 0.773340
O O15 0.301129 0.000000 0.686702
O O16 0.500000 0.355714 0.500000
O O17 0.428865 0.500000 0.656990
O O18 0.324663 0.361970 0.734619
O O19 0.929540 0.000000 0.023677
O O20 0.000000 0.852010 0.000000
#
# Coordination Sequence:
#
# PCOD9178612 Si02
#       8
#     8   8   8   8   8   8   8   8
#     4  10  21  35  52  77 111 149 185 223 274 332
#     4   9  17  29  45  75 107 136 175 214 267 328
#     4  10  19  30  50  80 111 138 172 224 279 332
#     4  10  20  34  52  74 102 141 184 223 270 323
#     4  10  19  33  55  83 110 140 177 223 280 332
#     4   9  18  31  49  71 102 143 180 217 263 323
#     4  10  20  34  53  78 109 142 179 229 272 321
#     4   9  18  31  48  75 110 144 176 217 270 323
#
# _framework density 19.777681999999999
#
# number of rings (size 3 to 8) (size 9 to 14) (size 15 to 20)
#    0.000    2.375    1.250    2.250    0.000    5.000 
#    0.000    0.625    0.000    0.375    0.000    0.000 
#    0.000    0.000    0.000    0.000    0.000    0.000 
#
# Total GULP energy -178223.436312 kJ/mol
# GULP energy per Si atom -5569.482385 kJ/mol
# Density = 1.973267 g / cm^3
# Si number density = 19.777682 Si / 1000 Ang^3
#
#
#
# Elastic Constant Matrix: (Units=GPa)
#
#
# Indices 1 2 3 4 5 6 
#
# 1 63.4926 -3.7516 30.2656 0.0000 19.6803 0.0000
# 2 -3.7516 63.9887 1.2372 0.0000 6.7303 0.0000
# 3 30.2656 1.2372 105.9350 0.0000 9.7262 0.0000
# 4 0.0000 0.0000 0.0000 37.3500 0.0000 -43.1859
# 5 19.6803 6.7303 9.7262 0.0000 22.6287 0.0000
# 6 0.0000 0.0000 0.0000 -43.1859 0.0000 65.7258
#
#
#
# Elastic Compliance Matrix: (Units=1/GPa)
#
#
# Indices 1 2 3 4 5 6 
#
# 1 0.024800 0.003703 -0.005255 0.000000 -0.020412 0.000000
# 2 0.003703 0.016692 -0.000522 0.000000 -0.007960 0.000000
# 3 -0.005255 -0.000522 0.010945 0.000000 0.000021 0.000000
# 4 0.000000 0.000000 0.000000 0.111430 0.000000 0.073217
# 5 -0.020412 -0.007960 0.000021 0.000000 0.064303 0.000000
# 6 0.000000 0.000000 0.000000 0.073217 0.000000 0.063322
#
#
# Mechanical properties :
#
#
# Convention : Reuss Voigt Hill
#
# Bulk Modulus (GPa) = 20.70836 32.10207 26.40522
# Shear Modulus (GPa) = 16.03913 38.85189 27.44551
#
# Velocity S-wave (km/s) = 2.85084 4.43700 3.72923
# Velocity P-wave (km/s) = 4.61841 6.52043 5.65003
#
# Compressibility (1/GPa) = 0.04828968
#
# Stress axis : x y z
#
# Youngs Moduli (GPa) = 40.32213 59.90823 91.36434
#
# Poissons Ratio (x) = -0.22181 0.48008
# Poissons Ratio (y) = -0.14929 0.04768
# Poissons Ratio (z) = 0.21188 0.03126
#
# Static dielectric constant tensor:
#      x y z
#    x 1.700940 0.000000 0.029000 
#    y 0.000000 1.744150 0.000000 
#    z 0.029000 0.000000 1.714620 
# 
# From -- ./inp_files/240690.got.cif
#   From: 2010.05.17/outbox.cif.g08.bks.cpg/sg12_121_cif.got.tgz:240690.got - 2010.06.03 13:09:07.
