data_PCOD9178345
_publ_section_title
;
Structure prediction by ZEFSAII (Michael W. Deem and Ramdas Pophale) SiO2 
 PCOD9178345
Probable space group: C 2/M
;
_chemical_formula_sum "Si O2"
_cell_formula_units_Z 56
_cell_length_a 20.506245
_cell_length_b 25.455022
_cell_length_c 16.981474
_cell_angle_alpha 90.000000
_cell_angle_beta 159.123821
_cell_angle_gamma 90.000000
_cell_volume 3158.720800
_symmetry_space_group_name_H-M "C 2/M"
_symmetry_group_IT_number 12
_symmetry_cell_setting 'monoclinic'
loop_
_space_group_symop_operation_xyz
x,y,z
-x,y,-z
-x,-y,-z
x,-y,z
1/2+x,1/2+y,z
1/2-x,1/2+y,-z
1/2-x,1/2-y,-z
1/2+x,1/2-y,z
loop_
_atom_site_type_symbol
_atom_site_label
_atom_site_fract_x
_atom_site_fract_y
_atom_site_fract_z
Si Si1 0.767800 0.299113 0.915130
Si Si2 0.427050 0.367228 0.754929
Si Si3 0.717634 0.181180 0.898044
Si Si4 0.851643 0.058270 0.903236
Si Si5 0.160052 0.650514 0.599802
Si Si6 0.222107 0.733406 0.241490
Si Si7 0.293795 0.199543 0.603588
O O1 0.685961 0.243121 0.850966
O O2 0.717787 0.301310 0.766003
O O3 0.736360 0.333152 0.958930
O O4 0.987916 0.302563 0.155946
O O5 0.305569 0.354679 0.693558
O O6 0.299351 0.352408 0.537666
O O7 0.597799 0.328306 0.941560
O O8 0.530638 0.421937 0.888689
O O9 0.540413 0.151342 0.665459
O O10 0.708807 0.102682 0.713244
O O11 0.773831 0.000000 0.826855
O O12 0.000000 0.055683 0.000000
O O13 0.197107 0.708081 0.677470
O O14 0.276299 0.710069 0.387358
O O15 0.000000 0.737898 0.000000
O O16 0.250000 0.250000 0.500000
#
# Coordination Sequence:
#
# PCOD9178345 Si02
#       7
#     8   8   8   8   8   8   8
#     4  10  20  31  43  69 103 133 174 215 240 301
#     4  11  20  34  52  70 100 133 170 213 261 304
#     4  11  21  32  47  71  98 136 180 209 249 306
#     4   9  20  37  57  79 103 135 181 228 263 307
#     4  11  20  34  52  70  98 139 173 212 260 300
#     4  10  19  30  48  70 100 137 174 201 247 306
#     4  11  17  32  50  70  99 139 170 209 255 308
#
# _framework density 17.728695999999999
#
# number of rings (size 3 to 8) (size 9 to 14) (size 15 to 20)
#    0.000    1.571    4.286    3.000    2.000    2.286 
#    0.000    1.429    0.000    0.000    0.000    0.000 
#    0.000    8.571    0.000    0.000    0.000    0.000 
#
# Total GULP energy -155972.747067 kJ/mol
# GULP energy per Si atom -5570.455252 kJ/mol
# Density = 1.768834 g / cm^3
# Si number density = 17.728696 Si / 1000 Ang^3
#
#
#
# Elastic Constant Matrix: (Units=GPa)
#
#
# Indices 1 2 3 4 5 6 
#
# 1 116.7996 25.1365 37.3069 0.0000 -19.2988 0.0000
# 2 25.1365 68.9277 34.8456 0.0000 -17.7283 0.0000
# 3 37.3069 34.8456 92.7330 0.0000 -2.2983 0.0000
# 4 0.0000 0.0000 0.0000 13.0937 0.0000 -3.9795
# 5 -19.2988 -17.7283 -2.2983 0.0000 35.7463 0.0000
# 6 0.0000 0.0000 0.0000 -3.9795 0.0000 9.8226
#
#
#
# Elastic Compliance Matrix: (Units=1/GPa)
#
#
# Indices 1 2 3 4 5 6 
#
# 1 0.010845 -0.000552 -0.004024 0.000000 0.005323 0.000000
# 2 -0.000552 0.020920 -0.007401 0.000000 0.009602 0.000000
# 3 -0.004024 -0.007401 0.015063 0.000000 -0.004875 0.000000
# 4 0.000000 0.000000 0.000000 0.087097 0.000000 0.035286
# 5 0.005323 0.009602 -0.004875 0.000000 0.035297 0.000000
# 6 0.000000 0.000000 0.000000 0.035286 0.000000 0.116102
#
#
# Mechanical properties :
#
#
# Convention : Reuss Voigt Hill
#
# Bulk Modulus (GPa) = 43.71636 52.55982 48.13809
# Shear Modulus (GPa) = 15.77774 23.81060 19.79417
#
# Velocity S-wave (km/s) = 2.98645 3.66875 3.34504
# Velocity P-wave (km/s) = 6.05011 6.90343 6.49081
#
# Compressibility (1/GPa) = 0.02287473
#
# Stress axis : x y z
#
# Youngs Moduli (GPa) = 92.20712 47.80045 66.38919
#
# Poissons Ratio (x) = 0.02638 0.26714
# Poissons Ratio (y) = 0.05088 0.49135
# Poissons Ratio (z) = 0.37102 0.35378
#
# Static dielectric constant tensor:
#      x y z
#    x 1.690650 0.000000 -0.038370 
#    y 0.000000 1.607340 0.000000 
#    z -0.038370 0.000000 1.676540 
# 
# From -- ./inp_files/286358.got.cif
#   From: 2010.05.17/outbox.cif.g08.bks.cpg/sg12_144_cif.got.tgz:286358.got - 2010.06.03 13:09:07.
