data_PCOD9178058
_publ_section_title
;
Structure prediction by ZEFSAII (Michael W. Deem and Ramdas Pophale) SiO2 
 PCOD9178058
Probable space group: C 2/M
;
_chemical_formula_sum "Si O2"
_cell_formula_units_Z 56
_cell_length_a 38.839097
_cell_length_b 7.839089
_cell_length_c 24.091430
_cell_angle_alpha 90.000000
_cell_angle_beta 156.019931
_cell_angle_gamma 90.000000
_cell_volume 2981.062772
_symmetry_space_group_name_H-M "C 2/M"
_symmetry_group_IT_number 12
_symmetry_cell_setting 'monoclinic'
loop_
_space_group_symop_operation_xyz
x,y,z
-x,y,-z
-x,-y,-z
x,-y,z
1/2+x,1/2+y,z
1/2-x,1/2+y,-z
1/2-x,1/2-y,-z
1/2+x,1/2-y,z
loop_
_atom_site_type_symbol
_atom_site_label
_atom_site_fract_x
_atom_site_fract_y
_atom_site_fract_z
Si Si1 0.717647 0.797088 0.715157
Si Si2 0.792545 0.199995 0.427172
Si Si3 0.253347 0.795513 0.069022
Si Si4 0.094969 0.708895 0.629115
Si Si5 0.940538 0.209486 0.727726
Si Si6 0.674328 0.702928 0.346240
Si Si7 0.630699 0.708828 0.983985
O O1 0.711321 0.765222 0.640874
O O2 0.637982 0.735005 0.634533
O O3 0.804215 0.734644 0.871846
O O4 0.718979 0.000000 0.725002
O O5 0.870645 0.269364 0.579632
O O6 0.705776 0.228648 0.333679
O O7 0.806876 0.000000 0.444690
O O8 0.339263 0.737174 0.226103
O O9 0.174108 0.736719 0.989999
O O10 0.253349 0.000000 0.072880
O O11 0.250000 0.750000 0.000000
O O12 0.092311 0.500000 0.625264
O O13 0.000000 0.769296 0.500000
O O14 0.908487 0.262136 0.741993
O O15 0.939134 0.000000 0.725276
O O16 0.034877 0.266534 0.852210
O O17 0.669553 0.500000 0.333891
O O18 0.750000 0.750000 0.500000
O O19 0.628161 0.500000 0.980580
#
# Coordination Sequence:
#
# PCOD9178058 Si02
#       7
#     8   8   8   8   8   8   8
#     4   9  17  30  49  68  87 118 155 188 222 262
#     4  10  19  30  46  68  94 121 148 184 228 270
#     4   9  17  29  47  68  90 118 148 182 223 264
#     4   8  15  29  47  66  90 120 152 184 221 268
#     4   8  15  28  47  68  87 113 150 187 220 259
#     4   9  16  28  47  69  92 118 149 186 227 267
#     4   8  15  30  48  65  88 118 152 185 219 263
#
# _framework density 18.785246000000001
#
# number of rings (size 3 to 8) (size 9 to 14) (size 15 to 20)
#    0.000    3.286    0.000    3.429    0.000    1.143 
#    0.000    3.571    0.000   14.571    0.000    0.000 
#    0.000    0.000    0.000    0.000    0.000    0.000 
#
# Total GULP energy -155911.035198 kJ/mol
# GULP energy per Si atom -5568.251257 kJ/mol
# Density = 1.874249 g / cm^3
# Si number density = 18.785246 Si / 1000 Ang^3
#
#
#
# Elastic Constant Matrix: (Units=GPa)
#
#
# Indices 1 2 3 4 5 6 
#
# 1 189.5159 -5.9019 105.6243 0.0000 9.2289 0.0000
# 2 -5.9019 10.1712 1.7962 0.0000 0.8135 0.0000
# 3 105.6243 1.7962 114.6921 0.0000 29.4045 0.0000
# 4 0.0000 0.0000 0.0000 9.4325 0.0000 -7.2258
# 5 9.2289 0.8135 29.4045 0.0000 30.5065 0.0000
# 6 0.0000 0.0000 0.0000 -7.2258 0.0000 23.4582
#
#
#
# Elastic Compliance Matrix: (Units=1/GPa)
#
#
# Indices 1 2 3 4 5 6 
#
# 1 0.013673 0.009821 -0.015431 0.000000 0.010476 0.000000
# 2 0.009821 0.105696 -0.012240 0.000000 0.006008 0.000000
# 3 -0.015431 -0.012240 0.029010 0.000000 -0.022968 0.000000
# 4 0.000000 0.000000 0.000000 0.138759 0.000000 0.042742
# 5 0.010476 0.006008 -0.022968 0.000000 0.051589 0.000000
# 6 0.000000 0.000000 0.000000 0.042742 0.000000 0.055795
#
#
# Mechanical properties :
#
#
# Convention : Reuss Voigt Hill
#
# Bulk Modulus (GPa) = 8.87483 57.49071 33.18277
# Shear Modulus (GPa) = 10.68874 26.87013 18.77943
#
# Velocity S-wave (km/s) = 2.38795 3.78615 3.16522
# Velocity P-wave (km/s) = 3.51251 7.05577 5.57322
#
# Compressibility (1/GPa) = 0.11267818
#
# Stress axis : x y z
#
# Youngs Moduli (GPa) = 73.13829 9.46108 34.47049
#
# Poissons Ratio (x) = -0.09292 0.53192
# Poissons Ratio (y) = -0.71829 0.42193
# Poissons Ratio (z) = 1.12862 0.11581
#
# Static dielectric constant tensor:
#      x y z
#    x 1.661650 0.000000 0.012780 
#    y 0.000000 1.687340 0.000000 
#    z 0.012780 0.000000 1.647990 
# 
# From -- ./inp_files/320226.got.cif
#   From: 2010.05.17/outbox.cif.g08.bks.cpg/sg12_161_cif.got.tgz:320226.got - 2010.06.03 13:09:07.
