data_PCOD9178645
_publ_section_title
;
Structure prediction by ZEFSAII (Michael W. Deem and Ramdas Pophale) SiO2 
 PCOD9178645
Probable space group: C 2/M
;
_chemical_formula_sum "Si O2"
_cell_formula_units_Z 64
_cell_length_a 24.471003
_cell_length_b 9.151962
_cell_length_c 17.313520
_cell_angle_alpha 90.000000
_cell_angle_beta 102.996931
_cell_angle_gamma 90.000000
_cell_volume 3778.162683
_symmetry_space_group_name_H-M "C 2/M"
_symmetry_group_IT_number 12
_symmetry_cell_setting 'monoclinic'
loop_
_space_group_symop_operation_xyz
x,y,z
-x,y,-z
-x,-y,-z
x,-y,z
1/2+x,1/2+y,z
1/2-x,1/2+y,-z
1/2-x,1/2-y,-z
1/2+x,1/2-y,z
loop_
_atom_site_type_symbol
_atom_site_label
_atom_site_fract_x
_atom_site_fract_y
_atom_site_fract_z
Si Si1 0.310304 0.174190 0.020931
Si Si2 0.085724 0.169003 0.507685
Si Si3 0.592037 0.825621 0.671938
Si Si4 0.304985 0.175811 0.189483
Si Si5 0.317330 0.824383 0.853501
Si Si6 0.199242 0.168660 0.443820
Si Si7 0.980775 0.175213 0.665655
Si Si8 0.630650 0.676924 0.275401
O O1 0.332528 0.207652 0.113757
O O2 0.302712 0.000000 0.016097
O O3 0.250000 0.250000 0.000000
O O4 0.337705 0.213339 0.947479
O O5 0.088917 0.267475 0.583744
O O6 0.144927 0.173616 0.481703
O O7 0.040461 0.211394 0.428138
O O8 0.074992 0.000000 0.526938
O O9 0.650688 0.783189 0.730698
O O10 0.538915 0.755422 0.698418
O O11 0.588054 0.000000 0.672791
O O12 0.245652 0.258692 0.175840
O O13 0.294674 0.000000 0.190698
O O14 0.355773 0.752630 0.800610
O O15 0.315690 0.000000 0.844916
O O16 0.250000 0.250000 0.500000
O O17 0.177483 0.223242 0.353723
O O18 0.215438 0.000000 0.438651
O O19 0.929985 0.213229 0.707370
O O20 0.987601 0.000000 0.670601
O O21 0.633445 0.500000 0.270063
#
# Coordination Sequence:
#
# PCOD9178645 Si02
#       8
#     8   8   8   8   8   8   8   8
#     4   8  15  30  49  69  97 130 160 192 236 291
#     4   9  19  35  51  68  93 129 168 201 241 291
#     4  11  22  32  49  76 100 125 162 208 248 285
#     4   9  19  34  49  70 104 137 158 189 247 303
#     4  10  19  30  51  80 101 123 163 206 238 283
#     4   9  19  33  48  67  95 130 163 196 237 287
#     4   9  19  37  55  68  91 132 172 202 241 290
#     4   9  19  35  52  70  96 131 165 196 242 299
#
# _framework density 16.939450999999998
#
# number of rings (size 3 to 8) (size 9 to 14) (size 15 to 20)
#    0.000    2.750    0.000    2.625    1.750    5.000 
#    0.000    2.500    0.000    0.750    0.000    5.250 
#    0.000    0.000    0.000    0.000    0.000    0.000 
#
# Total GULP energy -178283.401374 kJ/mol
# GULP energy per Si atom -5571.356293 kJ/mol
# Density = 1.690090 g / cm^3
# Si number density = 16.939451 Si / 1000 Ang^3
#
#
#
# Elastic Constant Matrix: (Units=GPa)
#
#
# Indices 1 2 3 4 5 6 
#
# 1 28.3547 13.2048 23.9979 0.0000 -6.5806 0.0000
# 2 13.2048 20.7325 23.5975 0.0000 -5.5451 0.0000
# 3 23.9979 23.5975 71.4627 0.0000 -25.2124 0.0000
# 4 0.0000 0.0000 0.0000 25.4513 0.0000 -5.2042
# 5 -6.5806 -5.5451 -25.2124 0.0000 26.5003 0.0000
# 6 0.0000 0.0000 0.0000 -5.2042 0.0000 27.3017
#
#
#
# Elastic Compliance Matrix: (Units=1/GPa)
#
#
# Indices 1 2 3 4 5 6 
#
# 1 0.055224 -0.022011 -0.012138 0.000000 -0.002440 0.000000
# 2 -0.022011 0.088763 -0.026032 0.000000 -0.011659 0.000000
# 3 -0.012138 -0.026032 0.035645 0.000000 0.025451 0.000000
# 4 0.000000 0.000000 0.000000 0.040884 0.000000 0.007793
# 5 -0.002440 -0.011659 0.025451 0.000000 0.058904 0.000000
# 6 0.000000 0.000000 0.000000 0.007793 0.000000 0.038113
#
#
# Mechanical properties :
#
#
# Convention : Reuss Voigt Hill
#
# Bulk Modulus (GPa) = 16.87168 26.90558 21.88863
# Shear Modulus (GPa) = 10.92533 19.83397 15.37965
#
# Velocity S-wave (km/s) = 2.54237 3.42552 3.01644
# Velocity P-wave (km/s) = 4.31275 5.61813 5.00815
#
# Compressibility (1/GPa) = 0.05927092
#
# Stress axis : x y z
#
# Youngs Moduli (GPa) = 18.10798 11.26590 28.05473
#
# Poissons Ratio (x) = 0.24797 0.34052
# Poissons Ratio (y) = 0.39857 0.73033
# Poissons Ratio (z) = 0.21979 0.29328
#
# Static dielectric constant tensor:
#      x y z
#    x 1.562860 0.000000 -0.021560 
#    y 0.000000 1.565020 0.000000 
#    z -0.021560 0.000000 1.596880 
# 
# From -- ./inp_files/244217.got.cif
#   From: 2010.05.17/outbox.cif.g08.bks.cpg/sg12_123_cif.got.tgz:244217.got - 2010.06.03 13:09:07.
