data_PCOD9178179
_publ_section_title
;
Structure prediction by ZEFSAII (Michael W. Deem and Ramdas Pophale) SiO2 
 PCOD9178179
Probable space group: C 2/M
;
_chemical_formula_sum "Si O2"
_cell_formula_units_Z 60
_cell_length_a 14.349400
_cell_length_b 22.791251
_cell_length_c 29.743313
_cell_angle_alpha 90.000000
_cell_angle_beta 159.403837
_cell_angle_gamma 90.000000
_cell_volume 3421.851117
_symmetry_space_group_name_H-M "C 2/M"
_symmetry_group_IT_number 12
_symmetry_cell_setting 'monoclinic'
loop_
_space_group_symop_operation_xyz
x,y,z
-x,y,-z
-x,-y,-z
x,-y,z
1/2+x,1/2+y,z
1/2-x,1/2+y,-z
1/2-x,1/2-y,-z
1/2+x,1/2-y,z
loop_
_atom_site_type_symbol
_atom_site_label
_atom_site_fract_x
_atom_site_fract_y
_atom_site_fract_z
Si Si1 0.447156 0.740172 0.376596
Si Si2 0.203701 0.887817 0.373730
Si Si3 0.287293 0.565986 0.012300
Si Si4 0.053585 0.181642 0.145402
Si Si5 0.518403 0.214550 0.955270
Si Si6 0.788742 0.933996 0.120154
Si Si7 0.500000 0.773091 0.500000
Si Si8 0.266691 0.370748 0.238331
O O1 0.295461 0.795459 0.285105
O O2 0.424946 0.740058 0.420629
O O3 0.336508 0.678931 0.306500
O O4 0.750000 0.750000 0.500000
O O5 0.500000 0.913821 0.500000
O O6 0.265500 0.818578 0.406612
O O7 0.031752 0.900785 0.252008
O O8 0.024936 0.905148 0.336172
O O9 0.329237 0.500000 0.013120
O O10 0.508200 0.616515 0.105057
O O11 0.299379 0.561430 0.071813
O O12 0.992542 0.590524 0.866916
O O13 0.039035 0.224997 0.096450
O O14 0.803945 0.194248 0.065566
O O15 0.321565 0.167176 0.844950
O O16 0.500000 0.220909 0.000000
O O17 0.792589 0.000000 0.141789
O O18 0.500000 0.908511 0.000000
#
# Coordination Sequence:
#
# PCOD9178179 Si02
#       8
#     8   8   8   8   8   8   4   8
#     4  11  20  35  51  76 110 137 180 219 274 331
#     4  10  20  31  46  73 103 142 170 212 268 319
#     4  10  20  34  53  74 104 144 183 226 269 312
#     4   9  20  33  50  80 107 135 179 220 264 332
#     4   9  19  31  52  78 106 136 167 223 280 326
#     4  10  19  30  47  69  96 136 182 213 247 312
#     4  10  22  32  51  72 101 150 170 208 276 336
#     4  10  20  32  49  75 105 140 176 224 267 327
#
# _framework density 17.534369999999999
#
# number of rings (size 3 to 8) (size 9 to 14) (size 15 to 20)
#    0.400    1.733    2.667    1.600    5.600    0.267 
#    0.000    0.000    0.000    1.200    0.000    0.467 
#    0.000    0.000    0.000    0.267    0.000    0.000 
#
# Total GULP energy -167003.520649 kJ/mol
# GULP energy per Si atom -5566.784022 kJ/mol
# Density = 1.749446 g / cm^3
# Si number density = 17.534370 Si / 1000 Ang^3
#
#
#
# Elastic Constant Matrix: (Units=GPa)
#
#
# Indices 1 2 3 4 5 6 
#
# 1 49.4410 12.4600 18.2590 0.0085 -17.9697 0.0008
# 2 12.4600 96.5627 36.3775 -0.0092 -7.3828 0.0055
# 3 18.2590 36.3775 114.9456 -0.0748 -0.4182 0.0275
# 4 0.0085 -0.0092 -0.0748 69.2162 -0.0114 -9.3214
# 5 -17.9697 -7.3828 -0.4182 -0.0114 29.3931 0.0007
# 6 0.0008 0.0055 0.0275 -9.3214 0.0007 14.0611
#
#
#
# Elastic Compliance Matrix: (Units=1/GPa)
#
#
# Indices 1 2 3 4 5 6 
#
# 1 0.028111 -0.000765 -0.004162 -0.000005 0.016934 0.000003
# 2 -0.000765 0.012031 -0.003677 -0.000002 0.002502 0.000001
# 3 -0.004162 -0.003677 0.010512 0.000009 -0.003318 -0.000013
# 4 -0.000005 -0.000002 0.000009 0.015864 0.000003 0.010516
# 5 0.016934 0.002502 -0.003318 0.000003 0.044956 0.000004
# 6 0.000003 0.000001 -0.000013 0.010516 0.000004 0.078090
#
#
# Mechanical properties :
#
#
# Convention : Reuss Voigt Hill
#
# Bulk Modulus (GPa) = 29.89758 43.90470 36.90114
# Shear Modulus (GPa) = 22.94422 35.45760 29.20091
#
# Velocity S-wave (km/s) = 3.62128 4.50174 4.08530
# Velocity P-wave (km/s) = 5.87986 7.21904 6.58359
#
# Compressibility (1/GPa) = 0.03344752
#
# Stress axis : x y z
#
# Youngs Moduli (GPa) = 35.57351 83.11755 95.12507
#
# Poissons Ratio (x) = 0.06356 0.39589
# Poissons Ratio (y) = 0.02720 0.34977
# Poissons Ratio (z) = 0.14805 0.30562
#
# Static dielectric constant tensor:
#      x y z
#    x 1.611020 0.000000 0.031400 
#    y 0.000000 1.676900 -0.000010 
#    z 0.031400 -0.000010 1.648600 
# 
# From -- ./inp_files/377166.got.cif
#   From: 2010.05.17/outbox.cif.g08.bks.cpg/sg12_189_cif.got.tgz:377166.got - 2010.06.03 13:09:07.
