data_PCOD9178474
_publ_section_title
;
Structure prediction by ZEFSAII (Michael W. Deem and Ramdas Pophale) SiO2 
 PCOD9178474
Probable space group: C 2/M
;
_chemical_formula_sum "Si O2"
_cell_formula_units_Z 42
_cell_length_a 19.337851
_cell_length_b 24.670192
_cell_length_c 14.408236
_cell_angle_alpha 90.000000
_cell_angle_beta 159.649249
_cell_angle_gamma 90.000000
_cell_volume 2390.446406
_symmetry_space_group_name_H-M "C 2/M"
_symmetry_group_IT_number 12
_symmetry_cell_setting 'monoclinic'
loop_
_space_group_symop_operation_xyz
x,y,z
-x,y,-z
-x,-y,-z
x,-y,z
1/2+x,1/2+y,z
1/2-x,1/2+y,-z
1/2-x,1/2-y,-z
1/2+x,1/2-y,z
loop_
_atom_site_type_symbol
_atom_site_label
_atom_site_fract_x
_atom_site_fract_y
_atom_site_fract_z
Si Si1 0.450898 0.324402 0.587871
Si Si2 0.163404 0.411496 0.134471
Si Si3 0.324726 0.794229 0.404362
Si Si4 0.000000 0.000000 0.500000
Si Si5 0.098953 0.663006 0.894400
Si Si6 0.517593 0.283806 0.871931
O O1 0.279827 0.362171 0.332404
O O2 0.428826 0.263545 0.521385
O O3 0.449834 0.317617 0.697613
O O4 0.668391 0.343989 0.833055
O O5 0.331142 0.453054 0.312691
O O6 0.049161 0.384020 0.903910
O O7 0.000000 0.433893 0.000000
O O8 0.476043 0.835123 0.643928
O O9 0.156107 0.783180 0.270567
O O10 0.210300 0.808175 0.166146
O O11 0.062892 0.722519 0.894790
#
# Coordination Sequence:
#
# PCOD9178474 Si02
#       6
#     8   8   8   2   8   8
#     4  11  20  32  51  77 113 149 186 222 267 330
#     4  12  23  41  61  82 113 145 182 239 285 326
#     4  10  19  30  48  78 114 155 188 213 260 331
#     4  12  26  44  60  86 102 136 202 236 296 334
#     4  11  20  32  51  77 113 149 186 222 267 330
#     4  10  19  30  48  78 114 155 188 213 260 331
#
# _framework density 17.569939999999999
#
# number of rings (size 3 to 8) (size 9 to 14) (size 15 to 20)
#    0.000    1.143    3.810    7.143    0.000    2.286 
#    0.000    0.000    0.000    0.000    0.000    2.667 
#    0.000    6.095    0.000    0.000    0.000    0.000 
#
# Total GULP energy -117006.196116 kJ/mol
# GULP energy per Si atom -5571.723625 kJ/mol
# Density = 1.752995 g / cm^3
# Si number density = 17.569940 Si / 1000 Ang^3
#
#
#
# Elastic Constant Matrix: (Units=GPa)
#
#
# Indices 1 2 3 4 5 6 
#
# 1 53.3284 21.3410 16.2823 0.0000 -1.2965 0.0000
# 2 21.3410 64.1398 18.7784 0.0000 -8.2084 0.0000
# 3 16.2823 18.7784 97.1243 0.0000 -14.9391 0.0000
# 4 0.0000 0.0000 0.0000 8.9046 0.0000 9.7339
# 5 -1.2965 -8.2084 -14.9391 0.0000 42.1983 0.0000
# 6 0.0000 0.0000 0.0000 9.7339 0.0000 6.3824
#
#
#
# Elastic Compliance Matrix: (Units=1/GPa)
#
#
# Indices 1 2 3 4 5 6 
#
# 1 0.022257 -0.006831 -0.002654 0.000000 -0.001585 0.000000
# 2 -0.006831 0.018819 -0.002076 0.000000 0.002716 0.000000
# 3 -0.002654 -0.002076 0.011705 0.000000 0.003659 0.000000
# 4 0.000000 0.000000 0.000000 -0.168336 0.000000 0.256730
# 5 -0.001585 0.002716 0.003659 0.000000 0.025472 0.000000
# 6 0.000000 0.000000 0.000000 0.256730 0.000000 -0.234859
#
#
# Mechanical properties :
#
#
# Convention : Reuss Voigt Hill
#
# Bulk Modulus (GPa) = 33.71623 36.37734 35.04679
# Shear Modulus (GPa) = -17.12728 22.04312 2.45792
#
# Velocity S-wave (km/s) = -3.12558 3.54587 1.18405
# Velocity P-wave (km/s) = 2.49114 6.12482 4.67543
#
# Compressibility (1/GPa) = 0.02965930
#
# Stress axis : x y z
#
# Youngs Moduli (GPa) = 44.92888 53.13737 85.43284
#
# Poissons Ratio (x) = 0.36300 0.22676
# Poissons Ratio (y) = 0.30692 0.17732
# Poissons Ratio (z) = 0.11925 0.11029
#
# Static dielectric constant tensor:
#      x y z
#    x 1.676450 0.000000 0.004810 
#    y 0.000000 1.544070 0.000000 
#    z 0.004810 0.000000 1.652170 
# 
# From -- ./inp_files/235401.got.cif
#   From: 2010.05.17/outbox.cif.g08.bks.cpg/sg12_118_cif.got.tgz:235401.got - 2010.06.03 13:09:07.
