data_PCOD9178323
_publ_section_title
;
Structure prediction by ZEFSAII (Michael W. Deem and Ramdas Pophale) SiO2 
 PCOD9178323
Probable space group: C 2/M
;
_chemical_formula_sum "Si O2"
_cell_formula_units_Z 56
_cell_length_a 23.056923
_cell_length_b 18.502864
_cell_length_c 11.276957
_cell_angle_alpha 90.000000
_cell_angle_beta 148.474693
_cell_angle_gamma 90.000000
_cell_volume 2515.534077
_symmetry_space_group_name_H-M "C 2/M"
_symmetry_group_IT_number 12
_symmetry_cell_setting 'monoclinic'
loop_
_space_group_symop_operation_xyz
x,y,z
-x,y,-z
-x,-y,-z
x,-y,z
1/2+x,1/2+y,z
1/2-x,1/2+y,-z
1/2-x,1/2-y,-z
1/2+x,1/2-y,z
loop_
_atom_site_type_symbol
_atom_site_label
_atom_site_fract_x
_atom_site_fract_y
_atom_site_fract_z
Si Si1 0.070160 0.715201 0.731719
Si Si2 0.181068 0.082211 0.024869
Si Si3 0.782631 0.912596 0.504265
Si Si4 0.930576 0.582811 0.002776
Si Si5 0.803932 0.848036 0.183568
Si Si6 0.358500 0.913631 0.503577
Si Si7 0.456542 0.336336 0.671302
O O1 0.133664 0.781653 0.774130
O O2 0.000000 0.680257 0.500000
O O3 0.991633 0.756088 0.690899
O O4 0.173968 0.671755 0.968547
O O5 0.292376 0.115657 0.275771
O O6 0.173256 0.000000 0.050727
O O7 0.188746 0.087738 0.897698
O O8 0.072283 0.122318 0.878391
O O9 0.724576 0.903729 0.530483
O O10 0.886081 0.859731 0.663228
O O11 0.806168 0.000000 0.531298
O O12 0.687599 0.888503 0.244521
O O13 0.907803 0.500000 0.999084
O O14 0.019168 0.613548 0.250349
O O15 0.000000 0.580332 0.000000
O O16 0.877767 0.863530 0.426676
O O17 0.374015 0.000000 0.516291
#
# Coordination Sequence:
#
# PCOD9178323 Si02
#       7
#     8   8   8   8   8   8   8
#     4   8  16  34  55  69  89 123 175 224 251 291
#     4  10  19  30  47  74 109 140 165 202 252 304
#     4   9  16  27  46  75 111 142 166 200 248 302
#     4   7  11  23  42  61  91 138 179 201 224 275
#     4   9  18  33  51  73  95 129 174 209 252 304
#     4   8  15  28  45  68 104 147 179 198 230 296
#     4  10  19  30  49  78 102 127 169 214 256 308
#
# _framework density 22.261675
#
# number of rings (size 3 to 8) (size 9 to 14) (size 15 to 20)
#    0.000    3.286    0.000    3.429    0.000    2.286 
#    2.571    2.143    0.000    0.429    0.000   29.000 
#    0.000    0.000    0.000    0.000    0.000    0.000 
#
# Total GULP energy -155975.504087 kJ/mol
# GULP energy per Si atom -5570.553717 kJ/mol
# Density = 2.221101 g / cm^3
# Si number density = 22.261675 Si / 1000 Ang^3
#
#
#
# Elastic Constant Matrix: (Units=GPa)
#
#
# Indices 1 2 3 4 5 6 
#
# 1 30.3566 12.2783 10.5207 0.0000 30.5173 0.0000
# 2 12.2783 35.1633 23.4806 0.0000 6.8297 0.0000
# 3 10.5207 23.4806 107.7489 0.0000 9.2975 0.0000
# 4 0.0000 0.0000 0.0000 21.4158 0.0000 14.4566
# 5 30.5173 6.8297 9.2975 0.0000 37.2547 0.0000
# 6 0.0000 0.0000 0.0000 14.4566 0.0000 15.4834
#
#
#
# Elastic Compliance Matrix: (Units=1/GPa)
#
#
# Indices 1 2 3 4 5 6 
#
# 1 0.248762 -0.051453 0.003774 0.000000 -0.195283 0.000000
# 2 -0.051453 0.044640 -0.007803 0.000000 0.035912 0.000000
# 3 0.003774 -0.007803 0.010993 0.000000 -0.004404 0.000000
# 4 0.000000 0.000000 0.000000 0.126296 0.000000 -0.117921
# 5 -0.195283 0.035912 -0.004404 0.000000 0.181324 0.000000
# 6 0.000000 0.000000 0.000000 -0.117921 0.000000 0.174687
#
#
# Mechanical properties :
#
#
# Convention : Reuss Voigt Hill
#
# Bulk Modulus (GPa) = 5.16980 29.53646 17.35313
# Shear Modulus (GPa) = 5.19673 23.29673 14.24673
#
# Velocity S-wave (km/s) = 1.52953 3.23847 2.53250
# Velocity P-wave (km/s) = 2.33379 5.22305 4.04517
#
# Compressibility (1/GPa) = 0.19343116
#
# Stress axis : x y z
#
# Youngs Moduli (GPa) = 4.01991 22.40118 90.96869
#
# Poissons Ratio (x) = 1.15261 -0.34332
# Poissons Ratio (y) = 0.20684 0.70982
# Poissons Ratio (z) = -0.01517 0.17479
#
# Static dielectric constant tensor:
#      x y z
#    x 1.861620 0.000000 -0.022300 
#    y 0.000000 1.804060 0.000000 
#    z -0.022300 0.000000 1.861190 
# 
# From -- ./inp_files/177923.got.cif
#   From: 2010.05.17/outbox.cif.g08.bks.cpg/sg12_89_cif.got.tgz:177923.got - 2010.06.03 13:09:07.
