data_PCOD9178329
_publ_section_title
;
Structure prediction by ZEFSAII (Michael W. Deem and Ramdas Pophale) SiO2 
 PCOD9178329
Probable space group: C 2/M
;
_chemical_formula_sum "Si O2"
_cell_formula_units_Z 64
_cell_length_a 24.808451
_cell_length_b 7.446227
_cell_length_c 22.644761
_cell_angle_alpha 90.000000
_cell_angle_beta 46.005080
_cell_angle_gamma 90.000000
_cell_volume 3009.365465
_symmetry_space_group_name_H-M "C 2/M"
_symmetry_group_IT_number 12
_symmetry_cell_setting 'monoclinic'
loop_
_space_group_symop_operation_xyz
x,y,z
-x,y,-z
-x,-y,-z
x,-y,z
1/2+x,1/2+y,z
1/2-x,1/2+y,-z
1/2-x,1/2-y,-z
1/2+x,1/2-y,z
loop_
_atom_site_type_symbol
_atom_site_label
_atom_site_fract_x
_atom_site_fract_y
_atom_site_fract_z
Si Si1 0.215598 0.210253 0.736473
Si Si2 0.786482 0.781733 0.127501
Si Si3 0.455721 0.281714 0.974850
Si Si4 0.314005 0.299248 0.904751
Si Si5 0.473914 0.720872 0.749455
Si Si6 0.066629 0.780763 0.786958
Si Si7 0.511812 0.280991 0.396003
Si Si8 0.380972 0.283757 0.581747
O O1 0.221826 0.281466 0.798642
O O2 0.146250 0.283094 0.751484
O O3 0.295311 0.227027 0.644511
O O4 0.198514 0.000000 0.757885
O O5 0.869246 0.726911 0.042550
O O6 0.723937 0.710896 0.130717
O O7 0.781938 0.000000 0.128760
O O8 0.455308 0.500000 0.976001
O O9 0.500000 0.224236 0.000000
O O10 0.502441 0.226307 0.882283
O O11 0.332773 0.500000 0.908494
O O12 0.395413 0.211598 0.836902
O O13 0.250000 0.250000 0.000000
O O14 0.472624 0.500000 0.748685
O O15 0.541278 0.774884 0.741218
O O16 0.481432 0.779996 0.676164
O O17 0.067901 0.000000 0.785481
O O18 0.512497 0.500000 0.395230
O O19 0.435513 0.225376 0.487300
O O20 0.580065 0.223921 0.386596
O O21 0.381973 0.500000 0.581165
#
# Coordination Sequence:
#
# PCOD9178329 Si02
#       8
#     8   8   8   8   8   8   8   8
#     4  10  19  30  47  75 104 126 155 200 253 296
#     4  10  19  31  50  75 100 128 165 209 252 292
#     4   9  14  25  45  68  93 125 167 205 234 278
#     4  11  22  35  52  76 103 132 165 205 250 295
#     4   9  17  30  50  73  95 124 169 210 240 282
#     4   9  16  27  44  68  96 127 162 204 242 280
#     4   8  15  30  51  73  93 122 165 207 241 285
#     4   9  17  31  52  73  96 125 160 202 249 296
#
# _framework density 21.266942
#
# number of rings (size 3 to 8) (size 9 to 14) (size 15 to 20)
#    0.000    2.625    1.250    2.625    0.000    3.500 
#    0.000    1.875    0.000    5.625    0.000    0.000 
#    0.000    0.000    0.000    0.000    0.000    0.000 
#
# Total GULP energy -178658.182453 kJ/mol
# GULP energy per Si atom -5583.068202 kJ/mol
# Density = 2.121854 g / cm^3
# Si number density = 21.266942 Si / 1000 Ang^3
#
#
#
# Elastic Constant Matrix: (Units=GPa)
#
#
# Indices 1 2 3 4 5 6 
#
# 1 114.3796 -9.1333 65.4540 -0.0008 3.1748 -0.0019
# 2 -9.1333 56.7249 -0.5570 -0.0023 6.1720 0.0080
# 3 65.4540 -0.5570 113.8372 -0.0079 4.3242 0.0073
# 4 -0.0008 -0.0023 -0.0079 11.4366 0.0051 -5.4904
# 5 3.1748 6.1720 4.3242 0.0051 38.2456 -0.0062
# 6 -0.0019 0.0080 0.0073 -5.4904 -0.0062 9.3440
#
#
#
# Elastic Compliance Matrix: (Units=1/GPa)
#
#
# Indices 1 2 3 4 5 6 
#
# 1 0.013280 0.002127 -0.007603 -0.000001 -0.000586 0.000006
# 2 0.002127 0.018289 -0.001019 -0.000005 -0.003013 -0.000019
# 3 -0.007603 -0.001019 0.013177 0.000004 -0.000694 -0.000009
# 4 -0.000001 -0.000005 0.000004 0.121794 -0.000004 0.071564
# 5 -0.000586 -0.003013 -0.000694 -0.000004 0.026760 0.000018
# 6 0.000006 -0.000019 -0.000009 0.071564 0.000018 0.149070
#
#
# Mechanical properties :
#
#
# Convention : Reuss Voigt Hill
#
# Bulk Modulus (GPa) = 31.48938 44.05212 37.77075
# Shear Modulus (GPa) = 13.66321 27.08377 20.37349
#
# Velocity S-wave (km/s) = 2.53743 3.57251 3.09850
# Velocity P-wave (km/s) = 4.83980 6.14621 5.53171
#
# Compressibility (1/GPa) = 0.03175674
#
# Stress axis : x y z
#
# Youngs Moduli (GPa) = 75.30271 54.67684 75.88770
#
# Poissons Ratio (x) = -0.11631 0.57697
# Poissons Ratio (y) = -0.16019 0.07735
# Poissons Ratio (z) = 0.57252 0.05573
#
# Static dielectric constant tensor:
#      x y z
#    x 1.743410 -0.000010 -0.001490 
#    y -0.000010 1.832020 0.000000 
#    z -0.001490 0.000000 1.749030 
# 
# From -- ./inp_files/320959.got.cif
#   From: 2010.05.17/outbox.cif.g08.bks.cpg/sg12_161_cif.got.tgz:320959.got - 2010.06.03 13:09:07.
