data_PCOD9178517
_publ_section_title
;
Structure prediction by ZEFSAII (Michael W. Deem and Ramdas Pophale) SiO2 
 PCOD9178517
Probable space group: C 2/M
;
_chemical_formula_sum "Si O2"
_cell_formula_units_Z 64
_cell_length_a 30.823779
_cell_length_b 8.653027
_cell_length_c 16.551392
_cell_angle_alpha 90.000000
_cell_angle_beta 133.537568
_cell_angle_gamma 90.000000
_cell_volume 3200.223186
_symmetry_space_group_name_H-M "C 2/M"
_symmetry_group_IT_number 12
_symmetry_cell_setting 'monoclinic'
loop_
_space_group_symop_operation_xyz
x,y,z
-x,y,-z
-x,-y,-z
x,-y,z
1/2+x,1/2+y,z
1/2-x,1/2+y,-z
1/2-x,1/2-y,-z
1/2+x,1/2-y,z
loop_
_atom_site_type_symbol
_atom_site_label
_atom_site_fract_x
_atom_site_fract_y
_atom_site_fract_z
Si Si1 0.683677 0.685717 0.187664
Si Si2 0.688819 0.175144 0.948167
Si Si3 0.689191 0.682812 0.672773
Si Si4 0.192998 0.683824 0.378945
Si Si5 0.902175 0.819448 0.053314
Si Si6 0.878938 0.316274 0.559681
Si Si7 0.597981 0.174013 0.682026
Si Si8 0.009180 0.813788 0.693872
O O1 0.684725 0.500000 0.184987
O O2 0.745411 0.746007 0.226131
O O3 0.684750 0.739844 0.281455
O O4 0.623039 0.742141 0.064278
O O5 0.656024 0.290745 0.966481
O O6 0.646334 0.164638 0.816011
O O7 0.695719 0.000000 0.989826
O O8 0.750000 0.250000 0.000000
O O9 0.693578 0.500000 0.684139
O O10 0.670990 0.736302 0.559823
O O11 0.634462 0.740282 0.658664
O O12 0.200607 0.500000 0.378418
O O13 0.250000 0.750000 0.500000
O O14 0.137156 0.711453 0.367513
O O15 0.954680 0.756618 0.179050
O O16 0.915523 0.000000 0.059576
O O17 0.876855 0.500000 0.542540
O O18 0.942572 0.248770 0.615972
O O19 0.542031 0.255233 0.654515
O O20 0.582018 0.000000 0.635461
O O21 0.010332 0.000000 0.694591
#
# Coordination Sequence:
#
# PCOD9178517 Si02
#       8
#     8   8   8   8   8   8   8   8
#     4  11  22  38  61  90 124 157 193 242 300 356
#     4  10  19  30  49  76 109 151 195 240 289 343
#     4  12  24  37  58  89 121 155 200 248 297 351
#     4  11  23  40  64  91 120 153 193 240 299 358
#     4   9  20  37  57  82 115 155 194 238 290 344
#     4  11  24  42  63  87 117 155 195 242 301 357
#     4  10  21  37  55  80 117 158 198 242 294 347
#     4  10  21  40  63  87 117 156 204 247 287 344
#
# _framework density 19.998605999999999
#
# number of rings (size 3 to 8) (size 9 to 14) (size 15 to 20)
#    0.000    1.500    1.250    4.125    0.000    8.000 
#    0.000    3.125    0.000    3.750    0.000    0.000 
#    0.000    0.000    0.000    0.000    0.000    0.000 
#
# Total GULP energy -178634.441579 kJ/mol
# GULP energy per Si atom -5582.326299 kJ/mol
# Density = 1.995309 g / cm^3
# Si number density = 19.998606 Si / 1000 Ang^3
#
#
#
# Elastic Constant Matrix: (Units=GPa)
#
#
# Indices 1 2 3 4 5 6 
#
# 1 69.5520 30.7118 1.8578 0.0000 -5.8161 0.0000
# 2 30.7118 77.1827 7.6678 0.0000 -1.1900 0.0000
# 3 1.8578 7.6678 63.4586 0.0000 -11.0501 0.0000
# 4 0.0000 0.0000 0.0000 19.4058 0.0000 -2.9065
# 5 -5.8161 -1.1900 -11.0501 0.0000 30.4198 0.0000
# 6 0.0000 0.0000 0.0000 -2.9065 0.0000 32.4979
#
#
#
# Elastic Compliance Matrix: (Units=1/GPa)
#
#
# Indices 1 2 3 4 5 6 
#
# 1 0.017785 -0.007117 0.000943 0.000000 0.003464 0.000000
# 2 -0.007117 0.015962 -0.001973 0.000000 -0.001453 0.000000
# 3 0.000943 -0.001973 0.017067 0.000000 0.006303 0.000000
# 4 0.000000 0.000000 0.000000 0.052231 0.000000 0.004671
# 5 0.003464 -0.001453 0.006303 0.000000 0.035768 0.000000
# 6 0.000000 0.000000 0.000000 0.004671 0.000000 0.031189
#
#
# Mechanical properties :
#
#
# Convention : Reuss Voigt Hill
#
# Bulk Modulus (GPa) = 28.97067 32.29644 30.63355
# Shear Modulus (GPa) = 25.27770 27.79510 26.53640
#
# Velocity S-wave (km/s) = 3.55910 3.73212 3.64663
# Velocity P-wave (km/s) = 5.60423 5.89542 5.75167
#
# Compressibility (1/GPa) = 0.03451767
#
# Stress axis : x y z
#
# Youngs Moduli (GPa) = 56.22756 62.64941 58.59390
#
# Poissons Ratio (x) = 0.44588 -0.05523
# Poissons Ratio (y) = 0.40017 0.11563
# Poissons Ratio (z) = -0.05300 0.12363
#
# Static dielectric constant tensor:
#      x y z
#    x 1.670610 0.000000 -0.018940 
#    y 0.000000 1.698800 0.000000 
#    z -0.018940 0.000000 1.752570 
# 
# From -- ./inp_files/249912.got.cif
#   From: 2010.05.17/outbox.cif.g08.bks.cpg/sg12_125_cif.got.tgz:249912.got - 2010.06.03 13:09:07.
