data_PCOD9178107
_publ_section_title
;
Structure prediction by ZEFSAII (Michael W. Deem and Ramdas Pophale) SiO2 
 PCOD9178107
Probable space group: C 2/M
;
_chemical_formula_sum "Si O2"
_cell_formula_units_Z 64
_cell_length_a 33.350516
_cell_length_b 8.211595
_cell_length_c 15.583914
_cell_angle_alpha 90.000000
_cell_angle_beta 133.440783
_cell_angle_gamma 90.000000
_cell_volume 3098.805643
_symmetry_space_group_name_H-M "C 2/M"
_symmetry_group_IT_number 12
_symmetry_cell_setting 'monoclinic'
loop_
_space_group_symop_operation_xyz
x,y,z
-x,y,-z
-x,-y,-z
x,-y,z
1/2+x,1/2+y,z
1/2-x,1/2+y,-z
1/2-x,1/2-y,-z
1/2+x,1/2-y,z
loop_
_atom_site_type_symbol
_atom_site_label
_atom_site_fract_x
_atom_site_fract_y
_atom_site_fract_z
Si Si1 0.415710 0.191946 0.622063
Si Si2 0.410219 0.317194 0.803185
Si Si3 0.098982 0.696872 0.022698
Si Si4 0.278276 0.315757 0.625687
Si Si5 0.723308 0.186046 0.196267
Si Si6 0.657520 0.303928 0.632141
Si Si7 0.560905 0.695784 0.615450
Si Si8 0.464563 0.196983 0.240853
O O1 0.422673 0.222748 0.733891
O O2 0.363495 0.266036 0.495355
O O3 0.472139 0.256449 0.662024
O O4 0.412046 0.000000 0.603532
O O5 0.432219 0.500000 0.827412
O O6 0.423837 0.249459 0.917820
O O7 0.343633 0.321973 0.706976
O O8 0.102010 0.500000 0.029599
O O9 0.161792 0.759509 0.096842
O O10 0.061390 0.747730 0.887938
O O11 0.259474 0.500000 0.619312
O O12 0.250000 0.250000 0.500000
O O13 0.268318 0.194180 0.689007
O O14 0.781637 0.260292 0.252155
O O15 0.719935 0.000000 0.159917
O O16 0.660852 0.500000 0.643423
O O17 0.609576 0.243168 0.625416
O O18 0.500000 0.758979 0.500000
O O19 0.559990 0.500000 0.606126
O O20 0.568567 0.741322 0.725898
O O21 0.465169 0.000000 0.243029
#
# Coordination Sequence:
#
# PCOD9178107 Si02
#       8
#     8   8   8   8   8   8   8   8
#     4  11  22  34  52  80 110 142 178 220 269 317
#     4  10  21  35  51  75 107 143 180 221 263 310
#     4   9  19  38  58  76 104 144 184 219 260 310
#     4  10  19  30  46  70 102 137 176 217 260 310
#     4   9  18  33  54  75 100 137 176 216 261 308
#     4  10  20  35  55  82 111 137 174 222 268 318
#     4  10  20  36  58  82 109 141 173 213 269 323
#     4  10  22  38  57  80 107 140 179 222 265 316
#
# _framework density 20.653117999999999
#
# number of rings (size 3 to 8) (size 9 to 14) (size 15 to 20)
#    0.000    2.125    1.250    1.875    0.000    7.250 
#    0.000    3.125    0.000    0.000    0.000    0.000 
#    0.000    0.000    0.000    0.000    0.000    0.000 
#
# Total GULP energy -178447.516917 kJ/mol
# GULP energy per Si atom -5576.484904 kJ/mol
# Density = 2.060611 g / cm^3
# Si number density = 20.653118 Si / 1000 Ang^3
#
#
#
# Elastic Constant Matrix: (Units=GPa)
#
#
# Indices 1 2 3 4 5 6 
#
# 1 73.6683 -5.2451 0.9302 0.0000 1.1679 0.0000
# 2 -5.2451 19.8693 -2.5109 0.0000 4.0617 0.0000
# 3 0.9302 -2.5109 51.9325 0.0000 -5.9529 0.0000
# 4 0.0000 0.0000 0.0000 16.1673 0.0000 -9.9461
# 5 1.1679 4.0617 -5.9529 0.0000 31.0378 0.0000
# 6 0.0000 0.0000 0.0000 -9.9461 0.0000 18.8420
#
#
#
# Elastic Compliance Matrix: (Units=1/GPa)
#
#
# Indices 1 2 3 4 5 6 
#
# 1 0.013868 0.003855 -0.000184 0.000000 -0.001061 0.000000
# 2 0.003855 0.052942 0.001718 0.000000 -0.006744 0.000000
# 3 -0.000184 0.001718 0.019751 0.000000 0.003570 0.000000
# 4 0.000000 0.000000 0.000000 0.091600 0.000000 0.048353
# 5 -0.001061 -0.006744 0.003570 0.000000 0.033826 0.000000
# 6 0.000000 0.000000 0.000000 0.048353 0.000000 0.078597
#
#
# Mechanical properties :
#
#
# Convention : Reuss Voigt Hill
#
# Bulk Modulus (GPa) = 10.27343 14.64651 12.45997
# Shear Modulus (GPa) = 16.01265 23.36247 19.68756
#
# Velocity S-wave (km/s) = 2.78747 3.36696 3.09082
# Velocity P-wave (km/s) = 3.91727 4.71405 4.33401
#
# Compressibility (1/GPa) = 0.09733844
#
# Stress axis : x y z
#
# Youngs Moduli (GPa) = 72.10873 18.88857 50.62942
#
# Poissons Ratio (x) = -0.07281 0.00930
# Poissons Ratio (y) = -0.27795 -0.08696
# Poissons Ratio (z) = 0.01325 -0.03244
#
# Static dielectric constant tensor:
#      x y z
#    x 1.787100 0.000000 0.036530 
#    y 0.000000 1.749700 0.000000 
#    z 0.036530 0.000000 1.738340 
# 
# From -- ./inp_files/250010.got.cif
#   From: 2010.05.17/outbox.cif.g08.bks.cpg/sg12_126_cif.got.tgz:250010.got - 2010.06.03 13:09:07.
