data_PCOD9178910
_publ_section_title
;
Structure prediction by ZEFSAII (Michael W. Deem and Ramdas Pophale) SiO2 
 PCOD9178910
Probable space group: C 2/M
;
_chemical_formula_sum "Si O2"
_cell_formula_units_Z 40
_cell_length_a 14.397711
_cell_length_b 7.280622
_cell_length_c 18.119351
_cell_angle_alpha 90.000000
_cell_angle_beta 55.693747
_cell_angle_gamma 90.000000
_cell_volume 1568.931431
_symmetry_space_group_name_H-M "C 2/M"
_symmetry_group_IT_number 12
_symmetry_cell_setting 'monoclinic'
loop_
_space_group_symop_operation_xyz
x,y,z
-x,y,-z
-x,-y,-z
x,-y,z
1/2+x,1/2+y,z
1/2-x,1/2+y,-z
1/2-x,1/2-y,-z
1/2+x,1/2-y,z
loop_
_atom_site_type_symbol
_atom_site_label
_atom_site_fract_x
_atom_site_fract_y
_atom_site_fract_z
Si Si1 0.361252 0.710200 0.354385
Si Si2 0.619577 0.776663 0.480632
Si Si3 0.397320 0.292616 0.780268
Si Si4 0.075968 0.721568 0.071449
Si Si5 0.337956 0.776128 0.127902
O O1 0.361771 0.500000 0.327385
O O2 0.370592 0.713747 0.439243
O O3 0.237421 0.785658 0.390543
O O4 0.480341 0.797361 0.278660
O O5 0.500000 0.719425 0.500000
O O6 0.621129 0.000000 0.479941
O O7 0.409722 0.500000 0.745457
O O8 0.369348 0.298439 0.879746
O O9 0.285580 0.210025 0.794564
O O10 0.082229 0.500000 0.071156
O O11 0.944491 0.776438 0.128901
O O12 0.128851 0.780365 0.970216
O O13 0.334197 0.000000 0.129646
#
# Coordination Sequence:
#
# PCOD9178910 Si02
#       5
#     8   8   8   8   8
#     4   9  19  33  48  70  96 120 150 186 226 276
#     4   9  18  34  53  69  90 121 152 185 227 272
#     4  10  19  31  47  69  97 122 147 189 237 268
#     4   9  17  31  49  67  89 123 163 190 217 268
#     4   8  16  31  48  65  91 126 157 187 226 271
#
# _framework density 25.495061
#
# number of rings (size 3 to 8) (size 9 to 14) (size 15 to 20)
#    0.000    3.000    0.000    1.800    0.000    2.800 
#    0.000    3.000    0.000    0.000    0.000    0.000 
#    0.000    0.000    0.000    0.000    0.000    0.000 
#
# Total GULP energy -111663.432401 kJ/mol
# GULP energy per Si atom -5583.171620 kJ/mol
# Density = 2.543703 g / cm^3
# Si number density = 25.495061 Si / 1000 Ang^3
#
#
#
# Elastic Constant Matrix: (Units=GPa)
#
#
# Indices 1 2 3 4 5 6 
#
# 1 159.3447 0.8337 55.6981 0.0000 -65.9458 0.0000
# 2 0.8337 123.0115 3.5240 0.0000 -11.4634 0.0001
# 3 55.6981 3.5240 61.8226 0.0000 -40.5471 0.0000
# 4 0.0000 0.0000 0.0000 -3.6368 0.0000 21.8380
# 5 -65.9458 -11.4634 -40.5471 0.0000 62.0422 0.0000
# 6 0.0000 0.0001 0.0000 21.8380 0.0000 -12.9426
#
#
#
# Elastic Compliance Matrix: (Units=1/GPa)
#
#
# Indices 1 2 3 4 5 6 
#
# 1 0.011914 0.000983 -0.004139 0.000000 0.010140 0.000000
# 2 0.000983 0.008383 0.000591 0.000000 0.002980 0.000000
# 3 -0.004139 0.000591 0.029853 0.000000 0.015219 0.000000
# 4 0.000000 0.000000 0.000000 0.030111 0.000000 0.050806
# 5 0.010140 0.002980 0.015219 0.000000 0.037393 0.000000
# 6 0.000000 0.000000 0.000000 0.050806 0.000000 0.008461
#
#
# Mechanical properties :
#
#
# Convention : Reuss Voigt Hill
#
# Bulk Modulus (GPa) = 22.21275 51.58781 36.90028
# Shear Modulus (GPa) = 34.18747 28.03409 31.11078
#
# Velocity S-wave (km/s) = 3.66586 3.31960 3.49702
# Velocity P-wave (km/s) = 5.16232 5.91366 5.55072
#
# Compressibility (1/GPa) = 0.04501918
#
# Stress axis : x y z
#
# Youngs Moduli (GPa) = 83.93569 119.28305 33.49784
#
# Poissons Ratio (x) = -0.11723 0.13866
# Poissons Ratio (y) = -0.08249 -0.01980
# Poissons Ratio (z) = 0.34743 -0.07051
#
# Static dielectric constant tensor:
#      x y z
#    x 1.971540 0.000000 -0.081930 
#    y 0.000000 1.939760 0.000000 
#    z -0.081930 0.000000 2.038790 
# 
# From -- ./inp_files/188822.got.cif
#   From: 2010.05.17/outbox.cif.g08.bks.cpg/sg12_95_cif.got.tgz:188822.got - 2010.06.03 13:09:07.
