data_PCOD9178716
_publ_section_title
;
Structure prediction by ZEFSAII (Michael W. Deem and Ramdas Pophale) SiO2 
 PCOD9178716
Probable space group: C 2/M
;
_chemical_formula_sum "Si O2"
_cell_formula_units_Z 44
_cell_length_a 21.677086
_cell_length_b 8.059723
_cell_length_c 13.296661
_cell_angle_alpha 90.000000
_cell_angle_beta 82.977107
_cell_angle_gamma 90.000000
_cell_volume 2305.647876
_symmetry_space_group_name_H-M "C 2/M"
_symmetry_group_IT_number 12
_symmetry_cell_setting 'monoclinic'
loop_
_space_group_symop_operation_xyz
x,y,z
-x,y,-z
-x,-y,-z
x,-y,z
1/2+x,1/2+y,z
1/2-x,1/2+y,-z
1/2-x,1/2-y,-z
1/2+x,1/2-y,z
loop_
_atom_site_type_symbol
_atom_site_label
_atom_site_fract_x
_atom_site_fract_y
_atom_site_fract_z
Si Si1 0.972499 0.500000 0.734463
Si Si2 0.102929 0.500000 0.040792
Si Si3 0.321960 0.689841 0.906900
Si Si4 0.902853 0.500000 0.179839
Si Si5 0.782458 0.689722 0.213000
Si Si6 0.788653 0.311489 0.587126
Si Si7 0.098560 0.816822 0.317678
O O1 0.939077 0.500000 0.851287
O O2 0.948972 0.664291 0.681854
O O3 0.045044 0.500000 0.746380
O O4 0.145886 0.336044 0.037792
O O5 0.070760 0.500000 0.938573
O O6 0.323149 0.500000 0.946383
O O7 0.252700 0.737741 0.882516
O O8 0.361976 0.688042 0.794485
O O9 0.855932 0.657894 0.196498
O O10 0.758756 0.500000 0.237603
O O11 0.757280 0.799408 0.307879
O O12 0.807875 0.500000 0.566972
O O13 0.750000 0.250000 0.500000
O O14 0.850460 0.212117 0.605480
O O15 0.070254 0.000000 0.332174
#
# Coordination Sequence:
#
# PCOD9178716 Si02
#       7
#     4   4   8   4   8   8   8
#     4  10  19  36  55  76 105 155 201 217 264 319
#     4  10  19  30  56  80  98 145 197 237 269 308
#     4   8  15  30  49  73 105 134 175 230 276 321
#     4  10  21  36  51  72 115 152 182 231 271 317
#     4   8  18  34  47  71 111 146 171 212 282 325
#     4  11  19  31  57  90 112 133 170 223 277 333
#     4   9  17  32  54  80 107 137 181 229 267 318
#
# _framework density 19.083573000000001
#
# number of rings (size 3 to 8) (size 9 to 14) (size 15 to 20)
#    0.545    2.182    0.909    3.000    3.818    0.727 
#    0.000    2.727    0.000    6.545    0.000    2.545 
#    0.000    0.000    0.000    0.000    0.000    0.000 
#
# Total GULP energy -122524.832163 kJ/mol
# GULP energy per Si atom -5569.310553 kJ/mol
# Density = 1.904014 g / cm^3
# Si number density = 19.083573 Si / 1000 Ang^3
#
#
#
# Elastic Constant Matrix: (Units=GPa)
#
#
# Indices 1 2 3 4 5 6 
#
# 1 82.1834 33.9801 14.6577 0.0000 34.1854 0.0000
# 2 33.9801 117.1312 25.7598 0.0000 26.4343 0.0000
# 3 14.6577 25.7598 55.5894 0.0000 31.1295 0.0000
# 4 0.0000 0.0000 0.0000 15.4224 0.0000 4.6459
# 5 34.1854 26.4343 31.1295 0.0000 30.2991 0.0000
# 6 0.0000 0.0000 0.0000 4.6459 0.0000 13.8364
#
#
#
# Elastic Compliance Matrix: (Units=1/GPa)
#
#
# Indices 1 2 3 4 5 6 
#
# 1 0.038789 -0.001214 0.033554 0.000000 -0.077179 0.000000
# 2 -0.001214 0.010678 -0.000420 0.000000 -0.007514 0.000000
# 3 0.033554 -0.000420 0.071424 0.000000 -0.110873 0.000000
# 4 0.000000 0.000000 0.000000 0.072137 0.000000 -0.024222
# 5 -0.077179 -0.007514 -0.110873 0.000000 0.240551 0.000000
# 6 0.000000 0.000000 0.000000 -0.024222 0.000000 0.080406
#
#
# Mechanical properties :
#
#
# Convention : Reuss Voigt Hill
#
# Bulk Modulus (GPa) = 5.41327 44.85548 25.13438
# Shear Modulus (GPa) = 9.77093 23.94533 16.85813
#
# Velocity S-wave (km/s) = 2.26521 3.54610 2.97540
# Velocity P-wave (km/s) = 3.11197 6.34998 5.00033
#
# Compressibility (1/GPa) = 0.18473107
#
# Stress axis : x y z
#
# Youngs Moduli (GPa) = 25.78036 93.65109 14.00090
#
# Poissons Ratio (x) = 0.11373 -0.46979
# Poissons Ratio (y) = 0.03131 0.00588
# Poissons Ratio (z) = -0.86504 0.03933
#
# Static dielectric constant tensor:
#      x y z
#    x 1.707590 0.000000 -0.012180 
#    y 0.000000 1.524090 0.000000 
#    z -0.012180 0.000000 1.688010 
# 
# From -- ./inp_files/229417.got.cif
#   From: 2010.05.17/outbox.cif.g08.bks.cpg/sg12_115_cif.got.tgz:229417.got - 2010.06.03 13:09:07.
