data_PCOD9178563
_publ_section_title
;
Structure prediction by ZEFSAII (Michael W. Deem and Ramdas Pophale) SiO2 
 PCOD9178563
Probable space group: C 2/M
;
_chemical_formula_sum "Si O2"
_cell_formula_units_Z 56
_cell_length_a 13.048201
_cell_length_b 12.440131
_cell_length_c 24.034019
_cell_angle_alpha 90.000000
_cell_angle_beta 31.951800
_cell_angle_gamma 90.000000
_cell_volume 2064.555063
_symmetry_space_group_name_H-M "C 2/M"
_symmetry_group_IT_number 12
_symmetry_cell_setting 'monoclinic'
loop_
_space_group_symop_operation_xyz
x,y,z
-x,y,-z
-x,-y,-z
x,-y,z
1/2+x,1/2+y,z
1/2-x,1/2+y,-z
1/2-x,1/2-y,-z
1/2+x,1/2-y,z
loop_
_atom_site_type_symbol
_atom_site_label
_atom_site_fract_x
_atom_site_fract_y
_atom_site_fract_z
Si Si1 0.864080 0.619710 0.131668
Si Si2 0.208710 0.711853 0.116364
Si Si3 0.167397 0.873558 0.348648
Si Si4 0.186312 0.117163 0.040457
Si Si5 0.542279 0.332556 0.638493
Si Si6 0.100515 0.614292 0.655734
Si Si7 0.298817 0.877024 0.626844
O O1 0.828738 0.500000 0.124730
O O2 0.820272 0.709113 0.106428
O O3 0.695470 0.644584 0.254141
O O4 0.079907 0.619588 0.055994
O O5 0.335514 0.642803 0.014649
O O6 0.063891 0.643631 0.220408
O O7 0.108209 0.794458 0.118718
O O8 0.944658 0.882281 0.427660
O O9 0.210809 0.882148 0.394155
O O10 0.206900 0.733949 0.334546
O O11 0.258416 0.000000 0.293880
O O12 0.112772 0.000000 0.087525
O O13 0.581439 0.208644 0.621101
O O14 0.632986 0.373515 0.653718
O O15 0.053343 0.500000 0.653188
O O16 0.500000 0.873356 0.500000
O O17 0.285551 0.000000 0.657550
#
# Coordination Sequence:
#
# PCOD9178563 Si02
#       7
#     8   8   8   8   8   8   8
#     4  10  19  33  54  75  97 130 177 225 263 311
#     4  10  19  30  50  73  99 131 168 213 271 323
#     4  10  20  36  60  86 110 142 189 233 264 311
#     4  10  20  33  50  72  98 132 176 223 269 318
#     4  10  20  35  58  82 106 141 184 224 267 323
#     4   9  19  35  54  78 107 139 178 228 279 321
#     4  10  22  39  57  83 120 152 177 216 274 331
#
# _framework density 27.124489000000001
#
# number of rings (size 3 to 8) (size 9 to 14) (size 15 to 20)
#    0.000    2.143    0.000    3.429    0.000    4.857 
#    0.000    0.714    0.000   53.143    0.000    0.000 
#    0.000    0.000    0.000    0.000    0.000    0.000 
#
# Total GULP energy -155887.426563 kJ/mol
# GULP energy per Si atom -5567.408092 kJ/mol
# Density = 2.706275 g / cm^3
# Si number density = 27.124489 Si / 1000 Ang^3
#
#
#
# Elastic Constant Matrix: (Units=GPa)
#
#
# Indices 1 2 3 4 5 6 
#
# 1 156.3079 62.0122 18.6626 0.0000 6.1071 -0.0001
# 2 62.0122 212.1897 27.7346 -0.0003 -5.1694 -0.0002
# 3 18.6626 27.7346 104.2664 -0.0022 -12.3046 -0.0054
# 4 0.0000 -0.0003 -0.0022 18.5766 -0.0002 -11.0196
# 5 6.1071 -5.1694 -12.3046 -0.0002 24.7745 0.0008
# 6 -0.0001 -0.0002 -0.0054 -11.0196 0.0008 -17.3367
#
#
#
# Elastic Compliance Matrix: (Units=1/GPa)
#
#
# Indices 1 2 3 4 5 6 
#
# 1 0.007478 -0.002109 -0.001112 0.000000 -0.002836 0.000000
# 2 -0.002109 0.005481 -0.000939 0.000000 0.001197 0.000000
# 3 -0.001112 -0.000939 0.010675 0.000000 0.005380 -0.000003
# 4 0.000000 0.000000 0.000000 0.039092 0.000001 -0.024848
# 5 -0.002836 0.001197 0.005380 0.000001 0.043985 0.000000
# 6 0.000000 0.000000 -0.000003 -0.024848 0.000000 -0.041887
#
#
# Mechanical properties :
#
#
# Convention : Reuss Voigt Hill
#
# Bulk Modulus (GPa) = 65.30488 76.62029 70.96259
# Shear Modulus (GPa) = 63.89959 29.49319 46.69639
#
# Velocity S-wave (km/s) = 4.85891 3.30104 4.15367
# Velocity P-wave (km/s) = 7.45701 6.54508 7.01588
#
# Compressibility (1/GPa) = 0.01531279
#
# Stress axis : x y z
#
# Youngs Moduli (GPa) = 133.72603 182.44568 93.68053
#
# Poissons Ratio (x) = 0.38481 0.10418
# Poissons Ratio (y) = 0.28205 0.08798
# Poissons Ratio (z) = 0.14872 0.17135
#
# Static dielectric constant tensor:
#      x y z
#    x 2.152510 0.000000 0.080150 
#    y 0.000000 2.191660 0.000000 
#    z 0.080150 0.000000 2.465430 
# 
# From -- ./inp_files/375892.got.cif
#   From: 2010.05.17/outbox.cif.g08.bks.cpg/sg12_188_cif.got.tgz:375892.got - 2010.06.03 13:09:07.
