data_PCOD9178424
_publ_section_title
;
Structure prediction by ZEFSAII (Michael W. Deem and Ramdas Pophale) SiO2 
 PCOD9178424
Probable space group: C 2/M
;
_chemical_formula_sum "Si O2"
_cell_formula_units_Z 40
_cell_length_a 20.035962
_cell_length_b 13.298371
_cell_length_c 7.833909
_cell_angle_alpha 90.000000
_cell_angle_beta 132.504514
_cell_angle_gamma 90.000000
_cell_volume 1538.816008
_symmetry_space_group_name_H-M "C 2/M"
_symmetry_group_IT_number 12
_symmetry_cell_setting 'monoclinic'
loop_
_space_group_symop_operation_xyz
x,y,z
-x,y,-z
-x,-y,-z
x,-y,z
1/2+x,1/2+y,z
1/2-x,1/2+y,-z
1/2-x,1/2-y,-z
1/2+x,1/2-y,z
loop_
_atom_site_type_symbol
_atom_site_label
_atom_site_fract_x
_atom_site_fract_y
_atom_site_fract_z
Si Si1 0.189462 0.612756 0.445146
Si Si2 0.378290 0.331529 0.664570
Si Si3 0.940467 0.840899 0.147689
Si Si4 0.433937 0.893089 0.220691
Si Si5 0.244958 0.136230 0.051200
O O1 0.155805 0.500000 0.357518
O O2 0.274803 0.633654 0.466818
O O3 0.125417 0.709735 0.326691
O O4 0.226069 0.619083 0.702488
O O5 0.453123 0.364872 0.657569
O O6 0.410106 0.369956 0.904135
O O7 0.938142 0.718565 0.150720
O O8 0.862763 0.885148 0.135328
O O9 0.500000 0.887508 0.500000
O O10 0.329171 0.904802 0.091633
O O11 0.459663 0.000000 0.177938
O O12 0.250000 0.250000 0.000000
#
# Coordination Sequence:
#
# PCOD9178424 Si02
#       5
#     8   8   8   8   8
#     4  10  19  33  54  77 103 136 173 212 256 307
#     4   9  19  34  51  75 104 134 171 212 255 305
#     4   9  18  33  49  68 101 136 166 207 262 304
#     4  10  19  30  48  74  99 128 171 215 255 305
#     4   9  18  32  48  69  99 131 164 207 253 299
#
# _framework density 25.994009999999999
#
# number of rings (size 3 to 8) (size 9 to 14) (size 15 to 20)
#    0.000    2.600    0.000    1.800    0.000    3.200 
#    0.000   11.000    0.000    1.200    0.000    0.000 
#    0.000   84.000    0.000    0.000    0.000    0.000 
#
# Total GULP energy -111485.701453 kJ/mol
# GULP energy per Si atom -5574.285073 kJ/mol
# Density = 2.593485 g / cm^3
# Si number density = 25.994010 Si / 1000 Ang^3
#
#
#
# Elastic Constant Matrix: (Units=GPa)
#
#
# Indices 1 2 3 4 5 6 
#
# 1 174.7006 9.7710 27.7740 0.0000 68.4959 0.0000
# 2 9.7710 136.1296 9.6153 0.0000 4.1406 0.0000
# 3 27.7740 9.6153 89.6381 0.0000 -3.3415 0.0000
# 4 0.0000 0.0000 0.0000 35.4261 0.0000 -0.7531
# 5 68.4959 4.1406 -3.3415 0.0000 40.8749 0.0000
# 6 0.0000 0.0000 0.0000 -0.7531 0.0000 -14.1156
#
#
#
# Elastic Compliance Matrix: (Units=1/GPa)
#
#
# Indices 1 2 3 4 5 6 
#
# 1 0.021075 0.000139 -0.007886 0.000000 -0.035975 0.000000
# 2 0.000139 0.007430 -0.000879 0.000000 -0.001057 0.000000
# 3 -0.007886 -0.000879 0.014233 0.000000 0.014467 0.000000
# 4 0.000000 0.000000 0.000000 0.028196 0.000000 -0.001504
# 5 -0.035975 -0.001057 0.014467 0.000000 0.086040 0.000000
# 6 0.000000 0.000000 0.000000 -0.001504 0.000000 -0.070763
#
#
# Mechanical properties :
#
#
# Convention : Reuss Voigt Hill
#
# Bulk Modulus (GPa) = 39.23909 54.97654 47.10782
# Shear Modulus (GPa) = 44.65934 35.99095 40.32515
#
# Velocity S-wave (km/s) = 4.14945 3.72504 3.94296
# Velocity P-wave (km/s) = 6.17134 6.30054 6.23628
#
# Compressibility (1/GPa) = 0.02548479
#
# Stress axis : x y z
#
# Youngs Moduli (GPa) = 47.44961 134.58498 70.25906
#
# Poissons Ratio (x) = -0.01865 0.55406
# Poissons Ratio (y) = -0.00657 0.06178
# Poissons Ratio (z) = 0.37418 0.11835
#
# Static dielectric constant tensor:
#      x y z
#    x 2.069630 0.000000 0.007510 
#    y 0.000000 2.033920 0.000000 
#    z 0.007510 0.000000 2.002640 
# 
# From -- ./inp_files/85495.got.cif
#   From: 2010.05.17/outbox.cif.g08.bks.cpg/sg12_43_cif.got.tgz:85495.got - 2010.06.03 13:09:07.
