data_PCOD9178984
_publ_section_title
;
Structure prediction by ZEFSAII (Michael W. Deem and Ramdas Pophale) SiO2 
 PCOD9178984
Probable space group: C 2/M
;
_chemical_formula_sum "Si O2"
_cell_formula_units_Z 40
_cell_length_a 5.354570
_cell_length_b 14.201351
_cell_length_c 22.794732
_cell_angle_alpha 90.000000
_cell_angle_beta 96.747624
_cell_angle_gamma 90.000000
_cell_volume 1721.353517
_symmetry_space_group_name_H-M "C 2/M"
_symmetry_group_IT_number 12
_symmetry_cell_setting 'monoclinic'
loop_
_space_group_symop_operation_xyz
x,y,z
-x,y,-z
-x,-y,-z
x,-y,z
1/2+x,1/2+y,z
1/2-x,1/2+y,-z
1/2-x,1/2-y,-z
1/2+x,1/2-y,z
loop_
_atom_site_type_symbol
_atom_site_label
_atom_site_fract_x
_atom_site_fract_y
_atom_site_fract_z
Si Si1 0.365446 0.386016 0.662764
Si Si2 0.099996 0.385174 0.268900
Si Si3 0.608786 0.885093 0.134899
Si Si4 0.925072 0.114890 0.933101
Si Si5 0.262863 0.355217 0.525677
O O1 0.362604 0.500000 0.660165
O O2 0.643174 0.357817 0.691319
O O3 0.301928 0.351829 0.596048
O O4 0.149253 0.357475 0.702618
O O5 0.098662 0.500000 0.267036
O O6 0.102007 0.351839 0.201824
O O7 0.354454 0.857400 0.094143
O O8 0.861269 0.857613 0.107672
O O9 0.609464 0.000000 0.136442
O O10 0.925340 0.000000 0.934692
O O11 0.000000 0.148036 0.000000
O O12 0.500000 0.399803 0.500000
O O13 0.250000 0.250000 0.500000
O O14 0.000000 0.399627 0.500000
#
# Coordination Sequence:
#
# PCOD9178984 Si02
#       5
#     8   8   8   8   8
#     4  10  19  31  48  69  91 115 149 193 235 275
#     4   9  17  28  42  62  86 113 147 191 241 281
#     4   9  15  23  34  48  72 105 140 185 235 271
#     4   9  15  21  30  46  69 102 146 191 229 265
#     4  10  21  36  52  70  93 120 148 183 223 280
#
# _framework density 23.237528999999999
#
# number of rings (size 3 to 8) (size 9 to 14) (size 15 to 20)
#    0.000    2.600    0.000    3.000    0.000    8.000 
#    0.000    0.000    0.000    0.000    0.000    0.000 
#    0.000    0.000    0.000    0.000    0.000    0.000 
#
# Total GULP energy -111914.582911 kJ/mol
# GULP energy per Si atom -5595.729146 kJ/mol
# Density = 2.318464 g / cm^3
# Si number density = 23.237529 Si / 1000 Ang^3
#
#
#
# Elastic Constant Matrix: (Units=GPa)
#
#
# Indices 1 2 3 4 5 6 
#
# 1 103.9230 -19.3804 -33.0432 0.0000 -3.0529 0.0000
# 2 -19.3804 96.3495 -11.0991 0.0000 0.5828 0.0000
# 3 -33.0432 -11.0991 68.9433 0.0000 -0.0631 0.0000
# 4 0.0000 0.0000 0.0000 22.7480 0.0000 8.5528
# 5 -3.0529 0.5828 -0.0631 0.0000 49.0587 0.0000
# 6 0.0000 0.0000 0.0000 8.5528 0.0000 -33.4605
#
#
#
# Elastic Compliance Matrix: (Units=1/GPa)
#
#
# Indices 1 2 3 4 5 6 
#
# 1 0.012276 0.003202 0.006400 0.000000 0.000734 0.000000
# 2 0.003202 0.011411 0.003372 0.000000 0.000068 0.000000
# 3 0.006400 0.003372 0.018115 0.000000 0.000382 0.000000
# 4 0.000000 0.000000 0.000000 0.040106 0.000000 0.010251
# 5 0.000734 0.000068 0.000382 0.000000 0.020429 0.000000
# 6 0.000000 0.000000 0.000000 0.010251 0.000000 -0.027266
#
#
# Mechanical properties :
#
#
# Convention : Reuss Voigt Hill
#
# Bulk Modulus (GPa) = 14.76016 15.79670 15.27843
# Shear Modulus (GPa) = 69.72810 29.85180 49.78995
#
# Velocity S-wave (km/s) = 5.48378 3.58807 4.63390
# Velocity P-wave (km/s) = 6.81626 4.89677 5.93463
#
# Compressibility (1/GPa) = 0.06774997
#
# Stress axis : x y z
#
# Youngs Moduli (GPa) = 81.45887 87.63487 55.20227
#
# Poissons Ratio (x) = -0.28062 -0.35329
# Poissons Ratio (y) = -0.26084 -0.18613
# Poissons Ratio (z) = -0.52133 -0.29549
#
# Static dielectric constant tensor:
#      x y z
#    x 1.807200 0.000000 -0.005060 
#    y 0.000000 1.872430 0.000000 
#    z -0.005060 0.000000 1.783570 
# 
# From -- ./inp_files/252538.got.cif
#   From: 2010.05.17/outbox.cif.g08.bks.cpg/sg12_127_cif.got.tgz:252538.got - 2010.06.03 13:09:07.
