data_PCOD9178388
_publ_section_title
;
Structure prediction by ZEFSAII (Michael W. Deem and Ramdas Pophale) SiO2 
 PCOD9178388
Probable space group: C 2/M
;
_chemical_formula_sum "Si O2"
_cell_formula_units_Z 40
_cell_length_a 5.073618
_cell_length_b 14.894813
_cell_length_c 26.075518
_cell_angle_alpha 90.000000
_cell_angle_beta 101.170994
_cell_angle_gamma 90.000000
_cell_volume 1933.207161
_symmetry_space_group_name_H-M "C 2/M"
_symmetry_group_IT_number 12
_symmetry_cell_setting 'monoclinic'
loop_
_space_group_symop_operation_xyz
x,y,z
-x,y,-z
-x,-y,-z
x,-y,z
1/2+x,1/2+y,z
1/2-x,1/2+y,-z
1/2-x,1/2-y,-z
1/2+x,1/2-y,z
loop_
_atom_site_type_symbol
_atom_site_label
_atom_site_fract_x
_atom_site_fract_y
_atom_site_fract_z
Si Si1 0.236197 0.892040 0.835464
Si Si2 0.006586 0.690661 0.944235
Si Si3 0.774478 0.690155 0.334392
Si Si4 0.993751 0.687466 0.554898
Si Si5 0.824077 0.608033 0.225133
O O1 0.383134 0.863279 0.892644
O O2 0.407017 0.859909 0.792785
O O3 0.931678 0.859923 0.817591
O O4 0.230525 0.000000 0.834081
O O5 0.806201 0.775878 0.943595
O O6 0.000000 0.644633 0.000000
O O7 0.475217 0.724895 0.334263
O O8 0.892429 0.641602 0.389560
O O9 0.791627 0.637250 0.282272
O O10 0.200149 0.771677 0.554639
O O11 0.000000 0.639127 0.500000
O O12 0.826989 0.500000 0.223949
#
# Coordination Sequence:
#
# PCOD9178388 Si02
#       5
#     8   8   8   8   8
#     4  10  21  36  53  72  96 130 165 193 231 285
#     4  10  21  36  54  77 102 126 155 196 243 282
#     4  10  19  30  48  73  95 122 163 200 234 283
#     4   8  14  25  41  63  91 119 150 193 237 274
#     4  10  21  35  49  70 101 130 157 196 243 282
#
# _framework density 20.691006000000002
#
# number of rings (size 3 to 8) (size 9 to 14) (size 15 to 20)
#    0.000    2.400    0.000    2.400    0.000    5.200 
#    0.000    0.000    0.000    7.800    0.000    0.000 
#    0.000   20.800    0.000    0.000    0.000    3.200 
#
# Total GULP energy -111579.363906 kJ/mol
# GULP energy per Si atom -5578.968195 kJ/mol
# Density = 2.064391 g / cm^3
# Si number density = 20.691006 Si / 1000 Ang^3
#
#
#
# Elastic Constant Matrix: (Units=GPa)
#
#
# Indices 1 2 3 4 5 6 
#
# 1 80.0266 -0.3878 -5.6558 0.0000 -0.3151 0.0000
# 2 -0.3878 14.8655 1.7463 0.0000 -0.1725 0.0000
# 3 -5.6558 1.7463 131.0899 0.0000 3.3655 0.0000
# 4 0.0000 0.0000 0.0000 -22.2632 0.0000 0.5061
# 5 -0.3151 -0.1725 3.3655 0.0000 35.8946 0.0000
# 6 0.0000 0.0000 0.0000 0.5061 0.0000 6.5773
#
#
#
# Elastic Compliance Matrix: (Units=1/GPa)
#
#
# Indices 1 2 3 4 5 6 
#
# 1 0.012535 0.000265 0.000536 0.000000 0.000061 0.000000
# 2 0.000265 0.067387 -0.000897 0.000000 0.000410 0.000000
# 3 0.000536 -0.000897 0.007682 0.000000 -0.000720 0.000000
# 4 0.000000 0.000000 0.000000 -0.044839 0.000000 0.003450
# 5 0.000061 0.000410 -0.000720 0.000000 0.027929 0.000000
# 6 0.000000 0.000000 0.000000 0.003450 0.000000 0.151774
#
#
# Mechanical properties :
#
#
# Convention : Reuss Voigt Hill
#
# Bulk Modulus (GPa) = 11.44017 24.15415 17.79716
# Shear Modulus (GPa) = 19.85721 19.39369 19.62545
#
# Velocity S-wave (km/s) = 3.10127 3.06486 3.08312
# Velocity P-wave (km/s) = 4.28543 4.92174 4.61457
#
# Compressibility (1/GPa) = 0.08741132
#
# Stress axis : x y z
#
# Youngs Moduli (GPa) = 79.77517 14.83971 130.17621
#
# Poissons Ratio (x) = -0.00393 -0.06974
# Poissons Ratio (y) = -0.02112 0.11674
# Poissons Ratio (z) = -0.04274 0.01331
#
# Static dielectric constant tensor:
#      x y z
#    x 1.724510 0.000000 0.003230 
#    y 0.000000 1.703730 0.000000 
#    z 0.003230 0.000000 1.797770 
# 
# From -- ./inp_files/297555.got.cif
#   From: 2010.05.17/outbox.cif.g08.bks.cpg/sg12_149_cif.got.tgz:297555.got - 2010.06.03 13:09:07.
