data_PCOD9178760
_publ_section_title
;
Structure prediction by ZEFSAII (Michael W. Deem and Ramdas Pophale) SiO2 
 PCOD9178760
Probable space group: C 2/M
;
_chemical_formula_sum "Si O2"
_cell_formula_units_Z 64
_cell_length_a 29.085813
_cell_length_b 7.535802
_cell_length_c 19.999937
_cell_angle_alpha 90.000000
_cell_angle_beta 130.817691
_cell_angle_gamma 90.000000
_cell_volume 3317.543094
_symmetry_space_group_name_H-M "C 2/M"
_symmetry_group_IT_number 12
_symmetry_cell_setting 'monoclinic'
loop_
_space_group_symop_operation_xyz
x,y,z
-x,y,-z
-x,-y,-z
x,-y,z
1/2+x,1/2+y,z
1/2-x,1/2+y,-z
1/2-x,1/2-y,-z
1/2+x,1/2-y,z
loop_
_atom_site_type_symbol
_atom_site_label
_atom_site_fract_x
_atom_site_fract_y
_atom_site_fract_z
Si Si1 0.194229 0.717278 0.214422
Si Si2 0.291967 0.705854 0.615113
Si Si3 0.438953 0.207635 0.910587
Si Si4 0.467950 0.789960 0.647325
Si Si5 0.163854 0.283634 0.524631
Si Si6 0.923787 0.211725 0.742071
Si Si7 0.047673 0.206856 0.599972
Si Si8 0.321962 0.705267 0.306009
O O1 0.194909 0.500000 0.217319
O O2 0.202268 0.782112 0.298221
O O3 0.127056 0.777776 0.129335
O O4 0.253798 0.778017 0.230485
O O5 0.291192 0.500000 0.596119
O O6 0.223380 0.776915 0.539379
O O7 0.357061 0.787126 0.656720
O O8 0.440046 0.220898 0.831037
O O9 0.438170 0.000000 0.928146
O O10 0.500000 0.286898 0.000000
O O11 0.401304 0.721069 0.562742
O O12 0.471564 0.753438 0.729493
O O13 0.517624 0.715709 0.644095
O O14 0.468223 0.000000 0.637233
O O15 0.164961 0.500000 0.526614
O O16 0.169922 0.216459 0.606068
O O17 0.917697 0.000000 0.741485
O O18 0.115527 0.285695 0.662576
O O19 0.000000 0.283274 0.500000
O O20 0.055297 0.000000 0.587931
O O21 0.319353 0.500000 0.281722
#
# Coordination Sequence:
#
# PCOD9178760 Si02
#       8
#     8   8   8   8   8   8   8   8
#     4   8  14  25  43  68  93 117 147 180 219 268
#     4   8  15  28  43  60  85 118 153 187 223 262
#     4   9  17  31  52  76 100 122 144 176 222 278
#     4  11  22  32  44  63  90 123 160 198 235 273
#     4   9  17  28  42  61  86 118 156 194 229 265
#     4  10  20  33  48  66  92 123 154 189 227 271
#     4  10  19  31  46  64  88 120 161 203 237 268
#     4   9  16  27  44  64  88 119 155 195 230 262
#
# _framework density 19.291385999999999
#
# number of rings (size 3 to 8) (size 9 to 14) (size 15 to 20)
#    0.000    2.750    1.250    0.750    0.000    2.500 
#    0.000    0.000    0.000    0.000    0.000    0.875 
#    0.000    0.000    0.000    0.000    0.000    0.000 
#
# Total GULP energy -178328.952883 kJ/mol
# GULP energy per Si atom -5572.779778 kJ/mol
# Density = 1.924748 g / cm^3
# Si number density = 19.291386 Si / 1000 Ang^3
#
#
#
# Elastic Constant Matrix: (Units=GPa)
#
#
# Indices 1 2 3 4 5 6 
#
# 1 159.1416 -5.1136 49.9164 0.0000 32.8354 0.0000
# 2 -5.1136 62.2317 2.1118 0.0000 8.4218 0.0001
# 3 49.9164 2.1118 91.0151 0.0000 32.9778 0.0000
# 4 0.0000 0.0000 0.0000 5.6114 0.0000 -6.1272
# 5 32.8354 8.4218 32.9778 0.0000 29.1432 0.0000
# 6 0.0000 0.0001 0.0000 -6.1272 0.0000 11.6327
#
#
#
# Elastic Compliance Matrix: (Units=1/GPa)
#
#
# Indices 1 2 3 4 5 6 
#
# 1 0.008598 0.001878 -0.001784 0.000000 -0.008211 0.000000
# 2 0.001878 0.017425 0.001961 -0.000001 -0.009370 0.000000
# 3 -0.001784 0.001961 0.019317 0.000000 -0.020416 0.000000
# 4 0.000000 -0.000001 0.000000 0.419459 0.000000 0.220939
# 5 -0.008211 -0.009370 -0.020416 0.000000 0.069375 0.000000
# 6 0.000000 0.000000 0.000000 0.220939 0.000000 0.202338
#
#
# Mechanical properties :
#
#
# Convention : Reuss Voigt Hill
#
# Bulk Modulus (GPa) = 20.22214 45.13530 32.67872
# Shear Modulus (GPa) = 6.67658 26.97570 16.82614
#
# Velocity S-wave (km/s) = 1.86237 3.74348 2.95652
# Velocity P-wave (km/s) = 3.88970 6.49094 5.35080
#
# Compressibility (1/GPa) = 0.04945074
#
# Stress axis : x y z
#
# Youngs Moduli (GPa) = 116.30885 57.38923 51.76701
#
# Poissons Ratio (x) = -0.10779 0.09234
# Poissons Ratio (y) = -0.21846 -0.10150
# Poissons Ratio (z) = 0.20746 -0.11253
#
# Static dielectric constant tensor:
#      x y z
#    x 1.729870 0.000000 0.053770 
#    y 0.000000 1.714910 0.000000 
#    z 0.053770 0.000000 1.696950 
# 
# From -- ./inp_files/326929.got.cif
#   From: 2010.05.17/outbox.cif.g08.bks.cpg/sg12_164_cif.got.tgz:326929.got - 2010.06.03 13:09:07.
