data_PCOD9178240
_publ_section_title
;
Structure prediction by ZEFSAII (Michael W. Deem and Ramdas Pophale) SiO2 
 PCOD9178240
Probable space group: C 2/M
;
_chemical_formula_sum "Si O2"
_cell_formula_units_Z 40
_cell_length_a 16.211341
_cell_length_b 9.210568
_cell_length_c 12.182925
_cell_angle_alpha 90.000000
_cell_angle_beta 82.815372
_cell_angle_gamma 90.000000
_cell_volume 1804.818416
_symmetry_space_group_name_H-M "C 2/M"
_symmetry_group_IT_number 12
_symmetry_cell_setting 'monoclinic'
loop_
_space_group_symop_operation_xyz
x,y,z
-x,y,-z
-x,-y,-z
x,-y,z
1/2+x,1/2+y,z
1/2-x,1/2+y,-z
1/2-x,1/2-y,-z
1/2+x,1/2-y,z
loop_
_atom_site_type_symbol
_atom_site_label
_atom_site_fract_x
_atom_site_fract_y
_atom_site_fract_z
Si Si1 0.005026 0.824904 0.238178
Si Si2 0.879593 0.827016 0.970007
Si Si3 0.654424 0.172770 0.630555
Si Si4 0.775627 0.673243 0.162628
Si Si5 0.904567 0.165260 0.562847
O O1 0.037399 0.789923 0.111249
O O2 0.079223 0.796617 0.313579
O O3 0.928196 0.733081 0.294750
O O4 0.988056 0.000000 0.246883
O O5 0.805893 0.794198 0.894679
O O6 0.881189 0.000000 0.989524
O O7 0.851182 0.748283 0.084732
O O8 0.724435 0.213974 0.708728
O O9 0.650422 0.241392 0.510697
O O10 0.651891 0.000000 0.620220
O O11 0.786998 0.500000 0.157054
O O12 0.000000 0.167715 0.500000
O O13 0.874050 0.000000 0.562396
#
# Coordination Sequence:
#
# PCOD9178240 Si02
#       5
#     8   8   8   8   8
#     4   9  18  32  50  71  93 120 156 195 229 265
#     4   9  18  34  53  68  88 123 161 192 226 273
#     4  10  19  30  47  71  98 124 150 187 233 278
#     4   9  19  34  49  68  95 124 153 189 234 276
#     4   8  15  29  47  67  93 123 154 188 226 269
#
# _framework density 22.162893
#
# number of rings (size 3 to 8) (size 9 to 14) (size 15 to 20)
#    0.000    3.000    0.000    1.800    0.000    6.800 
#    0.000    5.000    0.000    0.000    0.000    0.000 
#    0.000    0.000    0.000    0.000    0.000    0.000 
#
# Total GULP energy -111637.468162 kJ/mol
# GULP energy per Si atom -5581.873408 kJ/mol
# Density = 2.211245 g / cm^3
# Si number density = 22.162893 Si / 1000 Ang^3
#
#
#
# Elastic Constant Matrix: (Units=GPa)
#
#
# Indices 1 2 3 4 5 6 
#
# 1 60.0437 15.0205 12.3157 0.0000 5.9486 0.0000
# 2 15.0205 14.5618 30.2791 0.0000 15.1443 0.0000
# 3 12.3157 30.2791 146.9953 0.0000 11.7441 0.0000
# 4 0.0000 0.0000 0.0000 31.0582 0.0000 5.4605
# 5 5.9486 15.1443 11.7441 0.0000 44.6135 0.0000
# 6 0.0000 0.0000 0.0000 5.4605 0.0000 7.8879
#
#
#
# Elastic Compliance Matrix: (Units=1/GPa)
#
#
# Indices 1 2 3 4 5 6 
#
# 1 0.031189 -0.074557 0.011292 0.000000 0.018178 0.000000
# 2 -0.074557 0.394819 -0.066568 0.000000 -0.106559 0.000000
# 3 0.011292 -0.066568 0.018268 0.000000 0.016282 0.000000
# 4 0.000000 0.000000 0.000000 0.036659 0.000000 -0.025378
# 5 0.018178 -0.106559 0.016282 0.000000 0.051877 0.000000
# 6 0.000000 0.000000 0.000000 -0.025378 0.000000 0.144345
#
#
# Mechanical properties :
#
#
# Convention : Reuss Voigt Hill
#
# Bulk Modulus (GPa) = 5.41678 37.42570 21.42124
# Shear Modulus (GPa) = 5.00822 27.64429 16.32626
#
# Velocity S-wave (km/s) = 1.50487 3.53558 2.71707
# Velocity P-wave (km/s) = 2.33857 5.79572 4.41924
#
# Compressibility (1/GPa) = 0.18461146
#
# Stress axis : x y z
#
# Youngs Moduli (GPa) = 32.06309 2.53281 54.74041
#
# Poissons Ratio (x) = 0.18884 -0.61815
# Poissons Ratio (y) = 2.39052 3.64394
# Poissons Ratio (z) = -0.36207 0.16860
#
# Static dielectric constant tensor:
#      x y z
#    x 1.912240 0.000000 0.022780 
#    y 0.000000 1.730000 0.000000 
#    z 0.022780 0.000000 1.865060 
# 
# From -- ./inp_files/151858.got.cif
#   From: 2010.05.17/outbox.cif.g08.bks.cpg/sg12_76_cif.got.tgz:151858.got - 2010.06.03 13:09:07.
