data_PCOD9178105
_publ_section_title
;
Structure prediction by ZEFSAII (Michael W. Deem and Ramdas Pophale) SiO2 
 PCOD9178105
Probable space group: C 2/M
;
_chemical_formula_sum "Si O2"
_cell_formula_units_Z 64
_cell_length_a 32.178473
_cell_length_b 8.976253
_cell_length_c 16.103805
_cell_angle_alpha 90.000000
_cell_angle_beta 54.751243
_cell_angle_gamma 90.000000
_cell_volume 3798.631393
_symmetry_space_group_name_H-M "C 2/M"
_symmetry_group_IT_number 12
_symmetry_cell_setting 'monoclinic'
loop_
_space_group_symop_operation_xyz
x,y,z
-x,y,-z
-x,-y,-z
x,-y,z
1/2+x,1/2+y,z
1/2-x,1/2+y,-z
1/2-x,1/2-y,-z
1/2+x,1/2-y,z
loop_
_atom_site_type_symbol
_atom_site_label
_atom_site_fract_x
_atom_site_fract_y
_atom_site_fract_z
Si Si1 0.038768 0.320945 0.287338
Si Si2 0.674495 0.322776 0.539948
Si Si3 0.140680 0.678895 0.078245
Si Si4 0.229077 0.177243 0.651246
Si Si5 0.924403 0.677711 0.416759
Si Si6 0.692075 0.323974 0.173493
Si Si7 0.413385 0.676342 0.609061
Si Si8 0.295664 0.179862 0.148162
O O1 0.042109 0.500000 0.296541
O O2 0.084110 0.276316 0.172522
O O3 0.050065 0.240439 0.361488
O O4 0.982044 0.287281 0.322322
O O5 0.673409 0.500000 0.528295
O O6 0.716261 0.251696 0.430159
O O7 0.694623 0.292098 0.609756
O O8 0.619647 0.254145 0.585527
O O9 0.143065 0.500000 0.077877
O O10 0.179241 0.739821 0.103403
O O11 0.158696 0.724699 0.966113
O O12 0.205076 0.244151 0.761830
O O13 0.235342 0.000000 0.651231
O O14 0.917665 0.500000 0.423369
O O15 0.919740 0.737788 0.515990
O O16 0.695494 0.500000 0.151415
O O17 0.643797 0.301527 0.289790
O O18 0.743598 0.278925 0.159948
O O19 0.421775 0.500000 0.587881
O O20 0.295905 0.000000 0.158003
#
# Coordination Sequence:
#
# PCOD9178105 Si02
#       8
#     8   8   8   8   8   8   8   8
#     4   9  19  34  48  67  99 134 171 213 248 285
#     4  10  21  37  55  76 102 127 156 197 242 294
#     4   9  18  32  49  69  96 133 171 206 244 282
#     4  10  21  36  55  78 102 128 156 191 242 298
#     4  11  21  32  50  73  97 130 169 207 250 295
#     4   9  18  30  44  68 100 130 161 200 244 289
#     4  10  19  30  46  70 101 134 167 205 250 298
#     4  10  19  31  50  74 100 131 166 203 243 288
#
# _framework density 16.848172999999999
#
# number of rings (size 3 to 8) (size 9 to 14) (size 15 to 20)
#    0.000    2.250    0.000    3.000    0.000    6.500 
#    0.000    0.000    0.000    0.750    0.000    5.250 
#    0.000    0.000    0.000    0.000    0.000    0.000 
#
# Total GULP energy -178621.006812 kJ/mol
# GULP energy per Si atom -5581.906463 kJ/mol
# Density = 1.680983 g / cm^3
# Si number density = 16.848173 Si / 1000 Ang^3
#
#
#
# Elastic Constant Matrix: (Units=GPa)
#
#
# Indices 1 2 3 4 5 6 
#
# 1 97.9322 42.2111 49.2616 0.0000 -13.0209 0.0000
# 2 42.2111 35.4701 42.3974 0.0000 -1.4316 0.0000
# 3 49.2616 42.3974 106.6215 0.0000 9.1015 0.0000
# 4 0.0000 0.0000 0.0000 24.2278 0.0000 4.5050
# 5 -13.0209 -1.4316 9.1015 0.0000 14.4293 0.0000
# 6 0.0000 0.0000 0.0000 4.5050 0.0000 28.2660
#
#
#
# Elastic Compliance Matrix: (Units=1/GPa)
#
#
# Indices 1 2 3 4 5 6 
#
# 1 0.026549 -0.025768 -0.004066 0.000000 0.023966 0.000000
# 2 -0.025768 0.084738 -0.021691 0.000000 -0.001164 0.000000
# 3 -0.004066 -0.021691 0.021539 0.000000 -0.019407 0.000000
# 4 0.000000 0.000000 0.000000 0.042535 0.000000 -0.006779
# 5 0.023966 -0.001164 -0.019407 0.000000 0.103056 0.000000
# 6 0.000000 0.000000 0.000000 -0.006779 0.000000 0.036459
#
#
# Mechanical properties :
#
#
# Convention : Reuss Voigt Hill
#
# Bulk Modulus (GPa) = 33.58235 56.41824 45.00030
# Shear Modulus (GPa) = 11.68630 20.46152 16.07391
#
# Velocity S-wave (km/s) = 2.63653 3.48870 3.09211
# Velocity P-wave (km/s) = 5.40777 7.05599 6.28614
#
# Compressibility (1/GPa) = 0.02977754
#
# Stress axis : x y z
#
# Youngs Moduli (GPa) = 37.66574 11.80112 46.42673
#
# Poissons Ratio (x) = 0.30409 0.18876
# Poissons Ratio (y) = 0.97057 1.00703
# Poissons Ratio (z) = 0.15314 0.25598
#
# Static dielectric constant tensor:
#      x y z
#    x 1.556720 0.000000 -0.024020 
#    y 0.000000 1.561540 0.000000 
#    z -0.024020 0.000000 1.572660 
# 
# From -- ./inp_files/248964.got.cif
#   From: 2010.05.17/outbox.cif.g08.bks.cpg/sg12_125_cif.got.tgz:248964.got - 2010.06.03 13:09:07.
