data_PCOD9178325
_publ_section_title
;
Structure prediction by ZEFSAII (Michael W. Deem and Ramdas Pophale) SiO2 
 PCOD9178325
Probable space group: C 2/M
;
_chemical_formula_sum "Si O2"
_cell_formula_units_Z 64
_cell_length_a 25.757346
_cell_length_b 9.074029
_cell_length_c 14.648603
_cell_angle_alpha 90.000000
_cell_angle_beta 89.404141
_cell_angle_gamma 90.000000
_cell_volume 3423.528899
_symmetry_space_group_name_H-M "C 2/M"
_symmetry_group_IT_number 12
_symmetry_cell_setting 'monoclinic'
loop_
_space_group_symop_operation_xyz
x,y,z
-x,y,-z
-x,-y,-z
x,-y,z
1/2+x,1/2+y,z
1/2-x,1/2+y,-z
1/2-x,1/2-y,-z
1/2+x,1/2-y,z
loop_
_atom_site_type_symbol
_atom_site_label
_atom_site_fract_x
_atom_site_fract_y
_atom_site_fract_z
Si Si1 0.415165 0.820290 0.487289
Si Si2 0.698112 0.833065 0.524353
Si Si3 0.057643 0.677436 0.315245
Si Si4 0.443842 0.821944 0.280967
Si Si5 0.858212 0.825362 0.155587
Si Si6 0.726221 0.167723 0.729739
Si Si7 0.659815 0.324003 0.231210
Si Si8 0.305322 0.677354 0.974392
O O1 0.356257 0.768518 0.506921
O O2 0.446931 0.779842 0.577099
O O3 0.430815 0.773263 0.385412
O O4 0.414940 0.000000 0.483562
O O5 0.750000 0.750000 0.500000
O O6 0.696855 0.836887 0.634256
O O7 0.701996 0.000000 0.489747
O O8 0.061877 0.500000 0.313404
O O9 0.109271 0.744644 0.270731
O O10 0.004227 0.717890 0.265798
O O11 0.404602 0.754208 0.208443
O O12 0.438944 0.000000 0.278192
O O13 0.804734 0.777363 0.205675
O O14 0.865610 0.000000 0.161831
O O15 0.848000 0.783859 0.050507
O O16 0.786515 0.207992 0.715734
O O17 0.725429 0.000000 0.768292
O O18 0.651127 0.500000 0.235360
O O19 0.674318 0.283086 0.126629
O O20 0.298431 0.500000 0.976943
O O21 0.250000 0.750000 0.000000
#
# Coordination Sequence:
#
# PCOD9178325 Si02
#       8
#     8   8   8   8   8   8   8   8
#     4   9  17  33  56  80 107 143 188 232 274 323
#     4  10  19  30  47  74 109 146 180 218 270 328
#     4  10  21  36  58  85 110 144 193 240 275 319
#     4  10  20  38  60  80 110 152 192 230 277 333
#     4  11  22  35  56  87 113 137 181 236 278 321
#     4  10  19  34  55  78 109 150 184 215 271 340
#     4  10  21  37  57  81 115 151 180 221 284 345
#     4  10  21  37  59  86 113 145 183 224 278 337
#
# _framework density 18.69416
#
# number of rings (size 3 to 8) (size 9 to 14) (size 15 to 20)
#    0.000    2.000    2.500    1.500    0.000    4.000 
#    0.000    1.250    0.000    5.250    0.000    0.000 
#    0.000    0.000    0.000    0.000    0.000    0.000 
#
# Total GULP energy -178484.735375 kJ/mol
# GULP energy per Si atom -5577.647980 kJ/mol
# Density = 1.865161 g / cm^3
# Si number density = 18.694160 Si / 1000 Ang^3
#
#
#
# Elastic Constant Matrix: (Units=GPa)
#
#
# Indices 1 2 3 4 5 6 
#
# 1 128.1393 29.6985 38.4300 0.0000 21.2468 0.0000
# 2 29.6985 19.8783 15.3712 0.0000 6.9099 0.0000
# 3 38.4300 15.3712 76.5324 0.0000 16.8930 0.0000
# 4 0.0000 0.0000 0.0000 19.6854 0.0000 -0.3053
# 5 21.2468 6.9099 16.8930 0.0000 27.8023 0.0000
# 6 0.0000 0.0000 0.0000 -0.3053 0.0000 29.2747
#
#
#
# Elastic Compliance Matrix: (Units=1/GPa)
#
#
# Indices 1 2 3 4 5 6 
#
# 1 0.012951 -0.016004 -0.002289 0.000000 -0.004529 0.000000
# 2 -0.016004 0.081214 -0.007529 0.000000 -0.003379 0.000000
# 3 -0.002289 -0.007529 0.017241 0.000000 -0.006855 0.000000
# 4 0.000000 0.000000 0.000000 0.050807 0.000000 0.000530
# 5 -0.004529 -0.003379 -0.006855 0.000000 0.044434 0.000000
# 6 0.000000 0.000000 0.000000 0.000530 0.000000 0.034165
#
#
# Mechanical properties :
#
#
# Convention : Reuss Voigt Hill
#
# Bulk Modulus (GPa) = 16.73350 43.50550 30.11950
# Shear Modulus (GPa) = 16.00630 24.75581 20.38105
#
# Velocity S-wave (km/s) = 2.92930 3.64298 3.30546
# Velocity P-wave (km/s) = 4.51793 6.40452 5.54209
#
# Compressibility (1/GPa) = 0.05976037
#
# Stress axis : x y z
#
# Youngs Moduli (GPa) = 77.21599 12.31320 58.00077
#
# Poissons Ratio (x) = 0.19707 0.13277
# Poissons Ratio (y) = 1.23579 0.43670
# Poissons Ratio (z) = 0.17675 0.09271
#
# Static dielectric constant tensor:
#      x y z
#    x 1.647670 0.000000 0.012730 
#    y 0.000000 1.636660 0.000000 
#    z 0.012730 0.000000 1.668190 
# 
# From -- ./inp_files/238651.got.cif
#   From: 2010.05.17/outbox.cif.g08.bks.cpg/sg12_120_cif.got.tgz:238651.got - 2010.06.03 13:09:07.
