data_PCOD9178127
_publ_section_title
;
Structure prediction by ZEFSAII (Michael W. Deem and Ramdas Pophale) SiO2 
 PCOD9178127
Probable space group: C 2/M
;
_chemical_formula_sum "Si O2"
_cell_formula_units_Z 48
_cell_length_a 18.658100
_cell_length_b 9.128166
_cell_length_c 16.616589
_cell_angle_alpha 90.000000
_cell_angle_beta 104.801286
_cell_angle_gamma 90.000000
_cell_volume 2736.134210
_symmetry_space_group_name_H-M "C 2/M"
_symmetry_group_IT_number 12
_symmetry_cell_setting 'monoclinic'
loop_
_space_group_symop_operation_xyz
x,y,z
-x,y,-z
-x,-y,-z
x,-y,z
1/2+x,1/2+y,z
1/2-x,1/2+y,-z
1/2-x,1/2-y,-z
1/2+x,1/2-y,z
loop_
_atom_site_type_symbol
_atom_site_label
_atom_site_fract_x
_atom_site_fract_y
_atom_site_fract_z
Si Si1 0.758732 0.825102 0.242248
Si Si2 0.858577 0.831567 0.574789
Si Si3 0.812289 0.332000 0.410065
Si Si4 0.396590 0.677631 0.758854
Si Si5 0.308847 0.323812 0.075767
Si Si6 0.524972 0.321729 0.918585
O O1 0.809960 0.762095 0.328258
O O2 0.678308 0.750807 0.229718
O O3 0.790037 0.791164 0.163076
O O4 0.752083 0.000000 0.249168
O O5 0.861115 0.734691 0.495842
O O6 0.772953 0.829109 0.581503
O O7 0.904172 0.783232 0.666591
O O8 0.876680 0.000000 0.560601
O O9 0.831195 0.500000 0.398991
O O10 0.525123 0.500000 0.919441
O O11 0.465586 0.721123 0.833838
O O12 0.305124 0.500000 0.064779
O O13 0.391894 0.274749 0.077808
O O14 0.250000 0.250000 0.000000
O O15 0.612070 0.500000 0.240736
O O16 0.500000 0.272390 0.000000
#
# Coordination Sequence:
#
# PCOD9178127 Si02
#       6
#     8   8   8   8   8   8
#     4  10  19  30  46  71 102 129 156 196 242 285
#     4   8  14  24  40  66  96 122 154 200 244 277
#     4   9  16  26  43  67  94 127 164 197 233 280
#     4   9  17  30  50  73  96 127 165 200 237 283
#     4  10  21  35  52  74  98 126 159 196 240 287
#     4   9  17  31  52  74  95 122 159 200 237 280
#
# _framework density 17.542998999999998
#
# number of rings (size 3 to 8) (size 9 to 14) (size 15 to 20)
#    0.000    2.833    0.000    3.000    0.000    6.667 
#    0.000    0.833    0.000    4.000    0.000    7.000 
#    0.000    0.000    0.000    0.000    0.000    0.000 
#
# Total GULP energy -133765.531183 kJ/mol
# GULP energy per Si atom -5573.563799 kJ/mol
# Density = 1.750307 g / cm^3
# Si number density = 17.542999 Si / 1000 Ang^3
#
#
#
# Elastic Constant Matrix: (Units=GPa)
#
#
# Indices 1 2 3 4 5 6 
#
# 1 81.9388 31.1994 80.5418 0.0000 4.6447 0.0000
# 2 31.1994 43.7019 62.6735 0.0000 -4.4754 0.0000
# 3 80.5418 62.6735 201.1358 0.0000 12.5519 0.0000
# 4 0.0000 0.0000 0.0000 29.3651 0.0000 1.2588
# 5 4.6447 -4.4754 12.5519 0.0000 22.8158 0.0000
# 6 0.0000 0.0000 0.0000 1.2588 0.0000 11.8517
#
#
#
# Elastic Compliance Matrix: (Units=1/GPa)
#
#
# Indices 1 2 3 4 5 6 
#
# 1 0.020838 -0.005917 -0.006383 0.000000 -0.001891 0.000000
# 2 -0.005917 0.049343 -0.014172 0.000000 0.018680 0.000000
# 3 -0.006383 -0.014172 0.012464 0.000000 -0.008337 0.000000
# 4 0.000000 0.000000 0.000000 0.034210 0.000000 -0.003633
# 5 -0.001891 0.018680 -0.008337 0.000000 0.052465 0.000000
# 6 0.000000 0.000000 0.000000 -0.003633 0.000000 0.084762
#
#
# Mechanical properties :
#
#
# Convention : Reuss Voigt Hill
#
# Bulk Modulus (GPa) = 33.66695 75.06731 54.36713
# Shear Modulus (GPa) = 15.77658 22.96397 19.37027
#
# Velocity S-wave (km/s) = 3.00210 3.62195 3.32649
# Velocity P-wave (km/s) = 5.59013 7.77012 6.76847
#
# Compressibility (1/GPa) = 0.02970272
#
# Stress axis : x y z
#
# Youngs Moduli (GPa) = 47.98882 20.26623 80.23319
#
# Poissons Ratio (x) = 0.11992 0.51209
# Poissons Ratio (y) = 0.28395 1.13703
# Poissons Ratio (z) = 0.30629 0.28720
#
# Static dielectric constant tensor:
#      x y z
#    x 1.579710 0.000000 0.004970 
#    y 0.000000 1.590960 0.000000 
#    z 0.004970 0.000000 1.606580 
# 
# From -- ./inp_files/230372.got.cif
#   From: 2010.05.17/outbox.cif.g08.bks.cpg/sg12_116_cif.got.tgz:230372.got - 2010.06.03 13:09:07.
