data_PCOD9178879
_publ_section_title
;
Structure prediction by ZEFSAII (Michael W. Deem and Ramdas Pophale) SiO2 
 PCOD9178879
Probable space group: C 2/M
;
_chemical_formula_sum "Si O2"
_cell_formula_units_Z 58
_cell_length_a 30.395186
_cell_length_b 16.127505
_cell_length_c 5.303049
_cell_angle_alpha 90.000000
_cell_angle_beta 76.055095
_cell_angle_gamma 90.000000
_cell_volume 2522.932657
_symmetry_space_group_name_H-M "C 2/M"
_symmetry_group_IT_number 12
_symmetry_cell_setting 'monoclinic'
loop_
_space_group_symop_operation_xyz
x,y,z
-x,y,-z
-x,-y,-z
x,-y,z
1/2+x,1/2+y,z
1/2-x,1/2+y,-z
1/2-x,1/2-y,-z
1/2+x,1/2-y,z
loop_
_atom_site_type_symbol
_atom_site_label
_atom_site_fract_x
_atom_site_fract_y
_atom_site_fract_z
Si Si1 0.365885 0.809401 0.895293
Si Si2 0.671329 0.378336 0.087915
Si Si3 0.500000 0.000000 0.000000
Si Si4 0.715085 0.364824 0.524384
Si Si5 0.183917 0.670460 0.539043
Si Si6 0.950275 0.902813 0.960094
Si Si7 0.026416 0.327777 0.204823
Si Si8 0.580525 0.592823 0.496894
O O1 0.344372 0.717071 0.917180
O O2 0.347771 0.846257 0.657245
O O3 0.420106 0.808411 0.847282
O O4 0.343256 0.850813 0.170466
O O5 0.710555 0.391816 0.239994
O O6 0.628735 0.413834 0.298330
O O7 0.684969 0.405341 0.788624
O O8 0.478377 0.925681 0.851147
O O9 0.766876 0.371145 0.539145
O O10 0.697808 0.268761 0.533569
O O11 0.919027 0.867156 0.227496
O O12 0.937569 0.000000 0.935892
O O13 0.948223 0.865291 0.684783
O O14 0.000000 0.900226 0.000000
O O15 0.000000 0.310268 0.500000
O O16 0.000000 0.286981 0.000000
O O17 0.561806 0.500000 0.570367
#
# Coordination Sequence:
#
# PCOD9178879 Si02
#       8
#     8   8   2   8   8   8   8   8
#     4  10  19  32  52  78 107 129 163 216 257 297
#     4  10  19  31  48  74 103 134 167 213 254 300
#     4   8  22  36  62  80 102 140 184 204 238 316
#     4   9  17  30  49  73 102 129 166 208 254 312
#     4   9  17  30  50  78 102 130 164 205 262 303
#     4   9  17  30  47  64  85 113 159 217 252 275
#     4  10  20  36  56  82 107 137 174 209 249 306
#     4  10  19  31  47  68  90 128 175 204 242 295
#
# _framework density 22.989117
#
# number of rings (size 3 to 8) (size 9 to 14) (size 15 to 20)
#    0.414    2.069    0.000    3.103    0.000    4.966 
#    0.000    2.069    0.000    0.000   10.759    0.000 
#    0.000    0.000    0.000    0.000    0.000    0.000 
#
# Total GULP energy -161442.161403 kJ/mol
# GULP energy per Si atom -5566.971083 kJ/mol
# Density = 2.293679 g / cm^3
# Si number density = 22.989117 Si / 1000 Ang^3
#
#
#
# Elastic Constant Matrix: (Units=GPa)
#
#
# Indices 1 2 3 4 5 6 
#
# 1 156.1573 -2.9042 74.5374 0.0000 13.5336 0.0000
# 2 -2.9042 42.8848 21.9951 0.0000 2.8620 0.0000
# 3 74.5374 21.9951 176.5297 0.0000 6.7276 0.0000
# 4 0.0000 0.0000 0.0000 7.8997 0.0000 -6.4578
# 5 13.5336 2.8620 6.7276 0.0000 45.4733 0.0000
# 6 0.0000 0.0000 0.0000 -6.4578 0.0000 8.9177
#
#
#
# Elastic Compliance Matrix: (Units=1/GPa)
#
#
# Indices 1 2 3 4 5 6 
#
# 1 0.008464 0.002677 -0.003827 0.000000 -0.002121 0.000000
# 2 0.002677 0.025813 -0.004279 0.000000 -0.001788 0.000000
# 3 -0.003827 -0.004279 0.007804 0.000000 0.000254 0.000000
# 4 0.000000 0.000000 0.000000 0.310243 0.000000 0.224662
# 5 -0.002121 -0.001788 0.000254 0.000000 0.022697 0.000000
# 6 0.000000 0.000000 0.000000 0.224662 0.000000 0.274825
#
#
# Mechanical properties :
#
#
# Convention : Reuss Voigt Hill
#
# Bulk Modulus (GPa) = 32.02489 62.53649 47.28069
# Shear Modulus (GPa) = 7.45034 31.25435 19.35235
#
# Velocity S-wave (km/s) = 1.80218 3.69118 2.90453
# Velocity P-wave (km/s) = 4.27682 6.74004 5.64443
#
# Compressibility (1/GPa) = 0.03122571
#
# Stress axis : x y z
#
# Youngs Moduli (GPa) = 118.14827 38.73953 128.14083
#
# Poissons Ratio (x) = -0.10372 0.49034
# Poissons Ratio (y) = -0.31632 0.54826
# Poissons Ratio (z) = 0.45210 0.16575
#
# Static dielectric constant tensor:
#      x y z
#    x 1.894870 0.000000 0.047300 
#    y 0.000000 1.931900 0.000000 
#    z 0.047300 0.000000 1.914980 
# 
# From -- ./inp_files/31873.got.cif
#   From: 2010.05.17/outbox.cif.g08.bks.cpg/sg12_16_cif.got.tgz:31873.got - 2010.06.03 13:09:07.
