data_PCOD9178597
_publ_section_title
;
Structure prediction by ZEFSAII (Michael W. Deem and Ramdas Pophale) SiO2 
 PCOD9178597
Probable space group: C 2/M
;
_chemical_formula_sum "Si O2"
_cell_formula_units_Z 64
_cell_length_a 12.887986
_cell_length_b 21.014860
_cell_length_c 19.023638
_cell_angle_alpha 90.000000
_cell_angle_beta 133.779264
_cell_angle_gamma 90.000000
_cell_volume 3720.049758
_symmetry_space_group_name_H-M "C 2/M"
_symmetry_group_IT_number 12
_symmetry_cell_setting 'monoclinic'
loop_
_space_group_symop_operation_xyz
x,y,z
-x,y,-z
-x,-y,-z
x,-y,z
1/2+x,1/2+y,z
1/2-x,1/2+y,-z
1/2-x,1/2-y,-z
1/2+x,1/2-y,z
loop_
_atom_site_type_symbol
_atom_site_label
_atom_site_fract_x
_atom_site_fract_y
_atom_site_fract_z
Si Si1 0.949850 0.811807 0.684911
Si Si2 0.648515 0.200445 0.611664
Si Si3 0.339458 0.712681 0.948635
Si Si4 0.605199 0.923020 0.259920
Si Si5 0.072435 0.424470 0.961365
Si Si6 0.076911 0.669052 0.733242
Si Si7 0.102282 0.847369 0.614499
Si Si8 0.683717 0.664994 0.905406
O O1 0.783490 0.818934 0.627009
O O2 0.991050 0.736539 0.698659
O O3 0.005575 0.844596 0.639611
O O4 0.043511 0.839461 0.792775
O O5 0.500000 0.193462 0.500000
O O6 0.631764 0.165201 0.678636
O O7 0.665821 0.275779 0.636707
O O8 0.216274 0.674254 0.849304
O O9 0.291378 0.785958 0.916793
O O10 0.500000 0.701194 0.000000
O O11 0.343907 0.696694 0.032759
O O12 0.514783 0.902744 0.148006
O O13 0.526865 0.886825 0.287721
O O14 0.766193 0.896589 0.324261
O O15 0.603226 0.000000 0.265811
O O16 0.070028 0.500000 0.958123
O O17 0.233293 0.399212 0.039830
O O18 0.000000 0.403763 0.000000
O O19 0.000000 0.858965 0.500000
#
# Coordination Sequence:
#
# PCOD9178597 Si02
#       8
#     8   8   8   8   8   8   8   8
#     4  10  20  35  55  86 117 144 180 236 290 338
#     4  10  21  34  59  86 112 149 181 234 297 340
#     4  10  19  30  50  78 110 144 173 223 273 321
#     4  11  22  38  59  82 116 153 193 231 274 336
#     4  10  20  34  54  78 108 146 184 220 264 327
#     4  10  20  35  55  83 117 146 189 230 278 345
#     4  10  22  35  58  85 115 146 185 238 289 339
#     4  10  19  31  50  78 110 142 174 216 272 329
#
# _framework density 17.204070999999999
#
# number of rings (size 3 to 8) (size 9 to 14) (size 15 to 20)
#    0.000    1.875    2.500    1.875    1.750    3.750 
#    0.000    0.000    0.000    4.875    0.000    0.000 
#    0.000    0.000    0.000    0.000    0.000    0.000 
#
# Total GULP energy -178430.150605 kJ/mol
# GULP energy per Si atom -5575.942206 kJ/mol
# Density = 1.716491 g / cm^3
# Si number density = 17.204071 Si / 1000 Ang^3
#
#
#
# Elastic Constant Matrix: (Units=GPa)
#
#
# Indices 1 2 3 4 5 6 
#
# 1 139.6371 38.4584 55.4669 0.0000 13.0604 0.0000
# 2 38.4584 37.5663 27.9444 0.0000 3.5506 0.0000
# 3 55.4669 27.9444 88.0609 0.0000 1.1488 0.0000
# 4 0.0000 0.0000 0.0000 18.8643 0.0000 2.3872
# 5 13.0604 3.5506 1.1488 0.0000 27.4273 0.0000
# 6 0.0000 0.0000 0.0000 2.3872 0.0000 26.4921
#
#
#
# Elastic Compliance Matrix: (Units=1/GPa)
#
#
# Indices 1 2 3 4 5 6 
#
# 1 0.011651 -0.007988 -0.004747 0.000000 -0.004315 0.000000
# 2 -0.007988 0.040777 -0.007893 0.000000 -0.001144 0.000000
# 3 -0.004747 -0.007893 0.016817 0.000000 0.002578 0.000000
# 4 0.000000 0.000000 0.000000 0.053622 0.000000 -0.004832
# 5 -0.004315 -0.001144 0.002578 0.000000 0.038555 0.000000
# 6 0.000000 0.000000 0.000000 -0.004832 0.000000 0.038183
#
#
# Mechanical properties :
#
#
# Convention : Reuss Voigt Hill
#
# Bulk Modulus (GPa) = 35.73039 56.55597 46.14318
# Shear Modulus (GPa) = 19.98468 24.11638 22.05053
#
# Velocity S-wave (km/s) = 3.41196 3.74810 3.58397
# Velocity P-wave (km/s) = 6.02790 7.18860 6.63369
#
# Compressibility (1/GPa) = 0.02798738
#
# Stress axis : x y z
#
# Youngs Moduli (GPa) = 85.83075 24.52338 59.46323
#
# Poissons Ratio (x) = 0.19590 0.28229
# Poissons Ratio (y) = 0.68564 0.46937
# Poissons Ratio (z) = 0.40746 0.19357
#
# Static dielectric constant tensor:
#      x y z
#    x 1.574830 0.000000 -0.020110 
#    y 0.000000 1.573420 0.000000 
#    z -0.020110 0.000000 1.579130 
# 
# From -- ./inp_files/265114.got.cif
#   From: 2010.05.17/outbox.cif.g08.bks.cpg/sg12_133_cif.got.tgz:265114.got - 2010.06.03 13:09:07.
