data_PCOD9178028
_publ_section_title
;
Structure prediction by ZEFSAII (Michael W. Deem and Ramdas Pophale) SiO2 
 PCOD9178028
Probable space group: C 2/M
;
_chemical_formula_sum "Si O2"
_cell_formula_units_Z 48
_cell_length_a 9.901112
_cell_length_b 15.932112
_cell_length_c 12.348582
_cell_angle_alpha 90.000000
_cell_angle_beta 75.967067
_cell_angle_gamma 90.000000
_cell_volume 1889.801621
_symmetry_space_group_name_H-M "C 2/M"
_symmetry_group_IT_number 12
_symmetry_cell_setting 'monoclinic'
loop_
_space_group_symop_operation_xyz
x,y,z
-x,y,-z
-x,-y,-z
x,-y,z
1/2+x,1/2+y,z
1/2-x,1/2+y,-z
1/2-x,1/2-y,-z
1/2+x,1/2-y,z
loop_
_atom_site_type_symbol
_atom_site_label
_atom_site_fract_x
_atom_site_fract_y
_atom_site_fract_z
Si Si1 0.297858 0.364442 0.575316
Si Si2 0.734879 0.500000 0.006938
Si Si3 0.709006 0.178366 0.918933
Si Si4 0.921722 0.000000 0.170676
Si Si5 0.357004 0.835613 0.593353
Si Si6 0.963121 0.327290 0.254669
Si Si7 0.982321 0.146137 0.715569
O O1 0.330776 0.264398 0.583569
O O2 0.258645 0.380754 0.459158
O O3 0.160181 0.384033 0.673153
O O4 0.426249 0.398547 0.618913
O O5 0.806711 0.586490 0.025555
O O6 0.578520 0.500000 0.088466
O O7 0.702340 0.500000 0.888053
O O8 0.575525 0.188723 0.864090
O O9 0.845187 0.170145 0.814673
O O10 0.750000 0.250000 0.000000
O O11 0.922523 0.915274 0.236392
O O12 0.500000 0.853648 0.500000
O O13 0.393804 0.854271 0.712494
O O14 0.944515 0.235102 0.310785
#
# Coordination Sequence:
#
# PCOD9178028 Si02
#       7
#     8   4   8   4   8   8   8
#     4   8  14  24  40  65  89 112 142 180 224 266
#     4   9  18  30  44  64  87 115 151 189 229 267
#     4  10  19  30  46  66  90 119 152 190 226 266
#     4   9  16  28  44  61  86 115 144 186 231 267
#     4   8  13  23  40  63  88 112 142 182 222 262
#     4   9  16  26  42  64  88 115 147 182 221 266
#     4   9  17  28  44  67  90 114 147 184 226 269
#
# _framework density 25.399491000000001
#
# number of rings (size 3 to 8) (size 9 to 14) (size 15 to 20)
#    0.000    3.167    0.000    1.000    0.000    2.000 
#    0.000    0.000    0.000    3.000    0.000   72.333 
#    0.000    0.000    0.000    0.000    0.000    0.000 
#
# Total GULP energy -133803.980207 kJ/mol
# GULP energy per Si atom -5575.165842 kJ/mol
# Density = 2.534168 g / cm^3
# Si number density = 25.399491 Si / 1000 Ang^3
#
#
#
# Elastic Constant Matrix: (Units=GPa)
#
#
# Indices 1 2 3 4 5 6 
#
# 1 108.8387 29.4418 70.8239 0.0000 47.1191 0.0000
# 2 29.4418 73.2444 39.1883 0.0000 20.9416 0.0000
# 3 70.8239 39.1883 188.1744 0.0000 66.7524 0.0000
# 4 0.0000 0.0000 0.0000 -5.6022 0.0000 1.6515
# 5 47.1191 20.9416 66.7524 0.0000 71.8345 0.0000
# 6 0.0000 0.0000 0.0000 1.6515 0.0000 10.1193
#
#
#
# Elastic Compliance Matrix: (Units=1/GPa)
#
#
# Indices 1 2 3 4 5 6 
#
# 1 0.014269 -0.002557 -0.002659 0.000000 -0.006144 0.000000
# 2 -0.002557 0.016070 -0.001965 0.000000 -0.001182 0.000000
# 3 -0.002659 -0.001965 0.008805 0.000000 -0.005865 0.000000
# 4 0.000000 0.000000 0.000000 -0.170307 0.000000 0.027795
# 5 -0.006144 -0.001182 -0.005865 0.000000 0.023745 0.000000
# 6 0.000000 0.000000 0.000000 0.027795 0.000000 0.094285
#
#
# Mechanical properties :
#
#
# Convention : Reuss Voigt Hill
#
# Bulk Modulus (GPa) = 40.35069 72.12950 56.24010
# Shear Modulus (GPa) = 526.90125 30.65720 278.77923
#
# Velocity S-wave (km/s) = 14.41860 3.47796 10.48790
# Velocity P-wave (km/s) = 17.12062 6.67742 12.99430
#
# Compressibility (1/GPa) = 0.02478272
#
# Stress axis : x y z
#
# Youngs Moduli (GPa) = 70.07959 62.22808 113.57633
#
# Poissons Ratio (x) = 0.15910 0.30197
# Poissons Ratio (y) = 0.17917 0.22320
# Poissons Ratio (z) = 0.18632 0.12229
#
# Static dielectric constant tensor:
#      x y z
#    x 2.121680 0.000000 -0.036690 
#    y 0.000000 1.972120 0.000000 
#    z -0.036690 0.000000 2.136510 
# 
# From -- ./inp_files/204528.got.cif
#   From: 2010.05.17/outbox.cif.g08.bks.cpg/sg12_103_cif.got.tgz:204528.got - 2010.06.03 13:09:07.
