data_PCOD9178278
_publ_section_title
;
Structure prediction by ZEFSAII (Michael W. Deem and Ramdas Pophale) SiO2 
 PCOD9178278
Probable space group: C 2/M
;
_chemical_formula_sum "Si O2"
_cell_formula_units_Z 48
_cell_length_a 28.076267
_cell_length_b 8.760923
_cell_length_c 24.347168
_cell_angle_alpha 90.000000
_cell_angle_beta 149.864290
_cell_angle_gamma 90.000000
_cell_volume 3006.661403
_symmetry_space_group_name_H-M "C 2/M"
_symmetry_group_IT_number 12
_symmetry_cell_setting 'monoclinic'
loop_
_space_group_symop_operation_xyz
x,y,z
-x,y,-z
-x,-y,-z
x,-y,z
1/2+x,1/2+y,z
1/2-x,1/2+y,-z
1/2-x,1/2-y,-z
1/2+x,1/2-y,z
loop_
_atom_site_type_symbol
_atom_site_label
_atom_site_fract_x
_atom_site_fract_y
_atom_site_fract_z
Si Si1 0.469387 0.316378 0.887253
Si Si2 0.142911 0.817675 0.455269
Si Si3 0.358261 0.817960 0.879778
Si Si4 0.848572 0.684208 0.327326
Si Si5 0.849956 0.816190 0.663132
Si Si6 0.534843 0.816674 0.447663
O O1 0.475958 0.500000 0.897629
O O2 0.398134 0.256675 0.863367
O O3 0.426277 0.273904 0.785295
O O4 0.570586 0.243099 0.002390
O O5 0.123707 0.770956 0.372859
O O6 0.247342 0.754313 0.573689
O O7 0.068047 0.755611 0.424192
O O8 0.144882 0.000000 0.459479
O O9 0.251065 0.764275 0.781626
O O10 0.364837 0.000000 0.882450
O O11 0.836757 0.500000 0.314353
O O12 0.891902 0.724450 0.430315
O O13 0.930205 0.725492 0.364866
O O14 0.840136 0.000000 0.654595
O O15 0.537239 0.000000 0.445393
#
# Coordination Sequence:
#
# PCOD9178278 Si02
#       6
#     8   8   8   8   8   8
#     4  10  19  33  51  67  90 127 163 189 221 274
#     4  10  19  30  47  72  99 123 150 191 237 274
#     4  11  21  31  46  72 100 120 148 194 241 276
#     4   9  18  33  50  68  93 126 160 188 222 274
#     4   9  19  33  48  68  94 126 160 189 223 274
#     4   9  18  32  50  70  93 124 159 191 223 271
#
# _framework density 15.964551
#
# number of rings (size 3 to 8) (size 9 to 14) (size 15 to 20)
#    0.000    2.333    0.000    5.500    0.000    7.333 
#    0.000    1.667    0.000    1.000    0.000    0.000 
#    0.000    0.000    0.000    0.000    0.000    0.000 
#
# Total GULP energy -133892.924890 kJ/mol
# GULP energy per Si atom -5578.871870 kJ/mol
# Density = 1.592821 g / cm^3
# Si number density = 15.964551 Si / 1000 Ang^3
#
#
#
# Elastic Constant Matrix: (Units=GPa)
#
#
# Indices 1 2 3 4 5 6 
#
# 1 93.6681 30.6321 67.2690 0.0000 6.2414 0.0000
# 2 30.6321 40.9530 41.7239 0.0000 3.2583 0.0000
# 3 67.2690 41.7239 135.9658 0.0000 5.5106 0.0000
# 4 0.0000 0.0000 0.0000 16.6174 0.0000 0.3330
# 5 6.2414 3.2583 5.5106 0.0000 19.7573 0.0000
# 6 0.0000 0.0000 0.0000 0.3330 0.0000 26.0579
#
#
#
# Elastic Compliance Matrix: (Units=1/GPa)
#
#
# Indices 1 2 3 4 5 6 
#
# 1 0.017733 -0.006143 -0.006779 0.000000 -0.002698 0.000000
# 2 -0.006143 0.037812 -0.008486 0.000000 -0.001928 0.000000
# 3 -0.006779 -0.008486 0.013320 0.000000 -0.000174 0.000000
# 4 0.000000 0.000000 0.000000 0.060193 0.000000 -0.000769
# 5 -0.002698 -0.001928 -0.000174 0.000000 0.051833 0.000000
# 6 0.000000 0.000000 0.000000 -0.000769 0.000000 0.038386
#
#
# Mechanical properties :
#
#
# Convention : Reuss Voigt Hill
#
# Bulk Modulus (GPa) = 38.38865 61.09297 49.74081
# Shear Modulus (GPa) = 18.46541 21.21732 19.84136
#
# Velocity S-wave (km/s) = 3.40465 3.64954 3.52922
# Velocity P-wave (km/s) = 6.28919 7.49065 6.91606
#
# Compressibility (1/GPa) = 0.02604937
#
# Stress axis : x y z
#
# Youngs Moduli (GPa) = 56.39177 26.44648 75.07529
#
# Poissons Ratio (x) = 0.16245 0.50894
# Poissons Ratio (y) = 0.34639 0.63711
# Poissons Ratio (z) = 0.38228 0.22443
#
# Static dielectric constant tensor:
#      x y z
#    x 1.524550 0.000000 -0.012030 
#    y 0.000000 1.533400 0.000000 
#    z -0.012030 0.000000 1.522620 
# 
# From -- ./inp_files/351146.got.cif
#   From: 2010.05.17/outbox.cif.g08.bks.cpg/sg12_176_cif.got.tgz:351146.got - 2010.06.03 13:09:07.
