data_PCOD9178136
_publ_section_title
;
Structure prediction by ZEFSAII (Michael W. Deem and Ramdas Pophale) SiO2 
 PCOD9178136
Probable space group: C 2/M
;
_chemical_formula_sum "Si O2"
_cell_formula_units_Z 48
_cell_length_a 23.182407
_cell_length_b 8.455569
_cell_length_c 20.426551
_cell_angle_alpha 90.000000
_cell_angle_beta 44.419421
_cell_angle_gamma 90.000000
_cell_volume 2802.436621
_symmetry_space_group_name_H-M "C 2/M"
_symmetry_group_IT_number 12
_symmetry_cell_setting 'monoclinic'
loop_
_space_group_symop_operation_xyz
x,y,z
-x,y,-z
-x,-y,-z
x,-y,z
1/2+x,1/2+y,z
1/2-x,1/2+y,-z
1/2-x,1/2-y,-z
1/2+x,1/2-y,z
loop_
_atom_site_type_symbol
_atom_site_label
_atom_site_fract_x
_atom_site_fract_y
_atom_site_fract_z
Si Si1 0.347022 0.189873 0.279397
Si Si2 0.302582 0.309243 0.519377
Si Si3 0.592853 0.689241 0.909105
Si Si4 0.190798 0.310445 0.953916
Si Si5 0.368319 0.691254 0.860732
Si Si6 0.951400 0.808577 0.319163
O O1 0.252942 0.240872 0.373880
O O2 0.376813 0.249858 0.185476
O O3 0.405806 0.252426 0.289939
O O4 0.350173 0.000000 0.277667
O O5 0.303353 0.500000 0.519260
O O6 0.250000 0.250000 0.500000
O O7 0.395329 0.256595 0.426560
O O8 0.591381 0.500000 0.908604
O O9 0.652269 0.744516 0.919086
O O10 0.500000 0.746138 0.000000
O O11 0.188916 0.500000 0.953580
O O12 0.285378 0.258617 0.890199
O O13 0.139899 0.252357 0.058432
O O14 0.368257 0.500000 0.862873
O O15 0.454035 0.744863 0.759380
O O16 0.951552 0.000000 0.318304
#
# Coordination Sequence:
#
# PCOD9178136 Si02
#       6
#     8   8   8   8   8   8
#     4  10  19  30  46  71  99 123 152 191 232 271
#     4   8  15  27  44  67  94 122 151 186 226 268
#     4  11  23  36  49  66  91 124 158 189 227 278
#     4  10  20  33  49  70  95 122 154 192 231 269
#     4   9  18  32  50  71  95 123 154 188 226 272
#     4   9  16  29  49  71  96 125 155 185 224 274
#
# _framework density 17.127952000000001
#
# number of rings (size 3 to 8) (size 9 to 14) (size 15 to 20)
#    0.000    2.500    0.000    2.500    0.000    7.333 
#    0.000    0.000    0.000    1.000    0.000    7.000 
#    0.000    0.000    0.000    0.000    0.000    0.000 
#
# Total GULP energy -133732.806332 kJ/mol
# GULP energy per Si atom -5572.200264 kJ/mol
# Density = 1.708897 g / cm^3
# Si number density = 17.127952 Si / 1000 Ang^3
#
#
#
# Elastic Constant Matrix: (Units=GPa)
#
#
# Indices 1 2 3 4 5 6 
#
# 1 58.8090 7.6924 62.5692 0.0000 -5.7125 0.0006
# 2 7.6924 10.1417 20.3219 -0.0002 -4.4058 0.0006
# 3 62.5692 20.3219 182.8600 0.0001 -21.9060 0.0005
# 4 0.0000 -0.0002 0.0001 11.5589 0.0000 -3.1492
# 5 -5.7125 -4.4058 -21.9060 0.0000 28.8305 -0.0003
# 6 0.0006 0.0006 0.0005 -3.1492 -0.0003 20.2607
#
#
#
# Elastic Compliance Matrix: (Units=1/GPa)
#
#
# Indices 1 2 3 4 5 6 
#
# 1 0.026896 -0.003036 -0.009112 0.000000 -0.002058 0.000000
# 2 -0.003036 0.129625 -0.012174 0.000002 0.009957 -0.000003
# 3 -0.009112 -0.012174 0.010452 0.000000 0.004276 0.000000
# 4 0.000000 0.000002 0.000000 0.090339 0.000000 0.014042
# 5 -0.002058 0.009957 0.004276 0.000000 0.039048 0.000000
# 6 0.000000 -0.000003 0.000000 0.014042 0.000000 0.051539
#
#
# Mechanical properties :
#
#
# Convention : Reuss Voigt Hill
#
# Bulk Modulus (GPa) = 8.45100 48.10864 28.27982
# Shear Modulus (GPa) = 11.46823 22.87850 17.17336
#
# Velocity S-wave (km/s) = 2.59040 3.65874 3.16990
# Velocity P-wave (km/s) = 3.72715 6.78213 5.47215
#
# Compressibility (1/GPa) = 0.11832915
#
# Stress axis : x y z
#
# Youngs Moduli (GPa) = 37.17987 7.71453 95.67746
#
# Poissons Ratio (x) = 0.02342 0.87184
# Poissons Ratio (y) = 0.11287 1.16480
# Poissons Ratio (z) = 0.33879 0.09392
#
# Static dielectric constant tensor:
#      x y z
#    x 1.551540 0.000000 -0.046450 
#    y 0.000000 1.584470 0.000000 
#    z -0.046450 0.000000 1.618740 
# 
# From -- ./inp_files/280792.got.cif
#   From: 2010.05.17/outbox.cif.g08.bks.cpg/sg12_141_cif.got.tgz:280792.got - 2010.06.03 13:09:07.
