data_PCOD9178385
_publ_section_title
;
Structure prediction by ZEFSAII (Michael W. Deem and Ramdas Pophale) SiO2 
 PCOD9178385
Probable space group: C 2/M
;
_chemical_formula_sum "Si O2"
_cell_formula_units_Z 56
_cell_length_a 18.202714
_cell_length_b 17.105435
_cell_length_c 13.431402
_cell_angle_alpha 90.000000
_cell_angle_beta 42.085393
_cell_angle_gamma 90.000000
_cell_volume 2802.981936
_symmetry_space_group_name_H-M "C 2/M"
_symmetry_group_IT_number 12
_symmetry_cell_setting 'monoclinic'
loop_
_space_group_symop_operation_xyz
x,y,z
-x,y,-z
-x,-y,-z
x,-y,z
1/2+x,1/2+y,z
1/2-x,1/2+y,-z
1/2-x,1/2-y,-z
1/2+x,1/2-y,z
loop_
_atom_site_type_symbol
_atom_site_label
_atom_site_fract_x
_atom_site_fract_y
_atom_site_fract_z
Si Si1 0.265521 0.589709 0.568720
Si Si2 0.694496 0.094056 0.335552
Si Si3 0.594105 0.410354 0.778656
Si Si4 0.896432 0.905490 0.856184
Si Si5 0.955032 0.817342 0.441608
Si Si6 0.350142 0.094309 0.842482
Si Si7 0.925035 0.662125 0.354583
O O1 0.237456 0.500000 0.620889
O O2 0.339245 0.587587 0.393201
O O3 0.346492 0.630248 0.565260
O O4 0.159469 0.640330 0.647309
O O5 0.816926 0.126015 0.236248
O O6 0.649990 0.118746 0.273686
O O7 0.617140 0.114770 0.505555
O O8 0.703259 0.000000 0.323472
O O9 0.576870 0.500000 0.828463
O O10 0.474880 0.378649 0.869445
O O11 0.950893 0.869499 0.703693
O O12 0.904868 0.000000 0.844961
O O13 0.769966 0.885138 0.996449
O O14 0.923815 0.750653 0.393676
O O15 0.000000 0.784881 0.500000
O O16 0.452099 0.135412 0.791972
O O17 0.362923 0.000000 0.834998
#
# Coordination Sequence:
#
# PCOD9178385 Si02
#       7
#     8   8   8   8   8   8   8
#     4   9  18  34  56  78 101 135 178 221 262 305
#     4   9  16  27  47  74 103 137 174 212 255 308
#     4   7  12  25  44  66  94 125 162 210 253 292
#     4   9  19  34  49  70 100 137 183 224 261 306
#     4  11  22  35  55  80 106 138 177 223 268 307
#     4  10  19  30  48  73 104 143 179 213 256 311
#     4  11  20  33  51  78 111 138 167 207 264 327
#
# _framework density 19.978724
#
# number of rings (size 3 to 8) (size 9 to 14) (size 15 to 20)
#    0.000    2.571    0.000    5.143    0.000    3.429 
#    0.000    2.857    0.000    0.857    0.000    3.000 
#    0.000    0.000    0.000    0.000    0.000    0.000 
#
# Total GULP energy -156117.505511 kJ/mol
# GULP energy per Si atom -5575.625197 kJ/mol
# Density = 1.993325 g / cm^3
# Si number density = 19.978724 Si / 1000 Ang^3
#
#
#
# Elastic Constant Matrix: (Units=GPa)
#
#
# Indices 1 2 3 4 5 6 
#
# 1 71.7000 27.4629 28.1454 0.0000 -30.2963 0.0000
# 2 27.4629 51.5357 7.3911 0.0000 -14.8034 0.0000
# 3 28.1454 7.3911 60.3039 0.0000 -36.8006 0.0000
# 4 0.0000 0.0000 0.0000 16.5483 0.0000 -8.0050
# 5 -30.2963 -14.8034 -36.8006 0.0000 28.1826 0.0000
# 6 0.0000 0.0000 0.0000 -8.0050 0.0000 18.8909
#
#
#
# Elastic Compliance Matrix: (Units=1/GPa)
#
#
# Indices 1 2 3 4 5 6 
#
# 1 0.035102 -0.000463 0.032259 0.000000 0.079615 0.000000
# 2 -0.000463 0.031135 0.029914 0.000000 0.054918 0.000000
# 3 0.032259 0.029914 0.140848 0.000000 0.234310 0.000000
# 4 0.000000 0.000000 0.000000 0.076010 0.000000 0.032209
# 5 0.079615 0.054918 0.234310 0.000000 0.455874 0.000000
# 6 0.000000 0.000000 0.000000 0.032209 0.000000 0.066584
#
#
# Mechanical properties :
#
#
# Convention : Reuss Voigt Hill
#
# Bulk Modulus (GPa) = 3.02567 34.39313 18.70940
# Shear Modulus (GPa) = 6.31071 20.76040 13.53556
#
# Velocity S-wave (km/s) = 1.77921 3.22704 2.60570
# Velocity P-wave (km/s) = 2.39552 5.58008 4.29394
#
# Compressibility (1/GPa) = 0.33050530
#
# Stress axis : x y z
#
# Youngs Moduli (GPa) = 28.48849 32.11768 7.09983
#
# Poissons Ratio (x) = 0.01487 -0.22903
# Poissons Ratio (y) = 0.01319 -0.21238
# Poissons Ratio (z) = -0.91901 -0.96076
#
# Static dielectric constant tensor:
#      x y z
#    x 1.747530 0.000000 -0.022220 
#    y 0.000000 1.729350 0.000000 
#    z -0.022220 0.000000 1.700100 
# 
# From -- ./inp_files/226559.got.cif
#   From: 2010.05.17/outbox.cif.g08.bks.cpg/sg12_114_cif.got.tgz:226559.got - 2010.06.03 13:09:07.
