data_PCOD9178956
_publ_section_title
;
Structure prediction by ZEFSAII (Michael W. Deem and Ramdas Pophale) SiO2 
 PCOD9178956
Probable space group: C 2/M
;
_chemical_formula_sum "Si O2"
_cell_formula_units_Z 64
_cell_length_a 10.104839
_cell_length_b 25.045072
_cell_length_c 14.867232
_cell_angle_alpha 90.000000
_cell_angle_beta 90.212495
_cell_angle_gamma 90.000000
_cell_volume 3762.519978
_symmetry_space_group_name_H-M "C 2/M"
_symmetry_group_IT_number 12
_symmetry_cell_setting 'monoclinic'
loop_
_space_group_symop_operation_xyz
x,y,z
-x,y,-z
-x,-y,-z
x,-y,z
1/2+x,1/2+y,z
1/2-x,1/2+y,-z
1/2-x,1/2-y,-z
1/2+x,1/2-y,z
loop_
_atom_site_type_symbol
_atom_site_label
_atom_site_fract_x
_atom_site_fract_y
_atom_site_fract_z
Si Si1 0.375786 0.256757 0.934912
Si Si2 0.842117 0.935604 0.681843
Si Si3 0.138659 0.064539 0.630263
Si Si4 0.280246 0.359952 0.849254
Si Si5 0.151383 0.435516 0.518406
Si Si6 0.514710 0.145643 0.107899
Si Si7 0.842937 0.942064 0.000999
Si Si8 0.294951 0.061334 0.809720
O O1 0.358527 0.305241 0.865877
O O2 0.401446 0.199919 0.888805
O O3 0.500000 0.267712 0.000000
O O4 0.250000 0.250000 0.000000
O O5 0.826691 0.898326 0.769052
O O6 0.717135 0.925681 0.615898
O O7 0.982676 0.921756 0.633759
O O8 0.846155 0.000000 0.702595
O O9 0.237344 0.084125 0.552361
O O10 0.209670 0.078918 0.724114
O O11 0.138101 0.000000 0.623426
O O12 0.293016 0.394654 0.940009
O O13 0.126458 0.344955 0.846981
O O14 0.145875 0.500000 0.508833
O O15 0.000000 0.416494 0.500000
O O16 0.584497 0.098497 0.162105
O O17 0.500000 0.133314 0.000000
O O18 0.795089 0.000000 0.966198
O O19 0.797519 0.937552 0.102979
O O20 0.000000 0.941587 0.000000
O O21 0.337837 0.000000 0.793917
#
# Coordination Sequence:
#
# PCOD9178956 Si02
#       8
#     8   8   8   8   8   8   8   8
#     4  11  21  39  58  75 103 145 192 241 278 317
#     4  10  21  35  55  85 117 148 185 227 274 336
#     4   9  18  34  53  79 114 151 188 225 265 322
#     4  12  22  35  55  78 108 145 185 235 277 328
#     4   9  18  33  54  80 114 153 184 220 274 329
#     4  11  22  38  51  76 109 143 191 234 277 326
#     4  10  19  31  47  73 109 148 183 217 263 326
#     4  10  20  32  51  77 111 147 182 220 273 331
#
# _framework density 17.009875999999998
#
# number of rings (size 3 to 8) (size 9 to 14) (size 15 to 20)
#    0.000    1.750    3.750    1.875    1.750    5.750 
#    0.000    0.000    0.000    0.000    0.000    0.875 
#    0.000    0.000    0.000    0.000    0.000    0.000 
#
# Total GULP energy -178369.123371 kJ/mol
# GULP energy per Si atom -5574.035105 kJ/mol
# Density = 1.697116 g / cm^3
# Si number density = 17.009876 Si / 1000 Ang^3
#
#
#
# Elastic Constant Matrix: (Units=GPa)
#
#
# Indices 1 2 3 4 5 6 
#
# 1 90.8796 28.7591 28.0384 0.0000 0.2058 0.0000
# 2 28.7591 61.1788 26.4406 0.0000 8.4109 0.0000
# 3 28.0384 26.4406 58.9551 0.0000 0.6643 0.0000
# 4 0.0000 0.0000 0.0000 0.2624 0.0000 11.3058
# 5 0.2058 8.4109 0.6643 0.0000 24.7949 0.0000
# 6 0.0000 0.0000 0.0000 11.3058 0.0000 21.9092
#
#
#
# Elastic Compliance Matrix: (Units=1/GPa)
#
#
# Indices 1 2 3 4 5 6 
#
# 1 0.013907 -0.004834 -0.004465 0.000000 0.001644 0.000000
# 2 -0.004834 0.023109 -0.007980 0.000000 -0.007585 0.000000
# 3 -0.004465 -0.007980 0.022640 0.000000 0.002137 0.000000
# 4 0.000000 0.000000 0.000000 -0.179476 0.000000 0.092615
# 5 0.001644 -0.007585 0.002137 0.000000 0.042833 0.000000
# 6 0.000000 0.000000 0.000000 0.092615 0.000000 -0.002149
#
#
# Mechanical properties :
#
#
# Convention : Reuss Voigt Hill
#
# Bulk Modulus (GPa) = 39.84085 41.94331 40.89208
# Shear Modulus (GPa) = -138.07372 17.91166 -60.08103
#
# Velocity S-wave (km/s) = -9.01936 3.24854 -5.94962
# Velocity P-wave (km/s) = 9.21912 6.22755 4.80675
#
# Compressibility (1/GPa) = 0.02509987
#
# Stress axis : x y z
#
# Youngs Moduli (GPa) = 71.90634 43.27228 44.16924
#
# Poissons Ratio (x) = 0.20917 0.19720
# Poissons Ratio (y) = 0.34759 0.35247
# Poissons Ratio (z) = 0.32103 0.34531
#
# Static dielectric constant tensor:
#      x y z
#    x 1.747950 0.000000 -0.021560 
#    y 0.000000 1.572980 0.000000 
#    z -0.021560 0.000000 1.580320 
# 
# From -- ./inp_files/199833.got.cif
#   From: 2010.05.17/outbox.cif.g08.bks.cpg/sg12_100_cif.got.tgz:199833.got - 2010.06.03 13:09:07.
