data_PCOD9178550
_publ_section_title
;
Structure prediction by ZEFSAII (Michael W. Deem and Ramdas Pophale) SiO2 
 PCOD9178550
Probable space group: C 2/M
;
_chemical_formula_sum "Si O2"
_cell_formula_units_Z 48
_cell_length_a 21.147726
_cell_length_b 14.232186
_cell_length_c 7.570865
_cell_angle_alpha 90.000000
_cell_angle_beta 73.629065
_cell_angle_gamma 90.000000
_cell_volume 2186.282802
_symmetry_space_group_name_H-M "C 2/M"
_symmetry_group_IT_number 12
_symmetry_cell_setting 'monoclinic'
loop_
_space_group_symop_operation_xyz
x,y,z
-x,y,-z
-x,-y,-z
x,-y,z
1/2+x,1/2+y,z
1/2-x,1/2+y,-z
1/2-x,1/2-y,-z
1/2+x,1/2-y,z
loop_
_atom_site_type_symbol
_atom_site_label
_atom_site_fract_x
_atom_site_fract_y
_atom_site_fract_z
Si Si1 0.632725 0.392537 0.843312
Si Si2 0.909493 0.500000 0.691269
Si Si3 0.749475 0.604951 0.487546
Si Si4 0.957138 0.500000 0.259288
Si Si5 0.379595 0.189649 0.228862
Si Si6 0.189746 0.864512 0.169050
Si Si7 0.679767 0.154175 0.103224
O O1 0.610913 0.500000 0.817275
O O2 0.706264 0.382118 0.698040
O O3 0.597693 0.299791 0.784940
O O4 0.636720 0.386161 0.056126
O O5 0.940674 0.500000 0.477754
O O6 0.864160 0.590189 0.742495
O O7 0.963320 0.500000 0.806707
O O8 0.778806 0.500000 0.468799
O O9 0.811420 0.672297 0.394190
O O10 0.696545 0.604365 0.366078
O O11 0.927802 0.600835 0.221725
O O12 0.359279 0.179208 0.042342
O O13 0.195785 0.752434 0.178792
O O14 0.256520 0.897160 0.021892
#
# Coordination Sequence:
#
# PCOD9178550 Si02
#       7
#     8   4   8   4   8   8   8
#     4  10  21  32  51  82 111 152 190 225 286 343
#     4  11  25  37  57  85 111 149 199 236 299 329
#     4  10  19  30  49  79 110 153 190 224 282 347
#     4  11  25  39  55  85 113 153 197 246 277 344
#     4  10  20  36  53  74 111 146 191 238 279 336
#     4   9  19  33  50  80 114 148 180 226 279 347
#     4   9  20  34  52  76 108 147 186 222 282 341
#
# _framework density 21.955072999999999
#
# number of rings (size 3 to 8) (size 9 to 14) (size 15 to 20)
#    0.000    2.167    0.833    2.500    9.333    1.333 
#    0.000    0.000    0.000    0.000    0.000   12.833 
#    0.000    0.000    0.000    0.000    0.000    0.000 
#
# Total GULP energy -133688.824785 kJ/mol
# GULP energy per Si atom -5570.367699 kJ/mol
# Density = 2.190510 g / cm^3
# Si number density = 21.955073 Si / 1000 Ang^3
#
#
#
# Elastic Constant Matrix: (Units=GPa)
#
#
# Indices 1 2 3 4 5 6 
#
# 1 38.9226 37.9508 3.6267 0.0000 12.8392 0.0000
# 2 37.9508 181.4494 3.8055 0.0000 5.8514 0.0000
# 3 3.6267 3.8055 82.4715 0.0000 20.1671 0.0000
# 4 0.0000 0.0000 0.0000 20.1767 0.0000 14.0285
# 5 12.8392 5.8514 20.1671 0.0000 22.4559 0.0000
# 6 0.0000 0.0000 0.0000 14.0285 0.0000 17.3036
#
#
#
# Elastic Compliance Matrix: (Units=1/GPa)
#
#
# Indices 1 2 3 4 5 6 
#
# 1 0.041628 -0.007967 0.004933 0.000000 -0.026155 0.000000
# 2 -0.007967 0.007084 -0.000819 0.000000 0.003444 0.000000
# 3 0.004933 -0.000819 0.016125 0.000000 -0.017088 0.000000
# 4 0.000000 0.000000 0.000000 0.113593 0.000000 -0.092094
# 5 -0.026155 0.003444 -0.017088 0.000000 0.073935 0.000000
# 6 0.000000 0.000000 0.000000 -0.092094 0.000000 0.132455
#
#
# Mechanical properties :
#
#
# Convention : Reuss Voigt Hill
#
# Bulk Modulus (GPa) = 17.50373 43.73439 30.61906
# Shear Modulus (GPa) = 12.14868 29.15128 20.64998
#
# Velocity S-wave (km/s) = 2.35488 3.64781 3.07018
# Velocity P-wave (km/s) = 3.92221 6.14046 5.15213
#
# Compressibility (1/GPa) = 0.05713068
#
# Stress axis : x y z
#
# Youngs Moduli (GPa) = 24.02257 141.17299 62.01565
#
# Poissons Ratio (x) = 1.12466 -0.30591
# Poissons Ratio (y) = 0.19138 0.05078
# Poissons Ratio (z) = -0.11850 0.11559
#
# Static dielectric constant tensor:
#      x y z
#    x 1.847060 0.000000 0.030920 
#    y 0.000000 2.131880 0.000000 
#    z 0.030920 0.000000 1.810380 
# 
# From -- ./inp_files/85735.got.cif
#   From: 2010.05.17/outbox.cif.g08.bks.cpg/sg12_43_cif.got.tgz:85735.got - 2010.06.03 13:09:07.
