data_PCOD9178477
_publ_section_title
;
Structure prediction by ZEFSAII (Michael W. Deem and Ramdas Pophale) SiO2 
 PCOD9178477
Probable space group: C 2/M
;
_chemical_formula_sum "Si O2"
_cell_formula_units_Z 48
_cell_length_a 7.977769
_cell_length_b 18.349351
_cell_length_c 18.968066
_cell_angle_alpha 90.000000
_cell_angle_beta 58.686179
_cell_angle_gamma 90.000000
_cell_volume 2372.207345
_symmetry_space_group_name_H-M "C 2/M"
_symmetry_group_IT_number 12
_symmetry_cell_setting 'monoclinic'
loop_
_space_group_symop_operation_xyz
x,y,z
-x,y,-z
-x,-y,-z
x,-y,z
1/2+x,1/2+y,z
1/2-x,1/2+y,-z
1/2-x,1/2-y,-z
1/2+x,1/2-y,z
loop_
_atom_site_type_symbol
_atom_site_label
_atom_site_fract_x
_atom_site_fract_y
_atom_site_fract_z
Si Si1 0.374920 0.411428 0.423592
Si Si2 0.279642 0.419793 0.019626
Si Si3 0.786151 0.588680 0.387485
Si Si4 0.985280 0.294439 0.088724
Si Si5 0.221026 0.411787 0.306449
Si Si6 0.095149 0.147911 0.144261
O O1 0.375507 0.500000 0.422419
O O2 0.271211 0.390911 0.519597
O O3 0.603329 0.387755 0.378816
O O4 0.261034 0.388184 0.378559
O O5 0.202199 0.500000 0.054317
O O6 0.302790 0.409706 0.930598
O O7 0.500000 0.413866 0.000000
O O8 0.143626 0.354975 0.076266
O O9 0.787691 0.500000 0.384529
O O10 0.008219 0.613412 0.325224
O O11 0.032871 0.217132 0.111083
O O12 0.769516 0.322748 0.155205
O O13 0.000000 0.288425 0.000000
O O14 0.220511 0.500000 0.305119
O O15 0.405131 0.384297 0.221982
#
# Coordination Sequence:
#
# PCOD9178477 Si02
#       6
#     8   8   8   8   8   8
#     4   8  14  27  47  74 108 146 184 216 267 328
#     4  10  20  36  59  84 106 135 177 223 271 320
#     4   8  14  27  48  73 108 148 180 220 266 325
#     4  10  21  38  59  75 101 143 187 223 258 324
#     4  10  19  30  48  81 117 142 175 228 280 321
#     4  11  21  36  54  77 108 144 181 222 271 326
#
# _framework density 20.234318999999999
#
# number of rings (size 3 to 8) (size 9 to 14) (size 15 to 20)
#    0.000    2.500    0.000    5.500    0.000    5.667 
#    6.000    0.000    0.000    0.000    0.000    4.667 
#    0.000    0.000    0.000    0.000    0.000    1.333 
#
# Total GULP energy -133897.578151 kJ/mol
# GULP energy per Si atom -5579.065756 kJ/mol
# Density = 2.018827 g / cm^3
# Si number density = 20.234319 Si / 1000 Ang^3
#
#
#
# Elastic Constant Matrix: (Units=GPa)
#
#
# Indices 1 2 3 4 5 6 
#
# 1 74.9570 18.0140 6.5276 0.0000 -29.5503 0.0000
# 2 18.0140 46.3389 -0.9309 0.0000 0.1195 0.0000
# 3 6.5276 -0.9309 32.5129 0.0000 -26.6560 0.0000
# 4 0.0000 0.0000 0.0000 8.7193 0.0000 -6.6554
# 5 -29.5503 0.1195 -26.6560 0.0000 32.8655 0.0000
# 6 0.0000 0.0000 0.0000 -6.6554 0.0000 9.0106
#
#
#
# Elastic Compliance Matrix: (Units=1/GPa)
#
#
# Indices 1 2 3 4 5 6 
#
# 1 0.069550 -0.025229 0.109415 0.000000 0.151368 0.000000
# 2 -0.025229 0.030762 -0.038036 0.000000 -0.053646 0.000000
# 3 0.109415 -0.038036 0.264056 0.000000 0.312683 0.000000
# 4 0.000000 0.000000 0.000000 0.262918 0.000000 0.194196
# 5 0.151368 -0.053646 0.312683 0.000000 0.420327 0.000000
# 6 0.000000 0.000000 0.000000 0.194196 0.000000 0.254417
#
#
# Mechanical properties :
#
#
# Convention : Reuss Voigt Hill
#
# Bulk Modulus (GPa) = 2.18978 22.33668 12.26323
# Shear Modulus (GPa) = 3.67120 18.79896 11.23508
#
# Velocity S-wave (km/s) = 1.34844 3.05136 2.35893
# Velocity P-wave (km/s) = 1.87321 4.84535 3.67330
#
# Compressibility (1/GPa) = 0.45666742
#
# Stress axis : x y z
#
# Youngs Moduli (GPa) = 14.37819 32.50754 3.78707
#
# Poissons Ratio (x) = 0.82014 -0.41436
# Poissons Ratio (y) = 0.36275 0.14404
# Poissons Ratio (z) = -1.57319 1.23645
#
# Static dielectric constant tensor:
#      x y z
#    x 1.782220 0.000000 -0.003280 
#    y 0.000000 1.691030 0.000000 
#    z -0.003280 0.000000 1.722260 
# 
# From -- ./inp_files/300631.got.cif
#   From: 2010.05.17/outbox.cif.g08.bks.cpg/sg12_151_cif.got.tgz:300631.got - 2010.06.03 13:09:07.
