data_PCOD9178088
_publ_section_title
;
Structure prediction by ZEFSAII (Michael W. Deem and Ramdas Pophale) SiO2 
 PCOD9178088
Probable space group: C 2/M
;
_chemical_formula_sum "Si O2"
_cell_formula_units_Z 48
_cell_length_a 20.456402
_cell_length_b 9.348201
_cell_length_c 31.054920
_cell_angle_alpha 90.000000
_cell_angle_beta 150.712217
_cell_angle_gamma 90.000000
_cell_volume 2905.166585
_symmetry_space_group_name_H-M "C 2/M"
_symmetry_group_IT_number 12
_symmetry_cell_setting 'monoclinic'
loop_
_space_group_symop_operation_xyz
x,y,z
-x,y,-z
-x,-y,-z
x,-y,z
1/2+x,1/2+y,z
1/2-x,1/2+y,-z
1/2-x,1/2-y,-z
1/2+x,1/2-y,z
loop_
_atom_site_type_symbol
_atom_site_label
_atom_site_fract_x
_atom_site_fract_y
_atom_site_fract_z
Si Si1 0.231726 0.830621 0.534240
Si Si2 0.004451 0.668016 0.554145
Si Si3 0.441002 0.830470 0.729327
Si Si4 0.429595 0.336126 0.070353
Si Si5 0.309129 0.335614 0.098722
Si Si6 0.810507 0.828779 0.734978
O O1 0.250000 0.750000 0.500000
O O2 0.103993 0.765676 0.485308
O O3 0.359600 0.808489 0.638713
O O4 0.215822 0.000000 0.518576
O O5 0.975131 0.500000 0.545652
O O6 0.000000 0.688201 0.500000
O O7 0.155999 0.698529 0.655923
O O8 0.585699 0.756297 0.813590
O O9 0.356032 0.757762 0.718988
O O10 0.453958 0.000000 0.744838
O O11 0.421397 0.500000 0.050419
O O12 0.368659 0.333560 0.084005
O O13 0.583785 0.294705 0.166542
O O14 0.336561 0.234796 0.988611
O O15 0.304593 0.500000 0.109996
O O16 0.824394 0.000000 0.734056
#
# Coordination Sequence:
#
# PCOD9178088 Si02
#       6
#     8   8   8   8   8   8
#     4  11  24  38  53  74 102 136 174 215 256 302
#     4  10  19  33  55  78 103 135 170 209 254 304
#     4  10  19  30  46  69  96 128 166 208 251 295
#     4   8  14  24  38  61  95 127 159 197 238 289
#     4   9  16  25  40  62  91 127 163 198 245 298
#     4   9  17  29  47  72  99 132 166 199 246 299
#
# _framework density 16.522288
#
# number of rings (size 3 to 8) (size 9 to 14) (size 15 to 20)
#    0.000    2.500    1.667    2.500    0.000    7.000 
#    0.000    0.000    0.000    0.000    0.000    1.167 
#    0.000    9.333    0.000    0.000    0.000    0.000 
#
# Total GULP energy -133775.387855 kJ/mol
# GULP energy per Si atom -5573.974494 kJ/mol
# Density = 1.648468 g / cm^3
# Si number density = 16.522288 Si / 1000 Ang^3
#
#
#
# Elastic Constant Matrix: (Units=GPa)
#
#
# Indices 1 2 3 4 5 6 
#
# 1 40.8109 46.9604 45.3644 0.0000 -0.9008 0.0000
# 2 46.9604 112.4398 97.4672 0.0000 -0.6018 0.0000
# 3 45.3644 97.4672 156.1547 0.0001 19.1954 0.0000
# 4 0.0000 0.0000 0.0001 30.7121 0.0000 3.6546
# 5 -0.9008 -0.6018 19.1954 0.0000 13.4736 0.0000
# 6 0.0000 0.0000 0.0000 3.6546 0.0000 18.1191
#
#
#
# Elastic Compliance Matrix: (Units=1/GPa)
#
#
# Indices 1 2 3 4 5 6 
#
# 1 0.048943 -0.014820 -0.006412 0.000000 0.011745 0.000000
# 2 -0.014820 0.031256 -0.018492 0.000000 0.026750 0.000000
# 3 -0.006412 -0.018492 0.024201 0.000000 -0.035733 0.000000
# 4 0.000000 0.000000 0.000000 0.033361 0.000000 -0.006729
# 5 0.011745 0.026750 -0.035733 0.000000 0.127107 0.000000
# 6 0.000000 0.000000 0.000000 -0.006729 0.000000 0.056548
#
#
# Mechanical properties :
#
#
# Convention : Reuss Voigt Hill
#
# Bulk Modulus (GPa) = 40.07622 76.55435 58.31528
# Shear Modulus (GPa) = 12.21952 20.43519 16.32736
#
# Velocity S-wave (km/s) = 2.72247 3.52067 3.14698
# Velocity P-wave (km/s) = 5.84730 7.93482 6.96966
#
# Compressibility (1/GPa) = 0.02495246
#
# Stress axis : x y z
#
# Youngs Moduli (GPa) = 20.43189 31.99400 41.32009
#
# Poissons Ratio (x) = 0.47415 0.26495
# Poissons Ratio (y) = 0.30280 0.76409
# Poissons Ratio (z) = 0.13101 0.59163
#
# Static dielectric constant tensor:
#      x y z
#    x 1.517980 0.000000 0.012990 
#    y 0.000000 1.552700 0.000000 
#    z 0.012990 0.000000 1.582620 
# 
# From -- ./inp_files/319583.got.cif
#   From: 2010.05.17/outbox.cif.g08.bks.cpg/sg12_160_cif.got.tgz:319583.got - 2010.06.03 13:09:07.
