data_PCOD9178025
_publ_section_title
;
Structure prediction by ZEFSAII (Michael W. Deem and Ramdas Pophale) SiO2 
 PCOD9178025
Probable space group: C 2/M
;
_chemical_formula_sum "Si O2"
_cell_formula_units_Z 56
_cell_length_a 15.873538
_cell_length_b 7.449732
_cell_length_c 17.096750
_cell_angle_alpha 90.000000
_cell_angle_beta 85.323473
_cell_angle_gamma 90.000000
_cell_volume 2015.021632
_symmetry_space_group_name_H-M "C 2/M"
_symmetry_group_IT_number 12
_symmetry_cell_setting 'monoclinic'
loop_
_space_group_symop_operation_xyz
x,y,z
-x,y,-z
-x,-y,-z
x,-y,z
1/2+x,1/2+y,z
1/2-x,1/2+y,-z
1/2-x,1/2-y,-z
1/2+x,1/2-y,z
loop_
_atom_site_type_symbol
_atom_site_label
_atom_site_fract_x
_atom_site_fract_y
_atom_site_fract_z
Si Si1 0.074083 0.213781 0.551375
Si Si2 0.714158 0.283511 0.119130
Si Si3 0.197787 0.211467 0.734326
Si Si4 0.889287 0.210880 0.014150
Si Si5 0.201184 0.295600 0.412360
Si Si6 0.046398 0.217546 0.309424
Si Si7 0.968570 0.779609 0.162063
O O1 0.161758 0.244377 0.499252
O O2 0.041193 0.269160 0.639124
O O3 0.000000 0.285013 0.500000
O O4 0.066805 0.000000 0.553328
O O5 0.710202 0.500000 0.119709
O O6 0.727098 0.226038 0.207435
O O7 0.800453 0.224483 0.068720
O O8 0.637993 0.217380 0.068979
O O9 0.227407 0.291251 0.649076
O O10 0.116992 0.281371 0.787017
O O11 0.180643 0.000000 0.722827
O O12 0.957102 0.280010 0.073095
O O13 0.906952 0.000000 0.001378
O O14 0.225940 0.500000 0.419952
O O15 0.121013 0.284995 0.358883
O O16 0.039202 0.272886 0.219789
O O17 0.053634 0.000000 0.309277
O O18 0.969529 0.000000 0.158922
#
# Coordination Sequence:
#
# PCOD9178025 Si02
#       7
#     8   8   8   8   8   8   8
#     4   8  15  28  45  65  86 110 144 180 212 251
#     4   9  15  23  40  65  88 112 145 182 215 248
#     4   9  18  31  45  63  89 119 147 176 215 261
#     4   8  14  25  41  62  88 116 145 176 212 256
#     4  10  19  30  46  66  88 115 145 178 217 260
#     4   9  17  30  49  68  85 111 146 181 215 253
#     4   8  14  28  48  65  85 115 147 176 210 256
#
# _framework density 27.791264999999999
#
# number of rings (size 3 to 8) (size 9 to 14) (size 15 to 20)
#    0.000    3.286    0.000    2.571    0.000    4.286 
#    0.000    3.571    0.000    0.857    0.000    6.000 
#    0.000    0.000    0.000    0.000    0.000    0.000 
#
# Total GULP energy -156412.363999 kJ/mol
# GULP energy per Si atom -5586.155857 kJ/mol
# Density = 2.772801 g / cm^3
# Si number density = 27.791265 Si / 1000 Ang^3
#
#
#
# Elastic Constant Matrix: (Units=GPa)
#
#
# Indices 1 2 3 4 5 6 
#
# 1 97.0812 -5.5749 20.9051 0.0000 7.4812 0.0000
# 2 -5.5749 87.7693 6.7441 0.0000 -2.0500 0.0000
# 3 20.9051 6.7441 256.8792 0.0000 2.6896 0.0000
# 4 0.0000 0.0000 0.0000 5.9143 0.0000 6.4061
# 5 7.4812 -2.0500 2.6896 0.0000 60.2956 0.0000
# 6 0.0000 0.0000 0.0000 6.4061 0.0000 2.7640
#
#
#
# Elastic Compliance Matrix: (Units=1/GPa)
#
#
# Indices 1 2 3 4 5 6 
#
# 1 0.010626 0.000712 -0.000870 0.000000 -0.001255 0.000000
# 2 0.000712 0.011474 -0.000363 0.000000 0.000318 0.000000
# 3 -0.000870 -0.000363 0.003974 0.000000 -0.000082 0.000000
# 4 0.000000 0.000000 0.000000 -0.111943 0.000000 0.259449
# 5 -0.001255 0.000318 -0.000082 0.000000 0.016755 0.000000
# 6 0.000000 0.000000 0.000000 0.259449 0.000000 -0.239528
#
#
# Mechanical properties :
#
#
# Convention : Reuss Voigt Hill
#
# Bulk Modulus (GPa) = 39.94712 53.98646 46.96679
# Shear Modulus (GPa) = -16.70805 41.77180 12.53187
#
# Velocity S-wave (km/s) = -2.45459 3.88113 2.12581
# Velocity P-wave (km/s) = 2.52425 6.28905 4.79186
#
# Compressibility (1/GPa) = 0.02503309
#
# Stress axis : x y z
#
# Youngs Moduli (GPa) = 94.11134 87.15325 251.63062
#
# Poissons Ratio (x) = -0.06209 0.21899
# Poissons Ratio (y) = -0.06705 0.09123
# Poissons Ratio (z) = 0.08190 0.03160
#
# Static dielectric constant tensor:
#      x y z
#    x 2.301300 0.000000 -0.029890 
#    y 0.000000 2.145570 0.000000 
#    z -0.029890 0.000000 2.193600 
# 
# From -- ./inp_files/287023.got.cif
#   From: 2010.05.17/outbox.cif.g08.bks.cpg/sg12_144_cif.got.tgz:287023.got - 2010.06.03 13:09:07.
