data_PCOD9178063
_publ_section_title
;
Structure prediction by ZEFSAII (Michael W. Deem and Ramdas Pophale) SiO2 
 PCOD9178063
Probable space group: C 2/M
;
_chemical_formula_sum "Si O2"
_cell_formula_units_Z 64
_cell_length_a 21.356579
_cell_length_b 9.211986
_cell_length_c 19.157018
_cell_angle_alpha 90.000000
_cell_angle_beta 96.043348
_cell_angle_gamma 90.000000
_cell_volume 3747.939330
_symmetry_space_group_name_H-M "C 2/M"
_symmetry_group_IT_number 12
_symmetry_cell_setting 'monoclinic'
loop_
_space_group_symop_operation_xyz
x,y,z
-x,y,-z
-x,-y,-z
x,-y,z
1/2+x,1/2+y,z
1/2-x,1/2+y,-z
1/2-x,1/2-y,-z
1/2+x,1/2-y,z
loop_
_atom_site_type_symbol
_atom_site_label
_atom_site_fract_x
_atom_site_fract_y
_atom_site_fract_z
Si Si1 0.797690 0.168742 0.603293
Si Si2 0.843212 0.668716 0.474381
Si Si3 0.926836 0.667907 0.017290
Si Si4 0.349205 0.830478 0.739461
Si Si5 0.033923 0.167561 0.844581
Si Si6 0.459175 0.670243 0.424860
Si Si7 0.612240 0.667678 0.121030
Si Si8 0.505770 0.830652 0.294559
O O1 0.837153 0.251409 0.548157
O O2 0.725409 0.174652 0.569511
O O3 0.807407 0.247303 0.677903
O O4 0.817025 0.000000 0.609657
O O5 0.860318 0.500000 0.486517
O O6 0.893713 0.750260 0.433145
O O7 0.908224 0.500000 0.022422
O O8 0.927014 0.752395 0.090455
O O9 0.888037 0.749807 0.952721
O O10 0.000000 0.668424 0.000000
O O11 0.350194 0.752374 0.814505
O O12 0.420902 0.822183 0.718648
O O13 0.332587 0.000000 0.743287
O O14 0.033111 0.254811 0.772260
O O15 0.961032 0.167538 0.862400
O O16 0.052712 0.000000 0.837952
O O17 0.500000 0.683764 0.500000
O O18 0.449972 0.500000 0.409196
O O19 0.493459 0.746995 0.364583
O O20 0.631704 0.500000 0.117120
O O21 0.489160 0.000000 0.299110
#
# Coordination Sequence:
#
# PCOD9178063 Si02
#       8
#     8   8   8   8   8   8   8   8
#     4  10  20  34  52  72  94 120 152 191 233 277
#     4  10  21  36  53  72  93 120 154 191 232 277
#     4   9  15  23  36  55  82 116 153 190 228 272
#     4  10  19  30  46  68  94 125 158 192 233 278
#     4   9  16  26  40  58  83 117 155 191 229 273
#     4  11  23  36  51  71  95 123 155 192 233 276
#     4   9  16  25  38  58  86 119 154 191 229 272
#     4  10  20  32  46  66  93 124 158 194 232 277
#
# _framework density 17.076049000000001
#
# number of rings (size 3 to 8) (size 9 to 14) (size 15 to 20)
#    0.000    2.250    0.000    3.750    0.000   10.500 
#    0.000    0.000    0.000    0.000    0.000    0.000 
#    0.000    1.000    0.000    3.750    0.000    6.125 
#
# Total GULP energy -178562.011145 kJ/mol
# GULP energy per Si atom -5580.062848 kJ/mol
# Density = 1.703718 g / cm^3
# Si number density = 17.076049 Si / 1000 Ang^3
#
#
#
# Elastic Constant Matrix: (Units=GPa)
#
#
# Indices 1 2 3 4 5 6 
#
# 1 9.1836 19.0922 4.6657 0.0000 0.3954 0.0000
# 2 19.0922 177.5749 77.0387 0.0000 14.8884 0.0000
# 3 4.6657 77.0387 109.3660 0.0000 24.7411 0.0000
# 4 0.0000 0.0000 0.0000 35.7820 0.0000 2.6865
# 5 0.3954 14.8884 24.7411 0.0000 19.1203 0.0000
# 6 0.0000 0.0000 0.0000 2.6865 0.0000 14.4110
#
#
#
# Elastic Compliance Matrix: (Units=1/GPa)
#
#
# Indices 1 2 3 4 5 6 
#
# 1 0.143879 -0.018369 0.005993 0.000000 0.003573 0.000000
# 2 -0.018369 0.010486 -0.006846 0.000000 0.001073 0.000000
# 3 0.005993 -0.006846 0.017719 0.000000 -0.017722 0.000000
# 4 0.000000 0.000000 0.000000 0.028344 0.000000 -0.005284
# 5 0.003573 0.001073 -0.017722 0.000000 0.074323 0.000000
# 6 0.000000 0.000000 0.000000 -0.005284 0.000000 0.070376
#
#
# Mechanical properties :
#
#
# Convention : Reuss Voigt Hill
#
# Bulk Modulus (GPa) = 7.48273 55.30196 31.39234
# Shear Modulus (GPa) = 11.67903 26.88451 19.28177
#
# Velocity S-wave (km/s) = 2.61807 3.97217 3.36396
# Velocity P-wave (km/s) = 3.67839 7.31393 5.78896
#
# Compressibility (1/GPa) = 0.13364112
#
# Stress axis : x y z
#
# Youngs Moduli (GPa) = 6.95029 95.36160 56.43581
#
# Poissons Ratio (x) = 1.75168 -0.33821
# Poissons Ratio (y) = 0.12767 0.38635
# Poissons Ratio (z) = -0.04165 0.65283
#
# Static dielectric constant tensor:
#      x y z
#    x 1.563720 0.000000 0.008640 
#    y 0.000000 1.573840 0.000000 
#    z 0.008640 0.000000 1.562900 
# 
# From -- ./inp_files/281256.got.cif
#   From: 2010.05.17/outbox.cif.g08.bks.cpg/sg12_141_cif.got.tgz:281256.got - 2010.06.03 13:09:07.
