data_PCOD9178880
_publ_section_title
;
Structure prediction by ZEFSAII (Michael W. Deem and Ramdas Pophale) SiO2 
 PCOD9178880
Probable space group: C 2/M
;
_chemical_formula_sum "Si O2"
_cell_formula_units_Z 44
_cell_length_a 27.537759
_cell_length_b 12.578303
_cell_length_c 16.507258
_cell_angle_alpha 90.000000
_cell_angle_beta 21.026407
_cell_angle_gamma 90.000000
_cell_volume 2051.520344
_symmetry_space_group_name_H-M "C 2/M"
_symmetry_group_IT_number 12
_symmetry_cell_setting 'monoclinic'
loop_
_space_group_symop_operation_xyz
x,y,z
-x,y,-z
-x,-y,-z
x,-y,z
1/2+x,1/2+y,z
1/2-x,1/2+y,-z
1/2-x,1/2-y,-z
1/2+x,1/2-y,z
loop_
_atom_site_type_symbol
_atom_site_label
_atom_site_fract_x
_atom_site_fract_y
_atom_site_fract_z
Si Si1 0.223434 0.883445 0.371948
Si Si2 0.687037 0.821671 0.313225
Si Si3 0.574465 0.826678 0.199788
Si Si4 0.630543 0.675318 0.255478
Si Si5 0.000000 0.708401 0.000000
Si Si6 0.016739 0.184181 0.143596
O O1 0.202501 0.787225 0.341895
O O2 0.366914 0.861091 0.190928
O O3 0.103674 0.875798 0.624172
O O4 0.221827 0.000000 0.335855
O O5 0.557293 0.878232 0.554357
O O6 0.653293 0.781012 0.275910
O O7 0.835830 0.871424 0.085039
O O8 0.594818 0.718599 0.222263
O O9 0.540520 0.790172 0.161870
O O10 0.722601 0.878608 0.972611
O O11 0.500000 0.622164 0.500000
O O12 0.019869 0.781127 0.889746
#
# Coordination Sequence:
#
# PCOD9178880 Si02
#       6
#     8   8   8   8   4   8
#     4  10  19  31  47  68  93 117 147 188 231 269
#     4   8  15  26  42  64  90 119 150 181 218 266
#     4   8  13  22  39  63  89 115 146 185 221 255
#     4   8  12  20  37  63  93 115 143 184 221 254
#     4  10  19  32  49  66  86 118 156 190 225 268
#     4   9  17  29  45  64  87 118 153 186 222 266
#
# _framework density 21.447509
#
# number of rings (size 3 to 8) (size 9 to 14) (size 15 to 20)
#    0.000    3.273    0.000    0.818    0.000    0.000 
#    0.000    0.455    0.000   13.636    0.000   14.000 
#    0.000  281.455    0.000    0.000    0.000    0.000 
#
# Total GULP energy -122555.489304 kJ/mol
# GULP energy per Si atom -5570.704059 kJ/mol
# Density = 2.139869 g / cm^3
# Si number density = 21.447509 Si / 1000 Ang^3
#
#
#
# Elastic Constant Matrix: (Units=GPa)
#
#
# Indices 1 2 3 4 5 6 
#
# 1 104.5593 9.0879 6.9691 0.0000 8.7835 0.0000
# 2 9.0879 63.5436 15.5610 0.0000 -3.3980 0.0000
# 3 6.9691 15.5610 199.4865 0.0000 -12.1386 0.0000
# 4 0.0000 0.0000 0.0000 -16.9404 0.0000 7.7358
# 5 8.7835 -3.3980 -12.1386 0.0000 43.2639 0.0000
# 6 0.0000 0.0000 0.0000 7.7358 0.0000 -12.7753
#
#
#
# Elastic Compliance Matrix: (Units=1/GPa)
#
#
# Indices 1 2 3 4 5 6 
#
# 1 0.009901 -0.001445 -0.000369 0.000000 -0.002227 0.000000
# 2 -0.001445 0.016291 -0.001144 0.000000 0.001252 0.000000
# 3 -0.000369 -0.001144 0.005203 0.000000 0.001445 0.000000
# 4 0.000000 0.000000 0.000000 -0.081592 0.000000 -0.049406
# 5 -0.002227 0.001252 0.001445 0.000000 0.024070 0.000000
# 6 0.000000 0.000000 0.000000 -0.049406 0.000000 -0.108192
#
#
# Mechanical properties :
#
#
# Convention : Reuss Voigt Hill
#
# Bulk Modulus (GPa) = 39.24692 47.86950 43.55821
# Shear Modulus (GPa) = -41.69782 25.10772 -8.29505
#
# Velocity S-wave (km/s) = -4.41407 3.42520 -1.96876
# Velocity P-wave (km/s) = 2.76404 6.16527 3.89683
#
# Compressibility (1/GPa) = 0.02547971
#
# Stress axis : x y z
#
# Youngs Moduli (GPa) = 100.99792 61.38356 192.19994
#
# Poissons Ratio (x) = 0.08869 0.07087
# Poissons Ratio (y) = 0.14593 0.21990
# Poissons Ratio (z) = 0.03724 0.07023
#
# Static dielectric constant tensor:
#      x y z
#    x 1.746210 0.000000 -0.014680 
#    y 0.000000 1.748450 0.000000 
#    z -0.014680 0.000000 1.892860 
# 
# From -- ./inp_files/296632.got.cif
#   From: 2010.05.17/outbox.cif.g08.bks.cpg/sg12_149_cif.got.tgz:296632.got - 2010.06.03 13:09:07.
