data_PCOD9178721
_publ_section_title
;
Structure prediction by ZEFSAII (Michael W. Deem and Ramdas Pophale) SiO2 
 PCOD9178721
Probable space group: C 2/M
;
_chemical_formula_sum "Si O2"
_cell_formula_units_Z 56
_cell_length_a 16.749646
_cell_length_b 28.410671
_cell_length_c 9.034247
_cell_angle_alpha 90.000000
_cell_angle_beta 141.106506
_cell_angle_gamma 90.000000
_cell_volume 2699.305602
_symmetry_space_group_name_H-M "C 2/M"
_symmetry_group_IT_number 12
_symmetry_cell_setting 'monoclinic'
loop_
_space_group_symop_operation_xyz
x,y,z
-x,y,-z
-x,-y,-z
x,-y,z
1/2+x,1/2+y,z
1/2-x,1/2+y,-z
1/2-x,1/2-y,-z
1/2+x,1/2-y,z
loop_
_atom_site_type_symbol
_atom_site_label
_atom_site_fract_x
_atom_site_fract_y
_atom_site_fract_z
Si Si1 0.469297 0.054773 0.281124
Si Si2 0.821337 0.171374 0.436443
Si Si3 0.069635 0.854920 0.960672
Si Si4 0.637815 0.255956 0.121756
Si Si5 0.751992 0.876104 0.028066
Si Si6 0.551886 0.203764 0.724080
Si Si7 0.906600 0.366265 0.722309
O O1 0.500000 0.059607 0.500000
O O2 0.567560 0.086103 0.329465
O O3 0.472202 0.000000 0.246580
O O4 0.332159 0.078675 0.053387
O O5 0.751404 0.222398 0.341115
O O6 0.813187 0.148618 0.260882
O O7 0.731885 0.139377 0.410907
O O8 0.961068 0.170084 0.704089
O O9 0.151365 0.885194 0.965585
O O10 0.152614 0.811807 0.147005
O O11 0.000000 0.878301 0.000000
O O12 0.500000 0.246376 0.000000
O O13 0.621240 0.240460 0.928329
O O14 0.649811 0.837601 0.824050
O O15 0.500000 0.225735 0.500000
O O16 0.448423 0.176332 0.674735
O O17 0.000000 0.364450 0.000000
#
# Coordination Sequence:
#
# PCOD9178721 Si02
#       7
#     8   8   8   8   8   8   8
#     4  10  22  39  67 101 125 145 183 248 306 362
#     4  11  21  39  61  79 124 164 199 255 290 349
#     4  11  27  36  57  87 112 167 211 250 292 354
#     4  10  20  39  53  81 117 156 209 255 299 330
#     4  10  21  40  56  84 121 156 197 236 303 360
#     4  10  19  30  59  83 111 156 197 246 298 344
#     4  11  17  36  61  90 118 159 190 238 302 358
#
# _framework density 20.746075999999999
#
# number of rings (size 3 to 8) (size 9 to 14) (size 15 to 20)
#    0.000    1.571    5.714    2.143    4.000    7.143 
#    0.000    0.000    0.000    3.000    0.000    0.000 
#    0.000    0.000    0.000    0.000    0.000    0.000 
#
# Total GULP energy -156540.795225 kJ/mol
# GULP energy per Si atom -5590.742687 kJ/mol
# Density = 2.069886 g / cm^3
# Si number density = 20.746076 Si / 1000 Ang^3
#
#
#
# Elastic Constant Matrix: (Units=GPa)
#
#
# Indices 1 2 3 4 5 6 
#
# 1 121.6003 23.0362 3.6944 0.0000 -10.6877 0.0000
# 2 23.0362 68.4584 1.9154 0.0000 -5.6280 0.0000
# 3 3.6944 1.9154 71.8478 0.0000 -6.6167 0.0000
# 4 0.0000 0.0000 0.0000 13.4142 0.0000 -5.6954
# 5 -10.6877 -5.6280 -6.6167 0.0000 31.5092 0.0000
# 6 0.0000 0.0000 0.0000 -5.6954 0.0000 20.6545
#
#
#
# Elastic Compliance Matrix: (Units=1/GPa)
#
#
# Indices 1 2 3 4 5 6 
#
# 1 0.008982 -0.002812 -0.000156 0.000000 0.002512 0.000000
# 2 -0.002812 0.015707 -0.000106 0.000000 0.001830 0.000000
# 3 -0.000156 -0.000106 0.014197 0.000000 0.002910 0.000000
# 4 0.000000 0.000000 0.000000 0.084433 0.000000 0.023282
# 5 0.002512 0.001830 0.002910 0.000000 0.033526 0.000000
# 6 0.000000 0.000000 0.000000 0.023282 0.000000 0.054836
#
#
# Mechanical properties :
#
#
# Convention : Reuss Voigt Hill
#
# Bulk Modulus (GPa) = 30.54351 35.46651 33.00501
# Shear Modulus (GPa) = 21.85889 28.66628 25.26258
#
# Velocity S-wave (km/s) = 3.24950 3.72125 3.49335
# Velocity P-wave (km/s) = 5.36969 5.96626 5.67582
#
# Compressibility (1/GPa) = 0.03274018
#
# Stress axis : x y z
#
# Youngs Moduli (GPa) = 111.33663 63.66650 70.43698
#
# Poissons Ratio (x) = 0.17900 0.01096
# Poissons Ratio (y) = 0.31302 0.00744
# Poissons Ratio (z) = 0.01732 0.00673
#
# Static dielectric constant tensor:
#      x y z
#    x 1.803640 0.000000 0.001070 
#    y 0.000000 1.709650 0.000000 
#    z 0.001070 0.000000 1.800970 
# 
# From -- ./inp_files/80479.got.cif
#   From: 2010.05.17/outbox.cif.g08.bks.cpg/sg12_41_cif.got.tgz:80479.got - 2010.06.03 13:09:07.
