data_PCOD9178888
_publ_section_title
;
Structure prediction by ZEFSAII (Michael W. Deem and Ramdas Pophale) SiO2 
 PCOD9178888
Probable space group: C 2/M
;
_chemical_formula_sum "Si O2"
_cell_formula_units_Z 64
_cell_length_a 35.107857
_cell_length_b 7.543835
_cell_length_c 11.388967
_cell_angle_alpha 90.000000
_cell_angle_beta 87.192782
_cell_angle_gamma 90.000000
_cell_volume 3012.724083
_symmetry_space_group_name_H-M "C 2/M"
_symmetry_group_IT_number 12
_symmetry_cell_setting 'monoclinic'
loop_
_space_group_symop_operation_xyz
x,y,z
-x,y,-z
-x,-y,-z
x,-y,z
1/2+x,1/2+y,z
1/2-x,1/2+y,-z
1/2-x,1/2-y,-z
1/2+x,1/2-y,z
loop_
_atom_site_type_symbol
_atom_site_label
_atom_site_fract_x
_atom_site_fract_y
_atom_site_fract_z
Si Si1 0.062703 0.216896 0.913613
Si Si2 0.985457 0.212873 0.311155
Si Si3 0.056142 0.791070 0.172921
Si Si4 0.634314 0.297171 0.774532
Si Si5 0.125663 0.285646 0.307421
Si Si6 0.087658 0.706308 0.553618
Si Si7 0.706248 0.789627 0.369895
Si Si8 0.791312 0.215253 0.355706
O O1 0.035587 0.260849 0.808682
O O2 0.105226 0.281091 0.873821
O O3 0.063502 0.000000 0.916032
O O4 0.049759 0.280160 0.043023
O O5 0.957605 0.278715 0.417601
O O6 0.028192 0.279142 0.279458
O O7 0.985521 0.000000 0.326007
O O8 0.099797 0.769510 0.202854
O O9 0.047391 0.000000 0.167484
O O10 0.641457 0.500000 0.809436
O O11 0.609429 0.298260 0.658189
O O12 0.675037 0.217853 0.733442
O O13 0.126321 0.500000 0.309015
O O14 0.103366 0.224909 0.428186
O O15 0.169083 0.220271 0.308616
O O16 0.098085 0.500000 0.560458
O O17 0.748510 0.719736 0.335273
O O18 0.700078 0.763282 0.510364
O O19 0.707714 0.000000 0.348564
O O20 0.791438 0.000000 0.351188
#
# Coordination Sequence:
#
# PCOD9178888 Si02
#       8
#     8   8   8   8   8   8   8   8
#     4   8  15  30  51  72  93 116 148 195 244 279
#     4   9  18  33  52  72  92 114 150 202 246 277
#     4  10  20  33  51  70  88 121 163 197 232 276
#     4   9  16  28  49  75  98 118 148 195 240 274
#     4  10  21  34  46  63  97 135 158 184 225 280
#     4  10  19  31  47  68  95 128 157 183 230 285
#     4   9  17  30  45  66  98 130 154 182 226 277
#     4   9  16  26  47  75  96 118 153 192 229 270
#
# _framework density 21.243233
#
# number of rings (size 3 to 8) (size 9 to 14) (size 15 to 20)
#    0.000    2.750    1.250    1.500    0.000    4.000 
#    0.000    5.000    0.000    4.500    0.000    0.000 
#    0.000    0.000    0.000    0.000    0.000    0.000 
#
# Total GULP energy -178469.389727 kJ/mol
# GULP energy per Si atom -5577.168429 kJ/mol
# Density = 2.119488 g / cm^3
# Si number density = 21.243233 Si / 1000 Ang^3
#
#
#
# Elastic Constant Matrix: (Units=GPa)
#
#
# Indices 1 2 3 4 5 6 
#
# 1 116.7005 -4.4785 -0.8251 0.0000 -13.5433 0.0000
# 2 -4.4785 51.6444 -4.8059 0.0000 -3.0305 0.0000
# 3 -0.8251 -4.8059 21.7058 0.0000 -4.1054 0.0000
# 4 0.0000 0.0000 0.0000 13.2460 0.0000 0.6055
# 5 -13.5433 -3.0305 -4.1054 0.0000 24.2405 0.0000
# 6 0.0000 0.0000 0.0000 0.6055 0.0000 12.9918
#
#
#
# Elastic Compliance Matrix: (Units=1/GPa)
#
#
# Indices 1 2 3 4 5 6 
#
# 1 0.009285 0.001295 0.001706 0.000000 0.005638 0.000000
# 2 0.001295 0.020213 0.005310 0.000000 0.004150 0.000000
# 3 0.001706 0.005310 0.049193 0.000000 0.009948 0.000000
# 4 0.000000 0.000000 0.000000 0.075656 0.000000 -0.003526
# 5 0.005638 0.004150 0.009948 0.000000 0.046607 0.000000
# 6 0.000000 0.000000 0.000000 -0.003526 0.000000 0.077136
#
#
# Mechanical properties :
#
#
# Convention : Reuss Voigt Hill
#
# Bulk Modulus (GPa) = 10.49189 18.87018 14.68104
# Shear Modulus (GPa) = 17.05090 23.43966 20.24528
#
# Velocity S-wave (km/s) = 2.83618 3.32534 3.09046
# Velocity P-wave (km/s) = 3.95915 4.86272 4.43401
#
# Compressibility (1/GPa) = 0.09531167
#
# Stress axis : x y z
#
# Youngs Moduli (GPa) = 107.70014 49.47292 20.32821
#
# Poissons Ratio (x) = -0.06406 -0.03468
# Poissons Ratio (y) = -0.13945 -0.10793
# Poissons Ratio (z) = -0.18375 -0.26268
#
# Static dielectric constant tensor:
#      x y z
#    x 1.824350 0.000000 -0.027330 
#    y 0.000000 1.798920 0.000000 
#    z -0.027330 0.000000 1.736710 
# 
# From -- ./inp_files/187482.got.cif
#   From: 2010.05.17/outbox.cif.g08.bks.cpg/sg12_94_cif.got.tgz:187482.got - 2010.06.03 13:09:07.
