data_PCOD9178901
_publ_section_title
;
Structure prediction by ZEFSAII (Michael W. Deem and Ramdas Pophale) SiO2 
 PCOD9178901
Probable space group: C 2/M
;
_chemical_formula_sum "Si O2"
_cell_formula_units_Z 40
_cell_length_a 19.972863
_cell_length_b 7.587121
_cell_length_c 27.086288
_cell_angle_alpha 90.000000
_cell_angle_beta 151.942498
_cell_angle_gamma 90.000000
_cell_volume 1930.611345
_symmetry_space_group_name_H-M "C 2/M"
_symmetry_group_IT_number 12
_symmetry_cell_setting 'monoclinic'
loop_
_space_group_symop_operation_xyz
x,y,z
-x,y,-z
-x,-y,-z
x,-y,z
1/2+x,1/2+y,z
1/2-x,1/2+y,-z
1/2-x,1/2-y,-z
1/2+x,1/2-y,z
loop_
_atom_site_type_symbol
_atom_site_label
_atom_site_fract_x
_atom_site_fract_y
_atom_site_fract_z
Si Si1 0.655824 0.713805 0.117481
Si Si2 0.346692 0.200825 0.685462
Si Si3 0.055115 0.715988 0.742462
Si Si4 0.408554 0.797133 0.546486
Si Si5 0.698108 0.706102 0.685388
O O1 0.655723 0.500000 0.118803
O O2 0.782895 0.768004 0.163172
O O3 0.702622 0.776272 0.202024
O O4 0.500000 0.773584 0.000000
O O5 0.482025 0.279124 0.745099
O O6 0.221146 0.199085 0.563239
O O7 0.278298 0.282624 0.689931
O O8 0.385199 0.000000 0.724069
O O9 0.050811 0.500000 0.739708
O O10 0.962305 0.771883 0.634351
O O11 0.547288 0.789873 0.601574
O O12 0.365154 0.000000 0.524243
O O13 0.667479 0.500000 0.655875
#
# Coordination Sequence:
#
# PCOD9178901 Si02
#       5
#     8   8   8   8   8
#     4   9  18  35  57  74  90 119 159 201 242 283
#     4  10  19  31  47  69 100 132 159 192 235 281
#     4   8  16  31  49  70  95 125 161 196 233 279
#     4  10  19  31  49  71  97 131 166 197 230 273
#     4  10  20  32  48  71  98 128 160 194 235 284
#
# _framework density 20.718826
#
# number of rings (size 3 to 8) (size 9 to 14) (size 15 to 20)
#    0.000    2.600    0.000    3.600    0.000    4.400 
#    0.000    5.000    0.000    0.000    0.000    0.000 
#    0.000    0.000    0.000    0.000    0.000    0.000 
#
# Total GULP energy -111630.106027 kJ/mol
# GULP energy per Si atom -5581.505301 kJ/mol
# Density = 2.067167 g / cm^3
# Si number density = 20.718826 Si / 1000 Ang^3
#
#
#
# Elastic Constant Matrix: (Units=GPa)
#
#
# Indices 1 2 3 4 5 6 
#
# 1 145.6185 -4.7066 24.7471 0.0000 34.5803 0.0002
# 2 -4.7066 52.8220 -8.4208 0.0000 0.0321 0.0002
# 3 24.7471 -8.4208 75.4295 -0.0002 19.5322 0.0001
# 4 0.0000 0.0000 -0.0002 16.1523 0.0000 -3.0776
# 5 34.5803 0.0321 19.5322 0.0000 13.5536 0.0000
# 6 0.0002 0.0002 0.0001 -3.0776 0.0000 7.5244
#
#
#
# Elastic Compliance Matrix: (Units=1/GPa)
#
#
# Indices 1 2 3 4 5 6 
#
# 1 0.023584 0.004266 0.013277 0.000000 -0.079316 -0.000001
# 2 0.004266 0.020263 0.005892 0.000000 -0.019425 -0.000001
# 3 0.013277 0.005892 0.029250 0.000000 -0.076042 -0.000001
# 4 0.000000 0.000000 0.000000 0.067143 0.000001 0.027462
# 5 -0.079316 -0.019425 -0.076042 0.000001 0.385778 0.000003
# 6 -0.000001 -0.000001 -0.000001 0.027462 0.000003 0.144133
#
#
# Mechanical properties :
#
#
# Convention : Reuss Voigt Hill
#
# Bulk Modulus (GPa) = 8.33549 33.01214 20.67381
# Shear Modulus (GPa) = 7.53842 24.92942 16.23392
#
# Velocity S-wave (km/s) = 1.90954 3.47252 2.80221
# Velocity P-wave (km/s) = 2.98222 5.66090 4.52435
#
# Compressibility (1/GPa) = 0.11996901
#
# Stress axis : x y z
#
# Youngs Moduli (GPa) = 42.40138 49.35151 34.18816
#
# Poissons Ratio (x) = -0.21055 -0.45393
# Poissons Ratio (y) = -0.18090 -0.20145
# Poissons Ratio (z) = -0.56298 -0.29079
#
# Static dielectric constant tensor:
#      x y z
#    x 1.779670 0.000000 0.026890 
#    y 0.000000 1.758390 0.000000 
#    z 0.026890 0.000000 1.691870 
# 
# From -- ./inp_files/151850.got.cif
#   From: 2010.05.17/outbox.cif.g08.bks.cpg/sg12_76_cif.got.tgz:151850.got - 2010.06.03 13:09:07.
