data_PCOD9178444
_publ_section_title
;
Structure prediction by ZEFSAII (Michael W. Deem and Ramdas Pophale) SiO2 
 PCOD9178444
Probable space group: C 2/M
;
_chemical_formula_sum "Si O2"
_cell_formula_units_Z 60
_cell_length_a 18.004882
_cell_length_b 19.774986
_cell_length_c 10.697104
_cell_angle_alpha 90.000000
_cell_angle_beta 57.111936
_cell_angle_gamma 90.000000
_cell_volume 3198.261011
_symmetry_space_group_name_H-M "C 2/M"
_symmetry_group_IT_number 12
_symmetry_cell_setting 'monoclinic'
loop_
_space_group_symop_operation_xyz
x,y,z
-x,y,-z
-x,-y,-z
x,-y,z
1/2+x,1/2+y,z
1/2-x,1/2+y,-z
1/2-x,1/2-y,-z
1/2+x,1/2-y,z
loop_
_atom_site_type_symbol
_atom_site_label
_atom_site_fract_x
_atom_site_fract_y
_atom_site_fract_z
Si Si1 0.106946 0.790340 0.108590
Si Si2 0.300791 0.573451 0.338761
Si Si3 0.320031 0.079100 0.303419
Si Si4 0.680818 0.327498 0.308782
Si Si5 0.801099 0.214814 0.232843
Si Si6 0.500000 0.391802 0.500000
Si Si7 0.991456 0.072519 0.788443
Si Si8 0.957193 0.301805 0.177458
O O1 0.158634 0.808627 0.186648
O O2 0.055130 0.859847 0.119660
O O3 0.036004 0.729411 0.189347
O O4 0.170235 0.772558 0.936158
O O5 0.282782 0.500000 0.297994
O O6 0.241192 0.579630 0.517115
O O7 0.282683 0.637057 0.269705
O O8 0.404236 0.575748 0.280246
O O9 0.256779 0.115591 0.258002
O O10 0.405106 0.127764 0.247831
O O11 0.340142 0.000000 0.256491
O O12 0.718260 0.261208 0.340718
O O13 0.587896 0.350086 0.450334
O O14 0.882378 0.243642 0.239213
O O15 0.521437 0.428254 0.350394
O O16 0.958306 0.000000 0.869640
O O17 0.000000 0.307200 0.000000
#
# Coordination Sequence:
#
# PCOD9178444 Si02
#       8
#     8   8   8   8   8   4   8   8
#     4  10  20  35  53  79 107 140 180 215 265 317
#     4  10  20  33  51  74 105 141 174 212 258 310
#     4  10  21  37  56  81 110 140 178 221 270 319
#     4  10  21  33  55  79 107 140 171 220 274 317
#     4  10  20  36  53  74 108 142 179 220 258 313
#     4  10  19  32  48  78 109 134 168 208 269 328
#     4  10  19  30  48  75 107 139 167 207 257 313
#     4   9  19  35  56  79 106 140 179 222 263 312
#
# _framework density 18.760195
#
# number of rings (size 3 to 8) (size 9 to 14) (size 15 to 20)
#    0.000    2.133    2.667    0.600    0.000    7.200 
#    0.000    1.333    0.000    0.800    0.000    2.333 
#    0.000    0.000    0.000    0.000    0.000    0.000 
#
# Total GULP energy -167188.377421 kJ/mol
# GULP energy per Si atom -5572.945914 kJ/mol
# Density = 1.871750 g / cm^3
# Si number density = 18.760195 Si / 1000 Ang^3
#
#
#
# Elastic Constant Matrix: (Units=GPa)
#
#
# Indices 1 2 3 4 5 6 
#
# 1 60.3885 54.5450 16.0545 0.0000 -9.9183 0.0000
# 2 54.5450 152.8730 17.8860 0.0000 -22.9458 0.0000
# 3 16.0545 17.8860 20.6909 0.0000 -9.3155 0.0000
# 4 0.0000 0.0000 0.0000 15.8172 0.0000 -4.2637
# 5 -9.9183 -22.9458 -9.3155 0.0000 21.4950 0.0000
# 6 0.0000 0.0000 0.0000 -4.2637 0.0000 21.6741
#
#
#
# Elastic Compliance Matrix: (Units=1/GPa)
#
#
# Indices 1 2 3 4 5 6 
#
# 1 0.028005 -0.008620 -0.015658 0.000000 -0.003066 0.000000
# 2 -0.008620 0.010680 0.000992 0.000000 0.007853 0.000000
# 3 -0.015658 0.000992 0.070627 0.000000 0.024443 0.000000
# 4 0.000000 0.000000 0.000000 0.066762 0.000000 0.013133
# 5 -0.003066 0.007853 0.024443 0.000000 0.064084 0.000000
# 6 0.000000 0.000000 0.000000 0.013133 0.000000 0.048722
#
#
# Mechanical properties :
#
#
# Convention : Reuss Voigt Hill
#
# Bulk Modulus (GPa) = 15.93909 45.65816 30.79863
# Shear Modulus (GPa) = 14.03058 21.49506 17.76282
#
# Velocity S-wave (km/s) = 2.73773 3.38861 3.08041
# Velocity P-wave (km/s) = 4.30212 6.30086 5.39486
#
# Compressibility (1/GPa) = 0.06273882
#
# Stress axis : x y z
#
# Youngs Moduli (GPa) = 35.70805 93.63542 14.15895
#
# Poissons Ratio (x) = 0.80717 0.22170
# Poissons Ratio (y) = 0.30782 -0.01405
# Poissons Ratio (z) = 0.55913 -0.09292
#
# Static dielectric constant tensor:
#      x y z
#    x 1.667360 0.000000 0.008740 
#    y 0.000000 1.685780 0.000000 
#    z 0.008740 0.000000 1.648120 
# 
# From -- ./inp_files/158263.got.cif
#   From: 2010.05.17/outbox.cif.g08.bks.cpg/sg12_80_cif.got.tgz:158263.got - 2010.06.03 13:09:07.
