data_PCOD9178320
_publ_section_title
;
Structure prediction by ZEFSAII (Michael W. Deem and Ramdas Pophale) SiO2 
 PCOD9178320
Probable space group: C 2/M
;
_chemical_formula_sum "Si O2"
_cell_formula_units_Z 48
_cell_length_a 20.098420
_cell_length_b 9.081721
_cell_length_c 16.667048
_cell_angle_alpha 90.000000
_cell_angle_beta 113.895340
_cell_angle_gamma 90.000000
_cell_volume 2781.450006
_symmetry_space_group_name_H-M "C 2/M"
_symmetry_group_IT_number 12
_symmetry_cell_setting 'monoclinic'
loop_
_space_group_symop_operation_xyz
x,y,z
-x,y,-z
-x,-y,-z
x,-y,z
1/2+x,1/2+y,z
1/2-x,1/2+y,-z
1/2-x,1/2-y,-z
1/2+x,1/2-y,z
loop_
_atom_site_type_symbol
_atom_site_label
_atom_site_fract_x
_atom_site_fract_y
_atom_site_fract_z
Si Si1 0.560433 0.329140 0.960808
Si Si2 0.287746 0.824421 0.941266
Si Si3 0.184897 0.671764 0.767218
Si Si4 0.959748 0.828522 0.604645
Si Si5 0.971144 0.328321 0.218388
Si Si6 0.116107 0.828460 0.590115
O O1 0.582605 0.500000 0.961526
O O2 0.629901 0.232466 0.018580
O O3 0.500000 0.320954 0.000000
O O4 0.529844 0.267281 0.862255
O O5 0.244352 0.767520 0.842507
O O6 0.284413 0.000000 0.946452
O O7 0.250000 0.750000 0.000000
O O8 0.205088 0.500000 0.776836
O O9 0.108984 0.685441 0.779849
O O10 0.168688 0.730924 0.670124
O O11 0.900412 0.781353 0.509340
O O12 0.970976 0.731236 0.688644
O O13 0.037612 0.823638 0.596581
O O14 0.946849 0.000000 0.618850
O O15 0.982853 0.500000 0.206384
O O16 0.138665 0.000000 0.600975
#
# Coordination Sequence:
#
# PCOD9178320 Si02
#       6
#     8   8   8   8   8   8
#     4  11  24  40  57  77 104 139 178 221 267 315
#     4  12  23  36  56  79 105 139 177 219 264 314
#     4  10  19  30  47  74 105 137 172 214 260 308
#     4   8  14  25  42  64  96 134 171 210 255 307
#     4  10  19  30  48  73 102 137 174 215 261 309
#     4   8  14  25  41  65  97 134 170 209 257 305
#
# _framework density 17.257185
#
# number of rings (size 3 to 8) (size 9 to 14) (size 15 to 20)
#    0.000    2.167    1.667    4.000    0.000    3.333 
#    0.000    3.333    0.000    0.000    0.000    1.167 
#    0.000    0.000    0.000    0.000    0.000    0.000 
#
# Total GULP energy -133867.463844 kJ/mol
# GULP energy per Si atom -5577.810994 kJ/mol
# Density = 1.721791 g / cm^3
# Si number density = 17.257185 Si / 1000 Ang^3
#
#
#
# Elastic Constant Matrix: (Units=GPa)
#
#
# Indices 1 2 3 4 5 6 
#
# 1 26.7235 32.5782 25.6012 0.0000 5.4578 0.0000
# 2 32.5782 139.1950 84.0338 0.0000 8.9923 0.0000
# 3 25.6012 84.0338 141.6442 0.0000 19.1808 0.0000
# 4 0.0000 0.0000 0.0000 33.6508 0.0000 5.1283
# 5 5.4578 8.9923 19.1808 0.0000 11.3361 0.0000
# 6 0.0000 0.0000 0.0000 5.1283 0.0000 17.1961
#
#
#
# Elastic Compliance Matrix: (Units=1/GPa)
#
#
# Indices 1 2 3 4 5 6 
#
# 1 0.055505 -0.011224 -0.001246 0.000000 -0.015712 0.000000
# 2 -0.011224 0.013545 -0.006855 0.000000 0.006257 0.000000
# 3 -0.001246 -0.006855 0.013665 0.000000 -0.017085 0.000000
# 4 0.000000 0.000000 0.000000 0.031132 0.000000 -0.009284
# 5 -0.015712 0.006257 -0.017085 0.000000 0.119722 0.000000
# 6 0.000000 0.000000 0.000000 -0.009284 0.000000 0.060922
#
#
# Mechanical properties :
#
#
# Convention : Reuss Voigt Hill
#
# Bulk Modulus (GPa) = 22.69251 65.77658 44.23454
# Shear Modulus (GPa) = 14.37488 23.45989 18.91739
#
# Velocity S-wave (km/s) = 2.88927 3.69104 3.31449
# Velocity P-wave (km/s) = 4.93038 7.50755 6.35106
#
# Compressibility (1/GPa) = 0.04406740
#
# Stress axis : x y z
#
# Youngs Moduli (GPa) = 18.01629 73.82767 73.17791
#
# Poissons Ratio (x) = 0.82862 0.09116
# Poissons Ratio (y) = 0.20221 0.50161
# Poissons Ratio (z) = 0.02244 0.50606
#
# Static dielectric constant tensor:
#      x y z
#    x 1.562220 0.000000 0.006570 
#    y 0.000000 1.577640 0.000000 
#    z 0.006570 0.000000 1.597750 
# 
# From -- ./inp_files/230374.got.cif
#   From: 2010.05.17/outbox.cif.g08.bks.cpg/sg12_116_cif.got.tgz:230374.got - 2010.06.03 13:09:07.
