data_PCOD9178365
_publ_section_title
;
Structure prediction by ZEFSAII (Michael W. Deem and Ramdas Pophale) SiO2 
 PCOD9178365
Probable space group: C 2/M
;
_chemical_formula_sum "Si O2"
_cell_formula_units_Z 64
_cell_length_a 12.808708
_cell_length_b 22.261684
_cell_length_c 18.498081
_cell_angle_alpha 90.000000
_cell_angle_beta 133.847758
_cell_angle_gamma 90.000000
_cell_volume 3803.956378
_symmetry_space_group_name_H-M "C 2/M"
_symmetry_group_IT_number 12
_symmetry_cell_setting 'monoclinic'
loop_
_space_group_symop_operation_xyz
x,y,z
-x,y,-z
-x,-y,-z
x,-y,z
1/2+x,1/2+y,z
1/2-x,1/2+y,-z
1/2-x,1/2-y,-z
1/2+x,1/2-y,z
loop_
_atom_site_type_symbol
_atom_site_label
_atom_site_fract_x
_atom_site_fract_y
_atom_site_fract_z
Si Si1 0.404980 0.159462 0.714019
Si Si2 0.670246 0.294209 0.699171
Si Si3 0.656251 0.430537 0.054066
Si Si4 0.365086 0.718992 0.609395
Si Si5 0.679846 0.838158 0.937730
Si Si6 0.349225 0.165605 0.385958
Si Si7 0.086845 0.571045 0.705177
Si Si8 0.670818 0.235699 0.078031
O O1 0.246995 0.164512 0.675236
O O2 0.423075 0.224937 0.685341
O O3 0.516321 0.152644 0.833826
O O4 0.455638 0.108527 0.680965
O O5 0.503231 0.308495 0.635423
O O6 0.671344 0.225282 0.671918
O O7 0.762550 0.291727 0.817335
O O8 0.635212 0.500000 0.027614
O O9 0.726984 0.397870 0.020518
O O10 0.775091 0.425336 0.174692
O O11 0.500000 0.404739 0.000000
O O12 0.250000 0.750000 0.500000
O O13 0.280659 0.671021 0.618498
O O14 0.748159 0.796090 0.907749
O O15 0.692677 0.808040 0.020801
O O16 0.500000 0.172755 0.500000
O O17 0.366009 0.107051 0.344083
O O18 0.054172 0.500000 0.678687
O O19 0.500000 0.247230 0.000000
#
# Coordination Sequence:
#
# PCOD9178365 Si02
#       8
#     8   8   8   8   8   8   8   8
#     4  10  19  33  51  75 107 142 178 220 270 321
#     4  11  20  33  52  77 113 141 174 222 271 330
#     4   9  18  33  52  73 100 137 177 221 264 305
#     4  11  20  34  53  78 111 139 176 222 273 329
#     4  10  19  30  48  72 104 137 174 212 261 320
#     4  11  21  35  56  81 109 140 178 223 276 325
#     4  10  20  36  56  80 108 141 188 230 266 321
#     4  11  20  30  45  74 107 139 166 206 267 320
#
# _framework density 16.824589
#
# number of rings (size 3 to 8) (size 9 to 14) (size 15 to 20)
#    0.000    1.625    5.000    1.125    0.000    1.250 
#    0.000    0.000    0.000    1.875    0.000    3.500 
#    0.000    0.000    0.000    0.000    0.000    0.000 
#
# Total GULP energy -178325.885609 kJ/mol
# GULP energy per Si atom -5572.683925 kJ/mol
# Density = 1.678630 g / cm^3
# Si number density = 16.824589 Si / 1000 Ang^3
#
#
#
# Elastic Constant Matrix: (Units=GPa)
#
#
# Indices 1 2 3 4 5 6 
#
# 1 149.8560 54.0937 23.8076 0.0000 20.1133 0.0000
# 2 54.0937 85.4970 19.2020 0.0000 -3.0294 0.0000
# 3 23.8076 19.2020 31.0615 0.0000 7.5673 0.0000
# 4 0.0000 0.0000 0.0000 8.0624 0.0000 -0.3675
# 5 20.1133 -3.0294 7.5673 0.0000 26.5945 0.0000
# 6 0.0000 0.0000 0.0000 -0.3675 0.0000 24.6259
#
#
#
# Elastic Compliance Matrix: (Units=1/GPa)
#
#
# Indices 1 2 3 4 5 6 
#
# 1 0.010378 -0.006387 -0.002060 0.000000 -0.007990 0.000000
# 2 -0.006387 0.017970 -0.008477 0.000000 0.009289 0.000000
# 3 -0.002060 -0.008477 0.041764 0.000000 -0.011292 0.000000
# 4 0.000000 0.000000 0.000000 0.124118 0.000000 0.001852
# 5 -0.007990 0.009289 -0.011292 0.000000 0.047916 0.000000
# 6 0.000000 0.000000 0.000000 0.001852 0.000000 0.040635
#
#
# Mechanical properties :
#
#
# Convention : Reuss Voigt Hill
#
# Bulk Modulus (GPa) = 27.57411 51.18013 39.37712
# Shear Modulus (GPa) = 15.21066 23.14395 19.17731
#
# Velocity S-wave (km/s) = 3.01004 3.71294 3.37981
# Velocity P-wave (km/s) = 5.33903 6.99050 6.21982
#
# Compressibility (1/GPa) = 0.03626591
#
# Stress axis : x y z
#
# Youngs Moduli (GPa) = 96.35582 55.64753 23.94399
#
# Poissons Ratio (x) = 0.35541 0.04932
# Poissons Ratio (y) = 0.61541 0.20297
# Poissons Ratio (z) = 0.19846 0.47172
#
# Static dielectric constant tensor:
#      x y z
#    x 1.632000 0.000000 0.009600 
#    y 0.000000 1.560080 0.000000 
#    z 0.009600 0.000000 1.581910 
# 
# From -- ./inp_files/265110.got.cif
#   From: 2010.05.17/outbox.cif.g08.bks.cpg/sg12_133_cif.got.tgz:265110.got - 2010.06.03 13:09:07.
