data_PCOD9178526
_publ_section_title
;
Structure prediction by ZEFSAII (Michael W. Deem and Ramdas Pophale) SiO2 
 PCOD9178526
Probable space group: C 2/M
;
_chemical_formula_sum "Si O2"
_cell_formula_units_Z 48
_cell_length_a 22.699364
_cell_length_b 9.045379
_cell_length_c 29.133992
_cell_angle_alpha 90.000000
_cell_angle_beta 28.566618
_cell_angle_gamma 90.000000
_cell_volume 2860.434984
_symmetry_space_group_name_H-M "C 2/M"
_symmetry_group_IT_number 12
_symmetry_cell_setting 'monoclinic'
loop_
_space_group_symop_operation_xyz
x,y,z
-x,y,-z
-x,-y,-z
x,-y,z
1/2+x,1/2+y,z
1/2-x,1/2+y,-z
1/2-x,1/2-y,-z
1/2+x,1/2-y,z
loop_
_atom_site_type_symbol
_atom_site_label
_atom_site_fract_x
_atom_site_fract_y
_atom_site_fract_z
Si Si1 0.116073 0.324157 0.088222
Si Si2 0.460619 0.324628 0.273949
Si Si3 0.201943 0.676447 0.485913
Si Si4 0.798570 0.176103 0.150431
Si Si5 0.961696 0.824458 0.673423
Si Si6 0.464541 0.323500 0.949616
O O1 0.127935 0.500000 0.080343
O O2 0.034498 0.269178 0.186670
O O3 0.055530 0.267189 0.082555
O O4 0.250000 0.250000 0.000000
O O5 0.479032 0.500000 0.252841
O O6 0.313465 0.294793 0.374296
O O7 0.508450 0.294139 0.293025
O O8 0.193238 0.500000 0.497611
O O9 0.250000 0.750000 0.500000
O O10 0.067595 0.745310 0.571014
O O11 0.673625 0.263667 0.243864
O O12 0.904949 0.205715 0.115006
O O13 0.774162 0.000000 0.167609
O O14 0.859348 0.211429 0.059357
O O15 0.969415 0.000000 0.661832
O O16 0.457688 0.500000 0.945021
#
# Coordination Sequence:
#
# PCOD9178526 Si02
#       6
#     8   8   8   8   8   8
#     4  12  24  35  51  74 101 134 167 201 244 293
#     4   9  19  34  50  72 102 134 166 202 246 293
#     4   9  17  30  49  72  99 130 164 204 249 294
#     4   9  18  33  54  76  98 129 166 204 247 292
#     4  10  19  30  49  77 105 132 164 203 246 293
#     4   9  19  36  54  73  99 130 166 206 246 292
#
# _framework density 16.780666
#
# number of rings (size 3 to 8) (size 9 to 14) (size 15 to 20)
#    0.000    2.333    0.000    5.500    0.000    8.000 
#    0.000    1.667    0.000    1.000    0.000    7.000 
#    0.000    0.000    0.000    0.000    0.000    0.000 
#
# Total GULP energy -133875.419174 kJ/mol
# GULP energy per Si atom -5578.142466 kJ/mol
# Density = 1.674247 g / cm^3
# Si number density = 16.780666 Si / 1000 Ang^3
#
#
#
# Elastic Constant Matrix: (Units=GPa)
#
#
# Indices 1 2 3 4 5 6 
#
# 1 41.9275 42.7185 41.2106 0.0002 0.5065 -0.0004
# 2 42.7185 87.1649 82.1174 0.0002 -0.8899 -0.0002
# 3 41.2106 82.1174 144.6623 0.0003 -17.7665 -0.0003
# 4 0.0002 0.0002 0.0003 32.0690 0.0000 -3.0698
# 5 0.5065 -0.8899 -17.7665 0.0000 22.9710 0.0000
# 6 -0.0004 -0.0002 -0.0003 -3.0698 0.0000 25.7441
#
#
#
# Elastic Compliance Matrix: (Units=1/GPa)
#
#
# Indices 1 2 3 4 5 6 
#
# 1 0.047841 -0.022112 -0.001449 0.000000 -0.003032 0.000000
# 2 -0.022112 0.037629 -0.016378 0.000000 -0.010722 0.000000
# 3 -0.001449 -0.016378 0.018285 0.000000 0.013540 0.000000
# 4 0.000000 0.000000 0.000000 0.031543 0.000000 0.003761
# 5 -0.003032 -0.010722 0.013540 0.000000 0.053657 0.000000
# 6 0.000000 0.000000 0.000000 0.003761 0.000000 0.039292
#
#
# Mechanical properties :
#
#
# Convention : Reuss Voigt Hill
#
# Bulk Modulus (GPa) = 41.88071 67.31641 54.59856
# Shear Modulus (GPa) = 15.81853 23.33736 19.57794
#
# Velocity S-wave (km/s) = 3.07361 3.73329 3.41940
# Velocity P-wave (km/s) = 6.13254 7.66719 6.94240
#
# Compressibility (1/GPa) = 0.02387734
#
# Stress axis : x y z
#
# Youngs Moduli (GPa) = 20.90268 26.57496 54.68845
#
# Poissons Ratio (x) = 0.58762 0.07926
# Poissons Ratio (y) = 0.46220 0.89569
# Poissons Ratio (z) = 0.03029 0.43525
#
# Static dielectric constant tensor:
#      x y z
#    x 1.554890 0.000000 -0.014700 
#    y 0.000000 1.552740 0.000000 
#    z -0.014700 0.000000 1.576890 
# 
# From -- ./inp_files/249371.got.cif
#   From: 2010.05.17/outbox.cif.g08.bks.cpg/sg12_125_cif.got.tgz:249371.got - 2010.06.03 13:09:07.
