data_PCOD9178771
_publ_section_title
;
Structure prediction by ZEFSAII (Michael W. Deem and Ramdas Pophale) SiO2 
 PCOD9178771
Probable space group: C 2/M
;
_chemical_formula_sum "Si O2"
_cell_formula_units_Z 56
_cell_length_a 22.782429
_cell_length_b 7.317599
_cell_length_c 25.985797
_cell_angle_alpha 90.000000
_cell_angle_beta 34.341447
_cell_angle_gamma 90.000000
_cell_volume 2443.874262
_symmetry_space_group_name_H-M "C 2/M"
_symmetry_group_IT_number 12
_symmetry_cell_setting 'monoclinic'
loop_
_space_group_symop_operation_xyz
x,y,z
-x,y,-z
-x,-y,-z
x,-y,z
1/2+x,1/2+y,z
1/2-x,1/2+y,-z
1/2-x,1/2-y,-z
1/2+x,1/2-y,z
loop_
_atom_site_type_symbol
_atom_site_label
_atom_site_fract_x
_atom_site_fract_y
_atom_site_fract_z
Si Si1 0.570886 0.220221 0.808912
Si Si2 0.796357 0.222508 0.688071
Si Si3 0.072768 0.276894 0.995696
Si Si4 0.697079 0.277842 0.198815
Si Si5 0.472556 0.724160 0.353360
Si Si6 0.110278 0.205681 0.480784
Si Si7 0.831781 0.789893 0.364691
O O1 0.679936 0.276201 0.756110
O O2 0.580433 0.283249 0.743387
O O3 0.568879 0.000000 0.809144
O O4 0.479253 0.280743 0.912978
O O5 0.812531 0.277761 0.734615
O O6 0.874884 0.286979 0.586724
O O7 0.799766 0.000000 0.684099
O O8 0.072504 0.500000 0.995097
O O9 0.191766 0.216509 0.902899
O O10 0.000000 0.221939 0.000000
O O11 0.700108 0.500000 0.195842
O O12 0.588271 0.223388 0.251868
O O13 0.467880 0.500000 0.357261
O O14 0.452324 0.787229 0.426347
O O15 0.382273 0.784550 0.380097
O O16 0.228861 0.196288 0.417031
O O17 0.068833 0.000000 0.504155
O O18 0.801933 0.000000 0.394487
#
# Coordination Sequence:
#
# PCOD9178771 Si02
#       7
#     8   8   8   8   8   8   8
#     4   9  16  28  47  73  95 114 147 193 231 263
#     4   8  13  22  40  67  94 113 137 181 231 270
#     4   9  14  23  44  72  98 117 142 184 232 275
#     4   9  15  24  40  67  99 123 142 179 235 281
#     4   9  18  29  41  62  95 126 152 184 227 273
#     4   9  17  30  48  70  91 115 152 196 231 266
#     4  10  19  31  46  65  90 124 160 190 220 265
#
# _framework density 22.914435000000001
#
# number of rings (size 3 to 8) (size 9 to 14) (size 15 to 20)
#    0.000    3.000    1.429    1.714    0.000    0.571 
#    0.000    4.286    0.000    0.429    0.000   18.000 
#    0.000    0.000    0.000    0.000    0.000    0.000 
#
# Total GULP energy -156334.751570 kJ/mol
# GULP energy per Si atom -5583.383985 kJ/mol
# Density = 2.286228 g / cm^3
# Si number density = 22.914435 Si / 1000 Ang^3
#
#
#
# Elastic Constant Matrix: (Units=GPa)
#
#
# Indices 1 2 3 4 5 6 
#
# 1 29.6974 -0.6368 24.4593 -0.0007 -1.9314 -0.0038
# 2 -0.6368 94.1348 -1.9026 0.0078 -1.2393 0.0346
# 3 24.4593 -1.9026 158.9096 -0.0039 -2.8377 -0.0006
# 4 -0.0007 0.0078 -0.0039 1.4243 0.0010 6.9109
# 5 -1.9314 -1.2393 -2.8377 0.0010 29.8303 0.0007
# 6 -0.0038 0.0346 -0.0006 6.9109 0.0007 5.2861
#
#
#
# Elastic Compliance Matrix: (Units=1/GPa)
#
#
# Indices 1 2 3 4 5 6 
#
# 1 0.038676 0.000168 -0.005916 0.000023 0.001948 -0.000005
# 2 0.000168 0.010633 0.000110 -0.000052 0.000463 -0.000001
# 3 -0.005916 0.000110 0.007210 -0.000007 0.000307 0.000005
# 4 0.000023 -0.000052 -0.000007 -0.131394 -0.000001 0.171780
# 5 0.001948 0.000463 0.000307 -0.000001 0.033698 -0.000005
# 6 -0.000005 -0.000001 0.000005 0.171780 -0.000005 -0.035404
#
#
# Mechanical properties :
#
#
# Convention : Reuss Voigt Hill
#
# Bulk Modulus (GPa) = 22.10364 36.28684 29.19524
# Shear Modulus (GPa) = -99.55462 24.69627 -37.42917
#
# Velocity S-wave (km/s) = -6.59853 3.28649 -4.04596
# Velocity P-wave (km/s) = 6.95607 5.50196 3.00961
#
# Compressibility (1/GPa) = 0.04524141
#
# Stress axis : x y z
#
# Youngs Moduli (GPa) = 25.85581 94.05114 138.69034
#
# Poissons Ratio (x) = -0.01577 0.82052
# Poissons Ratio (y) = -0.00434 -0.01522
# Poissons Ratio (z) = 0.15297 -0.01032
#
# Static dielectric constant tensor:
#      x y z
#    x 1.818040 0.000000 0.003660 
#    y 0.000000 1.891730 0.000000 
#    z 0.003660 0.000000 1.855680 
# 
# From -- ./inp_files/367671.got.cif
#   From: 2010.05.17/outbox.cif.g08.bks.cpg/sg12_184_cif.got.tgz:367671.got - 2010.06.03 13:09:07.
