data_PCOD9178431
_publ_section_title
;
Structure prediction by ZEFSAII (Michael W. Deem and Ramdas Pophale) SiO2 
 PCOD9178431
Probable space group: C 2/M
;
_chemical_formula_sum "Si O2"
_cell_formula_units_Z 56
_cell_length_a 20.009099
_cell_length_b 8.503158
_cell_length_c 29.336077
_cell_angle_alpha 90.000000
_cell_angle_beta 38.971458
_cell_angle_gamma 90.000000
_cell_volume 3139.166298
_symmetry_space_group_name_H-M "C 2/M"
_symmetry_group_IT_number 12
_symmetry_cell_setting 'monoclinic'
loop_
_space_group_symop_operation_xyz
x,y,z
-x,y,-z
-x,-y,-z
x,-y,z
1/2+x,1/2+y,z
1/2-x,1/2+y,-z
1/2-x,1/2-y,-z
1/2+x,1/2-y,z
loop_
_atom_site_type_symbol
_atom_site_label
_atom_site_fract_x
_atom_site_fract_y
_atom_site_fract_z
Si Si1 0.876004 0.810320 0.681430
Si Si2 0.362275 0.189425 0.205079
Si Si3 0.398514 0.807857 0.082252
Si Si4 0.162244 0.191302 0.193378
Si Si5 0.687995 0.187459 0.601068
Si Si6 0.399021 0.812531 0.452496
Si Si7 0.035061 0.187500 0.759587
O O1 0.761148 0.761570 0.722890
O O2 0.873158 0.764480 0.736580
O O3 0.980322 0.738989 0.603485
O O4 0.882834 0.000000 0.675695
O O5 0.398576 0.240213 0.135306
O O6 0.435482 0.248339 0.206694
O O7 0.362252 0.000000 0.205100
O O8 0.284281 0.758499 0.122555
O O9 0.399627 0.000000 0.081247
O O10 0.500000 0.753207 0.000000
O O11 0.076347 0.247328 0.202432
O O12 0.162000 0.000000 0.192729
O O13 0.633348 0.237441 0.582077
O O14 0.810815 0.236552 0.531776
O O15 0.626252 0.264150 0.675505
O O16 0.679678 0.000000 0.609183
O O17 0.389429 0.000000 0.460041
O O18 0.029847 0.000000 0.764515
#
# Coordination Sequence:
#
# PCOD9178431 Si02
#       7
#     8   8   8   8   8   8   8
#     4   9  16  31  51  69  95 132 172 211 248 295
#     4   9  19  33  51  75 103 133 167 207 251 299
#     4   8  14  29  54  79 100 128 169 209 241 288
#     4   8  15  27  47  73  97 128 169 206 244 291
#     4  10  20  32  48  71 101 134 168 208 252 298
#     4  10  19  30  48  75 101 127 166 214 257 295
#     4  11  20  32  50  72 103 136 167 208 254 301
#
# _framework density 17.839130999999998
#
# number of rings (size 3 to 8) (size 9 to 14) (size 15 to 20)
#    0.000    2.714    1.429    3.000    0.000    1.714 
#    0.000    1.429    0.000    4.714    0.000    0.000 
#    0.000    0.000    0.000    0.000    0.000    0.000 
#
# Total GULP energy -156109.113167 kJ/mol
# GULP energy per Si atom -5575.325470 kJ/mol
# Density = 1.779853 g / cm^3
# Si number density = 17.839131 Si / 1000 Ang^3
#
#
#
# Elastic Constant Matrix: (Units=GPa)
#
#
# Indices 1 2 3 4 5 6 
#
# 1 126.3575 14.1925 59.0216 -0.0001 -14.1850 0.0003
# 2 14.1925 7.1590 5.3693 -0.0003 -0.1170 0.0005
# 3 59.0216 5.3693 119.1065 -0.0001 -18.9698 0.0000
# 4 -0.0001 -0.0003 -0.0001 12.0647 0.0000 0.3422
# 5 -14.1850 -0.1170 -18.9698 0.0000 19.4532 -0.0001
# 6 0.0003 0.0005 0.0000 0.3422 -0.0001 24.7518
#
#
#
# Elastic Compliance Matrix: (Units=1/GPa)
#
#
# Indices 1 2 3 4 5 6 
#
# 1 0.013215 -0.022550 -0.004758 0.000000 0.004861 0.000000
# 2 -0.022550 0.183748 0.000531 0.000004 -0.014821 -0.000004
# 3 -0.004758 0.000531 0.012049 0.000000 0.008283 0.000000
# 4 0.000000 0.000004 0.000000 0.082919 0.000000 -0.001147
# 5 0.004861 -0.014821 0.008283 0.000000 0.062938 0.000000
# 6 0.000000 -0.000004 0.000000 -0.001147 0.000000 0.040417
#
#
# Mechanical properties :
#
#
# Convention : Reuss Voigt Hill
#
# Bulk Modulus (GPa) = 6.43264 45.53222 25.98243
# Shear Modulus (GPa) = 9.98682 22.85659 16.42170
#
# Velocity S-wave (km/s) = 2.36863 3.58335 3.03734
# Velocity P-wave (km/s) = 3.33081 6.53451 5.18624
#
# Compressibility (1/GPa) = 0.15545708
#
# Stress axis : x y z
#
# Youngs Moduli (GPa) = 75.67195 5.44223 82.99578
#
# Poissons Ratio (x) = 0.12272 0.39487
# Poissons Ratio (y) = 1.70642 -0.04403
# Poissons Ratio (z) = 0.36002 -0.00289
#
# Static dielectric constant tensor:
#      x y z
#    x 1.617850 0.000000 -0.019120 
#    y 0.000000 1.606730 0.000000 
#    z -0.019120 0.000000 1.599070 
# 
# From -- ./inp_files/342600.got.cif
#   From: 2010.05.17/outbox.cif.g08.bks.cpg/sg12_172_cif.got.tgz:342600.got - 2010.06.03 13:09:07.
