data_PCOD9178794
_publ_section_title
;
Structure prediction by ZEFSAII (Michael W. Deem and Ramdas Pophale) SiO2 
 PCOD9178794
Probable space group: C 2/M
;
_chemical_formula_sum "Si O2"
_cell_formula_units_Z 60
_cell_length_a 28.387960
_cell_length_b 21.813885
_cell_length_c 11.002382
_cell_angle_alpha 90.000000
_cell_angle_beta 152.736814
_cell_angle_gamma 90.000000
_cell_volume 3121.000459
_symmetry_space_group_name_H-M "C 2/M"
_symmetry_group_IT_number 12
_symmetry_cell_setting 'monoclinic'
loop_
_space_group_symop_operation_xyz
x,y,z
-x,y,-z
-x,-y,-z
x,-y,z
1/2+x,1/2+y,z
1/2-x,1/2+y,-z
1/2-x,1/2-y,-z
1/2+x,1/2-y,z
loop_
_atom_site_type_symbol
_atom_site_label
_atom_site_fract_x
_atom_site_fract_y
_atom_site_fract_z
Si Si1 0.783275 0.567099 0.814661
Si Si2 0.209069 0.569940 0.875442
Si Si3 0.830252 0.816226 0.439035
Si Si4 0.992057 0.384506 0.717988
Si Si5 0.871611 0.753413 0.770777
Si Si6 0.000000 0.359901 0.000000
Si Si7 0.402797 0.241509 0.100280
Si Si8 0.332265 0.305309 0.169154
O O1 0.755447 0.500000 0.708757
O O2 0.696268 0.615291 0.581274
O O3 0.791986 0.569115 0.980876
O O4 0.897209 0.583604 0.032368
O O5 0.239088 0.500000 0.905428
O O6 0.095593 0.585220 0.564900
O O7 0.279247 0.630032 0.008237
O O8 0.893507 0.784381 0.691450
O O9 0.713777 0.787472 0.165711
O O10 0.874534 0.813483 0.403877
O O11 0.957698 0.389994 0.780440
O O12 0.015989 0.314960 0.723818
O O13 0.750000 0.750000 0.500000
O O14 0.908084 0.777695 0.984901
O O15 0.913222 0.684662 0.854895
O O16 0.402901 0.281857 0.221222
O O17 0.250000 0.250000 0.000000
#
# Coordination Sequence:
#
# PCOD9178794 Si02
#       8
#     8   8   8   8   8   4   8   8
#     4   9  17  31  46  66  96 132 171 201 240 308
#     4  10  20  32  49  72 105 143 168 202 263 322
#     4   8  15  27  46  66  87 121 161 205 253 285
#     4  10  19  31  46  68 100 137 166 204 251 306
#     4   9  17  31  49  65  95 134 159 201 266 308
#     4  10  22  32  47  74  99 136 174 208 250 320
#     4   8  16  29  45  67  91 124 167 204 254 291
#     4   9  17  29  48  72  95 125 171 222 244 287
#
# _framework density 19.224605
#
# number of rings (size 3 to 8) (size 9 to 14) (size 15 to 20)
#    0.000    2.933    0.000    2.400    5.600    1.067 
#    0.000    1.333    0.000    0.000    0.000    0.467 
#    0.000    3.200    0.000    0.533    0.000    0.000 
#
# Total GULP energy -167002.302647 kJ/mol
# GULP energy per Si atom -5566.743422 kJ/mol
# Density = 1.918085 g / cm^3
# Si number density = 19.224605 Si / 1000 Ang^3
#
#
#
# Elastic Constant Matrix: (Units=GPa)
#
#
# Indices 1 2 3 4 5 6 
#
# 1 98.6553 25.1486 12.1396 0.0000 -4.9502 0.0000
# 2 25.1486 101.2252 21.8791 0.0000 -12.0490 0.0000
# 3 12.1396 21.8791 43.9028 0.0000 -7.3719 0.0000
# 4 0.0000 0.0000 0.0000 18.9986 0.0000 -0.6610
# 5 -4.9502 -12.0490 -7.3719 0.0000 17.4173 0.0000
# 6 0.0000 0.0000 0.0000 -0.6610 0.0000 15.0521
#
#
#
# Elastic Compliance Matrix: (Units=1/GPa)
#
#
# Indices 1 2 3 4 5 6 
#
# 1 0.010968 -0.002244 -0.001778 0.000000 0.000812 0.000000
# 2 -0.002244 0.012089 -0.004421 0.000000 0.005854 0.000000
# 3 -0.001778 -0.004421 0.026777 0.000000 0.007770 0.000000
# 4 0.000000 0.000000 0.000000 0.052716 0.000000 0.002315
# 5 0.000812 0.005854 0.007770 0.000000 0.064983 0.000000
# 6 0.000000 0.000000 0.000000 0.002315 0.000000 0.066538
#
#
# Mechanical properties :
#
#
# Convention : Reuss Voigt Hill
#
# Bulk Modulus (GPa) = 30.35106 40.23530 35.29318
# Shear Modulus (GPa) = 19.08838 22.60132 20.84485
#
# Velocity S-wave (km/s) = 3.15447 3.43249 3.29641
# Velocity P-wave (km/s) = 5.39347 6.05672 5.73469
#
# Compressibility (1/GPa) = 0.03294778
#
# Stress axis : x y z
#
# Youngs Moduli (GPa) = 91.17555 82.72100 37.34524
#
# Poissons Ratio (x) = 0.18561 0.06640
# Poissons Ratio (y) = 0.20459 0.16511
# Poissons Ratio (z) = 0.16212 0.36572
#
# Static dielectric constant tensor:
#      x y z
#    x 1.694160 0.000000 0.023290 
#    y 0.000000 1.727660 0.000000 
#    z 0.023290 0.000000 1.649970 
# 
# From -- ./inp_files/190238.got.cif
#   From: 2010.05.17/outbox.cif.g08.bks.cpg/sg12_96_cif.got.tgz:190238.got - 2010.06.03 13:09:07.
