data_PCOD9178160
_publ_section_title
;
Structure prediction by ZEFSAII (Michael W. Deem and Ramdas Pophale) SiO2 
 PCOD9178160
Probable space group: C 2/M
;
_chemical_formula_sum "Si O2"
_cell_formula_units_Z 48
_cell_length_a 24.156090
_cell_length_b 25.257805
_cell_length_c 9.201304
_cell_angle_alpha 90.000000
_cell_angle_beta 27.086366
_cell_angle_gamma 90.000000
_cell_volume 2556.235191
_symmetry_space_group_name_H-M "C 2/M"
_symmetry_group_IT_number 12
_symmetry_cell_setting 'monoclinic'
loop_
_space_group_symop_operation_xyz
x,y,z
-x,y,-z
-x,-y,-z
x,-y,z
1/2+x,1/2+y,z
1/2-x,1/2+y,-z
1/2-x,1/2-y,-z
1/2+x,1/2-y,z
loop_
_atom_site_type_symbol
_atom_site_label
_atom_site_fract_x
_atom_site_fract_y
_atom_site_fract_z
Si Si1 0.286034 0.847950 0.632391
Si Si2 0.112796 0.060329 0.039252
Si Si3 0.137120 0.642938 0.229931
Si Si4 0.110888 0.727749 0.827180
Si Si5 0.339668 0.439465 0.722554
Si Si6 0.115323 0.247989 0.138979
O O1 0.357797 0.864600 0.608574
O O2 0.368997 0.825470 0.311285
O O3 0.200984 0.894869 0.773678
O O4 0.201262 0.800299 0.893547
O O5 0.135847 0.061675 0.160195
O O6 0.970871 0.072720 0.346491
O O7 0.136386 0.000000 0.936140
O O8 0.169516 0.703029 0.104199
O O9 0.000000 0.633581 0.500000
O O10 0.235455 0.602646 0.934228
O O11 0.250000 0.750000 0.500000
O O12 0.074502 0.726590 0.080338
O O13 0.000000 0.756536 0.000000
O O14 0.306222 0.500000 0.763858
O O15 0.000000 0.228014 0.500000
#
# Coordination Sequence:
#
# PCOD9178160 Si02
#       6
#     8   8   8   8   8   8
#     4  10  20  34  56  78 108 145 180 224 275 321
#     4   8  15  30  52  79 102 131 182 233 271 315
#     4  10  19  30  46  76 109 142 182 221 268 321
#     4  10  21  39  55  76 112 148 186 224 271 324
#     4   8  15  28  48  74 106 138 177 228 273 315
#     4  10  21  34  53  79 111 144 184 222 265 326
#
# _framework density 18.777614
#
# number of rings (size 3 to 8) (size 9 to 14) (size 15 to 20)
#    0.000    2.667    0.000    3.500    4.667    1.667 
#    6.000    0.000    0.000    1.500    0.000    2.333 
#    0.000    0.000    0.000    0.000    0.000    0.000 
#
# Total GULP energy -133646.787862 kJ/mol
# GULP energy per Si atom -5568.616161 kJ/mol
# Density = 1.873488 g / cm^3
# Si number density = 18.777614 Si / 1000 Ang^3
#
#
#
# Elastic Constant Matrix: (Units=GPa)
#
#
# Indices 1 2 3 4 5 6 
#
# 1 60.0894 21.2514 32.2142 0.0000 -6.7534 -0.0001
# 2 21.2514 75.4304 46.0078 0.0001 -33.2796 0.0002
# 3 32.2142 46.0078 98.0143 -0.0003 -14.5160 0.0000
# 4 0.0000 0.0001 -0.0003 36.1387 0.0001 -10.5841
# 5 -6.7534 -33.2796 -14.5160 0.0001 37.9569 0.0001
# 6 -0.0001 0.0002 0.0000 -10.5841 0.0001 5.9135
#
#
#
# Elastic Compliance Matrix: (Units=1/GPa)
#
#
# Indices 1 2 3 4 5 6 
#
# 1 0.020510 -0.002792 -0.005568 0.000000 -0.000928 0.000001
# 2 -0.002792 0.029557 -0.009744 -0.000001 0.021692 -0.000003
# 3 -0.005568 -0.009744 0.016107 0.000001 -0.003374 0.000001
# 4 0.000000 -0.000001 0.000001 0.058156 -0.000001 0.104090
# 5 -0.000928 0.021692 -0.003374 -0.000001 0.043909 -0.000003
# 6 0.000001 -0.000003 0.000001 0.104090 -0.000003 0.355409
#
#
# Mechanical properties :
#
#
# Convention : Reuss Voigt Hill
#
# Bulk Modulus (GPa) = 33.37036 48.05345 40.71190
# Shear Modulus (GPa) = 8.77431 24.93921 16.85676
#
# Velocity S-wave (km/s) = 2.16400 3.64831 2.99942
# Velocity P-wave (km/s) = 4.90447 6.58736 5.80720
#
# Compressibility (1/GPa) = 0.02996671
#
# Stress axis : x y z
#
# Youngs Moduli (GPa) = 48.75690 33.83245 62.08571
#
# Poissons Ratio (x) = 0.09445 0.34569
# Poissons Ratio (y) = 0.13611 0.60497
# Poissons Ratio (z) = 0.27148 0.32967
#
# Static dielectric constant tensor:
#      x y z
#    x 1.698060 0.000000 -0.024780 
#    y 0.000000 1.668190 0.000000 
#    z -0.024780 0.000000 1.674280 
# 
# From -- ./inp_files/99754.got.cif
#   From: 2010.05.17/outbox.cif.g08.bks.cpg/sg12_50_cif.got.tgz:99754.got - 2010.06.03 13:09:07.
