data_PCOD9178706
_publ_section_title
;
Structure prediction by ZEFSAII (Michael W. Deem and Ramdas Pophale) SiO2 
 PCOD9178706
Probable space group: C 2/M
;
_chemical_formula_sum "Si O2"
_cell_formula_units_Z 64
_cell_length_a 20.559198
_cell_length_b 8.723019
_cell_length_c 21.263752
_cell_angle_alpha 90.000000
_cell_angle_beta 64.202975
_cell_angle_gamma 90.000000
_cell_volume 3433.365917
_symmetry_space_group_name_H-M "C 2/M"
_symmetry_group_IT_number 12
_symmetry_cell_setting 'monoclinic'
loop_
_space_group_symop_operation_xyz
x,y,z
-x,y,-z
-x,-y,-z
x,-y,z
1/2+x,1/2+y,z
1/2-x,1/2+y,-z
1/2-x,1/2-y,-z
1/2+x,1/2-y,z
loop_
_atom_site_type_symbol
_atom_site_label
_atom_site_fract_x
_atom_site_fract_y
_atom_site_fract_z
Si Si1 0.173726 0.682305 0.553558
Si Si2 0.266062 0.685056 0.089775
Si Si3 0.741713 0.186285 0.241431
Si Si4 0.357521 0.315917 0.295602
Si Si5 0.865973 0.817014 0.935462
Si Si6 0.964508 0.817520 0.448469
Si Si7 0.489996 0.181777 0.806139
Si Si8 0.076228 0.683716 0.302664
O O1 0.177425 0.500000 0.553854
O O2 0.250000 0.750000 0.500000
O O3 0.152394 0.744590 0.631386
O O4 0.111073 0.735093 0.532452
O O5 0.256253 0.500000 0.091834
O O6 0.270461 0.732545 0.160468
O O7 0.196471 0.759351 0.085869
O O8 0.335158 0.722514 0.017568
O O9 0.793057 0.235994 0.276424
O O10 0.658197 0.233858 0.281747
O O11 0.741697 0.000000 0.242132
O O12 0.355670 0.500000 0.301923
O O13 0.433676 0.264833 0.234243
O O14 0.940811 0.741176 0.883689
O O15 0.872271 0.000000 0.928252
O O16 0.000000 0.775479 0.500000
O O17 0.019533 0.767935 0.370763
O O18 0.953291 0.000000 0.451503
O O19 0.444768 0.211046 0.760971
O O20 0.501437 0.000000 0.806051
O O21 0.070867 0.500000 0.315500
#
# Coordination Sequence:
#
# PCOD9178706 Si02
#       8
#     8   8   8   8   8   8   8   8
#     4  12  26  45  66  89 121 162 201 241 296 359
#     4   9  17  34  55  81 118 154 193 241 294 355
#     4   9  19  37  60  86 115 153 197 241 292 350
#     4  11  23  40  63  89 118 153 197 247 294 352
#     4  10  19  30  54  87 116 151 195 245 296 346
#     4  11  25  43  63  93 126 155 194 249 299 344
#     4  11  21  37  60  84 116 158 197 242 293 351
#     4  10  20  37  62  87 114 155 201 242 292 350
#
# _framework density 18.640601
#
# number of rings (size 3 to 8) (size 9 to 14) (size 15 to 20)
#    0.000    1.625    2.500    2.625    1.750    2.000 
#    0.000    2.500    0.000    3.750    0.000    0.000 
#    0.000    0.000    0.000    0.000    0.000    0.000 
#
# Total GULP energy -178780.669219 kJ/mol
# GULP energy per Si atom -5586.895913 kJ/mol
# Density = 1.859817 g / cm^3
# Si number density = 18.640601 Si / 1000 Ang^3
#
#
#
# Elastic Constant Matrix: (Units=GPa)
#
#
# Indices 1 2 3 4 5 6 
#
# 1 124.7326 46.1611 38.6117 0.0000 -14.8461 0.0000
# 2 46.1611 57.8855 34.8014 0.0000 -4.9716 0.0001
# 3 38.6117 34.8014 82.7005 0.0000 -21.1460 0.0000
# 4 0.0000 0.0000 0.0000 28.7149 0.0000 -6.2489
# 5 -14.8461 -4.9716 -21.1460 0.0000 30.5793 0.0000
# 6 0.0000 0.0001 0.0000 -6.2489 0.0000 25.3055
#
#
#
# Elastic Compliance Matrix: (Units=1/GPa)
#
#
# Indices 1 2 3 4 5 6 
#
# 1 0.011957 -0.008608 -0.001013 0.000000 0.003705 0.000000
# 2 -0.008608 0.029656 -0.010078 0.000000 -0.006327 0.000000
# 3 -0.001013 -0.010078 0.019754 0.000000 0.011530 0.000000
# 4 0.000000 0.000000 0.000000 0.036803 0.000000 0.009088
# 5 0.003705 -0.006327 0.011530 0.000000 0.041445 0.000000
# 6 0.000000 0.000000 0.000000 0.009088 0.000000 0.041761
#
#
# Mechanical properties :
#
#
# Convention : Reuss Voigt Hill
#
# Bulk Modulus (GPa) = 45.51998 56.05187 50.78593
# Shear Modulus (GPa) = 21.92034 26.63622 24.27828
#
# Velocity S-wave (km/s) = 3.43293 3.78423 3.61285
# Velocity P-wave (km/s) = 6.33925 7.01633 6.68637
#
# Compressibility (1/GPa) = 0.02196837
#
# Stress axis : x y z
#
# Youngs Moduli (GPa) = 83.62952 33.71992 50.62296
#
# Poissons Ratio (x) = 0.29027 0.05127
# Poissons Ratio (y) = 0.71992 0.51019
# Poissons Ratio (z) = 0.08470 0.33984
#
# Static dielectric constant tensor:
#      x y z
#    x 1.627570 0.000000 0.004330 
#    y 0.000000 1.628430 0.000000 
#    z 0.004330 0.000000 1.636970 
# 
# From -- ./inp_files/319895.got.cif
#   From: 2010.05.17/outbox.cif.g08.bks.cpg/sg12_160_cif.got.tgz:319895.got - 2010.06.03 13:09:07.
