data_PCOD9178552
_publ_section_title
;
Structure prediction by ZEFSAII (Michael W. Deem and Ramdas Pophale) SiO2 
 PCOD9178552
Probable space group: C 2/M
;
_chemical_formula_sum "Si O2"
_cell_formula_units_Z 48
_cell_length_a 30.929201
_cell_length_b 7.527427
_cell_length_c 20.059716
_cell_angle_alpha 90.000000
_cell_angle_beta 31.132703
_cell_angle_gamma 90.000000
_cell_volume 2414.621373
_symmetry_space_group_name_H-M "C 2/M"
_symmetry_group_IT_number 12
_symmetry_cell_setting 'monoclinic'
loop_
_space_group_symop_operation_xyz
x,y,z
-x,y,-z
-x,-y,-z
x,-y,z
1/2+x,1/2+y,z
1/2-x,1/2+y,-z
1/2-x,1/2-y,-z
1/2+x,1/2-y,z
loop_
_atom_site_type_symbol
_atom_site_label
_atom_site_fract_x
_atom_site_fract_y
_atom_site_fract_z
Si Si1 0.895130 0.786956 0.945346
Si Si2 0.274574 0.212490 0.891406
Si Si3 0.541262 0.205553 0.650988
Si Si4 0.347483 0.786452 0.378428
Si Si5 0.985450 0.288461 0.093302
Si Si6 0.537120 0.218148 0.380101
O O1 0.934962 0.740188 0.963803
O O2 0.957420 0.712527 0.806682
O O3 0.896867 0.000000 0.936335
O O4 0.801346 0.722793 0.054823
O O5 0.367323 0.279762 0.754180
O O6 0.278023 0.000000 0.878572
O O7 0.250000 0.250000 0.000000
O O8 0.612571 0.283362 0.605085
O O9 0.517896 0.281798 0.610032
O O10 0.563918 0.000000 0.609393
O O11 0.250000 0.750000 0.500000
O O12 0.405348 0.719627 0.240941
O O13 0.358380 0.000000 0.365331
O O14 0.972915 0.500000 0.103084
O O15 0.000000 0.215751 0.000000
O O16 0.500000 0.269837 0.500000
O O17 0.537743 0.000000 0.376567
#
# Coordination Sequence:
#
# PCOD9178552 Si02
#       6
#     8   8   8   8   8   8
#     4  10  19  30  49  80 106 127 162 210 259 296
#     4  10  19  31  51  77 101 130 169 208 246 296
#     4   9  17  32  53  73  95 134 176 203 240 300
#     4   9  18  32  51  75  97 126 167 205 244 293
#     4   9  19  37  57  74  98 134 173 205 243 303
#     4   9  17  31  51  73  99 132 169 206 243 289
#
# _framework density 19.878893000000001
#
# number of rings (size 3 to 8) (size 9 to 14) (size 15 to 20)
#    0.000    2.667    1.667    1.500    0.000    3.667 
#    3.000    0.000    0.000    2.000    0.000    0.000 
#    0.000    0.000    0.000    0.000    0.000    0.000 
#
# Total GULP energy -133852.827579 kJ/mol
# GULP energy per Si atom -5577.201149 kJ/mol
# Density = 1.983365 g / cm^3
# Si number density = 19.878893 Si / 1000 Ang^3
#
#
#
# Elastic Constant Matrix: (Units=GPa)
#
#
# Indices 1 2 3 4 5 6 
#
# 1 216.1760 -3.5218 123.3989 -0.0026 3.5876 -0.0011
# 2 -3.5218 46.7065 -0.7738 -0.0191 1.7310 -0.0035
# 3 123.3989 -0.7738 147.0639 -0.0097 -13.9950 0.0033
# 4 -0.0026 -0.0191 -0.0097 9.6011 0.0051 -4.7612
# 5 3.5876 1.7310 -13.9950 0.0051 32.4727 0.0016
# 6 -0.0011 -0.0035 0.0033 -4.7612 0.0016 8.6819
#
#
#
# Elastic Compliance Matrix: (Units=1/GPa)
#
#
# Indices 1 2 3 4 5 6 
#
# 1 0.009542 0.000755 -0.008454 0.000001 -0.004738 0.000006
# 2 0.000755 0.021512 -0.000665 0.000066 -0.001517 0.000045
# 3 -0.008454 -0.000665 0.014580 0.000004 0.007253 -0.000006
# 4 0.000001 0.000066 0.000004 0.143062 -0.000028 0.078457
# 5 -0.004738 -0.001517 0.007253 -0.000028 0.034525 -0.000026
# 6 0.000006 0.000045 -0.000006 0.078457 -0.000026 0.158209
#
#
# Mechanical properties :
#
#
# Convention : Reuss Voigt Hill
#
# Bulk Modulus (GPa) = 34.59253 72.01700 53.30477
# Shear Modulus (GPa) = 12.26109 29.54067 20.90088
#
# Velocity S-wave (km/s) = 2.48622 3.85909 3.24606
# Velocity P-wave (km/s) = 5.06766 7.49422 6.39705
#
# Compressibility (1/GPa) = 0.02890797
#
# Stress axis : x y z
#
# Youngs Moduli (GPa) = 104.79490 46.48466 68.58739
#
# Poissons Ratio (x) = -0.03510 0.57982
# Poissons Ratio (y) = -0.07913 0.04559
# Poissons Ratio (z) = 0.88592 0.03090
#
# Static dielectric constant tensor:
#      x y z
#    x 1.705480 -0.000030 -0.013330 
#    y -0.000030 -10.814670 0.000170 
#    z -0.013330 0.000170 1.668430 
# 
# From -- ./inp_files/319371.got.cif
#   From: 2010.05.17/outbox.cif.g08.bks.cpg/sg12_160_cif.got.tgz:319371.got - 2010.06.03 13:09:07.
