data_PCOD9178416
_publ_section_title
;
Structure prediction by ZEFSAII (Michael W. Deem and Ramdas Pophale) SiO2 
 PCOD9178416
Probable space group: C 2/M
;
_chemical_formula_sum "Si O2"
_cell_formula_units_Z 40
_cell_length_a 8.638605
_cell_length_b 19.863855
_cell_length_c 10.954917
_cell_angle_alpha 90.000000
_cell_angle_beta 87.121130
_cell_angle_gamma 90.000000
_cell_volume 1877.447474
_symmetry_space_group_name_H-M "C 2/M"
_symmetry_group_IT_number 12
_symmetry_cell_setting 'monoclinic'
loop_
_space_group_symop_operation_xyz
x,y,z
-x,y,-z
-x,-y,-z
x,-y,z
1/2+x,1/2+y,z
1/2-x,1/2+y,-z
1/2-x,1/2-y,-z
1/2+x,1/2-y,z
loop_
_atom_site_type_symbol
_atom_site_label
_atom_site_fract_x
_atom_site_fract_y
_atom_site_fract_z
Si Si1 0.098443 0.297547 0.878089
Si Si2 0.416121 0.800539 0.635796
Si Si3 0.045065 0.152825 0.120424
Si Si4 0.106369 0.145567 0.376015
Si Si5 0.182122 0.426800 0.466749
O O1 0.275338 0.321027 0.888364
O O2 0.020208 0.315338 0.750643
O O3 0.073025 0.216626 0.878320
O O4 0.000000 0.321645 0.000000
O O5 0.500000 0.797835 0.500000
O O6 0.349412 0.724640 0.647297
O O7 0.300457 0.863093 0.624368
O O8 0.031803 0.120814 0.253759
O O9 0.000000 0.113335 0.000000
O O10 0.243532 0.096986 0.409640
O O11 0.000000 0.144217 0.500000
O O12 0.241784 0.500000 0.425510
O O13 0.000000 0.432981 0.500000
#
# Coordination Sequence:
#
# PCOD9178416 Si02
#       5
#     8   8   8   8   8
#     4  10  19  30  48  74 108 141 173 213 261 316
#     4   9  18  33  53  79 107 136 174 215 260 306
#     4  10  19  32  48  74 108 140 174 214 263 313
#     4  10  21  35  55  80 107 139 176 220 261 310
#     4  10  20  34  53  78 108 139 173 217 267 314
#
# _framework density 21.305520999999999
#
# number of rings (size 3 to 8) (size 9 to 14) (size 15 to 20)
#    0.000    2.200    0.000    5.400    0.000   10.000 
#    0.000    0.000    0.000    1.200    0.000    5.600 
#    0.000    0.000    0.000    0.000    0.000    0.000 
#
# Total GULP energy -111405.314711 kJ/mol
# GULP energy per Si atom -5570.265736 kJ/mol
# Density = 2.125703 g / cm^3
# Si number density = 21.305521 Si / 1000 Ang^3
#
#
#
# Elastic Constant Matrix: (Units=GPa)
#
#
# Indices 1 2 3 4 5 6 
#
# 1 95.2190 8.4857 58.8580 0.0000 10.2289 0.0000
# 2 8.4857 58.5115 24.8200 0.0000 9.8183 0.0000
# 3 58.8580 24.8200 218.3049 0.0000 31.4787 0.0000
# 4 0.0000 0.0000 0.0000 -5.6877 0.0000 -9.6437
# 5 10.2289 9.8183 31.4787 0.0000 41.7903 0.0000
# 6 0.0000 0.0000 0.0000 -9.6437 0.0000 -11.9971
#
#
#
# Elastic Compliance Matrix: (Units=1/GPa)
#
#
# Indices 1 2 3 4 5 6 
#
# 1 0.012622 -0.000347 -0.003287 0.000000 -0.000532 0.000000
# 2 -0.000347 0.018310 -0.001548 0.000000 -0.003051 0.000000
# 3 -0.003287 -0.001548 0.006142 0.000000 -0.003458 0.000000
# 4 0.000000 0.000000 0.000000 0.484440 0.000000 -0.389411
# 5 -0.000532 -0.003051 -0.003458 0.000000 0.027381 0.000000
# 6 0.000000 0.000000 0.000000 -0.389411 0.000000 0.229669
#
#
# Mechanical properties :
#
#
# Convention : Reuss Voigt Hill
#
# Bulk Modulus (GPa) = 37.44072 61.81808 49.62940
# Shear Modulus (GPa) = 6.26699 23.47921 14.87310
#
# Velocity S-wave (km/s) = 1.71694 3.32328 2.64500
# Velocity P-wave (km/s) = 4.64132 6.61843 5.71601
#
# Compressibility (1/GPa) = 0.02670889
#
# Stress axis : x y z
#
# Youngs Moduli (GPa) = 79.22737 54.61609 162.82458
#
# Poissons Ratio (x) = 0.01895 0.53518
# Poissons Ratio (y) = 0.02749 0.25210
# Poissons Ratio (z) = 0.26041 0.08456
#
# Static dielectric constant tensor:
#      x y z
#    x 1.880000 0.000000 -0.019010 
#    y 0.000000 1.788350 0.000000 
#    z -0.019010 0.000000 1.861620 
# 
# From -- ./inp_files/119067.got.cif
#   From: 2010.05.17/outbox.cif.g08.bks.cpg/sg12_60_cif.got.tgz:119067.got - 2010.06.03 13:09:07.
