data_PCOD9178180
_publ_section_title
;
Structure prediction by ZEFSAII (Michael W. Deem and Ramdas Pophale) SiO2 
 PCOD9178180
Probable space group: C 2/M
;
_chemical_formula_sum "Si O2"
_cell_formula_units_Z 64
_cell_length_a 25.778749
_cell_length_b 8.411051
_cell_length_c 15.710564
_cell_angle_alpha 90.000000
_cell_angle_beta 109.123642
_cell_angle_gamma 90.000000
_cell_volume 3218.474805
_symmetry_space_group_name_H-M "C 2/M"
_symmetry_group_IT_number 12
_symmetry_cell_setting 'monoclinic'
loop_
_space_group_symop_operation_xyz
x,y,z
-x,y,-z
-x,-y,-z
x,-y,z
1/2+x,1/2+y,z
1/2-x,1/2+y,-z
1/2-x,1/2-y,-z
1/2+x,1/2-y,z
loop_
_atom_site_type_symbol
_atom_site_label
_atom_site_fract_x
_atom_site_fract_y
_atom_site_fract_z
Si Si1 0.727779 0.183268 0.750002
Si Si2 0.723922 0.680383 0.569770
Si Si3 0.346156 0.310406 0.813662
Si Si4 0.417183 0.811178 0.703326
Si Si5 0.062096 0.308073 0.007507
Si Si6 0.103688 0.307317 0.679061
Si Si7 0.537721 0.193794 0.809502
Si Si8 0.592566 0.321034 0.488597
O O1 0.734765 0.199874 0.652343
O O2 0.786138 0.253972 0.810819
O O3 0.666457 0.252138 0.729788
O O4 0.724881 0.000000 0.776581
O O5 0.743409 0.500000 0.599017
O O6 0.750000 0.750000 0.500000
O O7 0.658713 0.672779 0.522906
O O8 0.341467 0.500000 0.809066
O O9 0.366795 0.257452 0.730938
O O10 0.392700 0.260240 0.905247
O O11 0.474315 0.754817 0.776148
O O12 0.421624 0.769297 0.605941
O O13 0.413681 0.000000 0.709538
O O14 0.065342 0.500000 0.014776
O O15 0.068257 0.258500 0.912278
O O16 0.000000 0.263720 0.000000
O O17 0.105731 0.500000 0.677642
O O18 0.066536 0.255229 0.737957
O O19 0.080746 0.252780 0.575042
O O20 0.537112 0.000000 0.808473
O O21 0.570404 0.500000 0.472519
#
# Coordination Sequence:
#
# PCOD9178180 Si02
#       8
#     8   8   8   8   8   8   8   8
#     4   9  19  34  52  74 104 139 176 217 261 313
#     4  10  19  30  47  70 101 138 179 221 263 311
#     4  11  22  35  53  83 116 141 171 219 275 327
#     4  11  21  35  55  81 109 142 184 226 267 317
#     4  10  19  37  60  82 109 139 176 221 267 319
#     4   9  18  37  60  77 100 144 190 222 259 310
#     4   9  19  36  59  82 103 134 183 232 265 307
#     4  10  21  35  49  75 112 145 177 221 270 317
#
# _framework density 19.885193999999998
#
# number of rings (size 3 to 8) (size 9 to 14) (size 15 to 20)
#    0.000    2.125    1.250    2.250    0.000    6.250 
#    0.000    5.000    0.000    0.000    0.000    0.000 
#    0.000    0.000    0.000    0.000    0.000    0.000 
#
# Total GULP energy -178413.213709 kJ/mol
# GULP energy per Si atom -5575.412928 kJ/mol
# Density = 1.983993 g / cm^3
# Si number density = 19.885194 Si / 1000 Ang^3
#
#
#
# Elastic Constant Matrix: (Units=GPa)
#
#
# Indices 1 2 3 4 5 6 
#
# 1 44.2239 4.7342 8.5918 0.0000 -0.7618 0.0000
# 2 4.7342 25.7653 3.0214 0.0000 -2.5027 0.0000
# 3 8.5918 3.0214 77.3769 0.0000 -2.7705 0.0000
# 4 0.0000 0.0000 0.0000 19.5848 0.0000 0.0628
# 5 -0.7618 -2.5027 -2.7705 0.0000 34.8918 0.0000
# 6 0.0000 0.0000 0.0000 0.0628 0.0000 14.4457
#
#
#
# Elastic Compliance Matrix: (Units=1/GPa)
#
#
# Indices 1 2 3 4 5 6 
#
# 1 0.023521 -0.004031 -0.002453 0.000000 0.000030 0.000000
# 2 -0.004031 0.039934 -0.001015 0.000000 0.002696 0.000000
# 3 -0.002453 -0.001015 0.013269 0.000000 0.000927 0.000000
# 4 0.000000 0.000000 0.000000 0.051061 0.000000 -0.000222
# 5 0.000030 0.002696 0.000927 0.000000 0.028928 0.000000
# 6 0.000000 0.000000 0.000000 -0.000222 0.000000 0.069226
#
#
# Mechanical properties :
#
#
# Convention : Reuss Voigt Hill
#
# Bulk Modulus (GPa) = 16.20111 20.00674 18.10393
# Shear Modulus (GPa) = 19.11961 22.51903 20.81932
#
# Velocity S-wave (km/s) = 3.10417 3.36884 3.23921
# Velocity P-wave (km/s) = 4.58398 5.02146 4.80770
#
# Compressibility (1/GPa) = 0.06172415
#
# Stress axis : x y z
#
# Youngs Moduli (GPa) = 42.51540 25.04162 75.36368
#
# Poissons Ratio (x) = 0.10095 0.18489
# Poissons Ratio (y) = 0.17139 0.07651
# Poissons Ratio (z) = 0.10430 0.02542
#
# Static dielectric constant tensor:
#      x y z
#    x 1.757990 0.000000 -0.030500 
#    y 0.000000 1.718140 0.000000 
#    z -0.030500 0.000000 1.828390 
# 
# From -- ./inp_files/244267.got.cif
#   From: 2010.05.17/outbox.cif.g08.bks.cpg/sg12_123_cif.got.tgz:244267.got - 2010.06.03 13:09:07.
