data_PCOD9178862
_publ_section_title
;
Structure prediction by ZEFSAII (Michael W. Deem and Ramdas Pophale) SiO2 
 PCOD9178862
Probable space group: C 2/M
;
_chemical_formula_sum "Si O2"
_cell_formula_units_Z 56
_cell_length_a 19.879977
_cell_length_b 7.336430
_cell_length_c 24.900197
_cell_angle_alpha 90.000000
_cell_angle_beta 136.281339
_cell_angle_gamma 90.000000
_cell_volume 2509.894943
_symmetry_space_group_name_H-M "C 2/M"
_symmetry_group_IT_number 12
_symmetry_cell_setting 'monoclinic'
loop_
_space_group_symop_operation_xyz
x,y,z
-x,y,-z
-x,-y,-z
x,-y,z
1/2+x,1/2+y,z
1/2-x,1/2+y,-z
1/2-x,1/2-y,-z
1/2+x,1/2-y,z
loop_
_atom_site_type_symbol
_atom_site_label
_atom_site_fract_x
_atom_site_fract_y
_atom_site_fract_z
Si Si1 0.982810 0.219959 0.235239
Si Si2 0.702216 0.276275 0.688225
Si Si3 0.397542 0.289999 0.473562
Si Si4 0.771831 0.217220 0.075294
Si Si5 0.934684 0.722440 0.012531
Si Si6 0.416190 0.787266 0.814529
Si Si7 0.992715 0.222976 0.362438
O O1 0.876260 0.287401 0.154676
O O2 0.005458 0.281012 0.308633
O O3 0.059809 0.272061 0.234276
O O4 0.980121 0.000000 0.234726
O O5 0.701712 0.500000 0.686978
O O6 0.677166 0.213289 0.613076
O O7 0.809462 0.213601 0.766117
O O8 0.613679 0.223727 0.676107
O O9 0.500000 0.290647 0.500000
O O10 0.368567 0.500000 0.465681
O O11 0.426070 0.212839 0.547986
O O12 0.776116 0.000000 0.085616
O O13 0.750000 0.250000 0.000000
O O14 0.676521 0.285825 0.051535
O O15 0.929864 0.500000 0.009911
O O16 0.992786 0.785350 0.099035
O O17 0.000000 0.776616 0.000000
O O18 0.411526 0.000000 0.826137
O O19 0.994463 0.000000 0.364985
#
# Coordination Sequence:
#
# PCOD9178862 Si02
#       7
#     8   8   8   8   8   8   8
#     4  10  20  31  46  67  93 122 150 181 217 267
#     4   8  14  24  43  68  89 114 150 190 226 259
#     4   7  10  20  38  62  91 115 140 182 229 263
#     4  10  19  32  49  67  89 119 151 181 218 265
#     4   9  18  30  46  68  90 112 144 188 229 260
#     4  10  19  31  47  67  93 120 147 185 228 266
#     4   8  14  25  43  67  91 116 149 187 224 261
#
# _framework density 22.311692000000001
#
# number of rings (size 3 to 8) (size 9 to 14) (size 15 to 20)
#    0.000    3.143    1.429    1.714    2.000    0.000 
#    0.000    0.714    0.000    2.571    0.000    0.000 
#    0.000    3.429    0.000    0.000    0.000    0.000 
#
# Total GULP energy -156199.012047 kJ/mol
# GULP energy per Si atom -5578.536145 kJ/mol
# Density = 2.226091 g / cm^3
# Si number density = 22.311692 Si / 1000 Ang^3
#
#
#
# Elastic Constant Matrix: (Units=GPa)
#
#
# Indices 1 2 3 4 5 6 
#
# 1 56.3915 -12.7134 -14.9121 0.0001 -8.2335 0.0001
# 2 -12.7134 84.5827 -4.2099 0.0001 6.7082 0.0000
# 3 -14.9121 -4.2099 25.3656 0.0001 -15.1653 0.0000
# 4 0.0001 0.0001 0.0001 -24.0318 0.0000 -11.0600
# 5 -8.2335 6.7082 -15.1653 0.0000 36.9846 0.0000
# 6 0.0001 0.0000 0.0000 -11.0600 0.0000 3.7938
#
#
#
# Elastic Compliance Matrix: (Units=1/GPa)
#
#
# Indices 1 2 3 4 5 6 
#
# 1 0.028425 0.004307 0.027478 0.000000 0.016814 0.000000
# 2 0.004307 0.012664 0.005079 0.000000 0.000744 0.000000
# 3 0.027478 0.005079 0.078860 0.000000 0.037532 0.000000
# 4 0.000000 0.000000 0.000000 -0.017770 0.000000 -0.051804
# 5 0.016814 0.000744 0.037532 0.000000 0.046036 0.000000
# 6 0.000000 0.000000 0.000000 -0.051804 0.000000 0.112563
#
#
# Mechanical properties :
#
#
# Convention : Reuss Voigt Hill
#
# Bulk Modulus (GPa) = 5.16325 11.40766 8.28546
# Shear Modulus (GPa) = 19.87205 16.56100 18.21652
#
# Velocity S-wave (km/s) = 2.98762 2.72739 2.86047
# Velocity P-wave (km/s) = 3.77099 3.87843 3.82509
#
# Compressibility (1/GPa) = 0.19367630
#
# Stress axis : x y z
#
# Youngs Moduli (GPa) = 35.17973 78.96507 12.68077
#
# Poissons Ratio (x) = -0.34008 -0.34845
# Poissons Ratio (y) = -0.15151 -0.06440
# Poissons Ratio (z) = -0.96668 -0.40103
#
# Static dielectric constant tensor:
#      x y z
#    x 1.774750 0.000000 -0.008740 
#    y 0.000000 1.902540 0.000000 
#    z -0.008740 0.000000 1.832210 
# 
# From -- ./inp_files/276098.got.cif
#   From: 2010.05.17/outbox.cif.g08.bks.cpg/sg12_139_cif.got.tgz:276098.got - 2010.06.03 13:09:07.
