data_PCOD9178509
_publ_section_title
;
Structure prediction by ZEFSAII (Michael W. Deem and Ramdas Pophale) SiO2 
 PCOD9178509
Probable space group: C 2/M
;
_chemical_formula_sum "Si O2"
_cell_formula_units_Z 64
_cell_length_a 25.833624
_cell_length_b 8.434471
_cell_length_c 17.316446
_cell_angle_alpha 90.000000
_cell_angle_beta 103.323066
_cell_angle_gamma 90.000000
_cell_volume 3671.582166
_symmetry_space_group_name_H-M "C 2/M"
_symmetry_group_IT_number 12
_symmetry_cell_setting 'monoclinic'
loop_
_space_group_symop_operation_xyz
x,y,z
-x,y,-z
-x,-y,-z
x,-y,z
1/2+x,1/2+y,z
1/2-x,1/2+y,-z
1/2-x,1/2-y,-z
1/2+x,1/2-y,z
loop_
_atom_site_type_symbol
_atom_site_label
_atom_site_fract_x
_atom_site_fract_y
_atom_site_fract_z
Si Si1 0.064224 0.818293 0.013327
Si Si2 0.431964 0.692430 0.815435
Si Si3 0.051993 0.311740 0.844828
Si Si4 0.839170 0.312231 0.510109
Si Si5 0.439853 0.689504 0.457982
Si Si6 0.781953 0.306727 0.334215
Si Si7 0.112715 0.307635 0.714061
Si Si8 0.833606 0.190286 0.680330
O O1 0.082768 0.752962 0.102445
O O2 0.082293 0.000000 0.011759
O O3 0.074727 0.730647 0.937048
O O4 0.000000 0.820191 0.000000
O O5 0.432304 0.500000 0.817676
O O6 0.492150 0.743531 0.817262
O O7 0.387403 0.748681 0.739907
O O8 0.047402 0.500000 0.837518
O O9 0.090007 0.255179 0.788655
O O10 0.832007 0.500000 0.516160
O O11 0.898239 0.274167 0.500091
O O12 0.801272 0.256690 0.426707
O O13 0.830859 0.232283 0.589365
O O14 0.500000 0.729905 0.500000
O O15 0.433045 0.500000 0.462511
O O16 0.424988 0.743422 0.366751
O O17 0.782150 0.500000 0.334538
O O18 0.827490 0.257040 0.289411
O O19 0.721674 0.253118 0.300463
O O20 0.111791 0.500000 0.711260
O O21 0.834777 0.000000 0.687438
#
# Coordination Sequence:
#
# PCOD9178509 Si02
#       8
#     8   8   8   8   8   8   8   8
#     4   8  15  30  48  67  95 128 157 190 234 283
#     4   9  19  32  47  71 100 126 155 194 241 287
#     4  10  19  30  49  75  99 125 157 192 234 290
#     4  10  20  33  49  70  97 128 161 199 245 289
#     4  10  21  34  48  68  95 128 164 200 235 278
#     4   8  16  33  52  68  91 126 166 203 238 278
#     4   9  19  34  50  71  96 125 161 197 238 288
#     4  10  19  32  52  73  94 124 164 207 241 278
#
# _framework density 17.431179
#
# number of rings (size 3 to 8) (size 9 to 14) (size 15 to 20)
#    0.000    2.750    0.000    3.000    1.750    4.750 
#    0.000    2.500    0.000    0.750    0.000    0.000 
#    0.000    0.000    0.000    0.000    0.000    1.250 
#
# Total GULP energy -178307.970224 kJ/mol
# GULP energy per Si atom -5572.124070 kJ/mol
# Density = 1.739150 g / cm^3
# Si number density = 17.431179 Si / 1000 Ang^3
#
#
#
# Elastic Constant Matrix: (Units=GPa)
#
#
# Indices 1 2 3 4 5 6 
#
# 1 68.3519 8.8739 60.6118 0.0000 -4.3949 0.0000
# 2 8.8739 7.6964 11.5376 0.0000 1.0914 0.0000
# 3 60.6118 11.5376 101.8831 0.0000 -24.7713 0.0000
# 4 0.0000 0.0000 0.0000 24.7284 0.0000 -3.2202
# 5 -4.3949 1.0914 -24.7713 0.0000 18.0582 0.0000
# 6 0.0000 0.0000 0.0000 -3.2202 0.0000 12.9559
#
#
#
# Elastic Compliance Matrix: (Units=1/GPa)
#
#
# Indices 1 2 3 4 5 6 
#
# 1 0.043370 0.011317 -0.037035 0.000000 -0.040931 0.000000
# 2 0.011317 0.197949 -0.047095 0.000000 -0.073812 0.000000
# 3 -0.037035 -0.047095 0.053537 0.000000 0.067272 0.000000
# 4 0.000000 0.000000 0.000000 0.041792 0.000000 0.010387
# 5 -0.040931 -0.073812 0.067272 0.000000 0.142156 0.000000
# 6 0.000000 0.000000 0.000000 0.010387 0.000000 0.079767
#
#
# Mechanical properties :
#
#
# Convention : Reuss Voigt Hill
#
# Bulk Modulus (GPa) = 6.70104 37.77531 22.23817
# Shear Modulus (GPa) = 6.63181 17.60903 12.12042
#
# Velocity S-wave (km/s) = 1.95265 3.18182 2.63977
# Velocity P-wave (km/s) = 2.98938 5.93437 4.69857
#
# Compressibility (1/GPa) = 0.14923066
#
# Stress axis : x y z
#
# Youngs Moduli (GPa) = 23.05723 5.05180 18.67854
#
# Poissons Ratio (x) = -0.05717 0.69176
# Poissons Ratio (y) = -0.26094 0.87967
# Poissons Ratio (z) = 0.85393 0.23792
#
# Static dielectric constant tensor:
#      x y z
#    x 1.596210 0.000000 -0.001710 
#    y 0.000000 1.603140 0.000000 
#    z -0.001710 0.000000 1.599830 
# 
# From -- ./inp_files/287657.got.cif
#   From: 2010.05.17/outbox.cif.g08.bks.cpg/sg12_144_cif.got.tgz:287657.got - 2010.06.03 13:09:07.
