data_PCOD9178162
_publ_section_title
;
Structure prediction by ZEFSAII (Michael W. Deem and Ramdas Pophale) SiO2 
 PCOD9178162
Probable space group: C 2/M
;
_chemical_formula_sum "Si O2"
_cell_formula_units_Z 56
_cell_length_a 21.949950
_cell_length_b 13.644639
_cell_length_c 16.032282
_cell_angle_alpha 90.000000
_cell_angle_beta 143.476359
_cell_angle_gamma 90.000000
_cell_volume 2857.726028
_symmetry_space_group_name_H-M "C 2/M"
_symmetry_group_IT_number 12
_symmetry_cell_setting 'monoclinic'
loop_
_space_group_symop_operation_xyz
x,y,z
-x,y,-z
-x,-y,-z
x,-y,z
1/2+x,1/2+y,z
1/2-x,1/2+y,-z
1/2-x,1/2-y,-z
1/2+x,1/2-y,z
loop_
_atom_site_type_symbol
_atom_site_label
_atom_site_fract_x
_atom_site_fract_y
_atom_site_fract_z
Si Si1 0.572604 0.394214 0.158136
Si Si2 0.272663 0.763364 0.734751
Si Si3 0.765369 0.610146 0.569222
Si Si4 0.473823 0.393320 0.717472
Si Si5 0.073508 0.616124 0.998071
Si Si6 0.961696 0.322061 0.701666
Si Si7 0.409764 0.109439 0.467195
O O1 0.626065 0.500000 0.221034
O O2 0.650054 0.306901 0.230635
O O3 0.497474 0.387472 0.154159
O O4 0.500000 0.392731 0.000000
O O5 0.253959 0.852224 0.650626
O O6 0.331084 0.811853 0.877405
O O7 0.173125 0.695865 0.637553
O O8 0.809596 0.500000 0.616827
O O9 0.649743 0.605302 0.410706
O O10 0.842752 0.675485 0.600834
O O11 0.505101 0.500000 0.716204
O O12 0.498341 0.285887 0.711329
O O13 0.099353 0.500000 0.024098
O O14 0.000000 0.628917 0.000000
O O15 0.020933 0.643857 0.851140
O O16 0.957903 0.384379 0.613164
O O17 0.500000 0.120286 0.500000
O O18 0.364103 0.000000 0.406944
#
# Coordination Sequence:
#
# PCOD9178162 Si02
#       7
#     8   8   8   8   8   8   8
#     4  10  19  30  46  77 119 156 185 223 290 373
#     4  12  20  36  58  85 122 157 192 248 303 358
#     4  11  20  30  53  88 121 152 188 236 302 374
#     4  10  19  30  48  80 117 151 192 238 292 362
#     4  11  22  35  57  95 136 164 191 234 305 390
#     4  12  20  38  60  88 126 165 194 246 311 362
#     4  11  26  45  64  86 113 160 224 267 295 344
#
# _framework density 19.596001000000001
#
# number of rings (size 3 to 8) (size 9 to 14) (size 15 to 20)
#    0.000    1.000    4.286    4.714    0.000    1.143 
#    0.000    1.429    0.000    3.857    0.000    0.000 
#    0.000    0.000    0.000    0.000    0.000    0.000 
#
# Total GULP energy -156021.611421 kJ/mol
# GULP energy per Si atom -5572.200408 kJ/mol
# Density = 1.955140 g / cm^3
# Si number density = 19.596001 Si / 1000 Ang^3
#
#
#
# Elastic Constant Matrix: (Units=GPa)
#
#
# Indices 1 2 3 4 5 6 
#
# 1 54.8601 14.2894 26.3709 0.0000 -10.7903 0.0000
# 2 14.2894 140.0887 22.1905 0.0000 2.7563 0.0000
# 3 26.3709 22.1905 89.5740 0.0000 -22.6746 0.0000
# 4 0.0000 0.0000 0.0000 26.5754 0.0000 -2.6711
# 5 -10.7903 2.7563 -22.6746 0.0000 13.0090 0.0000
# 6 0.0000 0.0000 0.0000 -2.6711 0.0000 15.2834
#
#
#
# Elastic Compliance Matrix: (Units=1/GPa)
#
#
# Indices 1 2 3 4 5 6 
#
# 1 0.022979 -0.002298 -0.002233 0.000000 0.015655 0.000000
# 2 -0.002298 0.008233 -0.004093 0.000000 -0.010785 0.000000
# 3 -0.002233 -0.004093 0.022524 0.000000 0.038275 0.000000
# 4 0.000000 0.000000 0.000000 0.038302 0.000000 0.006694
# 5 0.015655 -0.010785 0.038275 0.000000 0.158853 0.000000
# 6 0.000000 0.000000 0.000000 0.006694 0.000000 0.066600
#
#
# Mechanical properties :
#
#
# Convention : Reuss Voigt Hill
#
# Bulk Modulus (GPa) = 27.40618 45.58048 36.49333
# Shear Modulus (GPa) = 14.41325 25.75170 20.08248
#
# Velocity S-wave (km/s) = 2.71499 3.62903 3.20476
# Velocity P-wave (km/s) = 4.88305 6.39299 5.68835
#
# Compressibility (1/GPa) = 0.03648811
#
# Stress axis : x y z
#
# Youngs Moduli (GPa) = 43.51730 121.45737 44.39687
#
# Poissons Ratio (x) = 0.27914 0.09913
# Poissons Ratio (y) = 0.10001 0.18173
# Poissons Ratio (z) = 0.09717 0.49715
#
# Static dielectric constant tensor:
#      x y z
#    x 1.646620 0.000000 -0.029060 
#    y 0.000000 1.806850 0.000000 
#    z -0.029060 0.000000 1.834050 
# 
# From -- ./inp_files/233752.got.cif
#   From: 2010.05.17/outbox.cif.g08.bks.cpg/sg12_117_cif.got.tgz:233752.got - 2010.06.03 13:09:07.
