data_PCOD9178428
_publ_section_title
;
Structure prediction by ZEFSAII (Michael W. Deem and Ramdas Pophale) SiO2 
 PCOD9178428
Probable space group: C 2/M
;
_chemical_formula_sum "Si O2"
_cell_formula_units_Z 56
_cell_length_a 5.238692
_cell_length_b 19.480919
_cell_length_c 28.261441
_cell_angle_alpha 90.000000
_cell_angle_beta 75.518893
_cell_angle_gamma 90.000000
_cell_volume 2792.577342
_symmetry_space_group_name_H-M "C 2/M"
_symmetry_group_IT_number 12
_symmetry_cell_setting 'monoclinic'
loop_
_space_group_symop_operation_xyz
x,y,z
-x,y,-z
-x,-y,-z
x,-y,z
1/2+x,1/2+y,z
1/2-x,1/2+y,-z
1/2-x,1/2-y,-z
1/2+x,1/2-y,z
loop_
_atom_site_type_symbol
_atom_site_label
_atom_site_fract_x
_atom_site_fract_y
_atom_site_fract_z
Si Si1 0.036155 0.782994 0.574432
Si Si2 0.294463 0.574685 0.466191
Si Si3 0.135695 0.923099 0.233539
Si Si4 0.105823 0.274954 0.317543
Si Si5 0.131020 0.704975 0.949291
Si Si6 0.711268 0.202372 0.840215
Si Si7 0.954499 0.575688 0.700517
O O1 0.286190 0.733883 0.553464
O O2 0.133021 0.860304 0.568180
O O3 0.937512 0.766153 0.631759
O O4 0.500000 0.575325 0.500000
O O5 0.315158 0.500000 0.441335
O O6 0.000000 0.581617 0.500000
O O7 0.219864 0.861172 0.196367
O O8 0.301827 0.917786 0.274676
O O9 0.823607 0.921176 0.258853
O O10 0.194876 0.000000 0.211880
O O11 0.402465 0.256960 0.290064
O O12 0.054533 0.354878 0.329331
O O13 0.418884 0.733097 0.950570
O O14 0.155030 0.673842 0.896028
O O15 0.000000 0.666127 0.000000
O O16 0.455891 0.244781 0.834538
O O17 0.970335 0.500000 0.676577
#
# Coordination Sequence:
#
# PCOD9178428 Si02
#       7
#     8   8   8   8   8   8   8
#     4  10  21  37  55  82 112 140 174 213 257 299
#     4  10  21  37  58  84 113 145 178 211 251 303
#     4  10  21  35  51  74 104 135 165 208 265 313
#     4  10  21  37  55  79 107 135 172 214 257 300
#     4   8  14  25  41  63  93 126 161 203 247 295
#     4  10  19  30  48  75 100 128 169 211 255 304
#     4  10  21  37  55  74 100 136 173 207 254 314
#
# _framework density 20.053159000000001
#
# number of rings (size 3 to 8) (size 9 to 14) (size 15 to 20)
#    0.000    2.286    0.000    2.571    0.000    5.143 
#    0.000    5.714    0.000    0.429    0.000    0.000 
#    0.000   14.857    0.000    0.000    0.000    2.286 
#
# Total GULP energy -156197.179170 kJ/mol
# GULP energy per Si atom -5578.470685 kJ/mol
# Density = 2.000752 g / cm^3
# Si number density = 20.053159 Si / 1000 Ang^3
#
#
#
# Elastic Constant Matrix: (Units=GPa)
#
#
# Indices 1 2 3 4 5 6 
#
# 1 119.2920 -7.3130 -4.4639 0.0000 -1.9081 0.0000
# 2 -7.3130 132.4871 36.8791 0.0000 0.4837 0.0000
# 3 -4.4639 36.8791 51.4938 0.0000 -1.2991 0.0000
# 4 0.0000 0.0000 0.0000 15.1039 0.0000 -0.8007
# 5 -1.9081 0.4837 -1.2991 0.0000 13.3443 0.0000
# 6 0.0000 0.0000 0.0000 -0.8007 0.0000 26.3013
#
#
#
# Elastic Compliance Matrix: (Units=1/GPa)
#
#
# Indices 1 2 3 4 5 6 
#
# 1 0.008442 0.000311 0.000541 0.000000 0.001249 0.000000
# 2 0.000311 0.009452 -0.006767 0.000000 -0.000957 0.000000
# 3 0.000541 -0.006767 0.024381 0.000000 0.002696 0.000000
# 4 0.000000 0.000000 0.000000 0.066315 0.000000 0.002019
# 5 0.001249 -0.000957 0.002696 0.000000 0.075414 0.000000
# 6 0.000000 0.000000 0.000000 0.002019 0.000000 0.038082
#
#
# Mechanical properties :
#
#
# Convention : Reuss Voigt Hill
#
# Bulk Modulus (GPa) = 32.84625 39.27526 36.06075
# Shear Modulus (GPa) = 20.48632 29.49460 24.99046
#
# Velocity S-wave (km/s) = 3.19972 3.83929 3.53400
# Velocity P-wave (km/s) = 5.48325 6.26750 5.88845
#
# Compressibility (1/GPa) = 0.03044488
#
# Stress axis : x y z
#
# Youngs Moduli (GPa) = 118.45455 105.79621 41.01573
#
# Poissons Ratio (x) = -0.03290 -0.02217
# Poissons Ratio (y) = -0.03683 0.27754
# Poissons Ratio (z) = -0.06404 0.71589
#
# Static dielectric constant tensor:
#      x y z
#    x 1.786460 0.000000 -0.005570 
#    y 0.000000 1.715550 0.000000 
#    z -0.005570 0.000000 1.768840 
# 
# From -- ./inp_files/371549.got.cif
#   From: 2010.05.17/outbox.cif.g08.bks.cpg/sg12_186_cif.got.tgz:371549.got - 2010.06.03 13:09:07.
