data_PCOD9178484
_publ_section_title
;
Structure prediction by ZEFSAII (Michael W. Deem and Ramdas Pophale) SiO2 
 PCOD9178484
Probable space group: C 2/M
;
_chemical_formula_sum "Si O2"
_cell_formula_units_Z 60
_cell_length_a 14.499407
_cell_length_b 14.022012
_cell_length_c 20.591367
_cell_angle_alpha 90.000000
_cell_angle_beta 52.674049
_cell_angle_gamma 90.000000
_cell_volume 3329.059372
_symmetry_space_group_name_H-M "C 2/M"
_symmetry_group_IT_number 12
_symmetry_cell_setting 'monoclinic'
loop_
_space_group_symop_operation_xyz
x,y,z
-x,y,-z
-x,-y,-z
x,-y,z
1/2+x,1/2+y,z
1/2-x,1/2+y,-z
1/2-x,1/2-y,-z
1/2+x,1/2-y,z
loop_
_atom_site_type_symbol
_atom_site_label
_atom_site_fract_x
_atom_site_fract_y
_atom_site_fract_z
Si Si1 0.014625 0.194872 0.396681
Si Si2 0.752604 0.741174 0.076210
Si Si3 0.154399 0.885128 0.222839
Si Si4 0.931310 0.609265 0.385844
Si Si5 0.101138 0.392662 0.825708
Si Si6 0.500000 0.834542 0.000000
Si Si7 0.177328 0.111188 0.433922
Si Si8 0.081135 0.390613 0.195193
O O1 0.052369 0.162268 0.308346
O O2 0.123157 0.174364 0.398789
O O3 0.967347 0.303331 0.416666
O O4 0.910962 0.130021 0.469080
O O5 0.677948 0.654860 0.140500
O O6 0.696589 0.832582 0.133993
O O7 0.750000 0.750000 0.000000
O O8 0.885780 0.726284 0.037050
O O9 0.272841 0.854832 0.210096
O O10 0.145773 0.000000 0.226530
O O11 0.923118 0.500000 0.415532
O O12 0.808072 0.630104 0.402561
O O13 0.031189 0.609097 0.288485
O O14 0.123096 0.500000 0.792267
O O15 0.019963 0.345357 0.806933
O O16 0.028223 0.393669 0.923407
O O17 0.171696 0.000000 0.416213
O O18 0.098527 0.500000 0.166917
#
# Coordination Sequence:
#
# PCOD9178484 Si02
#       8
#     8   8   8   8   8   4   8   8
#     4  11  19  35  59  87 117 151 185 228 281 337
#     4  11  21  35  51  78 105 140 177 223 277 331
#     4  10  20  33  54  83 111 138 176 231 286 329
#     4  10  21  37  57  84 114 150 194 232 270 329
#     4   9  17  29  49  76 100 128 169 224 278 321
#     4  10  19  30  49  70 104 126 170 220 276 324
#     4  10  21  36  59  90 119 149 187 230 280 336
#     4  10  19  34  54  75 102 142 184 222 264 323
#
# _framework density 18.023108000000001
#
# number of rings (size 3 to 8) (size 9 to 14) (size 15 to 20)
#    0.000    1.867    2.667    3.000    0.000    3.200 
#    0.000    1.667    0.000    2.400    0.000    0.000 
#    0.000    0.000    0.000    0.000    0.000    0.000 
#
# Total GULP energy -167094.193033 kJ/mol
# GULP energy per Si atom -5569.806434 kJ/mol
# Density = 1.798209 g / cm^3
# Si number density = 18.023108 Si / 1000 Ang^3
#
#
#
# Elastic Constant Matrix: (Units=GPa)
#
#
# Indices 1 2 3 4 5 6 
#
# 1 66.0785 51.1013 16.6307 0.0000 -4.3695 0.0000
# 2 51.1013 98.1410 18.5264 0.0000 -6.9397 0.0000
# 3 16.6307 18.5264 95.2555 0.0000 -10.9392 0.0000
# 4 0.0000 0.0000 0.0000 20.2471 0.0000 4.5128
# 5 -4.3695 -6.9397 -10.9392 0.0000 21.8463 0.0000
# 6 0.0000 0.0000 0.0000 4.5128 0.0000 21.6740
#
#
#
# Elastic Compliance Matrix: (Units=1/GPa)
#
#
# Indices 1 2 3 4 5 6 
#
# 1 0.025681 -0.013002 -0.001952 0.000000 0.000029 0.000000
# 2 -0.013002 0.017287 -0.000807 0.000000 0.002487 0.000000
# 3 -0.001952 -0.000807 0.011588 0.000000 0.005156 0.000000
# 4 0.000000 0.000000 0.000000 0.051793 0.000000 -0.010784
# 5 0.000029 0.002487 0.005156 0.000000 0.049152 0.000000
# 6 0.000000 0.000000 0.000000 -0.010784 0.000000 0.048384
#
#
# Mechanical properties :
#
#
# Convention : Reuss Voigt Hill
#
# Bulk Modulus (GPa) = 43.40906 47.99910 45.70408
# Shear Modulus (GPa) = 20.56899 24.30124 22.43512
#
# Velocity S-wave (km/s) = 3.38191 3.67596 3.53200
# Velocity P-wave (km/s) = 6.27593 6.68630 6.48436
#
# Compressibility (1/GPa) = 0.02303666
#
# Stress axis : x y z
#
# Youngs Moduli (GPa) = 38.93878 57.84556 86.29758
#
# Poissons Ratio (x) = 0.75209 0.16842
# Poissons Ratio (y) = 0.50627 0.06961
# Poissons Ratio (z) = 0.07600 0.04666
#
# Static dielectric constant tensor:
#      x y z
#    x 1.646490 0.000000 0.026670 
#    y 0.000000 1.639280 0.000000 
#    z 0.026670 0.000000 1.673260 
# 
# From -- ./inp_files/310574.got.cif
#   From: 2010.05.17/outbox.cif.g08.bks.cpg/sg12_156_cif.got.tgz:310574.got - 2010.06.03 13:09:07.
