data_PCOD9178059
_publ_section_title
;
Structure prediction by ZEFSAII (Michael W. Deem and Ramdas Pophale) SiO2 
 PCOD9178059
Probable space group: C 2/M
;
_chemical_formula_sum "Si O2"
_cell_formula_units_Z 48
_cell_length_a 15.810158
_cell_length_b 7.503576
_cell_length_c 21.677761
_cell_angle_alpha 90.000000
_cell_angle_beta 42.336040
_cell_angle_gamma 90.000000
_cell_volume 1731.976872
_symmetry_space_group_name_H-M "C 2/M"
_symmetry_group_IT_number 12
_symmetry_cell_setting 'monoclinic'
loop_
_space_group_symop_operation_xyz
x,y,z
-x,y,-z
-x,-y,-z
x,-y,z
1/2+x,1/2+y,z
1/2-x,1/2+y,-z
1/2-x,1/2-y,-z
1/2+x,1/2-y,z
loop_
_atom_site_type_symbol
_atom_site_label
_atom_site_fract_x
_atom_site_fract_y
_atom_site_fract_z
Si Si1 0.009248 0.792123 0.771996
Si Si2 0.267617 0.712299 0.063765
Si Si3 0.539421 0.718792 0.896428
Si Si4 0.696212 0.784066 0.277511
Si Si5 0.590094 0.704439 0.602193
Si Si6 0.360274 0.212451 0.560020
O O1 0.859919 0.785718 0.838177
O O2 0.085077 0.710572 0.673444
O O3 0.019829 0.722343 0.835559
O O4 0.046254 0.000000 0.756614
O O5 0.265225 0.500000 0.075682
O O6 0.250000 0.750000 0.000000
O O7 0.410793 0.774812 0.999644
O O8 0.537067 0.500000 0.900878
O O9 0.684446 0.771880 0.827549
O O10 0.557967 0.718689 0.335842
O O11 0.718552 0.731703 0.337522
O O12 0.690472 0.000000 0.276985
O O13 0.621681 0.500000 0.594212
O O14 0.661692 0.756635 0.500673
O O15 0.500000 0.283275 0.500000
O O16 0.365209 0.000000 0.562159
#
# Coordination Sequence:
#
# PCOD9178059 Si02
#       6
#     8   8   8   8   8   8
#     4   9  18  32  48  67  92 122 154 185 222 268
#     4   9  16  28  48  70  91 119 153 186 222 266
#     4   8  15  30  50  68  87 116 153 187 220 263
#     4   9  17  31  50  68  88 117 153 189 222 264
#     4  10  19  30  46  68  94 121 148 185 230 270
#     4   8  15  28  46  66  87 117 154 185 217 264
#
# _framework density 27.713996999999999
#
# number of rings (size 3 to 8) (size 9 to 14) (size 15 to 20)
#    0.000    3.167    0.000    3.000    0.000    4.333 
#    0.000    5.833    0.000    5.000    0.000    0.000 
#    0.000    0.000    0.000    0.000    0.000    0.000 
#
# Total GULP energy -134046.027453 kJ/mol
# GULP energy per Si atom -5585.251144 kJ/mol
# Density = 2.765092 g / cm^3
# Si number density = 27.713997 Si / 1000 Ang^3
#
#
#
# Elastic Constant Matrix: (Units=GPa)
#
#
# Indices 1 2 3 4 5 6 
#
# 1 93.1878 -7.9369 5.3763 0.0000 -3.8824 0.0000
# 2 -7.9369 75.6201 6.0889 0.0000 -0.6258 0.0000
# 3 5.3763 6.0889 250.0249 0.0000 -3.7842 0.0000
# 4 0.0000 0.0000 0.0000 8.8640 0.0000 -6.1900
# 5 -3.8824 -0.6258 -3.7842 0.0000 59.8638 0.0000
# 6 0.0000 0.0000 0.0000 -6.1900 0.0000 10.4420
#
#
#
# Elastic Compliance Matrix: (Units=1/GPa)
#
#
# Indices 1 2 3 4 5 6 
#
# 1 0.010874 0.001167 -0.000252 0.000000 0.000702 0.000000
# 2 0.001167 0.013376 -0.000348 0.000000 0.000194 0.000000
# 3 -0.000252 -0.000348 0.004017 0.000000 0.000234 0.000000
# 4 0.000000 0.000000 0.000000 0.192509 0.000000 0.114119
# 5 0.000702 0.000194 0.000234 0.000000 0.016767 0.000000
# 6 0.000000 0.000000 0.000000 0.114119 0.000000 0.163418
#
#
# Mechanical properties :
#
#
# Convention : Reuss Voigt Hill
#
# Bulk Modulus (GPa) = 34.01010 47.32105 40.66557
# Shear Modulus (GPa) = 12.20626 43.52092 27.86359
#
# Velocity S-wave (km/s) = 2.10094 3.96707 3.17424
# Velocity P-wave (km/s) = 4.26423 6.17215 5.30467
#
# Compressibility (1/GPa) = 0.02940303
#
# Stress axis : x y z
#
# Youngs Moduli (GPa) = 91.96086 74.75993 248.94035
#
# Poissons Ratio (x) = -0.08727 0.06264
# Poissons Ratio (y) = -0.10735 0.08661
# Poissons Ratio (z) = 0.02314 0.02601
#
# Static dielectric constant tensor:
#      x y z
#    x 2.360810 0.000000 0.073170 
#    y 0.000000 2.113430 0.000000 
#    z 0.073170 0.000000 2.215290 
# 
# From -- ./inp_files/345407.got.cif
#   From: 2010.05.17/outbox.cif.g08.bks.cpg/sg12_173_cif.got.tgz:345407.got - 2010.06.03 13:09:07.
