data_PCOD9178700
_publ_section_title
;
Structure prediction by ZEFSAII (Michael W. Deem and Ramdas Pophale) SiO2 
 PCOD9178700
Probable space group: C 2/M
;
_chemical_formula_sum "Si O2"
_cell_formula_units_Z 40
_cell_length_a 12.757561
_cell_length_b 19.447195
_cell_length_c 11.181267
_cell_angle_alpha 90.000000
_cell_angle_beta 43.799287
_cell_angle_gamma 90.000000
_cell_volume 1920.020851
_symmetry_space_group_name_H-M "C 2/M"
_symmetry_group_IT_number 12
_symmetry_cell_setting 'monoclinic'
loop_
_space_group_symop_operation_xyz
x,y,z
-x,y,-z
-x,-y,-z
x,-y,z
1/2+x,1/2+y,z
1/2-x,1/2+y,-z
1/2-x,1/2-y,-z
1/2+x,1/2-y,z
loop_
_atom_site_type_symbol
_atom_site_label
_atom_site_fract_x
_atom_site_fract_y
_atom_site_fract_z
Si Si1 0.729654 0.211677 0.167279
Si Si2 0.735651 0.181824 0.426497
Si Si3 0.163089 0.577968 0.682092
Si Si4 0.500000 0.179689 0.000000
Si Si5 0.500000 0.397551 0.500000
Si Si6 0.429259 0.671531 0.810969
O O1 0.674626 0.193902 0.344447
O O2 0.861801 0.269381 0.079055
O O3 0.597694 0.249284 0.203815
O O4 0.802134 0.156640 0.015863
O O5 0.750000 0.250000 0.500000
O O6 0.663457 0.119076 0.557181
O O7 0.910405 0.161403 0.260517
O O8 0.105024 0.500000 0.724759
O O9 0.067780 0.628059 0.845965
O O10 0.339244 0.573693 0.582374
O O11 0.562333 0.362634 0.326391
#
# Coordination Sequence:
#
# PCOD9178700 Si02
#       6
#     8   8   8   4   4   8
#     4  11  19  32  55  90 114 140 188 235 283 329
#     4  11  19  35  56  81 112 147 190 231 276 334
#     4  11  23  36  56  81 113 152 187 231 282 335
#     4  12  19  36  54  84 115 140 186 234 277 330
#     4  10  19  36  54  78 114 146 191 228 277 338
#     4  10  19  30  54  85 115 142 177 237 286 324
#
# _framework density 20.833106999999998
#
# number of rings (size 3 to 8) (size 9 to 14) (size 15 to 20)
#    0.000    1.200    6.000    1.800    0.000    0.000 
#    0.000    0.000    0.000   10.800    0.000    8.400 
#    0.000    0.000    0.000    0.000    0.000    0.000 
#
# Total GULP energy -111374.553797 kJ/mol
# GULP energy per Si atom -5568.727690 kJ/mol
# Density = 2.078569 g / cm^3
# Si number density = 20.833107 Si / 1000 Ang^3
#
#
#
# Elastic Constant Matrix: (Units=GPa)
#
#
# Indices 1 2 3 4 5 6 
#
# 1 55.6580 16.5235 41.6996 0.0000 19.8708 0.0001
# 2 16.5235 81.8273 43.1488 0.0000 15.7504 0.0000
# 3 41.6996 43.1488 141.5996 0.0000 31.4670 0.0000
# 4 0.0000 0.0000 0.0000 10.3151 0.0000 2.2654
# 5 19.8708 15.7504 31.4670 0.0000 47.7917 0.0000
# 6 0.0001 0.0000 0.0000 2.2654 0.0000 1.8261
#
#
#
# Elastic Compliance Matrix: (Units=1/GPa)
#
#
# Indices 1 2 3 4 5 6 
#
# 1 0.024661 -0.000806 -0.005619 0.000000 -0.006288 -0.000001
# 2 -0.000806 0.014787 -0.003819 0.000000 -0.002024 0.000000
# 3 -0.005619 -0.003819 0.010638 0.000000 -0.003410 0.000000
# 4 0.000000 0.000000 0.000000 0.133251 0.000000 -0.165312
# 5 -0.006288 -0.002024 -0.003410 0.000000 0.026450 0.000002
# 6 -0.000001 0.000000 0.000000 -0.165312 0.000002 0.752710
#
#
# Mechanical properties :
#
#
# Convention : Reuss Voigt Hill
#
# Bulk Modulus (GPa) = 33.78669 53.53652 43.66161
# Shear Modulus (GPa) = 5.03599 23.83411 14.43505
#
# Velocity S-wave (km/s) = 1.55645 3.38605 2.63514
# Velocity P-wave (km/s) = 4.41396 6.40630 5.50108
#
# Compressibility (1/GPa) = 0.02959745
#
# Stress axis : x y z
#
# Youngs Moduli (GPa) = 40.54941 67.62753 93.99925
#
# Poissons Ratio (x) = 0.05453 0.52822
# Poissons Ratio (y) = 0.03270 0.35896
# Poissons Ratio (z) = 0.22786 0.25825
#
# Static dielectric constant tensor:
#      x y z
#    x 1.820300 0.000000 0.015240 
#    y 0.000000 1.740620 0.000000 
#    z 0.015240 0.000000 1.837830 
# 
# From -- ./inp_files/146883.got.cif
#   From: 2010.05.17/outbox.cif.g08.bks.cpg/sg12_74_cif.got.tgz:146883.got - 2010.06.03 13:09:07.
