data_PCOD9178154
_publ_section_title
;
Structure prediction by ZEFSAII (Michael W. Deem and Ramdas Pophale) SiO2 
 PCOD9178154
Probable space group: C 2/M
;
_chemical_formula_sum "Si O2"
_cell_formula_units_Z 56
_cell_length_a 21.751168
_cell_length_b 29.821952
_cell_length_c 21.806049
_cell_angle_alpha 90.000000
_cell_angle_beta 166.456869
_cell_angle_gamma 90.000000
_cell_volume 3312.381754
_symmetry_space_group_name_H-M "C 2/M"
_symmetry_group_IT_number 12
_symmetry_cell_setting 'monoclinic'
loop_
_space_group_symop_operation_xyz
x,y,z
-x,y,-z
-x,-y,-z
x,-y,z
1/2+x,1/2+y,z
1/2-x,1/2+y,-z
1/2-x,1/2-y,-z
1/2+x,1/2-y,z
loop_
_atom_site_type_symbol
_atom_site_label
_atom_site_fract_x
_atom_site_fract_y
_atom_site_fract_z
Si Si1 0.957745 0.445769 0.221180
Si Si2 0.333985 0.053259 0.962896
Si Si3 0.644768 0.593483 0.574501
Si Si4 0.084963 0.054081 0.246320
Si Si5 0.225341 0.786377 0.269750
Si Si6 0.226199 0.114892 0.270597
Si Si7 0.726504 0.189494 0.271107
O O1 0.960083 0.500000 0.220806
O O2 0.228032 0.432599 0.515505
O O3 0.908057 0.431180 0.103471
O O4 0.712347 0.432892 0.025763
O O5 0.076051 0.077782 0.687448
O O6 0.280493 0.000000 0.911595
O O7 0.594324 0.063352 0.175647
O O8 0.500000 0.591165 0.500000
O O9 0.747028 0.644415 0.664101
O O10 0.185160 0.077858 0.282436
O O11 0.096897 0.000000 0.251469
O O12 0.500000 0.786382 0.500000
O O13 0.211417 0.835226 0.286823
O O14 0.194891 0.738040 0.272813
O O15 0.000000 0.786130 0.000000
O O16 0.500000 0.110337 0.500000
O O17 0.000000 0.111762 0.000000
O O18 0.000000 0.192243 0.500000
O O19 0.500000 0.183573 0.000000
#
# Coordination Sequence:
#
# PCOD9178154 Si02
#       7
#     8   8   8   8   8   8   8
#     4   9  19  35  51  66  85 121 173 208 222 252
#     4  11  22  35  50  68  94 126 160 197 232 274
#     4  11  21  32  48  73  99 123 150 187 242 297
#     4  10  19  32  50  70  95 127 162 198 230 268
#     4   8  15  27  44  65  92 124 154 186 222 268
#     4  10  19  30  46  74 105 127 151 185 237 294
#     4   9  16  29  46  65  92 123 155 188 222 271
#
# _framework density 16.906265000000001
#
# number of rings (size 3 to 8) (size 9 to 14) (size 15 to 20)
#    0.000    2.286    0.000    4.286    0.000    4.571 
#    0.000    0.000    0.000    0.000    0.000    6.000 
#    0.000    0.000    0.000    0.000    0.000    0.000 
#
# Total GULP energy -155936.650609 kJ/mol
# GULP energy per Si atom -5569.166093 kJ/mol
# Density = 1.686779 g / cm^3
# Si number density = 16.906265 Si / 1000 Ang^3
#
#
#
# Elastic Constant Matrix: (Units=GPa)
#
#
# Indices 1 2 3 4 5 6 
#
# 1 34.5238 19.8789 -2.2768 0.0081 -2.7536 0.0051
# 2 19.8789 72.6736 9.5752 0.0104 -6.8790 0.0037
# 3 -2.2768 9.5752 99.0992 0.0120 -1.4914 0.0079
# 4 0.0081 0.0104 0.0120 19.2599 -0.0036 -0.7708
# 5 -2.7536 -6.8790 -1.4914 -0.0036 19.9068 0.0069
# 6 0.0051 0.0037 0.0079 -0.7708 0.0069 -3.5175
#
#
#
# Elastic Compliance Matrix: (Units=1/GPa)
#
#
# Indices 1 2 3 4 5 6 
#
# 1 0.034723 -0.009575 0.001747 -0.000008 0.001625 0.000049
# 2 -0.009575 0.017035 -0.001799 -0.000003 0.004428 0.000010
# 3 0.001747 -0.001799 0.010311 -0.000005 0.000392 0.000026
# 4 -0.000008 -0.000003 -0.000005 0.051470 0.000011 -0.011279
# 5 0.001625 0.004428 0.000392 0.000011 0.052018 0.000108
# 6 0.000049 0.000010 0.000026 -0.011279 0.000108 -0.281824
#
#
# Mechanical properties :
#
#
# Convention : Reuss Voigt Hill
#
# Bulk Modulus (GPa) = 23.35548 28.96126 26.15837
# Shear Modulus (GPa) = -60.42968 19.07114 -20.67927
#
# Velocity S-wave (km/s) = -5.98511 3.36229 -3.50118
# Velocity P-wave (km/s) = 5.82386 5.67812 0.91553
#
# Compressibility (1/GPa) = 0.04281650
#
# Stress axis : x y z
#
# Youngs Moduli (GPa) = 28.79898 58.70157 96.98563
#
# Poissons Ratio (x) = 0.56204 -0.16947
# Poissons Ratio (y) = 0.27574 0.17451
# Poissons Ratio (z) = -0.05032 0.10562
#
# Static dielectric constant tensor:
#      x y z
#    x 1.546380 0.000000 0.002470 
#    y 0.000000 1.631730 -0.000010 
#    z 0.002470 -0.000010 1.578000 
# 
# From -- ./inp_files/18154.got.cif
#   From: 2010.05.17/outbox.cif.g08.bks.cpg/sg12_10_cif.got.tgz:18154.got - 2010.06.03 13:09:07.
