data_PCOD9178683
_publ_section_title
;
Structure prediction by ZEFSAII (Michael W. Deem and Ramdas Pophale) SiO2 
 PCOD9178683
Probable space group: C 2/M
;
_chemical_formula_sum "Si O2"
_cell_formula_units_Z 44
_cell_length_a 14.697924
_cell_length_b 18.767816
_cell_length_c 17.931978
_cell_angle_alpha 90.000000
_cell_angle_beta 29.550551
_cell_angle_gamma 90.000000
_cell_volume 2439.570143
_symmetry_space_group_name_H-M "C 2/M"
_symmetry_group_IT_number 12
_symmetry_cell_setting 'monoclinic'
loop_
_space_group_symop_operation_xyz
x,y,z
-x,y,-z
-x,-y,-z
x,-y,z
1/2+x,1/2+y,z
1/2-x,1/2+y,-z
1/2-x,1/2-y,-z
1/2+x,1/2-y,z
loop_
_atom_site_type_symbol
_atom_site_label
_atom_site_fract_x
_atom_site_fract_y
_atom_site_fract_z
Si Si1 0.500000 0.829378 0.000000
Si Si2 0.815015 0.418462 0.582894
Si Si3 0.966252 0.179517 0.831688
Si Si4 0.271276 0.225327 0.861418
Si Si5 0.387414 0.082706 0.940458
Si Si6 0.446742 0.080154 0.727756
O O1 0.318900 0.779716 0.131371
O O2 0.510519 0.877062 0.066185
O O3 0.751428 0.500000 0.644927
O O4 0.659517 0.359271 0.705149
O O5 0.879308 0.416444 0.450743
O O6 0.000000 0.406838 0.500000
O O7 0.942786 0.237407 0.782101
O O8 0.886979 0.216271 0.962526
O O9 0.813227 0.119001 0.923346
O O10 0.319022 0.147198 0.798024
O O11 0.479271 0.089143 0.793032
O O12 0.369988 0.000000 0.970337
O O13 0.365821 0.000000 0.775466
#
# Coordination Sequence:
#
# PCOD9178683 Si02
#       6
#     4   8   8   8   8   8
#     4  10  19  30  53  82 108 132 174 230 263 312
#     4  10  21  35  53  80 110 143 183 220 263 320
#     4   9  18  34  54  77 106 141 176 222 269 316
#     4   9  19  33  53  79 105 137 180 221 268 316
#     4   9  17  33  56  79 104 139 180 220 268 315
#     4   9  19  36  53  75 106 140 177 220 267 317
#
# _framework density 18.035964
#
# number of rings (size 3 to 8) (size 9 to 14) (size 15 to 20)
#    0.000    2.727    0.000    1.909    2.545    1.455 
#    0.000    0.455    0.000    3.273    0.000   16.545 
#    0.000    0.000    0.000    0.000    0.000    0.000 
#
# Total GULP energy -122543.977926 kJ/mol
# GULP energy per Si atom -5570.180815 kJ/mol
# Density = 1.799491 g / cm^3
# Si number density = 18.035964 Si / 1000 Ang^3
#
#
#
# Elastic Constant Matrix: (Units=GPa)
#
#
# Indices 1 2 3 4 5 6 
#
# 1 70.5325 46.3196 23.8252 -0.0071 -6.3690 0.0028
# 2 46.3196 125.6843 26.2306 -0.0029 -5.2320 0.0007
# 3 23.8252 26.2306 39.9782 -0.0131 -2.6848 0.0067
# 4 -0.0071 -0.0029 -0.0131 28.6750 0.0025 -9.9384
# 5 -6.3690 -5.2320 -2.6848 0.0025 17.3091 -0.0009
# 6 0.0028 0.0007 0.0067 -9.9384 -0.0009 26.9071
#
#
#
# Elastic Compliance Matrix: (Units=1/GPa)
#
#
# Indices 1 2 3 4 5 6 
#
# 1 0.021363 -0.005892 -0.008547 0.000001 0.004754 0.000000
# 2 -0.005892 0.010904 -0.003605 -0.000002 0.000569 0.000001
# 3 -0.008547 -0.003605 0.032527 0.000011 0.000811 -0.000003
# 4 0.000001 -0.000002 0.000011 0.039993 -0.000004 0.014772
# 5 0.004754 0.000569 0.000811 -0.000004 0.059820 0.000000
# 6 0.000000 0.000001 -0.000003 0.014772 0.000000 0.042621
#
#
# Mechanical properties :
#
#
# Convention : Reuss Voigt Hill
#
# Bulk Modulus (GPa) = 34.83406 47.66064 41.24735
# Shear Modulus (GPa) = 19.77194 23.89955 21.83574
#
# Velocity S-wave (km/s) = 3.31456 3.64415 3.48325
# Velocity P-wave (km/s) = 5.83129 6.64749 6.25272
#
# Compressibility (1/GPa) = 0.02870754
#
# Stress axis : x y z
#
# Youngs Moduli (GPa) = 46.80945 91.71167 30.74388
#
# Poissons Ratio (x) = 0.54032 0.26276
# Poissons Ratio (y) = 0.27578 0.11083
# Poissons Ratio (z) = 0.40006 0.33061
#
# Static dielectric constant tensor:
#      x y z
#    x 1.646950 0.000000 0.020260 
#    y 0.000000 1.657630 0.000000 
#    z 0.020260 0.000000 1.595420 
# 
# From -- ./inp_files/271321.got.cif
#   From: 2010.05.17/outbox.cif.g08.bks.cpg/sg12_136_cif.got.tgz:271321.got - 2010.06.03 13:09:07.
