data_PCOD9178437
_publ_section_title
;
Structure prediction by ZEFSAII (Michael W. Deem and Ramdas Pophale) SiO2 
 PCOD9178437
Probable space group: C 2/M
;
_chemical_formula_sum "Si O2"
_cell_formula_units_Z 40
_cell_length_a 23.160792
_cell_length_b 12.994109
_cell_length_c 8.677981
_cell_angle_alpha 90.000000
_cell_angle_beta 112.004777
_cell_angle_gamma 90.000000
_cell_volume 2421.418388
_symmetry_space_group_name_H-M "C 2/M"
_symmetry_group_IT_number 12
_symmetry_cell_setting 'monoclinic'
loop_
_space_group_symop_operation_xyz
x,y,z
-x,y,-z
-x,-y,-z
x,-y,z
1/2+x,1/2+y,z
1/2-x,1/2+y,-z
1/2-x,1/2-y,-z
1/2+x,1/2-y,z
loop_
_atom_site_type_symbol
_atom_site_label
_atom_site_fract_x
_atom_site_fract_y
_atom_site_fract_z
Si Si1 0.334598 0.825251 0.769602
Si Si2 0.800553 0.884227 0.235197
Si Si3 0.430867 0.000000 0.495393
Si Si4 0.569133 0.000000 0.133659
Si Si5 0.699446 0.384227 0.134090
Si Si6 0.165402 0.325251 0.600406
O O1 0.270055 0.867579 0.775770
O O2 0.390818 0.899736 0.872899
O O3 0.340024 0.708115 0.832081
O O4 0.328922 0.827340 0.578922
O O5 0.840024 0.791885 0.347967
O O6 0.820540 0.000000 0.296059
O O7 0.800745 0.873999 0.050745
O O8 0.500000 0.000000 0.500000
O O9 0.390818 0.100264 0.408737
O O10 0.433788 0.000000 0.683788
O O11 0.500000 0.000000 0.000000
O O12 0.679460 0.500000 0.154978
O O13 0.770055 0.367579 0.264341
#
# Coordination Sequence:
#
# PCOD9178437 Si02
#       6
#     8   8   4   4   8   8
#     4  10  19  32  49  72 101 131 168 205 247 299
#     4  10  19  30  48  75 104 132 162 202 252 299
#     4  10  22  36  52  74 100 134 171 208 249 294
#     4  10  22  36  52  74 100 134 171 208 249 294
#     4  10  19  30  48  75 104 132 162 202 252 299
#     4  10  19  32  49  72 101 131 168 205 247 299
#
# _framework density 16.519242999999999
#
# number of rings (size 3 to 8) (size 9 to 14) (size 15 to 20)
#    0.000    2.000    2.000    4.800    0.000    5.600 
#    0.000    0.000    0.000    1.200    0.000    0.000 
#    0.000    0.000    0.000    0.000    0.000    0.000 
#
# Total GULP energy -111572.384288 kJ/mol
# GULP energy per Si atom -5578.619214 kJ/mol
# Density = 1.648164 g / cm^3
# Si number density = 16.519243 Si / 1000 Ang^3
#
#
#
# Elastic Constant Matrix: (Units=GPa)
#
#
# Indices 1 2 3 4 5 6 
#
# 1 85.3321 64.9096 21.9322 0.0000 9.2124 0.0000
# 2 64.9096 175.9082 44.9865 0.0000 12.7633 0.0000
# 3 21.9322 44.9865 53.5681 0.0000 11.1366 0.0000
# 4 0.0000 0.0000 0.0000 27.2670 0.0000 -4.1160
# 5 9.2124 12.7633 11.1366 0.0000 23.2772 0.0000
# 6 0.0000 0.0000 0.0000 -4.1160 0.0000 20.8420
#
#
#
# Elastic Compliance Matrix: (Units=1/GPa)
#
#
# Indices 1 2 3 4 5 6 
#
# 1 0.016634 -0.005530 -0.001586 0.000000 -0.002792 0.000000
# 2 -0.005530 0.009107 -0.005331 0.000000 -0.000254 0.000000
# 3 -0.001586 -0.005331 0.025603 0.000000 -0.008698 0.000000
# 4 0.000000 0.000000 0.000000 0.037801 0.000000 0.007465
# 5 -0.002792 -0.000254 -0.008698 0.000000 0.048367 0.000000
# 6 0.000000 0.000000 0.000000 0.007465 0.000000 0.049454
#
#
# Mechanical properties :
#
#
# Convention : Reuss Voigt Hill
#
# Bulk Modulus (GPa) = 37.80719 64.27388 51.04053
# Shear Modulus (GPa) = 22.65749 26.47590 24.56669
#
# Velocity S-wave (km/s) = 3.70750 4.00775 3.86055
# Velocity P-wave (km/s) = 6.42370 7.77233 7.12997
#
# Compressibility (1/GPa) = 0.02645000
#
# Stress axis : x y z
#
# Youngs Moduli (GPa) = 60.11633 109.80415 39.05835
#
# Poissons Ratio (x) = 0.60720 0.06195
# Poissons Ratio (y) = 0.33243 0.20823
# Poissons Ratio (z) = 0.09535 0.58539
#
# Static dielectric constant tensor:
#      x y z
#    x 1.519000 0.000000 -0.018700 
#    y 0.000000 1.596570 0.000000 
#    z -0.018700 0.000000 1.548190 
# 
# From -- ./inp_files/85324.got.cif
#   From: 2010.05.17/outbox.cif.g08.bks.cpg/sg12_43_cif.got.tgz:85324.got - 2010.06.03 13:09:07.
