data_PCOD9178332
_publ_section_title
;
Structure prediction by ZEFSAII (Michael W. Deem and Ramdas Pophale) SiO2 
 PCOD9178332
Probable space group: C 2/M
;
_chemical_formula_sum "Si O2"
_cell_formula_units_Z 64
_cell_length_a 9.143954
_cell_length_b 27.629651
_cell_length_c 12.817124
_cell_angle_alpha 90.000000
_cell_angle_beta 112.569248
_cell_angle_gamma 90.000000
_cell_volume 2990.181671
_symmetry_space_group_name_H-M "C 2/M"
_symmetry_group_IT_number 12
_symmetry_cell_setting 'monoclinic'
loop_
_space_group_symop_operation_xyz
x,y,z
-x,y,-z
-x,-y,-z
x,-y,z
1/2+x,1/2+y,z
1/2-x,1/2+y,-z
1/2-x,1/2-y,-z
1/2+x,1/2-y,z
loop_
_atom_site_type_symbol
_atom_site_label
_atom_site_fract_x
_atom_site_fract_y
_atom_site_fract_z
Si Si1 0.412275 0.214501 0.665794
Si Si2 0.423695 0.444254 0.216540
Si Si3 0.146405 0.556726 0.297896
Si Si4 0.759515 0.055207 0.560088
Si Si5 0.070358 0.252352 0.919149
Si Si6 0.601608 0.875674 0.680599
Si Si7 0.957468 0.850611 0.815981
Si Si8 0.551542 0.690698 0.620372
O O1 0.521376 0.222988 0.797991
O O2 0.482151 0.168228 0.626479
O O3 0.439595 0.262029 0.603815
O O4 0.233984 0.206480 0.657160
O O5 0.418648 0.500000 0.177164
O O6 0.260916 0.433109 0.232342
O O7 0.565628 0.442692 0.341756
O O8 0.466250 0.403234 0.143383
O O9 0.104202 0.500000 0.283357
O O10 0.243290 0.564829 0.432755
O O11 0.992475 0.590015 0.264950
O O12 0.653533 0.092045 0.596775
O O13 0.702983 0.000000 0.561479
O O14 0.008194 0.197194 0.890889
O O15 0.250000 0.250000 0.000000
O O16 0.000000 0.278876 0.000000
O O17 0.768368 0.855222 0.767529
O O18 0.017109 0.839367 0.714157
O O19 0.500000 0.664999 0.500000
#
# Coordination Sequence:
#
# PCOD9178332 Si02
#       8
#     8   8   8   8   8   8   8   8
#     4  11  23  39  56  84 112 140 192 237 280 353
#     4   9  18  33  53  76 110 153 190 238 294 331
#     4  10  19  30  47  75 109 154 209 246 272 319
#     4   9  18  31  47  72 109 155 207 250 278 317
#     4  11  22  41  67  87 107 138 178 241 307 346
#     4  11  21  32  49  72 111 148 180 236 288 323
#     4  10  22  38  55  85 116 145 193 233 275 351
#     4  11  23  38  55  76 115 159 189 224 273 332
#
# _framework density 21.403383000000002
#
# number of rings (size 3 to 8) (size 9 to 14) (size 15 to 20)
#    0.000    1.750    0.000    6.000    0.000    9.000 
#    0.000    0.000    0.000    0.375    0.000    1.750 
#    0.000   11.500    0.000    0.000    0.000    0.000 
#
# Total GULP energy -178765.569732 kJ/mol
# GULP energy per Si atom -5586.424054 kJ/mol
# Density = 2.135467 g / cm^3
# Si number density = 21.403383 Si / 1000 Ang^3
#
#
#
# Elastic Constant Matrix: (Units=GPa)
#
#
# Indices 1 2 3 4 5 6 
#
# 1 105.2872 25.8437 1.0943 0.0000 20.4472 0.0000
# 2 25.8437 101.1937 -6.9850 0.0000 2.5278 0.0000
# 3 1.0943 -6.9850 59.2637 0.0000 2.8532 0.0000
# 4 0.0000 0.0000 0.0000 -4.5075 0.0000 2.0367
# 5 20.4472 2.5278 2.8532 0.0000 35.3234 0.0000
# 6 0.0000 0.0000 0.0000 2.0367 0.0000 38.7888
#
#
#
# Elastic Compliance Matrix: (Units=1/GPa)
#
#
# Indices 1 2 3 4 5 6 
#
# 1 0.011423 -0.002773 -0.000230 0.000000 -0.006395 0.000000
# 2 -0.002773 0.010660 0.001272 0.000000 0.000740 0.000000
# 3 -0.000230 0.001272 0.017092 0.000000 -0.001339 0.000000
# 4 0.000000 0.000000 0.000000 -0.216709 0.000000 0.011379
# 5 -0.006395 0.000740 -0.001339 0.000000 0.032067 0.000000
# 6 0.000000 0.000000 0.000000 0.011379 0.000000 0.025183
#
#
# Mechanical properties :
#
#
# Convention : Reuss Voigt Hill
#
# Bulk Modulus (GPa) = 28.00158 33.96115 30.98136
# Shear Modulus (GPa) = -47.65679 30.30704 -8.67488
#
# Velocity S-wave (km/s) = -4.72381 3.76705 -2.01540
# Velocity P-wave (km/s) = 4.07937 5.90106 3.01507
#
# Compressibility (1/GPa) = 0.03571228
#
# Stress axis : x y z
#
# Youngs Moduli (GPa) = 87.54296 93.81164 58.50568
#
# Poissons Ratio (x) = 0.26018 0.01345
# Poissons Ratio (y) = 0.24279 -0.07442
# Poissons Ratio (z) = 0.02013 -0.11933
#
# Static dielectric constant tensor:
#      x y z
#    x 1.845580 0.000000 0.020810 
#    y 0.000000 1.825740 0.000000 
#    z 0.020810 0.000000 1.746200 
# 
# From -- ./inp_files/200964.got.cif
#   From: 2010.05.17/outbox.cif.g08.bks.cpg/sg12_101_cif.got.tgz:200964.got - 2010.06.03 13:09:07.
