data_PCOD9178114
_publ_section_title
;
Structure prediction by ZEFSAII (Michael W. Deem and Ramdas Pophale) SiO2 
 PCOD9178114
Probable space group: C 2/M
;
_chemical_formula_sum "Si O2"
_cell_formula_units_Z 48
_cell_length_a 14.061522
_cell_length_b 7.393292
_cell_length_c 18.728290
_cell_angle_alpha 90.000000
_cell_angle_beta 64.314194
_cell_angle_gamma 90.000000
_cell_volume 1754.615626
_symmetry_space_group_name_H-M "C 2/M"
_symmetry_group_IT_number 12
_symmetry_cell_setting 'monoclinic'
loop_
_space_group_symop_operation_xyz
x,y,z
-x,y,-z
-x,-y,-z
x,-y,z
1/2+x,1/2+y,z
1/2-x,1/2+y,-z
1/2-x,1/2-y,-z
1/2+x,1/2-y,z
loop_
_atom_site_type_symbol
_atom_site_label
_atom_site_fract_x
_atom_site_fract_y
_atom_site_fract_z
Si Si1 0.542002 0.205638 0.271596
Si Si2 0.928591 0.296861 0.442008
Si Si3 0.222005 0.716666 0.770137
Si Si4 0.145874 0.710858 0.938151
Si Si5 0.261401 0.784246 0.594882
Si Si6 0.607987 0.778977 0.103132
O O1 0.498112 0.296345 0.357941
O O2 0.666049 0.198564 0.245930
O O3 0.536280 0.283043 0.193340
O O4 0.499358 0.000000 0.281697
O O5 0.971795 0.500000 0.437449
O O6 0.820224 0.306786 0.431771
O O7 0.881412 0.225660 0.533034
O O8 0.228526 0.500000 0.776163
O O9 0.142289 0.780919 0.858102
O O10 0.215552 0.751211 0.688313
O O11 0.117040 0.500000 0.943827
O O12 0.271151 0.724362 0.917520
O O13 0.089057 0.783558 0.027881
O O14 0.261983 0.000000 0.585399
O O15 0.603683 0.000000 0.104927
#
# Coordination Sequence:
#
# PCOD9178114 Si02
#       6
#     8   8   8   8   8   8
#     4   9  17  30  49  72  96 120 149 188 232 274
#     4   9  19  35  52  69  90 118 152 191 234 277
#     4  10  19  30  46  70  99 125 152 188 226 265
#     4   8  14  24  39  62  91 120 148 180 218 260
#     4  10  20  34  51  68  89 120 157 192 228 275
#     4   8  13  23  41  64  89 117 148 180 218 266
#
# _framework density 27.35642
#
# number of rings (size 3 to 8) (size 9 to 14) (size 15 to 20)
#    0.000    3.000    0.000    1.000    0.000    2.667 
#    0.000    3.333    0.000    1.000    0.000    7.000 
#    0.000    0.000    0.000    0.000    0.000    0.000 
#
# Total GULP energy -133875.663537 kJ/mol
# GULP energy per Si atom -5578.152647 kJ/mol
# Density = 2.729416 g / cm^3
# Si number density = 27.356420 Si / 1000 Ang^3
#
#
#
# Elastic Constant Matrix: (Units=GPa)
#
#
# Indices 1 2 3 4 5 6 
#
# 1 42.1757 1.8323 49.1764 0.0000 0.2698 0.0000
# 2 1.8323 122.7259 20.8841 0.0000 -2.6259 0.0000
# 3 49.1764 20.8841 353.4208 0.0000 -5.3845 0.0000
# 4 0.0000 0.0000 0.0000 -8.5033 0.0000 -1.4607
# 5 0.2698 -2.6259 -5.3845 0.0000 58.7966 0.0000
# 6 0.0000 0.0000 0.0000 -1.4607 0.0000 1.7466
#
#
#
# Elastic Compliance Matrix: (Units=1/GPa)
#
#
# Indices 1 2 3 4 5 6 
#
# 1 0.028323 0.000241 -0.003963 0.000000 -0.000482 0.000000
# 2 0.000241 0.008239 -0.000516 0.000000 0.000320 0.000000
# 3 -0.003963 -0.000516 0.003416 0.000000 0.000308 0.000000
# 4 0.000000 0.000000 0.000000 -0.102829 0.000000 -0.085995
# 5 -0.000482 0.000320 0.000308 0.000000 0.017052 0.000000
# 6 0.000000 0.000000 0.000000 -0.085995 0.000000 0.500626
#
#
# Mechanical properties :
#
#
# Convention : Reuss Voigt Hill
#
# Bulk Modulus (GPa) = 31.74155 73.56755 52.65455
# Shear Modulus (GPa) = 10.55291 40.16995 25.36143
#
# Velocity S-wave (km/s) = 1.96620 3.83612 3.04809
# Velocity P-wave (km/s) = 4.09667 6.82435 5.62825
#
# Compressibility (1/GPa) = 0.03150445
#
# Stress axis : x y z
#
# Youngs Moduli (GPa) = 35.30665 121.37087 292.73859
#
# Poissons Ratio (x) = -0.02927 1.16001
# Poissons Ratio (y) = -0.00851 0.15092
# Poissons Ratio (z) = 0.13991 0.06257
#
# Static dielectric constant tensor:
#      x y z
#    x 2.180880 0.000000 -0.007330 
#    y 0.000000 2.022490 0.000000 
#    z -0.007330 0.000000 2.328650 
# 
# From -- ./inp_files/274095.got.cif
#   From: 2010.05.17/outbox.cif.g08.bks.cpg/sg12_138_cif.got.tgz:274095.got - 2010.06.03 13:09:07.
