data_PCOD9178772
_publ_section_title
;
Structure prediction by ZEFSAII (Michael W. Deem and Ramdas Pophale) SiO2 
 PCOD9178772
Probable space group: C 2/M
;
_chemical_formula_sum "Si O2"
_cell_formula_units_Z 56
_cell_length_a 19.891396
_cell_length_b 7.559471
_cell_length_c 22.298966
_cell_angle_alpha 90.000000
_cell_angle_beta 123.776503
_cell_angle_gamma 90.000000
_cell_volume 2787.105951
_symmetry_space_group_name_H-M "C 2/M"
_symmetry_group_IT_number 12
_symmetry_cell_setting 'monoclinic'
loop_
_space_group_symop_operation_xyz
x,y,z
-x,y,-z
-x,-y,-z
x,-y,z
1/2+x,1/2+y,z
1/2-x,1/2+y,-z
1/2-x,1/2-y,-z
1/2+x,1/2-y,z
loop_
_atom_site_type_symbol
_atom_site_label
_atom_site_fract_x
_atom_site_fract_y
_atom_site_fract_z
Si Si1 0.916954 0.292068 0.488461
Si Si2 0.963871 0.285562 0.917369
Si Si3 0.742452 0.282209 0.353556
Si Si4 0.123357 0.712271 0.941132
Si Si5 0.716099 0.295845 0.206747
Si Si6 0.839346 0.790481 0.570692
Si Si7 0.260337 0.787229 0.103234
O O1 0.916885 0.500000 0.474235
O O2 0.832107 0.222445 0.419031
O O3 0.904567 0.276807 0.554516
O O4 0.000000 0.219690 0.500000
O O5 0.956429 0.500000 0.913391
O O6 0.877534 0.209507 0.858517
O O7 0.032352 0.227372 0.904557
O O8 0.000000 0.235979 0.000000
O O9 0.741673 0.500000 0.354901
O O10 0.727181 0.220344 0.278406
O O11 0.673410 0.225667 0.367218
O O12 0.121316 0.500000 0.935634
O O13 0.170763 0.782360 0.907065
O O14 0.176782 0.751679 0.026577
O O15 0.742724 0.500000 0.224645
O O16 0.760360 0.215869 0.170609
O O17 0.750000 0.750000 0.500000
O O18 0.850963 0.000000 0.578210
O O19 0.267632 0.000000 0.110335
#
# Coordination Sequence:
#
# PCOD9178772 Si02
#       7
#     8   8   8   8   8   8   8
#     4   9  17  31  52  77 102 128 161 198 240 287
#     4  10  19  31  46  65  91 122 153 193 244 287
#     4   8  16  31  48  68  96 128 156 192 240 284
#     4   9  17  30  45  62  87 115 147 189 238 281
#     4  10  19  31  48  68  92 122 159 198 238 283
#     4   9  16  29  50  72  97 129 164 197 236 285
#     4   9  17  28  45  66  84 111 152 192 227 274
#
# _framework density 20.092527
#
# number of rings (size 3 to 8) (size 9 to 14) (size 15 to 20)
#    0.000    2.857    1.429    1.286    0.000    1.143 
#    0.000    5.000    0.000    3.429    0.000    0.000 
#    0.000    0.000    0.000    0.000    0.000    0.000 
#
# Total GULP energy -155952.342250 kJ/mol
# GULP energy per Si atom -5569.726509 kJ/mol
# Density = 2.004680 g / cm^3
# Si number density = 20.092527 Si / 1000 Ang^3
#
#
#
# Elastic Constant Matrix: (Units=GPa)
#
#
# Indices 1 2 3 4 5 6 
#
# 1 137.4608 -0.0769 52.0089 0.0000 -33.4569 0.0000
# 2 -0.0769 42.4140 -3.5859 0.0000 1.1936 0.0000
# 3 52.0089 -3.5859 101.6432 0.0000 -37.9472 0.0000
# 4 0.0000 0.0000 0.0000 10.7937 0.0000 -4.3821
# 5 -33.4569 1.1936 -37.9472 0.0000 32.2843 0.0000
# 6 0.0000 0.0000 0.0000 -4.3821 0.0000 1.5056
#
#
#
# Elastic Compliance Matrix: (Units=1/GPa)
#
#
# Indices 1 2 3 4 5 6 
#
# 1 0.010010 -0.000390 -0.002241 0.000000 0.007754 0.000000
# 2 -0.000390 0.023663 0.000992 -0.000001 -0.000112 -0.000001
# 3 -0.002241 0.000992 0.018068 0.000000 0.018878 0.000000
# 4 0.000000 -0.000001 0.000000 -0.509987 0.000000 -1.484352
# 5 0.007754 -0.000112 0.018878 0.000000 0.061204 0.000000
# 6 0.000000 -0.000001 0.000000 -1.484352 0.000000 -3.656126
#
#
# Mechanical properties :
#
#
# Convention : Reuss Voigt Hill
#
# Bulk Modulus (GPa) = 20.63344 42.02336 31.32840
# Shear Modulus (GPa) = -1.23955 24.46150 11.61098
#
# Velocity S-wave (km/s) = -0.78629 3.49297 2.40651
# Velocity P-wave (km/s) = 3.07688 6.10149 4.83194
#
# Compressibility (1/GPa) = 0.04846502
#
# Stress axis : x y z
#
# Youngs Moduli (GPa) = 99.90435 42.25922 55.34696
#
# Poissons Ratio (x) = 0.01646 0.12401
# Poissons Ratio (y) = 0.03891 -0.05492
# Poissons Ratio (z) = 0.22385 -0.04193
#
# Static dielectric constant tensor:
#      x y z
#    x 1.761330 0.000000 -0.051560 
#    y 0.000000 1.742620 0.000000 
#    z -0.051560 0.000000 1.702820 
# 
# From -- ./inp_files/319340.got.cif
#   From: 2010.05.17/outbox.cif.g08.bks.cpg/sg12_160_cif.got.tgz:319340.got - 2010.06.03 13:09:07.
