data_PCOD9178097
_publ_section_title
;
Structure prediction by ZEFSAII (Michael W. Deem and Ramdas Pophale) SiO2 
 PCOD9178097
Probable space group: C 2/M
;
_chemical_formula_sum "Si O2"
_cell_formula_units_Z 64
_cell_length_a 23.457586
_cell_length_b 31.022201
_cell_length_c 5.029072
_cell_angle_alpha 90.000000
_cell_angle_beta 78.631668
_cell_angle_gamma 90.000000
_cell_volume 3587.883571
_symmetry_space_group_name_H-M "C 2/M"
_symmetry_group_IT_number 12
_symmetry_cell_setting 'monoclinic'
loop_
_space_group_symop_operation_xyz
x,y,z
-x,y,-z
-x,-y,-z
x,-y,z
1/2+x,1/2+y,z
1/2-x,1/2+y,-z
1/2-x,1/2-y,-z
1/2+x,1/2-y,z
loop_
_atom_site_type_symbol
_atom_site_label
_atom_site_fract_x
_atom_site_fract_y
_atom_site_fract_z
Si Si1 0.813743 0.172006 0.635089
Si Si2 0.312403 0.049250 0.694937
Si Si3 0.293927 0.274186 0.154918
Si Si4 0.091731 0.640019 0.841769
Si Si5 0.718141 0.103099 0.773936
Si Si6 0.437371 0.086509 0.631256
Si Si7 0.916127 0.736506 0.008167
Si Si8 0.438826 0.706836 0.474258
O O1 0.782433 0.205357 0.455342
O O2 0.777046 0.128441 0.655072
O O3 0.882355 0.176141 0.503310
O O4 0.811467 0.186398 0.944954
O O5 0.292785 0.064960 0.424351
O O6 0.382241 0.055584 0.645076
O O7 0.297157 0.000000 0.763233
O O8 0.285111 0.082338 0.931996
O O9 0.348065 0.242518 0.137009
O O10 0.250000 0.250000 0.000000
O O11 0.161928 0.634758 0.798518
O O12 0.073521 0.626515 0.562242
O O13 0.070730 0.686796 0.953393
O O14 0.065802 0.605027 0.069187
O O15 0.500000 0.067843 0.500000
O O16 0.945945 0.767487 0.194619
O O17 0.925375 0.756215 0.707913
O O18 0.500000 0.685861 0.500000
#
# Coordination Sequence:
#
# PCOD9178097 Si02
#       8
#     8   8   8   8   8   8   8   8
#     4  10  20  33  50  71  97 130 165 206 247 293
#     4  10  21  37  56  77 100 123 151 195 248 303
#     4  10  19  30  46  69  97 129 169 208 245 287
#     4  10  20  32  47  69  97 129 167 211 247 278
#     4  10  20  35  54  75 100 126 158 199 250 301
#     4  10  21  34  49  70  95 128 166 201 240 288
#     4  10  20  31  46  67  93 133 173 208 251 280
#     4  10  21  34  47  68  98 132 172 211 244 283
#
# _framework density 17.837816
#
# number of rings (size 3 to 8) (size 9 to 14) (size 15 to 20)
#    0.000    2.000    0.000    3.750    0.000    7.250 
#    0.000    0.000    0.000    4.500    0.000    0.000 
#    0.000    3.000    0.000    0.000    0.000    0.000 
#
# Total GULP energy -178483.124968 kJ/mol
# GULP energy per Si atom -5577.597655 kJ/mol
# Density = 1.779722 g / cm^3
# Si number density = 17.837816 Si / 1000 Ang^3
#
#
#
# Elastic Constant Matrix: (Units=GPa)
#
#
# Indices 1 2 3 4 5 6 
#
# 1 92.0449 26.1149 5.1326 0.0000 -5.5864 0.0000
# 2 26.1149 45.6745 -1.3107 0.0000 -9.0935 0.0000
# 3 5.1326 -1.3107 78.3901 0.0000 3.5586 0.0000
# 4 0.0000 0.0000 0.0000 8.3301 0.0000 2.7470
# 5 -5.5864 -9.0935 3.5586 0.0000 23.1454 0.0000
# 6 0.0000 0.0000 0.0000 2.7470 0.0000 -2.6021
#
#
#
# Elastic Compliance Matrix: (Units=1/GPa)
#
#
# Indices 1 2 3 4 5 6 
#
# 1 0.013046 -0.007410 -0.000996 0.000000 0.000391 0.000000
# 2 -0.007410 0.027961 0.000539 0.000000 0.009114 0.000000
# 3 -0.000996 0.000539 0.012922 0.000000 -0.002015 0.000000
# 4 0.000000 0.000000 0.000000 0.089046 0.000000 0.094006
# 5 0.000391 0.009114 -0.002015 0.000000 0.047190 0.000000
# 6 0.000000 0.000000 0.000000 0.094006 0.000000 -0.285068
#
#
# Mechanical properties :
#
#
# Convention : Reuss Voigt Hill
#
# Bulk Modulus (GPa) = 26.18112 30.66480 28.42296
# Shear Modulus (GPa) = -75.25874 18.18619 -28.53628
#
# Velocity S-wave (km/s) = -6.50247 3.19647 -4.00404
# Velocity P-wave (km/s) = 6.45500 5.55441 2.32546
#
# Compressibility (1/GPa) = 0.03819546
#
# Stress axis : x y z
#
# Youngs Moduli (GPa) = 76.65279 35.76435 77.38487
#
# Poissons Ratio (x) = 0.26501 0.07706
# Poissons Ratio (y) = 0.56799 -0.04170
# Poissons Ratio (z) = 0.07633 -0.01927
#
# Static dielectric constant tensor:
#      x y z
#    x 1.720300 0.000000 0.027910 
#    y 0.000000 1.572580 0.000000 
#    z 0.027910 0.000000 1.645970 
# 
# From -- ./inp_files/26406.got.cif
#   From: 2010.05.17/outbox.cif.g08.bks.cpg/sg12_14_cif.got.tgz:26406.got - 2010.06.03 13:09:07.
