data_PCOD9178840
_publ_section_title
;
Structure prediction by ZEFSAII (Michael W. Deem and Ramdas Pophale) SiO2 
 PCOD9178840
Probable space group: C 2/M
;
_chemical_formula_sum "Si O2"
_cell_formula_units_Z 56
_cell_length_a 25.255807
_cell_length_b 7.261330
_cell_length_c 12.568220
_cell_angle_alpha 90.000000
_cell_angle_beta 112.344578
_cell_angle_gamma 90.000000
_cell_volume 2131.830395
_symmetry_space_group_name_H-M "C 2/M"
_symmetry_group_IT_number 12
_symmetry_cell_setting 'monoclinic'
loop_
_space_group_symop_operation_xyz
x,y,z
-x,y,-z
-x,-y,-z
x,-y,z
1/2+x,1/2+y,z
1/2-x,1/2+y,-z
1/2-x,1/2-y,-z
1/2+x,1/2-y,z
loop_
_atom_site_type_symbol
_atom_site_label
_atom_site_fract_x
_atom_site_fract_y
_atom_site_fract_z
Si Si1 0.336565 0.277822 0.052702
Si Si2 0.811824 0.779450 0.418046
Si Si3 0.545491 0.707399 0.956674
Si Si4 0.398698 0.724912 0.313052
Si Si5 0.015690 0.207435 0.318470
Si Si6 0.795830 0.785054 0.813156
Si Si7 0.637628 0.725779 0.333441
O O1 0.333243 0.500000 0.062677
O O2 0.391965 0.223008 0.023174
O O3 0.355810 0.213325 0.184500
O O4 0.288427 0.215872 0.929739
O O5 0.869648 0.723441 0.400847
O O6 0.760273 0.725087 0.302406
O O7 0.815631 0.717418 0.542635
O O8 0.810922 0.000000 0.419931
O O9 0.555279 0.500000 0.007766
O O10 0.515408 0.693756 0.819716
O O11 0.500000 0.798130 0.000000
O O12 0.401306 0.500000 0.308630
O O13 0.464103 0.788945 0.348870
O O14 0.076840 0.288026 0.333592
O O15 0.027365 0.000000 0.369444
O O16 0.844502 0.709939 0.769938
O O17 0.808666 0.000000 0.836905
O O18 0.635670 0.500000 0.327399
#
# Coordination Sequence:
#
# PCOD9178840 Si02
#       7
#     8   8   8   8   8   8   8
#     4   8  14  24  39  60  86 113 141 177 217 256
#     4  10  20  32  45  63  91 122 149 180 215 256
#     4   8  11  16  30  54  84 112 133 163 215 267
#     4   8  15  27  42  64  92 117 141 174 222 270
#     4   8  13  22  38  61  88 113 137 172 220 267
#     4  10  19  31  47  66  88 116 151 186 217 252
#     4   9  17  28  43  65  90 115 145 182 222 260
#
# _framework density 26.268507
#
# number of rings (size 3 to 8) (size 9 to 14) (size 15 to 20)
#    0.000    3.286    0.000    3.000    0.000    4.571 
#    0.000    2.857    0.000    0.000    0.000    3.000 
#    0.000   12.000    0.000    0.000    0.000    0.000 
#
# Total GULP energy -156189.869381 kJ/mol
# GULP energy per Si atom -5578.209621 kJ/mol
# Density = 2.620872 g / cm^3
# Si number density = 26.268507 Si / 1000 Ang^3
#
#
#
# Elastic Constant Matrix: (Units=GPa)
#
#
# Indices 1 2 3 4 5 6 
#
# 1 65.1020 -2.1532 20.0451 0.0000 -1.5704 0.0000
# 2 -2.1532 113.3126 0.1775 0.0000 -5.1297 0.0000
# 3 20.0451 0.1775 133.9641 0.0000 -14.4249 0.0000
# 4 0.0000 0.0000 0.0000 26.4418 0.0000 24.3168
# 5 -1.5704 -5.1297 -14.4249 0.0000 43.0016 0.0000
# 6 0.0000 0.0000 0.0000 24.3168 0.0000 -16.3105
#
#
#
# Elastic Compliance Matrix: (Units=1/GPa)
#
#
# Indices 1 2 3 4 5 6 
#
# 1 0.016115 0.000301 -0.002432 0.000000 -0.000191 0.000000
# 2 0.000301 0.008880 0.000061 0.000000 0.001091 0.000000
# 3 -0.002432 0.000061 0.008113 0.000000 0.002640 0.000000
# 4 0.000000 0.000000 0.000000 0.015950 0.000000 0.023780
# 5 -0.000191 0.001091 0.002640 0.000000 0.024264 0.000000
# 6 0.000000 0.000000 0.000000 0.023780 0.000000 -0.025858
#
#
# Mechanical properties :
#
#
# Convention : Reuss Voigt Hill
#
# Bulk Modulus (GPa) = 34.52200 38.72417 36.62308
# Shear Modulus (GPa) = 81.61919 30.24720 55.93320
#
# Velocity S-wave (km/s) = 5.58019 3.39700 4.61943
# Velocity P-wave (km/s) = 7.39517 5.49180 6.51339
#
# Compressibility (1/GPa) = 0.02896704
#
# Stress axis : x y z
#
# Youngs Moduli (GPa) = 62.05489 112.61072 123.26200
#
# Poissons Ratio (x) = -0.03394 0.29981
# Poissons Ratio (y) = -0.01870 -0.00747
# Poissons Ratio (z) = 0.15093 -0.00682
#
# Static dielectric constant tensor:
#      x y z
#    x 2.131820 0.000000 0.045710 
#    y 0.000000 2.142920 0.000000 
#    z 0.045710 0.000000 2.065070 
# 
# From -- ./inp_files/181954.got.cif
#   From: 2010.05.17/outbox.cif.g08.bks.cpg/sg12_91_cif.got.tgz:181954.got - 2010.06.03 13:09:07.
