data_PCOD9178224
_publ_section_title
;
Structure prediction by ZEFSAII (Michael W. Deem and Ramdas Pophale) SiO2 
 PCOD9178224
Probable space group: C 2/M
;
_chemical_formula_sum "Si O2"
_cell_formula_units_Z 56
_cell_length_a 22.450316
_cell_length_b 7.622701
_cell_length_c 19.796740
_cell_angle_alpha 90.000000
_cell_angle_beta 46.490319
_cell_angle_gamma 90.000000
_cell_volume 2457.070298
_symmetry_space_group_name_H-M "C 2/M"
_symmetry_group_IT_number 12
_symmetry_cell_setting 'monoclinic'
loop_
_space_group_symop_operation_xyz
x,y,z
-x,y,-z
-x,-y,-z
x,-y,z
1/2+x,1/2+y,z
1/2-x,1/2+y,-z
1/2-x,1/2-y,-z
1/2+x,1/2-y,z
loop_
_atom_site_type_symbol
_atom_site_label
_atom_site_fract_x
_atom_site_fract_y
_atom_site_fract_z
Si Si1 0.941212 0.713986 0.106559
Si Si2 0.096090 0.713610 0.721947
Si Si3 0.947851 0.202391 0.397225
Si Si4 0.654981 0.789672 0.056323
Si Si5 0.877833 0.704422 0.773343
Si Si6 0.695303 0.207779 0.880100
Si Si7 0.273729 0.710009 0.559001
O O1 0.946431 0.500000 0.105681
O O2 0.955487 0.770431 0.172421
O O3 0.851273 0.768969 0.150081
O O4 0.000000 0.770314 0.000000
O O5 0.091838 0.500000 0.719735
O O6 0.070973 0.782882 0.668456
O O7 0.191249 0.765556 0.661513
O O8 0.866236 0.280642 0.496600
O O9 0.039262 0.274883 0.333694
O O10 0.952696 0.000000 0.412608
O O11 0.610728 0.721936 0.158829
O O12 0.639217 0.000000 0.064357
O O13 0.750000 0.750000 0.000000
O O14 0.651437 0.720111 0.982516
O O15 0.863276 0.500000 0.794320
O O16 0.793110 0.770786 0.807672
O O17 0.680836 0.000000 0.893606
O O18 0.278981 0.500000 0.562954
O O19 0.250000 0.750000 0.500000
#
# Coordination Sequence:
#
# PCOD9178224 Si02
#       7
#     8   8   8   8   8   8   8
#     4   9  18  30  50  75  98 127 162 196 231 278
#     4   9  17  31  51  73  98 128 161 196 235 284
#     4  10  19  30  47  73 101 126 156 198 246 290
#     4   8  15  26  42  62  86 116 150 187 227 272
#     4  10  19  30  47  71  95 124 159 199 244 287
#     4   9  17  31  48  67  94 127 160 194 234 283
#     4   8  15  28  46  69  96 124 155 194 240 285
#
# _framework density 22.791371999999999
#
# number of rings (size 3 to 8) (size 9 to 14) (size 15 to 20)
#    0.000    3.000    0.000    0.857    2.000    1.143 
#    0.000    0.714    0.000    1.714    0.000    6.000 
#    0.000    0.000    0.000    0.000    0.000    0.000 
#
# Total GULP energy -155931.381632 kJ/mol
# GULP energy per Si atom -5568.977915 kJ/mol
# Density = 2.273950 g / cm^3
# Si number density = 22.791372 Si / 1000 Ang^3
#
#
#
# Elastic Constant Matrix: (Units=GPa)
#
#
# Indices 1 2 3 4 5 6 
#
# 1 47.8737 -5.2596 -2.0212 -0.0019 -10.8308 0.0018
# 2 -5.2596 38.5552 -8.4585 -0.0049 3.4925 0.0099
# 3 -2.0212 -8.4585 76.8595 -0.0002 -22.5166 0.0003
# 4 -0.0019 -0.0049 -0.0002 -1.6553 0.0006 6.0371
# 5 -10.8308 3.4925 -22.5166 0.0006 30.1840 -0.0011
# 6 0.0018 0.0099 0.0003 6.0371 -0.0011 0.3502
#
#
#
# Elastic Compliance Matrix: (Units=1/GPa)
#
#
# Indices 1 2 3 4 5 6 
#
# 1 0.024023 0.003190 0.004351 -0.000011 0.011497 0.000006
# 2 0.003190 0.027033 0.003171 -0.000046 0.000382 0.000010
# 3 0.004351 0.003171 0.017690 -0.000005 0.014391 0.000002
# 4 -0.000011 -0.000046 -0.000005 -0.009457 0.000004 0.163050
# 5 0.011497 0.000382 0.014391 0.000004 0.047946 0.000001
# 6 0.000006 0.000010 0.000002 0.163050 0.000001 0.044706
#
#
# Mechanical properties :
#
#
# Convention : Reuss Voigt Hill
#
# Bulk Modulus (GPa) = 11.09007 14.64553 12.86780
# Shear Modulus (GPa) = 31.13825 17.71096 24.42460
#
# Velocity S-wave (km/s) = 3.70026 2.79066 3.27717
# Velocity P-wave (km/s) = 4.80962 4.10165 4.46967
#
# Compressibility (1/GPa) = 0.09017078
#
# Stress axis : x y z
#
# Youngs Moduli (GPa) = 41.62595 36.99173 56.52923
#
# Poissons Ratio (x) = -0.11802 -0.24595
# Poissons Ratio (y) = -0.13280 -0.17925
# Poissons Ratio (z) = -0.18111 -0.11730
#
# Static dielectric constant tensor:
#      x y z
#    x 1.864530 0.000000 -0.029970 
#    y 0.000000 1.947330 0.000000 
#    z -0.029970 0.000000 1.913140 
# 
# From -- ./inp_files/348480.got.cif
#   From: 2010.05.17/outbox.cif.g08.bks.cpg/sg12_175_cif.got.tgz:348480.got - 2010.06.03 13:09:07.
