data_PCOD9178867
_publ_section_title
;
Structure prediction by ZEFSAII (Michael W. Deem and Ramdas Pophale) SiO2 
 PCOD9178867
Probable space group: C 2/M
;
_chemical_formula_sum "Si O2"
_cell_formula_units_Z 64
_cell_length_a 20.736036
_cell_length_b 7.718748
_cell_length_c 24.585437
_cell_angle_alpha 90.000000
_cell_angle_beta 120.611803
_cell_angle_gamma 90.000000
_cell_volume 3386.652366
_symmetry_space_group_name_H-M "C 2/M"
_symmetry_group_IT_number 12
_symmetry_cell_setting 'monoclinic'
loop_
_space_group_symop_operation_xyz
x,y,z
-x,y,-z
-x,-y,-z
x,-y,z
1/2+x,1/2+y,z
1/2-x,1/2+y,-z
1/2-x,1/2-y,-z
1/2+x,1/2-y,z
loop_
_atom_site_type_symbol
_atom_site_label
_atom_site_fract_x
_atom_site_fract_y
_atom_site_fract_z
Si Si1 0.902293 0.791717 0.825746
Si Si2 0.839535 0.301695 0.306039
Si Si3 0.919930 0.707195 0.445105
Si Si4 0.204547 0.791981 0.034123
Si Si5 0.271807 0.705359 0.448104
Si Si6 0.754517 0.212577 0.829693
Si Si7 0.965250 0.788197 0.043135
Si Si8 0.694656 0.794437 0.309333
O O1 0.832559 0.734781 0.834039
O O2 0.881809 0.740057 0.755531
O O3 0.979571 0.729199 0.885163
O O4 0.902947 0.000000 0.828049
O O5 0.863728 0.500000 0.306947
O O6 0.894752 0.221771 0.374911
O O7 0.815129 0.225364 0.237348
O O8 0.760013 0.300777 0.303794
O O9 0.927178 0.500000 0.441451
O O10 0.851742 0.732212 0.458496
O O11 0.000000 0.774640 0.500000
O O12 0.241886 0.730040 0.106437
O O13 0.199969 0.000000 0.037444
O O14 0.250000 0.750000 0.000000
O O15 0.119757 0.726536 0.991282
O O16 0.276108 0.500000 0.447509
O O17 0.250000 0.750000 0.500000
O O18 0.207779 0.760835 0.377127
O O19 0.752480 0.000000 0.827273
O O20 0.964275 0.000000 0.044307
O O21 0.000000 0.739896 0.000000
O O22 0.709233 0.000000 0.311797
#
# Coordination Sequence:
#
# PCOD9178867 Si02
#       8
#     8   8   8   8   8   8   8   8
#     4   9  15  26  48  73  90 113 154 202 239 270
#     4   8  14  26  46  70  91 118 161 199 228 273
#     4   9  17  30  50  76 103 129 159 199 244 290
#     4  10  19  31  47  67  93 123 155 191 235 282
#     4  10  20  33  51  73  99 132 167 202 241 289
#     4   8  13  24  45  68  87 112 153 196 227 266
#     4   9  15  27  50  74  90 114 159 204 231 264
#     4   9  17  28  43  69 100 125 150 190 244 287
#
# _framework density 18.897717
#
# number of rings (size 3 to 8) (size 9 to 14) (size 15 to 20)
#    0.000    3.000    1.250    1.500    0.000    1.750 
#    0.000    3.125    2.750    0.750    0.000    0.000 
#    0.000    0.000    0.000    0.000    0.000    0.000 
#
# Total GULP energy -178151.228145 kJ/mol
# GULP energy per Si atom -5567.225880 kJ/mol
# Density = 1.885471 g / cm^3
# Si number density = 18.897717 Si / 1000 Ang^3
#
#
#
# Elastic Constant Matrix: (Units=GPa)
#
#
# Indices 1 2 3 4 5 6 
#
# 1 80.5171 -0.0422 84.6724 0.0000 3.5554 0.0000
# 2 -0.0422 31.5540 8.7467 0.0000 2.9498 0.0000
# 3 84.6724 8.7467 242.8456 0.0000 8.8358 0.0000
# 4 0.0000 0.0000 0.0000 12.9518 0.0000 -6.5000
# 5 3.5554 2.9498 8.8358 0.0000 28.0442 0.0000
# 6 0.0000 0.0000 0.0000 -6.5000 0.0000 11.4479
#
#
#
# Elastic Compliance Matrix: (Units=1/GPa)
#
#
# Indices 1 2 3 4 5 6 
#
# 1 0.019736 0.001998 -0.006934 0.000000 -0.000528 0.000000
# 2 0.001998 0.032472 -0.001753 0.000000 -0.003117 0.000000
# 3 -0.006934 -0.001753 0.006636 0.000000 -0.001027 0.000000
# 4 0.000000 0.000000 0.000000 0.107978 0.000000 0.061309
# 5 -0.000528 -0.003117 -0.001027 0.000000 0.036376 0.000000
# 6 0.000000 0.000000 0.000000 0.061309 0.000000 0.122162
#
#
# Mechanical properties :
#
#
# Convention : Reuss Voigt Hill
#
# Bulk Modulus (GPa) = 21.99461 60.18560 41.09011
# Shear Modulus (GPa) = 14.12854 27.92477 21.02665
#
# Velocity S-wave (km/s) = 2.73725 3.84823 3.33927
# Velocity P-wave (km/s) = 4.65340 7.18765 6.05461
#
# Compressibility (1/GPa) = 0.04546569
#
# Stress axis : x y z
#
# Youngs Moduli (GPa) = 50.66888 30.79614 150.69243
#
# Poissons Ratio (x) = -0.06153 1.04491
# Poissons Ratio (y) = -0.10123 0.26412
# Poissons Ratio (z) = 0.35134 0.05398
#
# Static dielectric constant tensor:
#      x y z
#    x 1.741020 0.000000 -0.073800 
#    y 0.000000 1.700210 0.000000 
#    z -0.073800 0.000000 1.806070 
# 
# From -- ./inp_files/345580.got.cif
#   From: 2010.05.17/outbox.cif.g08.bks.cpg/sg12_173_cif.got.tgz:345580.got - 2010.06.03 13:09:07.
