data_PCOD9178624
_publ_section_title
;
Structure prediction by ZEFSAII (Michael W. Deem and Ramdas Pophale) SiO2 
 PCOD9178624
Probable space group: C 2/M
;
_chemical_formula_sum "Si O2"
_cell_formula_units_Z 64
_cell_length_a 20.698092
_cell_length_b 9.143123
_cell_length_c 31.716725
_cell_angle_alpha 90.000000
_cell_angle_beta 141.888588
_cell_angle_gamma 90.000000
_cell_volume 3704.536889
_symmetry_space_group_name_H-M "C 2/M"
_symmetry_group_IT_number 12
_symmetry_cell_setting 'monoclinic'
loop_
_space_group_symop_operation_xyz
x,y,z
-x,y,-z
-x,-y,-z
x,-y,z
1/2+x,1/2+y,z
1/2-x,1/2+y,-z
1/2-x,1/2-y,-z
1/2+x,1/2-y,z
loop_
_atom_site_type_symbol
_atom_site_label
_atom_site_fract_x
_atom_site_fract_y
_atom_site_fract_z
Si Si1 0.959535 0.674522 0.763778
Si Si2 0.887891 0.673397 0.353108
Si Si3 0.431179 0.668544 0.507796
Si Si4 0.258132 0.325684 0.213409
Si Si5 0.310114 0.174364 0.152857
Si Si6 0.526785 0.174358 0.129836
Si Si7 0.747759 0.173037 0.631312
Si Si8 0.316815 0.674849 0.997293
O O1 0.939771 0.500000 0.750992
O O2 0.968920 0.710986 0.818237
O O3 0.862658 0.759632 0.694060
O O4 0.070065 0.705970 0.798572
O O5 0.899165 0.500000 0.352781
O O6 0.836081 0.748795 0.286299
O O7 0.810425 0.696469 0.353437
O O8 0.998277 0.745452 0.422429
O O9 0.500000 0.669632 0.500000
O O10 0.415063 0.500000 0.511621
O O11 0.323706 0.747707 0.440212
O O12 0.273409 0.500000 0.222619
O O13 0.277073 0.263250 0.176796
O O14 0.139414 0.295265 0.167408
O O15 0.302241 0.000000 0.157060
O O16 0.237510 0.207717 0.075289
O O17 0.433661 0.262954 0.060452
O O18 0.505619 0.000000 0.115738
O O19 0.750693 0.000000 0.625162
O O20 0.315331 0.500000 0.002254
O O21 0.250000 0.750000 0.000000
#
# Coordination Sequence:
#
# PCOD9178624 Si02
#       8
#     8   8   8   8   8   8   8   8
#     4  10  19  36  58  79 111 149 187 231 279 332
#     4  10  19  32  52  79 114 150 185 230 281 331
#     4   9  17  29  48  76 111 150 188 227 277 330
#     4  11  23  38  58  83 114 150 188 233 279 334
#     4  10  23  41  58  80 112 149 186 229 282 338
#     4  10  21  38  59  84 113 146 188 233 280 332
#     4  10  19  30  50  83 115 143 185 236 280 325
#     4  11  22  38  61  86 113 147 186 233 284 335
#
# _framework density 17.276115000000001
#
# number of rings (size 3 to 8) (size 9 to 14) (size 15 to 20)
#    0.000    1.875    2.500    1.875    0.000    6.000 
#    0.000    2.500    0.000    0.750    0.000    0.000 
#    0.000    0.000    0.000    0.000    0.000    0.000 
#
# Total GULP energy -178692.070601 kJ/mol
# GULP energy per Si atom -5584.127206 kJ/mol
# Density = 1.723679 g / cm^3
# Si number density = 17.276115 Si / 1000 Ang^3
#
#
#
# Elastic Constant Matrix: (Units=GPa)
#
#
# Indices 1 2 3 4 5 6 
#
# 1 85.6301 58.4158 57.1832 0.0000 -7.8393 0.0000
# 2 58.4158 86.7724 93.1013 -0.0001 -5.6456 0.0000
# 3 57.1832 93.1013 176.0160 0.0000 -0.1395 0.0000
# 4 0.0000 -0.0001 0.0000 39.5361 0.0000 0.7454
# 5 -7.8393 -5.6456 -0.1395 0.0000 18.2281 0.0000
# 6 0.0000 0.0000 0.0000 0.7454 0.0000 26.9985
#
#
#
# Elastic Compliance Matrix: (Units=1/GPa)
#
#
# Indices 1 2 3 4 5 6 
#
# 1 0.022144 -0.015940 0.001241 0.000000 0.004596 0.000000
# 2 -0.015940 0.039388 -0.015651 0.000000 0.005224 0.000000
# 3 0.001241 -0.015651 0.013553 0.000000 -0.004210 0.000000
# 4 0.000000 0.000000 0.000000 0.025306 0.000000 -0.000699
# 5 0.004596 0.005224 -0.004210 0.000000 0.058423 0.000000
# 6 0.000000 0.000000 0.000000 -0.000699 0.000000 0.037058
#
#
# Mechanical properties :
#
#
# Convention : Reuss Voigt Hill
#
# Bulk Modulus (GPa) = 69.51711 85.09101 77.30406
# Shear Modulus (GPa) = 19.13009 26.26710 22.69859
#
# Velocity S-wave (km/s) = 3.33124 3.90350 3.62867
# Velocity P-wave (km/s) = 7.42445 8.34727 7.89935
#
# Compressibility (1/GPa) = 0.01438495
#
# Stress axis : x y z
#
# Youngs Moduli (GPa) = 45.15809 25.38865 73.78302
#
# Poissons Ratio (x) = 0.40469 -0.09154
# Poissons Ratio (y) = 0.71982 1.15477
# Poissons Ratio (z) = -0.05603 0.39736
#
# Static dielectric constant tensor:
#      x y z
#    x 1.564290 0.000000 0.004340 
#    y 0.000000 1.573720 0.000000 
#    z 0.004340 0.000000 1.563760 
# 
# From -- ./inp_files/378543.got.cif
#   From: 2010.05.17/outbox.cif.g08.bks.cpg/sg12_190_cif.got.tgz:378543.got - 2010.06.03 13:09:07.
