data_PCOD9178155
_publ_section_title
;
Structure prediction by ZEFSAII (Michael W. Deem and Ramdas Pophale) SiO2 
 PCOD9178155
Probable space group: C 2/M
;
_chemical_formula_sum "Si O2"
_cell_formula_units_Z 64
_cell_length_a 29.910349
_cell_length_b 7.711863
_cell_length_c 14.489155
_cell_angle_alpha 90.000000
_cell_angle_beta 89.110975
_cell_angle_gamma 90.000000
_cell_volume 3341.731577
_symmetry_space_group_name_H-M "C 2/M"
_symmetry_group_IT_number 12
_symmetry_cell_setting 'monoclinic'
loop_
_space_group_symop_operation_xyz
x,y,z
-x,y,-z
-x,-y,-z
x,-y,z
1/2+x,1/2+y,z
1/2-x,1/2+y,-z
1/2-x,1/2-y,-z
1/2+x,1/2-y,z
loop_
_atom_site_type_symbol
_atom_site_label
_atom_site_fract_x
_atom_site_fract_y
_atom_site_fract_z
Si Si1 0.848060 0.212571 0.348132
Si Si2 0.815506 0.705377 0.741551
Si Si3 0.279066 0.709538 0.189358
Si Si4 0.356843 0.204278 0.063848
Si Si5 0.075926 0.199102 0.780055
Si Si6 0.199843 0.206631 0.469176
Si Si7 0.606625 0.209719 0.135896
Si Si8 0.005429 0.794696 0.104030
O O1 0.809403 0.263562 0.276388
O O2 0.895268 0.275266 0.305270
O O3 0.833772 0.270687 0.449999
O O4 0.848850 0.000000 0.347526
O O5 0.815631 0.500000 0.760740
O O6 0.771049 0.775403 0.793546
O O7 0.809913 0.727054 0.632635
O O8 0.861723 0.772887 0.782365
O O9 0.278272 0.500000 0.189407
O O10 0.306129 0.766500 0.098176
O O11 0.388979 0.298427 0.135925
O O12 0.366602 0.000000 0.071208
O O13 0.369026 0.259655 0.960596
O O14 0.030822 0.279508 0.822895
O O15 0.066037 0.000000 0.754396
O O16 0.250000 0.250000 0.500000
O O17 0.196160 0.000000 0.465897
O O18 0.556033 0.274437 0.135187
O O19 0.603807 0.000000 0.138200
O O20 0.994989 0.000000 0.097625
O O21 0.000000 0.722714 0.000000
#
# Coordination Sequence:
#
# PCOD9178155 Si02
#       8
#     8   8   8   8   8   8   8   8
#     4   8  15  29  50  74  99 130 165 202 253 304
#     4  10  21  38  53  71 102 143 180 211 258 311
#     4   9  17  32  51  69  98 140 174 206 249 304
#     4  10  19  30  46  74 105 134 171 212 250 302
#     4   9  17  32  52  74 101 135 167 205 256 308
#     4  11  20  33  54  80 105 134 172 217 259 305
#     4  10  22  36  51  72 106 143 172 211 264 313
#     4  10  19  32  54  80 102 129 174 220 253 301
#
# _framework density 19.151748999999999
#
# number of rings (size 3 to 8) (size 9 to 14) (size 15 to 20)
#    0.000    2.375    2.500    1.500    0.000    2.750 
#    0.000    0.625    0.000    0.750    0.000    5.250 
#    0.000    0.000    0.000    0.000    0.000    0.000 
#
# Total GULP energy -178477.046562 kJ/mol
# GULP energy per Si atom -5577.407705 kJ/mol
# Density = 1.910816 g / cm^3
# Si number density = 19.151749 Si / 1000 Ang^3
#
#
#
# Elastic Constant Matrix: (Units=GPa)
#
#
# Indices 1 2 3 4 5 6 
#
# 1 155.9881 -3.2941 71.2611 0.0000 -23.3022 0.0000
# 2 -3.2941 28.1619 -12.8981 0.0000 -4.3541 0.0000
# 3 71.2611 -12.8981 74.9014 0.0000 -19.7873 0.0000
# 4 0.0000 0.0000 0.0000 11.2568 0.0000 -3.1062
# 5 -23.3022 -4.3541 -19.7873 0.0000 32.1746 0.0000
# 6 0.0000 0.0000 0.0000 -3.1062 0.0000 14.2307
#
#
#
# Elastic Compliance Matrix: (Units=1/GPa)
#
#
# Indices 1 2 3 4 5 6 
#
# 1 0.011771 -0.003817 -0.011630 0.000000 0.000856 0.000000
# 2 -0.003817 0.043423 0.014246 0.000000 0.011873 0.000000
# 3 -0.011630 0.014246 0.030033 0.000000 0.011975 0.000000
# 4 0.000000 0.000000 0.000000 0.094529 0.000000 0.020633
# 5 0.000856 0.011873 0.011975 0.000000 0.040671 0.000000
# 6 0.000000 0.000000 0.000000 0.020633 0.000000 0.074774
#
#
# Mechanical properties :
#
#
# Convention : Reuss Voigt Hill
#
# Bulk Modulus (GPa) = 12.07400 41.02103 26.54752
# Shear Modulus (GPa) = 15.37458 25.13124 20.25291
#
# Velocity S-wave (km/s) = 2.83641 3.62638 3.25545
# Velocity P-wave (km/s) = 4.12856 6.24497 5.29361
#
# Compressibility (1/GPa) = 0.08282257
#
# Stress axis : x y z
#
# Youngs Moduli (GPa) = 84.95347 23.02943 33.29720
#
# Poissons Ratio (x) = 0.08791 0.38726
# Poissons Ratio (y) = 0.32431 -0.47435
# Poissons Ratio (z) = 0.98804 -0.32807
#
# Static dielectric constant tensor:
#      x y z
#    x 1.671690 0.000000 -0.042110 
#    y 0.000000 2.369610 0.000000 
#    z -0.042110 0.000000 1.652090 
# 
# From -- ./inp_files/248428.got.cif
#   From: 2010.05.17/outbox.cif.g08.bks.cpg/sg12_125_cif.got.tgz:248428.got - 2010.06.03 13:09:07.
