data_PCOD9178860
_publ_section_title
;
Structure prediction by ZEFSAII (Michael W. Deem and Ramdas Pophale) SiO2 
 PCOD9178860
Probable space group: C 2/M
;
_chemical_formula_sum "Si O2"
_cell_formula_units_Z 48
_cell_length_a 29.971421
_cell_length_b 7.319255
_cell_length_c 22.277099
_cell_angle_alpha 90.000000
_cell_angle_beta 21.176925
_cell_angle_gamma 90.000000
_cell_volume 1765.385579
_symmetry_space_group_name_H-M "C 2/M"
_symmetry_group_IT_number 12
_symmetry_cell_setting 'monoclinic'
loop_
_space_group_symop_operation_xyz
x,y,z
-x,y,-z
-x,-y,-z
x,-y,z
1/2+x,1/2+y,z
1/2-x,1/2+y,-z
1/2-x,1/2-y,-z
1/2+x,1/2-y,z
loop_
_atom_site_type_symbol
_atom_site_label
_atom_site_fract_x
_atom_site_fract_y
_atom_site_fract_z
Si Si1 0.073867 0.780032 0.252572
Si Si2 0.166320 0.706024 0.762505
Si Si3 0.490223 0.775996 0.145560
Si Si4 0.643442 0.722846 0.383825
Si Si5 0.752186 0.777727 0.868989
Si Si6 0.123256 0.290136 0.593260
O O1 0.200930 0.716315 0.124461
O O2 0.012794 0.714780 0.267536
O O3 0.971157 0.724376 0.431306
O O4 0.076161 0.000000 0.246028
O O5 0.133022 0.500000 0.821767
O O6 0.233104 0.788163 0.736399
O O7 0.054500 0.785366 0.863822
O O8 0.221074 0.804554 0.427315
O O9 0.393653 0.719856 0.318383
O O10 0.490106 0.000000 0.144062
O O11 0.621778 0.717590 0.006037
O O12 0.644015 0.500000 0.384109
O O13 0.651327 0.773631 0.304666
O O14 0.749042 0.000000 0.875412
O O15 0.160764 0.500000 0.548049
#
# Coordination Sequence:
#
# PCOD9178860 Si02
#       6
#     8   8   8   8   8   8
#     4   9  17  30  49  71  92 118 154 190 223 265
#     4   9  17  31  50  71  92 115 151 192 227 269
#     4   9  18  29  43  68  98 123 148 184 228 272
#     4   8  14  25  45  71  93 115 147 187 227 268
#     4   9  16  27  45  70  98 122 145 183 233 272
#     4  10  19  31  47  67  92 122 156 190 225 265
#
# _framework density 27.189526000000001
#
# number of rings (size 3 to 8) (size 9 to 14) (size 15 to 20)
#    0.000    3.000    0.000    2.500    0.000    3.333 
#    0.000    4.167    0.000   10.000    0.000    4.667 
#    0.000    0.000    0.000    0.000    0.000    0.000 
#
# Total GULP energy -134225.538878 kJ/mol
# GULP energy per Si atom -5592.730787 kJ/mol
# Density = 2.712764 g / cm^3
# Si number density = 27.189526 Si / 1000 Ang^3
#
#
#
# Elastic Constant Matrix: (Units=GPa)
#
#
# Indices 1 2 3 4 5 6 
#
# 1 200.6168 -0.2195 12.3598 -0.0030 -18.5058 0.0001
# 2 -0.2195 118.6537 -0.6529 -0.0160 -3.3765 -0.0016
# 3 12.3598 -0.6529 61.2880 -0.0127 -11.3404 0.0010
# 4 -0.0030 -0.0160 -0.0127 -0.8658 -0.0006 -1.7242
# 5 -18.5058 -3.3765 -11.3404 -0.0006 57.1112 0.0010
# 6 0.0001 -0.0016 0.0010 -1.7242 0.0010 3.3982
#
#
#
# Elastic Compliance Matrix: (Units=1/GPa)
#
#
# Indices 1 2 3 4 5 6 
#
# 1 0.005172 0.000049 -0.000760 -0.000004 0.001528 -0.000002
# 2 0.000049 0.008445 0.000182 -0.000083 0.000551 -0.000038
# 3 -0.000760 0.000182 0.017055 -0.000120 0.003151 -0.000067
# 4 -0.000004 -0.000083 -0.000120 -0.574484 -0.000030 -0.291487
# 5 0.001528 0.000551 0.003151 -0.000030 0.018663 -0.000022
# 6 -0.000002 -0.000038 -0.000067 -0.291487 -0.000022 0.146376
#
#
# Mechanical properties :
#
#
# Convention : Reuss Voigt Hill
#
# Bulk Modulus (GPa) = 33.76793 44.83704 39.30248
# Shear Modulus (GPa) = -13.59273 36.53345 11.47036
#
# Velocity S-wave (km/s) = -2.23833 3.66957 2.05617
# Velocity P-wave (km/s) = 2.40131 5.87203 4.48592
#
# Compressibility (1/GPa) = 0.02961390
#
# Stress axis : x y z
#
# Youngs Moduli (GPa) = 193.33207 118.41807 58.63522
#
# Poissons Ratio (x) = -0.00579 0.04455
# Poissons Ratio (y) = -0.00945 -0.01068
# Poissons Ratio (z) = 0.14690 -0.02156
#
# Static dielectric constant tensor:
#      x y z
#    x 2.075670 0.000000 -0.061250 
#    y 0.000000 2.063860 0.000000 
#    z -0.061250 0.000000 2.177940 
# 
# From -- ./inp_files/327457.got.cif
#   From: 2010.05.17/outbox.cif.g08.bks.cpg/sg12_164_cif.got.tgz:327457.got - 2010.06.03 13:09:07.
