data_PCOD9178247
_publ_section_title
;
Structure prediction by ZEFSAII (Michael W. Deem and Ramdas Pophale) SiO2 
 PCOD9178247
Probable space group: C 2/M
;
_chemical_formula_sum "Si O2"
_cell_formula_units_Z 64
_cell_length_a 23.612417
_cell_length_b 7.707037
_cell_length_c 24.947882
_cell_angle_alpha 90.000000
_cell_angle_beta 45.191826
_cell_angle_gamma 90.000000
_cell_volume 3221.037125
_symmetry_space_group_name_H-M "C 2/M"
_symmetry_group_IT_number 12
_symmetry_cell_setting 'monoclinic'
loop_
_space_group_symop_operation_xyz
x,y,z
-x,y,-z
-x,-y,-z
x,-y,z
1/2+x,1/2+y,z
1/2-x,1/2+y,-z
1/2-x,1/2-y,-z
1/2+x,1/2-y,z
loop_
_atom_site_type_symbol
_atom_site_label
_atom_site_fract_x
_atom_site_fract_y
_atom_site_fract_z
Si Si1 0.835373 0.804936 0.468688
Si Si2 0.097225 0.709337 0.287899
Si Si3 0.005300 0.790052 0.153119
Si Si4 0.319557 0.292117 0.994265
Si Si5 0.726940 0.712634 0.855895
Si Si6 0.462891 0.202901 0.299075
Si Si7 0.435640 0.288163 0.087406
Si Si8 0.531335 0.294971 0.536984
O O1 0.750000 0.750000 0.500000
O O2 0.895969 0.798466 0.378025
O O3 0.889834 0.724999 0.482046
O O4 0.820600 0.000000 0.496644
O O5 0.099325 0.500000 0.291011
O O6 0.187481 0.772588 0.222321
O O7 0.048596 0.754137 0.266415
O O8 0.042984 0.775212 0.372676
O O9 0.965237 0.731164 0.234569
O O10 0.959839 0.732426 0.130239
O O11 0.005932 0.000000 0.153850
O O12 0.096195 0.727297 0.084662
O O13 0.327987 0.500000 0.993634
O O14 0.294752 0.228553 0.069616
O O15 0.250000 0.250000 0.000000
O O16 0.729602 0.500000 0.855082
O O17 0.652874 0.765758 0.868973
O O18 0.450543 0.000000 0.318789
O O19 0.437725 0.500000 0.085150
O O20 0.500000 0.231472 0.000000
O O21 0.500000 0.224338 0.500000
O O22 0.546515 0.500000 0.518749
#
# Coordination Sequence:
#
# PCOD9178247 Si02
#       8
#     8   8   8   8   8   8   8   8
#     4  10  20  37  61  86 113 145 181 219 263 320
#     4   9  18  32  52  77 103 134 173 216 257 303
#     4  10  19  31  50  75 100 131 175 220 261 311
#     4  10  19  30  47  71  98 130 168 212 258 308
#     4   9  16  29  48  70  99 131 168 211 258 306
#     4  10  20  35  54  76 107 143 174 213 265 313
#     4   9  15  28  49  71  97 133 173 215 260 307
#     4   9  19  37  59  81 109 144 174 209 265 326
#
# _framework density 19.869375999999999
#
# number of rings (size 3 to 8) (size 9 to 14) (size 15 to 20)
#    0.000    2.500    1.250    1.500    0.000    2.750 
#    2.250    0.625    0.000    1.125    0.000    0.000 
#    0.000    0.000    0.000    0.000    0.000    0.000 
#
# Total GULP energy -178335.668037 kJ/mol
# GULP energy per Si atom -5572.989626 kJ/mol
# Density = 1.982415 g / cm^3
# Si number density = 19.869376 Si / 1000 Ang^3
#
#
#
# Elastic Constant Matrix: (Units=GPa)
#
#
# Indices 1 2 3 4 5 6 
#
# 1 179.0691 7.1125 69.1986 0.0003 -1.2961 0.0007
# 2 7.1125 30.0132 0.1211 0.0036 -4.6099 0.0089
# 3 69.1986 0.1211 74.5282 -0.0009 1.1710 0.0008
# 4 0.0003 0.0036 -0.0009 11.8953 -0.0007 -0.2536
# 5 -1.2961 -4.6099 1.1710 -0.0007 44.8500 0.0003
# 6 0.0007 0.0089 0.0008 -0.2536 0.0003 15.8721
#
#
#
# Elastic Compliance Matrix: (Units=1/GPa)
#
#
# Indices 1 2 3 4 5 6 
#
# 1 0.008838 -0.002021 -0.008207 0.000000 0.000262 0.000001
# 2 -0.002021 0.034316 0.001767 -0.000010 0.003423 -0.000019
# 3 -0.008207 0.001767 0.021044 0.000001 -0.000605 -0.000002
# 4 0.000000 -0.000010 0.000001 0.084095 0.000000 0.001343
# 5 0.000262 0.003423 -0.000605 0.000000 0.022672 -0.000002
# 6 0.000001 -0.000019 -0.000002 0.001343 -0.000002 0.063025
#
#
# Mechanical properties :
#
#
# Convention : Reuss Voigt Hill
#
# Bulk Modulus (GPa) = 21.15203 48.49722 34.82462
# Shear Modulus (GPa) = 18.74964 28.33537 23.54250
#
# Velocity S-wave (km/s) = 3.07521 3.78045 3.44592
# Velocity P-wave (km/s) = 4.82472 6.59672 5.77904
#
# Compressibility (1/GPa) = 0.04727679
#
# Stress axis : x y z
#
# Youngs Moduli (GPa) = 113.14753 29.14072 47.51872
#
# Poissons Ratio (x) = 0.05890 0.38998
# Poissons Ratio (y) = 0.22868 -0.08397
# Poissons Ratio (z) = 0.92858 -0.05149
#
# Static dielectric constant tensor:
#      x y z
#    x 1.716890 0.000000 -0.003080 
#    y 0.000000 1.763080 0.000000 
#    z -0.003080 0.000000 1.650550 
# 
# From -- ./inp_files/345940.got.cif
#   From: 2010.05.17/outbox.cif.g08.bks.cpg/sg12_173_cif.got.tgz:345940.got - 2010.06.03 13:09:07.
