data_PCOD9178935
_publ_section_title
;
Structure prediction by ZEFSAII (Michael W. Deem and Ramdas Pophale) SiO2 
 PCOD9178935
Probable space group: C 2/M
;
_chemical_formula_sum "Si O2"
_cell_formula_units_Z 48
_cell_length_a 14.561925
_cell_length_b 7.538449
_cell_length_c 22.008705
_cell_angle_alpha 90.000000
_cell_angle_beta 92.450684
_cell_angle_gamma 90.000000
_cell_volume 2413.781147
_symmetry_space_group_name_H-M "C 2/M"
_symmetry_group_IT_number 12
_symmetry_cell_setting 'monoclinic'
loop_
_space_group_symop_operation_xyz
x,y,z
-x,y,-z
-x,-y,-z
x,-y,z
1/2+x,1/2+y,z
1/2-x,1/2+y,-z
1/2-x,1/2-y,-z
1/2+x,1/2-y,z
loop_
_atom_site_type_symbol
_atom_site_label
_atom_site_fract_x
_atom_site_fract_y
_atom_site_fract_z
Si Si1 0.493734 0.282848 0.400456
Si Si2 0.142963 0.788267 0.500259
Si Si3 0.662031 0.282396 0.838376
Si Si4 0.128458 0.290746 0.162561
Si Si5 0.973181 0.204392 0.063839
Si Si6 0.989748 0.213989 0.262101
O O1 0.493647 0.500000 0.398484
O O2 0.584141 0.225488 0.440500
O O3 0.407736 0.225639 0.439795
O O4 0.490417 0.221020 0.331143
O O5 0.250000 0.750000 0.500000
O O6 0.132581 0.000000 0.500256
O O7 0.660957 0.500000 0.838533
O O8 0.767167 0.224827 0.836532
O O9 0.610100 0.220492 0.898068
O O10 0.598165 0.226439 0.780008
O O11 0.129949 0.500000 0.149641
O O12 0.061181 0.207140 0.110686
O O13 0.079839 0.263721 0.226138
O O14 0.947019 0.000000 0.050712
O O15 0.000000 0.286666 0.000000
O O16 0.986421 0.000000 0.263438
#
# Coordination Sequence:
#
# PCOD9178935 Si02
#       6
#     8   8   8   8   8   8
#     4   8  16  31  50  68  92 127 162 192 229 282
#     4   9  17  31  49  71  96 124 158 195 236 281
#     4   8  16  30  47  67  93 122 151 187 233 278
#     4  10  19  31  47  71 100 123 148 192 244 282
#     4   9  18  34  53  70  91 125 165 194 221 274
#     4   9  17  33  52  67  89 127 166 193 224 277
#
# _framework density 19.885812999999999
#
# number of rings (size 3 to 8) (size 9 to 14) (size 15 to 20)
#    0.000    3.167    0.000    2.500    0.000    2.333 
#    0.000   11.667    0.000    0.000    0.000    0.000 
#    0.000    0.000    0.000    0.000    0.000    0.000 
#
# Total GULP energy -133811.280788 kJ/mol
# GULP energy per Si atom -5575.470033 kJ/mol
# Density = 1.984055 g / cm^3
# Si number density = 19.885813 Si / 1000 Ang^3
#
#
#
# Elastic Constant Matrix: (Units=GPa)
#
#
# Indices 1 2 3 4 5 6 
#
# 1 154.7413 -11.3536 76.2849 0.0000 -32.4798 0.0000
# 2 -11.3536 46.8633 -6.1472 0.0000 0.2493 0.0000
# 3 76.2849 -6.1472 175.6926 0.0000 -9.9586 0.0000
# 4 0.0000 0.0000 0.0000 3.2415 0.0000 -6.9357
# 5 -32.4798 0.2493 -9.9586 0.0000 13.6534 0.0000
# 6 0.0000 0.0000 0.0000 -6.9357 0.0000 17.6710
#
#
#
# Elastic Compliance Matrix: (Units=1/GPa)
#
#
# Indices 1 2 3 4 5 6 
#
# 1 0.016848 0.003214 -0.005147 0.000000 0.036266 0.000000
# 2 0.003214 0.022050 -0.000223 0.000000 0.007080 0.000000
# 3 -0.005147 -0.000223 0.007537 0.000000 -0.006743 0.000000
# 4 0.000000 0.000000 0.000000 1.925682 0.000000 0.755810
# 5 0.036266 0.007080 -0.006743 0.000000 0.154465 0.000000
# 6 0.000000 0.000000 0.000000 0.755810 0.000000 0.353237
#
#
# Mechanical properties :
#
#
# Convention : Reuss Voigt Hill
#
# Bulk Modulus (GPa) = 23.74023 54.98504 39.36264
# Shear Modulus (GPa) = 2.00146 28.14739 15.07442
#
# Velocity S-wave (km/s) = 1.00432 3.76633 2.75626
# Velocity P-wave (km/s) = 3.64816 6.82818 5.47417
#
# Compressibility (1/GPa) = 0.04212258
#
# Stress axis : x y z
#
# Youngs Moduli (GPa) = 59.35533 45.35068 132.68550
#
# Poissons Ratio (x) = -0.14574 0.68295
# Poissons Ratio (y) = -0.19075 0.02953
# Poissons Ratio (z) = 0.30551 0.01009
#
# Static dielectric constant tensor:
#      x y z
#    x 1.675330 0.000000 -0.009120 
#    y 0.000000 1.757570 0.000000 
#    z -0.009120 0.000000 1.693920 
# 
# From -- ./inp_files/307982.got.cif
#   From: 2010.05.17/outbox.cif.g08.bks.cpg/sg12_154_cif.got.tgz:307982.got - 2010.06.03 13:09:07.
