data_PCOD9178145
_publ_section_title
;
Structure prediction by ZEFSAII (Michael W. Deem and Ramdas Pophale) SiO2 
 PCOD9178145
Probable space group: C 2/M
;
_chemical_formula_sum "Si O2"
_cell_formula_units_Z 56
_cell_length_a 17.820921
_cell_length_b 13.441712
_cell_length_c 12.085020
_cell_angle_alpha 90.000000
_cell_angle_beta 120.928085
_cell_angle_gamma 90.000000
_cell_volume 2483.274719
_symmetry_space_group_name_H-M "C 2/M"
_symmetry_group_IT_number 12
_symmetry_cell_setting 'monoclinic'
loop_
_space_group_symop_operation_xyz
x,y,z
-x,y,-z
-x,-y,-z
x,-y,z
1/2+x,1/2+y,z
1/2-x,1/2+y,-z
1/2-x,1/2-y,-z
1/2+x,1/2-y,z
loop_
_atom_site_type_symbol
_atom_site_label
_atom_site_fract_x
_atom_site_fract_y
_atom_site_fract_z
Si Si1 0.396875 0.250677 0.096373
Si Si2 0.748665 0.611295 0.056141
Si Si3 0.640424 0.388894 0.757600
Si Si4 0.758556 0.109694 0.593186
Si Si5 0.769831 0.678831 0.678445
Si Si6 0.944535 0.386065 0.554432
Si Si7 0.955150 0.615386 0.820447
O O1 0.329960 0.314267 0.968060
O O2 0.426417 0.328269 0.214903
O O3 0.469638 0.190831 0.087032
O O4 0.338939 0.170210 0.121543
O O5 0.751004 0.500000 0.106124
O O6 0.720747 0.601878 0.906194
O O7 0.610722 0.500000 0.705975
O O8 0.684428 0.333391 0.688960
O O9 0.797299 0.207176 0.678227
O O10 0.754528 0.129878 0.458420
O O11 0.657098 0.111219 0.554089
O O12 0.795292 0.000000 0.643298
O O13 0.856509 0.625137 0.789180
O O14 0.977218 0.500000 0.587178
O O15 0.948423 0.354050 0.684534
O O16 0.000000 0.334623 0.500000
O O17 0.982312 0.500000 0.851851
#
# Coordination Sequence:
#
# PCOD9178145 Si02
#       7
#     8   8   8   8   8   8   8
#     4   9  17  30  50  72  96 125 160 200 244 295
#     4   8  16  31  50  72  97 126 161 200 245 293
#     4   9  17  31  51  73  96 126 165 202 240 292
#     4   9  18  32  48  69  98 136 170 199 241 291
#     4  10  19  32  51  72 101 133 164 202 247 293
#     4   8  15  26  42  65  94 123 154 198 242 277
#     4  10  19  30  46  73 100 126 160 205 253 287
#
# _framework density 22.550867
#
# number of rings (size 3 to 8) (size 9 to 14) (size 15 to 20)
#    0.857    2.143    0.000    2.571    2.000    0.000 
#    0.000    2.857    0.000    2.571    0.000    5.000 
#    0.000    0.000    0.000    0.000    0.000    0.000 
#
# Total GULP energy -155892.124229 kJ/mol
# GULP energy per Si atom -5567.575865 kJ/mol
# Density = 2.249954 g / cm^3
# Si number density = 22.550867 Si / 1000 Ang^3
#
#
#
# Elastic Constant Matrix: (Units=GPa)
#
#
# Indices 1 2 3 4 5 6 
#
# 1 72.3650 24.8974 11.6505 0.0000 -13.6800 0.0000
# 2 24.8974 165.5994 5.4129 0.0000 5.2689 0.0000
# 3 11.6505 5.4129 22.5129 0.0000 -7.2742 0.0000
# 4 0.0000 0.0000 0.0000 6.4915 0.0000 9.8716
# 5 -13.6800 5.2689 -7.2742 0.0000 18.2875 0.0000
# 6 0.0000 0.0000 0.0000 9.8716 0.0000 23.7190
#
#
#
# Elastic Compliance Matrix: (Units=1/GPa)
#
#
# Indices 1 2 3 4 5 6 
#
# 1 0.017914 -0.002941 -0.004544 0.000000 0.012440 0.000000
# 2 -0.002941 0.006686 -0.001628 0.000000 -0.004774 0.000000
# 3 -0.004544 -0.001628 0.053031 0.000000 0.018164 0.000000
# 4 0.000000 0.000000 0.000000 0.419636 0.000000 -0.174647
# 5 0.012440 -0.004774 0.018164 0.000000 0.072589 0.000000
# 6 0.000000 0.000000 0.000000 -0.174647 0.000000 0.114847
#
#
# Mechanical properties :
#
#
# Convention : Reuss Voigt Hill
#
# Bulk Modulus (GPa) = 16.83346 38.26658 27.55002
# Shear Modulus (GPa) = 6.91822 24.26735 15.59278
#
# Velocity S-wave (km/s) = 1.75342 3.28398 2.63240
# Velocity P-wave (km/s) = 3.40297 5.60225 4.63494
#
# Compressibility (1/GPa) = 0.05940548
#
# Stress axis : x y z
#
# Youngs Moduli (GPa) = 55.82278 149.56881 18.85689
#
# Poissons Ratio (x) = 0.43982 0.08568
# Poissons Ratio (y) = 0.16415 0.03070
# Poissons Ratio (z) = 0.25365 0.24353
#
# Static dielectric constant tensor:
#      x y z
#    x 1.829610 0.000000 -0.006520 
#    y 0.000000 1.906580 0.000000 
#    z -0.006520 0.000000 1.908680 
# 
# From -- ./inp_files/282611.got.cif
#   From: 2010.05.17/outbox.cif.g08.bks.cpg/sg12_142_cif.got.tgz:282611.got - 2010.06.03 13:09:07.
