data_PCOD9178242
_publ_section_title
;
Structure prediction by ZEFSAII (Michael W. Deem and Ramdas Pophale) SiO2 
 PCOD9178242
Probable space group: C 2/M
;
_chemical_formula_sum "Si O2"
_cell_formula_units_Z 56
_cell_length_a 19.358880
_cell_length_b 7.386243
_cell_length_c 30.012993
_cell_angle_alpha 90.000000
_cell_angle_beta 37.719808
_cell_angle_gamma 90.000000
_cell_volume 2625.566261
_symmetry_space_group_name_H-M "C 2/M"
_symmetry_group_IT_number 12
_symmetry_cell_setting 'monoclinic'
loop_
_space_group_symop_operation_xyz
x,y,z
-x,y,-z
-x,-y,-z
x,-y,z
1/2+x,1/2+y,z
1/2-x,1/2+y,-z
1/2-x,1/2-y,-z
1/2+x,1/2-y,z
loop_
_atom_site_type_symbol
_atom_site_label
_atom_site_fract_x
_atom_site_fract_y
_atom_site_fract_z
Si Si1 0.052060 0.720763 0.298531
Si Si2 0.203636 0.716476 0.572929
Si Si3 0.793829 0.718916 0.698006
Si Si4 0.666601 0.716334 0.001834
Si Si5 0.124958 0.790715 0.441025
Si Si6 0.088309 0.220513 0.863134
Si Si7 0.742392 0.279454 0.866675
O O1 0.051289 0.500000 0.299096
O O2 0.108750 0.774644 0.316640
O O3 0.138510 0.777156 0.215553
O O4 0.924568 0.785143 0.357865
O O5 0.196172 0.500000 0.583429
O O6 0.250000 0.750000 0.500000
O O7 0.291650 0.789010 0.564492
O O8 0.794391 0.500000 0.696327
O O9 0.817314 0.785257 0.636660
O O10 0.674769 0.777072 0.780251
O O11 0.656593 0.500000 0.002023
O O12 0.539760 0.784244 0.075341
O O13 0.750000 0.750000 0.000000
O O14 0.715928 0.784500 0.929747
O O15 0.000000 0.708633 0.500000
O O16 0.107253 0.000000 0.463671
O O17 0.145221 0.272883 0.881066
O O18 0.088062 0.000000 0.862444
O O19 0.743826 0.500000 0.866497
#
# Coordination Sequence:
#
# PCOD9178242 Si02
#       7
#     8   8   8   8   8   8   8
#     4   8  15  29  49  72  92 113 153 203 235 262
#     4  10  20  33  49  68  92 122 155 193 232 271
#     4   9  17  31  52  73  92 118 155 199 239 274
#     4  10  19  30  47  71  98 126 155 191 234 278
#     4  10  21  34  47  68 100 131 155 186 232 284
#     4   8  15  29  49  72  94 118 156 201 234 266
#     4   8  14  27  49  71  89 118 160 196 228 272
#
# _framework density 21.328731000000001
#
# number of rings (size 3 to 8) (size 9 to 14) (size 15 to 20)
#    0.000    3.000    0.000    3.000    0.000    3.714 
#    0.000    2.143    0.000    6.000    0.000    0.000 
#    0.000    0.000    0.000    0.000    0.000    0.000 
#
# Total GULP energy -156330.077800 kJ/mol
# GULP energy per Si atom -5583.217064 kJ/mol
# Density = 2.128019 g / cm^3
# Si number density = 21.328731 Si / 1000 Ang^3
#
#
#
# Elastic Constant Matrix: (Units=GPa)
#
#
# Indices 1 2 3 4 5 6 
#
# 1 204.0542 0.9108 147.1527 -0.0061 -20.4153 0.0015
# 2 0.9108 72.5594 -6.0883 -0.0101 -6.6254 -0.0222
# 3 147.1527 -6.0883 168.8220 -0.0117 -9.5846 -0.0030
# 4 -0.0061 -0.0101 -0.0117 -5.0433 -0.0032 5.4188
# 5 -20.4153 -6.6254 -9.5846 -0.0032 41.5200 -0.0013
# 6 0.0015 -0.0222 -0.0030 5.4188 -0.0013 2.8804
#
#
#
# Elastic Compliance Matrix: (Units=1/GPa)
#
#
# Indices 1 2 3 4 5 6 
#
# 1 0.013890 -0.000813 -0.011912 -0.000005 0.003950 -0.000014
# 2 -0.000813 0.014102 0.001340 0.000029 0.002160 0.000057
# 3 -0.011912 0.001340 0.016247 0.000003 -0.001893 0.000026
# 4 -0.000005 0.000029 0.000003 -0.065627 0.000002 0.123464
# 5 0.003950 0.002160 -0.001893 0.000002 0.025935 0.000021
# 6 -0.000014 0.000057 0.000026 0.123464 0.000021 0.114908
#
#
# Mechanical properties :
#
#
# Convention : Reuss Voigt Hill
#
# Bulk Modulus (GPa) = 46.58029 81.04290 63.81159
# Shear Modulus (GPa) = 33.47149 28.10212 30.78680
#
# Velocity S-wave (km/s) = 3.96576 3.63377 3.80339
# Velocity P-wave (km/s) = 6.54647 7.46226 7.01931
#
# Compressibility (1/GPa) = 0.02146831
#
# Stress axis : x y z
#
# Youngs Moduli (GPa) = 71.99552 70.91359 61.54875
#
# Poissons Ratio (x) = 0.05767 0.73317
# Poissons Ratio (y) = 0.05855 -0.08247
# Poissons Ratio (z) = 0.85761 -0.09502
#
# Static dielectric constant tensor:
#      x y z
#    x 1.747440 0.000000 -0.020630 
#    y 0.000000 1.867840 -0.000010 
#    z -0.020630 -0.000010 1.736710 
# 
# From -- ./inp_files/342265.got.cif
#   From: 2010.05.17/outbox.cif.g08.bks.cpg/sg12_172_cif.got.tgz:342265.got - 2010.06.03 13:09:07.
