data_PCOD9178561
_publ_section_title
;
Structure prediction by ZEFSAII (Michael W. Deem and Ramdas Pophale) SiO2 
 PCOD9178561
Probable space group: C 2/M
;
_chemical_formula_sum "Si O2"
_cell_formula_units_Z 52
_cell_length_a 8.595308
_cell_length_b 17.588873
_cell_length_c 27.822170
_cell_angle_alpha 90.000000
_cell_angle_beta 143.096666
_cell_angle_gamma 90.000000
_cell_volume 2525.686401
_symmetry_space_group_name_H-M "C 2/M"
_symmetry_group_IT_number 12
_symmetry_cell_setting 'monoclinic'
loop_
_space_group_symop_operation_xyz
x,y,z
-x,y,-z
-x,-y,-z
x,-y,z
1/2+x,1/2+y,z
1/2-x,1/2+y,-z
1/2-x,1/2-y,-z
1/2+x,1/2-y,z
loop_
_atom_site_type_symbol
_atom_site_label
_atom_site_fract_x
_atom_site_fract_y
_atom_site_fract_z
Si Si1 0.642366 0.124710 0.844103
Si Si2 0.306839 0.416593 0.039469
Si Si3 0.500000 0.197325 0.500000
Si Si4 0.192032 0.416025 0.152304
Si Si5 0.518248 0.202627 0.609743
Si Si6 0.080078 0.207430 0.852884
Si Si7 0.496327 0.183998 0.287959
O O1 0.914213 0.083020 0.916643
O O2 0.416817 0.093891 0.821558
O O3 0.707714 0.211668 0.875935
O O4 0.543915 0.123911 0.764740
O O5 0.281537 0.500000 0.057450
O O6 0.322212 0.344375 0.078823
O O7 0.067278 0.408611 0.944595
O O8 0.528251 0.160027 0.560315
O O9 0.754825 0.248418 0.552804
O O10 0.304183 0.500000 0.173938
O O11 0.379071 0.349695 0.181307
O O12 0.510508 0.156827 0.658233
O O13 0.757984 0.262877 0.664200
O O14 0.778245 0.227475 0.783348
#
# Coordination Sequence:
#
# PCOD9178561 Si02
#       7
#     8   8   4   8   8   8   8
#     4  11  22  34  53  81 102 138 193 224 283 336
#     4  10  22  39  54  71 101 143 184 239 300 331
#     4   8  16  26  48  78 104 154 188 194 234 330
#     4  11  23  38  55  72 104 146 187 240 293 333
#     4   9  16  30  48  74 113 150 178 206 255 318
#     4  11  22  34  53  81 102 138 193 224 283 336
#     4  10  19  30  50  72 110 147 173 211 273 323
#
# _framework density 20.588463000000001
#
# number of rings (size 3 to 8) (size 9 to 14) (size 15 to 20)
#    0.000    1.846    1.538    3.692    0.000    6.154 
#    0.000    0.000    0.000    0.000    0.000    0.000 
#    0.000    0.000    0.000 1200.462    0.000    0.000 
#
# Total GULP energy -144807.231263 kJ/mol
# GULP energy per Si atom -5569.508895 kJ/mol
# Density = 2.054160 g / cm^3
# Si number density = 20.588463 Si / 1000 Ang^3
#
#
#
# Elastic Constant Matrix: (Units=GPa)
#
#
# Indices 1 2 3 4 5 6 
#
# 1 136.1333 24.5844 36.2582 0.0000 -4.9312 -0.0001
# 2 24.5844 88.5288 11.6297 0.0002 3.6370 0.0000
# 3 36.2582 11.6297 68.4442 0.0014 -8.1686 0.0004
# 4 0.0000 0.0002 0.0014 0.1711 0.0008 1.8662
# 5 -4.9312 3.6370 -8.1686 0.0008 61.2954 -0.0001
# 6 -0.0001 0.0000 0.0004 1.8662 -0.0001 9.6444
#
#
#
# Elastic Compliance Matrix: (Units=1/GPa)
#
#
# Indices 1 2 3 4 5 6 
#
# 1 0.008853 -0.001899 -0.004338 -0.000029 0.000247 0.000006
# 2 -0.001899 0.012017 -0.001158 -0.000002 -0.001020 0.000000
# 3 -0.004338 -0.001158 0.017348 0.000127 0.002032 -0.000025
# 4 -0.000029 -0.000002 0.000127 -5.263463 0.000084 1.018458
# 5 0.000247 -0.001020 0.002032 0.000084 0.016666 -0.000016
# 6 0.000006 0.000000 -0.000025 1.018458 -0.000016 -0.093381
#
#
# Mechanical properties :
#
#
# Convention : Reuss Voigt Hill
#
# Bulk Modulus (GPa) = 42.68215 48.67231 45.67723
# Shear Modulus (GPa) = -0.94708 28.93111 13.99201
#
# Velocity S-wave (km/s) = -0.67897 3.75268 2.60975
# Velocity P-wave (km/s) = 4.49015 6.51680 5.59599
#
# Compressibility (1/GPa) = 0.02342900
#
# Stress axis : x y z
#
# Youngs Moduli (GPa) = 112.95720 83.21516 57.64507
#
# Poissons Ratio (x) = 0.15801 0.25005
# Poissons Ratio (y) = 0.21448 0.06674
# Poissons Ratio (z) = 0.48998 0.09634
#
# Static dielectric constant tensor:
#      x y z
#    x 1.819430 0.000000 -0.071460 
#    y 0.000000 1.738310 0.000000 
#    z -0.071460 0.000000 1.819740 
# 
# From -- ./inp_files/356873.got.cif
#   From: 2010.05.17/outbox.cif.g08.bks.cpg/sg12_179_cif.got.tgz:356873.got - 2010.06.03 13:09:07.
