data_PCOD9178976
_publ_section_title
;
Structure prediction by ZEFSAII (Michael W. Deem and Ramdas Pophale) SiO2 
 PCOD9178976
Probable space group: C 2/M
;
_chemical_formula_sum "Si O2"
_cell_formula_units_Z 64
_cell_length_a 24.683271
_cell_length_b 7.534097
_cell_length_c 26.874882
_cell_angle_alpha 90.000000
_cell_angle_beta 42.445730
_cell_angle_gamma 90.000000
_cell_volume 3372.985573
_symmetry_space_group_name_H-M "C 2/M"
_symmetry_group_IT_number 12
_symmetry_cell_setting 'monoclinic'
loop_
_space_group_symop_operation_xyz
x,y,z
-x,y,-z
-x,-y,-z
x,-y,z
1/2+x,1/2+y,z
1/2-x,1/2+y,-z
1/2-x,1/2-y,-z
1/2+x,1/2-y,z
loop_
_atom_site_type_symbol
_atom_site_label
_atom_site_fract_x
_atom_site_fract_y
_atom_site_fract_z
Si Si1 0.590320 0.293511 0.433146
Si Si2 0.945760 0.785945 0.845341
Si Si3 0.610996 0.706604 0.695151
Si Si4 0.673805 0.786882 0.165587
Si Si5 0.309729 0.287473 0.005551
Si Si6 0.912247 0.714853 0.677205
Si Si7 0.786616 0.294950 0.566363
Si Si8 0.413459 0.783976 0.402554
O O1 0.500000 0.218658 0.500000
O O2 0.587048 0.500000 0.449560
O O3 0.612960 0.276542 0.360127
O O4 0.653930 0.208428 0.427063
O O5 0.893059 0.748219 0.831571
O O6 0.035639 0.716213 0.776439
O O7 0.949664 0.000000 0.846181
O O8 0.895185 0.720141 0.927391
O O9 0.616608 0.500000 0.706554
O O10 0.700272 0.786196 0.637732
O O11 0.587898 0.718004 0.652715
O O12 0.759588 0.719216 0.086890
O O13 0.642539 0.721653 0.239871
O O14 0.679966 0.000000 0.165140
O O15 0.317018 0.500000 0.006336
O O16 0.250000 0.250000 0.000000
O O17 0.911115 0.500000 0.677752
O O18 0.004050 0.769666 0.626354
O O19 0.770510 0.500000 0.563763
O O20 0.836892 0.219492 0.485943
O O21 0.412499 0.000000 0.402076
#
# Coordination Sequence:
#
# PCOD9178976 Si02
#       8
#     8   8   8   8   8   8   8   8
#     4  11  23  36  51  70  89 114 152 197 239 273
#     4   9  16  26  41  64  94 124 149 180 224 264
#     4  10  20  31  46  69  96 125 156 188 224 267
#     4   9  16  27  43  65  91 120 154 184 216 266
#     4   8  14  24  39  60  89 121 149 179 216 262
#     4  10  19  31  49  70  92 122 155 187 227 273
#     4  10  21  36  50  65  89 124 160 191 226 271
#     4  10  19  31  48  68  92 124 157 186 224 269
#
# _framework density 18.974287
#
# number of rings (size 3 to 8) (size 9 to 14) (size 15 to 20)
#    0.000    2.375    2.500    0.750    0.000    2.500 
#    0.000    0.000    0.000    0.000    0.000    0.875 
#    0.000    7.000    0.000    0.000    0.000    0.000 
#
# Total GULP energy -178433.793462 kJ/mol
# GULP energy per Si atom -5576.056046 kJ/mol
# Density = 1.893110 g / cm^3
# Si number density = 18.974287 Si / 1000 Ang^3
#
#
#
# Elastic Constant Matrix: (Units=GPa)
#
#
# Indices 1 2 3 4 5 6 
#
# 1 30.0721 -6.7998 24.8198 -0.0103 -13.0634 0.0040
# 2 -6.7998 50.0674 6.0964 -0.0475 -3.5062 -0.0012
# 3 24.8198 6.0964 185.0026 -0.0026 -28.2226 0.0029
# 4 -0.0103 -0.0475 -0.0026 17.5022 -0.0011 4.0911
# 5 -13.0634 -3.5062 -28.2226 -0.0011 25.2631 0.0017
# 6 0.0040 -0.0012 0.0029 4.0911 0.0017 11.9925
#
#
#
# Elastic Compliance Matrix: (Units=1/GPa)
#
#
# Indices 1 2 3 4 5 6 
#
# 1 0.047421 0.008382 -0.003279 0.000060 0.022022 -0.000038
# 2 0.008382 0.021663 -0.000866 0.000070 0.006373 -0.000025
# 3 -0.003279 -0.000866 0.006747 -0.000003 0.005721 0.000000
# 4 0.000060 0.000070 -0.000003 0.062087 0.000042 -0.021180
# 5 0.022022 0.006373 0.005721 0.000042 0.058247 -0.000031
# 6 -0.000038 -0.000025 0.000000 -0.021180 -0.000031 0.090611
#
#
# Mechanical properties :
#
#
# Convention : Reuss Voigt Hill
#
# Bulk Modulus (GPa) = 11.86167 34.81943 23.34055
# Shear Modulus (GPa) = 16.31839 27.01994 21.66916
#
# Velocity S-wave (km/s) = 2.93580 3.77773 3.38306
# Velocity P-wave (km/s) = 4.21390 6.11710 5.25242
#
# Compressibility (1/GPa) = 0.08430516
#
# Stress axis : x y z
#
# Youngs Moduli (GPa) = 21.08761 46.16101 148.22432
#
# Poissons Ratio (x) = -0.38692 0.48599
# Poissons Ratio (y) = -0.17675 0.12838
# Poissons Ratio (z) = 0.06914 0.03998
#
# Static dielectric constant tensor:
#      x y z
#    x 1.609720 0.000000 -0.035390 
#    y 0.000000 1.712910 0.000000 
#    z -0.035390 0.000000 1.732710 
# 
# From -- ./inp_files/346048.got.cif
#   From: 2010.05.17/outbox.cif.g08.bks.cpg/sg12_174_cif.got.tgz:346048.got - 2010.06.03 13:09:07.
