data_PCOD9178225
_publ_section_title
;
Structure prediction by ZEFSAII (Michael W. Deem and Ramdas Pophale) SiO2 
 PCOD9178225
Probable space group: C 2/M
;
_chemical_formula_sum "Si O2"
_cell_formula_units_Z 56
_cell_length_a 30.013644
_cell_length_b 9.238384
_cell_length_c 11.884194
_cell_angle_alpha 90.000000
_cell_angle_beta 91.460181
_cell_angle_gamma 90.000000
_cell_volume 3294.150378
_symmetry_space_group_name_H-M "C 2/M"
_symmetry_group_IT_number 12
_symmetry_cell_setting 'monoclinic'
loop_
_space_group_symop_operation_xyz
x,y,z
-x,y,-z
-x,-y,-z
x,-y,z
1/2+x,1/2+y,z
1/2-x,1/2+y,-z
1/2-x,1/2-y,-z
1/2+x,1/2-y,z
loop_
_atom_site_type_symbol
_atom_site_label
_atom_site_fract_x
_atom_site_fract_y
_atom_site_fract_z
Si Si1 0.836130 0.670238 0.672485
Si Si2 0.366424 0.672064 0.883998
Si Si3 0.188545 0.666571 0.936799
Si Si4 0.952272 0.173038 0.041247
Si Si5 0.660985 0.174604 0.590133
Si Si6 0.765345 0.828795 0.253701
Si Si7 0.098660 0.334997 0.777266
O O1 0.846776 0.500000 0.688031
O O2 0.864918 0.766273 0.758618
O O3 0.841302 0.706752 0.541723
O O4 0.784712 0.690368 0.705817
O O5 0.359552 0.500000 0.886162
O O6 0.413116 0.705175 0.949030
O O7 0.327853 0.751385 0.953378
O O8 0.201141 0.500000 0.960469
O O9 0.224687 0.750582 0.864375
O O10 0.144163 0.665505 0.854798
O O11 0.954345 0.000000 0.053495
O O12 0.936669 0.240237 0.158137
O O13 0.000000 0.225424 0.000000
O O14 0.701412 0.257431 0.653096
O O15 0.616181 0.212848 0.656310
O O16 0.667564 0.000000 0.603991
O O17 0.774537 0.000000 0.243174
O O18 0.082790 0.500000 0.769837
#
# Coordination Sequence:
#
# PCOD9178225 Si02
#       7
#     8   8   8   8   8   8   8
#     4  10  21  34  47  66  97 134 165 198 240 281
#     4  10  20  33  50  72  96 123 158 197 239 290
#     4   9  17  31  49  67  94 129 160 197 243 285
#     4   9  18  33  53  76  99 119 143 185 240 292
#     4   9  18  33  50  68  95 131 167 201 236 274
#     4  10  19  30  47  71  95 124 167 210 241 272
#     4   8  15  28  48  73  95 118 153 193 230 273
#
# _framework density 16.999829999999999
#
# number of rings (size 3 to 8) (size 9 to 14) (size 15 to 20)
#    0.000    2.714    0.000    2.571    0.000    6.571 
#    0.000    0.000    0.000    0.857    0.000    6.000 
#    0.000    0.000    0.000    0.000    0.000    0.000 
#
# Total GULP energy -156165.903766 kJ/mol
# GULP energy per Si atom -5577.353706 kJ/mol
# Density = 1.696114 g / cm^3
# Si number density = 16.999830 Si / 1000 Ang^3
#
#
#
# Elastic Constant Matrix: (Units=GPa)
#
#
# Indices 1 2 3 4 5 6 
#
# 1 61.2689 47.2556 58.2637 0.0000 -17.0637 0.0000
# 2 47.2556 63.7364 57.3354 0.0000 -4.8039 0.0000
# 3 58.2637 57.3354 126.7512 0.0000 -7.9673 0.0000
# 4 0.0000 0.0000 0.0000 29.5178 0.0000 -1.8939
# 5 -17.0637 -4.8039 -7.9673 0.0000 21.2548 0.0000
# 6 0.0000 0.0000 0.0000 -1.8939 0.0000 19.0188
#
#
#
# Elastic Compliance Matrix: (Units=1/GPa)
#
#
# Indices 1 2 3 4 5 6 
#
# 1 0.066231 -0.035327 -0.011905 0.000000 0.040725 0.000000
# 2 -0.035327 0.045346 -0.005542 0.000000 -0.020190 0.000000
# 3 -0.011905 -0.005542 0.015556 0.000000 -0.004979 0.000000
# 4 0.000000 0.000000 0.000000 0.034096 0.000000 0.003395
# 5 0.040725 -0.020190 -0.004979 0.000000 0.073313 0.000000
# 6 0.000000 0.000000 0.000000 0.003395 0.000000 0.052918
#
#
# Mechanical properties :
#
#
# Convention : Reuss Voigt Hill
#
# Bulk Modulus (GPa) = 46.32833 64.16288 55.24561
# Shear Modulus (GPa) = 12.49370 19.88508 16.18939
#
# Velocity S-wave (km/s) = 2.71390 3.42383 3.08933
# Velocity P-wave (km/s) = 6.09358 7.31132 6.73005
#
# Compressibility (1/GPa) = 0.02158506
#
# Stress axis : x y z
#
# Youngs Moduli (GPa) = 15.09864 22.05282 64.28462
#
# Poissons Ratio (x) = 0.77905 0.76529
# Poissons Ratio (y) = 0.53338 0.35629
# Poissons Ratio (z) = 0.17974 0.12223
#
# Static dielectric constant tensor:
#      x y z
#    x 1.565640 0.000000 0.002690 
#    y 0.000000 1.574290 0.000000 
#    z 0.002690 0.000000 1.583650 
# 
# From -- ./inp_files/186418.got.cif
#   From: 2010.05.17/outbox.cif.g08.bks.cpg/sg12_94_cif.got.tgz:186418.got - 2010.06.03 13:09:07.
