data_PCOD9178248
_publ_section_title
;
Structure prediction by ZEFSAII (Michael W. Deem and Ramdas Pophale) SiO2 
 PCOD9178248
Probable space group: C 2/M
;
_chemical_formula_sum "Si O2"
_cell_formula_units_Z 64
_cell_length_a 18.441542
_cell_length_b 11.672292
_cell_length_c 18.742317
_cell_angle_alpha 90.000000
_cell_angle_beta 55.138259
_cell_angle_gamma 90.000000
_cell_volume 3310.343789
_symmetry_space_group_name_H-M "C 2/M"
_symmetry_group_IT_number 12
_symmetry_cell_setting 'monoclinic'
loop_
_space_group_symop_operation_xyz
x,y,z
-x,y,-z
-x,-y,-z
x,-y,z
1/2+x,1/2+y,z
1/2-x,1/2+y,-z
1/2-x,1/2-y,-z
1/2+x,1/2-y,z
loop_
_atom_site_type_symbol
_atom_site_label
_atom_site_fract_x
_atom_site_fract_y
_atom_site_fract_z
Si Si1 0.402218 0.124125 0.522251
Si Si2 0.508308 0.827034 0.666873
Si Si3 0.506453 0.126516 0.834196
Si Si4 0.182132 0.739624 0.729870
Si Si5 0.305828 0.131884 0.769072
Si Si6 0.683123 0.627125 0.431813
Si Si7 0.198494 0.363036 0.057366
Si Si8 0.131463 0.129422 0.617863
O O1 0.500000 0.122816 0.500000
O O2 0.420374 0.122083 0.427229
O O3 0.363461 0.250582 0.561138
O O4 0.359001 0.000000 0.565708
O O5 0.511742 0.874594 0.744677
O O6 0.409133 0.843784 0.695266
O O7 0.540997 0.696860 0.653290
O O8 0.584104 0.211633 0.812590
O O9 0.404306 0.152939 0.907324
O O10 0.525795 0.000000 0.851258
O O11 0.242202 0.789546 0.758440
O O12 0.229425 0.631583 0.665535
O O13 0.174103 0.821751 0.665401
O O14 0.295682 0.144965 0.859856
O O15 0.287251 0.000000 0.762389
O O16 0.640533 0.500000 0.444364
O O17 0.692133 0.636327 0.512772
O O18 0.221420 0.500000 0.026930
O O19 0.250000 0.250000 0.000000
O O20 0.109484 0.000000 0.642827
#
# Coordination Sequence:
#
# PCOD9178248 Si02
#       8
#     8   8   8   8   8   8   8   8
#     4  10  19  30  47  71  98 136 190 242 283 324
#     4   9  17  32  52  73  99 137 186 234 275 322
#     4   9  18  34  56  78 105 141 178 217 263 321
#     4  11  20  33  53  79 110 145 187 230 274 323
#     4  10  20  35  57  84 112 141 179 230 280 321
#     4  10  21  34  47  70 107 149 191 234 281 327
#     4   9  19  40  67  91 113 140 175 215 263 327
#     4   9  19  34  50  72 105 148 194 239 284 324
#
# _framework density 19.333338999999999
#
# number of rings (size 3 to 8) (size 9 to 14) (size 15 to 20)
#    0.000    2.375    0.000    3.750    0.000    2.250 
#    0.000   15.000    0.000    3.000    0.000    0.000 
#    0.000    0.000    0.000    0.000    0.000    0.000 
#
# Total GULP energy -178137.493063 kJ/mol
# GULP energy per Si atom -5566.796658 kJ/mol
# Density = 1.928934 g / cm^3
# Si number density = 19.333339 Si / 1000 Ang^3
#
#
#
# Elastic Constant Matrix: (Units=GPa)
#
#
# Indices 1 2 3 4 5 6 
#
# 1 62.5270 43.2304 11.3815 0.0000 -14.4301 0.0000
# 2 43.2304 169.5117 39.7158 0.0000 -14.5339 0.0000
# 3 11.3815 39.7158 61.4965 0.0000 -9.0263 0.0000
# 4 0.0000 0.0000 0.0000 13.7282 0.0000 -5.7987
# 5 -14.4301 -14.5339 -9.0263 0.0000 19.2264 0.0000
# 6 0.0000 0.0000 0.0000 -5.7987 0.0000 8.4271
#
#
#
# Elastic Compliance Matrix: (Units=1/GPa)
#
#
# Indices 1 2 3 4 5 6 
#
# 1 0.022213 -0.004721 0.000925 0.000000 0.013537 0.000000
# 2 -0.004721 0.008165 -0.004311 0.000000 0.000605 0.000000
# 3 0.000925 -0.004311 0.019866 0.000000 0.006762 0.000000
# 4 0.000000 0.000000 0.000000 0.102689 0.000000 0.070660
# 5 0.013537 0.000605 0.006762 0.000000 0.065804 0.000000
# 6 0.000000 0.000000 0.000000 0.070660 0.000000 0.167286
#
#
# Mechanical properties :
#
#
# Convention : Reuss Voigt Hill
#
# Bulk Modulus (GPa) = 29.38525 53.57674 41.48099
# Shear Modulus (GPa) = 12.08955 21.55684 16.82319
#
# Velocity S-wave (km/s) = 2.50336 3.34280 2.95306
# Velocity P-wave (km/s) = 4.85675 6.53233 5.75584
#
# Compressibility (1/GPa) = 0.03403068
#
# Stress axis : x y z
#
# Youngs Moduli (GPa) = 45.01899 122.47196 50.33635
#
# Poissons Ratio (x) = 0.57818 -0.04655
# Poissons Ratio (y) = 0.21253 0.21698
# Poissons Ratio (z) = -0.04163 0.52793
#
# Static dielectric constant tensor:
#      x y z
#    x 1.702450 0.000000 -0.017930 
#    y 0.000000 1.714450 0.000000 
#    z -0.017930 0.000000 1.711240 
# 
# From -- ./inp_files/315689.got.cif
#   From: 2010.05.17/outbox.cif.g08.bks.cpg/sg12_158_cif.got.tgz:315689.got - 2010.06.03 13:09:07.
