data_PCOD9178987
_publ_section_title
;
Structure prediction by ZEFSAII (Michael W. Deem and Ramdas Pophale) SiO2 
 PCOD9178987
Probable space group: C 2/M
;
_chemical_formula_sum "Si O2"
_cell_formula_units_Z 56
_cell_length_a 15.887506
_cell_length_b 7.452745
_cell_length_c 19.436288
_cell_angle_alpha 90.000000
_cell_angle_beta 119.040985
_cell_angle_gamma 90.000000
_cell_volume 2012.019689
_symmetry_space_group_name_H-M "C 2/M"
_symmetry_group_IT_number 12
_symmetry_cell_setting 'monoclinic'
loop_
_space_group_symop_operation_xyz
x,y,z
-x,y,-z
-x,-y,-z
x,-y,z
1/2+x,1/2+y,z
1/2-x,1/2+y,-z
1/2-x,1/2-y,-z
1/2+x,1/2-y,z
loop_
_atom_site_type_symbol
_atom_site_label
_atom_site_fract_x
_atom_site_fract_y
_atom_site_fract_z
Si Si1 0.699170 0.212715 0.553554
Si Si2 0.392877 0.206762 0.696830
Si Si3 0.841976 0.216778 0.118388
Si Si4 0.669385 0.210340 0.734127
Si Si5 0.985901 0.721127 0.591225
Si Si6 0.614200 0.709245 0.010557
Si Si7 0.619728 0.709927 0.159651
O O1 0.750000 0.250000 0.500000
O O2 0.777275 0.279113 0.639189
O O3 0.589523 0.277666 0.497483
O O4 0.692847 0.000000 0.561351
O O5 0.437218 0.280588 0.644156
O O6 0.424778 0.285197 0.782242
O O7 0.418333 0.000000 0.709264
O O8 0.875928 0.277153 0.207148
O O9 0.730839 0.281053 0.067530
O O10 0.841881 0.000000 0.117451
O O11 0.895648 0.284946 0.070757
O O12 0.595533 0.279249 0.647589
O O13 0.774570 0.293363 0.785650
O O14 0.683125 0.000000 0.723852
O O15 0.986814 0.500000 0.588816
O O16 0.585948 0.500000 0.992130
O O17 0.578242 0.781447 0.070940
O O18 0.632051 0.500000 0.148794
#
# Coordination Sequence:
#
# PCOD9178987 Si02
#       7
#     8   8   8   8   8   8   8
#     4   9  16  29  49  70  90 115 151 190 224 262
#     4  10  19  31  48  69  92 118 150 188 226 266
#     4   9  15  24  41  66  91 114 147 188 225 261
#     4   9  17  31  48  66  91 120 150 184 223 268
#     4   8  16  31  50  68  86 115 153 186 217 262
#     4   8  15  27  42  61  88 121 153 183 217 263
#     4   9  17  29  46  67  90 118 149 183 224 266
#
# _framework density 27.832729
#
# number of rings (size 3 to 8) (size 9 to 14) (size 15 to 20)
#    0.000    3.143    0.000    3.000    0.000    2.857 
#    0.000    5.000    0.000    5.143    0.000    6.000 
#    0.000    0.000    0.000    0.000    0.000    0.000 
#
# Total GULP energy -156474.968277 kJ/mol
# GULP energy per Si atom -5588.391724 kJ/mol
# Density = 2.776938 g / cm^3
# Si number density = 27.832729 Si / 1000 Ang^3
#
#
#
# Elastic Constant Matrix: (Units=GPa)
#
#
# Indices 1 2 3 4 5 6 
#
# 1 88.0902 -2.4818 35.6433 0.0000 2.4299 0.0000
# 2 -2.4818 102.4546 -2.4230 0.0000 0.2843 0.0000
# 3 35.6433 -2.4230 265.1011 0.0000 2.4056 0.0000
# 4 0.0000 0.0000 0.0000 18.1508 0.0000 -0.8797
# 5 2.4299 0.2843 2.4056 0.0000 66.5930 0.0000
# 6 0.0000 0.0000 0.0000 -0.8797 0.0000 -1.3736
#
#
#
# Elastic Compliance Matrix: (Units=1/GPa)
#
#
# Indices 1 2 3 4 5 6 
#
# 1 0.012021 0.000254 -0.001611 0.000000 -0.000382 0.000000
# 2 0.000254 0.009768 0.000056 0.000000 -0.000053 0.000000
# 3 -0.001611 0.000056 0.003990 0.000000 -0.000086 0.000000
# 4 0.000000 0.000000 0.000000 0.053435 0.000000 -0.034222
# 5 -0.000382 -0.000053 -0.000086 0.000000 0.015034 0.000000
# 6 0.000000 0.000000 0.000000 -0.034222 0.000000 -0.706098
#
#
# Mechanical properties :
#
#
# Convention : Reuss Voigt Hill
#
# Bulk Modulus (GPa) = 43.14465 57.45809 50.30137
# Shear Modulus (GPa) = -8.31226 45.00119 18.34447
#
# Velocity S-wave (km/s) = -1.73003 4.02536 2.57007
# Velocity P-wave (km/s) = 3.39771 6.50335 5.18835
#
# Compressibility (1/GPa) = 0.02317784
#
# Stress axis : x y z
#
# Youngs Moduli (GPa) = 83.18547 102.37468 250.62874
#
# Poissons Ratio (x) = -0.02602 0.40364
# Poissons Ratio (y) = -0.02114 -0.01393
# Poissons Ratio (z) = 0.13397 -0.00569
#
# Static dielectric constant tensor:
#      x y z
#    x 2.333120 0.000000 -0.024150 
#    y 0.000000 1.726430 0.000000 
#    z -0.024150 0.000000 2.139790 
# 
# From -- ./inp_files/319320.got.cif
#   From: 2010.05.17/outbox.cif.g08.bks.cpg/sg12_160_cif.got.tgz:319320.got - 2010.06.03 13:09:07.
