data_PCOD9178408
_publ_section_title
;
Structure prediction by ZEFSAII (Michael W. Deem and Ramdas Pophale) SiO2 
 PCOD9178408
Probable space group: C 2/M
;
_chemical_formula_sum "Si O2"
_cell_formula_units_Z 56
_cell_length_a 19.668330
_cell_length_b 8.645046
_cell_length_c 18.646612
_cell_angle_alpha 90.000000
_cell_angle_beta 85.408011
_cell_angle_gamma 90.000000
_cell_volume 3160.373686
_symmetry_space_group_name_H-M "C 2/M"
_symmetry_group_IT_number 12
_symmetry_cell_setting 'monoclinic'
loop_
_space_group_symop_operation_xyz
x,y,z
-x,y,-z
-x,-y,-z
x,-y,z
1/2+x,1/2+y,z
1/2-x,1/2+y,-z
1/2-x,1/2-y,-z
1/2+x,1/2-y,z
loop_
_atom_site_type_symbol
_atom_site_label
_atom_site_fract_x
_atom_site_fract_y
_atom_site_fract_z
Si Si1 0.577416 0.817155 0.640778
Si Si2 0.007661 0.812930 0.081400
Si Si3 0.827390 0.186257 0.493216
Si Si4 0.896357 0.815145 0.205116
Si Si5 0.452541 0.321699 0.575399
Si Si6 0.655780 0.314765 0.049233
Si Si7 0.798675 0.684046 0.103639
O O1 0.630550 0.739142 0.580663
O O2 0.594708 0.761952 0.718980
O O3 0.499606 0.769841 0.627137
O O4 0.584446 0.000000 0.633053
O O5 0.085477 0.778083 0.094113
O O6 0.954305 0.757137 0.144379
O O7 0.999006 0.000000 0.079584
O O8 0.000000 0.757788 0.000000
O O9 0.750000 0.250000 0.500000
O O10 0.877856 0.234387 0.555324
O O11 0.824926 0.000000 0.494774
O O12 0.827104 0.770041 0.170356
O O13 0.901584 0.000000 0.212447
O O14 0.500000 0.321299 0.500000
O O15 0.446200 0.500000 0.599916
O O16 0.657594 0.500000 0.035668
O O17 0.721238 0.273513 0.090374
O O18 0.660584 0.234754 0.971377
O O19 0.803751 0.500000 0.112736
#
# Coordination Sequence:
#
# PCOD9178408 Si02
#       7
#     8   8   8   8   8   8   8
#     4  11  22  36  55  81 113 146 184 227 274 327
#     4   9  16  30  53  76  94 126 179 224 258 313
#     4  10  20  36  60  89 117 146 183 223 265 318
#     4  11  21  35  55  74 102 141 180 224 276 329
#     4   8  16  33  56  81 110 144 181 217 259 318
#     4   9  17  32  51  71  96 129 171 217 266 323
#     4  10  19  30  48  74 102 131 168 217 270 324
#
# _framework density 17.719425000000001
#
# number of rings (size 3 to 8) (size 9 to 14) (size 15 to 20)
#    0.000    2.286    1.429    3.429    0.000    3.714 
#    0.000    3.571    0.000    6.857    0.000    0.000 
#    0.000    0.000    0.000    0.000    0.000    0.000 
#
# Total GULP energy -156056.982168 kJ/mol
# GULP energy per Si atom -5573.463649 kJ/mol
# Density = 1.767909 g / cm^3
# Si number density = 17.719425 Si / 1000 Ang^3
#
#
#
# Elastic Constant Matrix: (Units=GPa)
#
#
# Indices 1 2 3 4 5 6 
#
# 1 122.5864 28.6848 48.8241 0.0000 15.0832 0.0000
# 2 28.6848 41.8325 23.5287 0.0000 9.9380 0.0000
# 3 48.8241 23.5287 89.7041 0.0000 18.4511 0.0000
# 4 0.0000 0.0000 0.0000 24.0908 0.0000 4.4613
# 5 15.0832 9.9380 18.4511 0.0000 23.2026 0.0000
# 6 0.0000 0.0000 0.0000 4.4613 0.0000 26.5976
#
#
#
# Elastic Compliance Matrix: (Units=1/GPa)
#
#
# Indices 1 2 3 4 5 6 
#
# 1 0.011295 -0.004790 -0.004547 0.000000 -0.001675 0.000000
# 2 -0.004790 0.031167 -0.004140 0.000000 -0.006944 0.000000
# 3 -0.004547 -0.004140 0.016422 0.000000 -0.008330 0.000000
# 4 0.000000 0.000000 0.000000 0.042840 0.000000 -0.007186
# 5 -0.001675 -0.006944 -0.008330 0.000000 0.053786 0.000000
# 6 0.000000 0.000000 0.000000 -0.007186 0.000000 0.038803
#
#
# Mechanical properties :
#
#
# Convention : Reuss Voigt Hill
#
# Bulk Modulus (GPa) = 31.31703 50.68868 41.00285
# Shear Modulus (GPa) = 21.56009 24.98391 23.27200
#
# Velocity S-wave (km/s) = 3.49198 3.75903 3.62796
# Velocity P-wave (km/s) = 5.82844 6.89267 6.38277
#
# Compressibility (1/GPa) = 0.03193151
#
# Stress axis : x y z
#
# Youngs Moduli (GPa) = 88.53135 32.08500 60.89491
#
# Poissons Ratio (x) = 0.15368 0.27688
# Poissons Ratio (y) = 0.42406 0.25208
# Poissons Ratio (z) = 0.40254 0.13282
#
# Static dielectric constant tensor:
#      x y z
#    x 1.643060 0.000000 0.016750 
#    y 0.000000 1.607230 0.000000 
#    z 0.016750 0.000000 1.581160 
# 
# From -- ./inp_files/280328.got.cif
#   From: 2010.05.17/outbox.cif.g08.bks.cpg/sg12_141_cif.got.tgz:280328.got - 2010.06.03 13:09:07.
