data_PCOD9178705
_publ_section_title
;
Structure prediction by ZEFSAII (Michael W. Deem and Ramdas Pophale) SiO2 
 PCOD9178705
Probable space group: C 2/M
;
_chemical_formula_sum "Si O2"
_cell_formula_units_Z 48
_cell_length_a 19.475424
_cell_length_b 26.002409
_cell_length_c 11.048792
_cell_angle_alpha 90.000000
_cell_angle_beta 155.783359
_cell_angle_gamma 90.000000
_cell_volume 2295.081881
_symmetry_space_group_name_H-M "C 2/M"
_symmetry_group_IT_number 12
_symmetry_cell_setting 'monoclinic'
loop_
_space_group_symop_operation_xyz
x,y,z
-x,y,-z
-x,-y,-z
x,-y,z
1/2+x,1/2+y,z
1/2-x,1/2+y,-z
1/2-x,1/2-y,-z
1/2+x,1/2-y,z
loop_
_atom_site_type_symbol
_atom_site_label
_atom_site_fract_x
_atom_site_fract_y
_atom_site_fract_z
Si Si1 0.450239 0.360678 0.609822
Si Si2 0.619029 0.097910 0.396880
Si Si3 0.600407 0.552791 0.284812
Si Si4 0.809526 0.619855 0.211905
Si Si5 0.311840 0.197178 0.655199
Si Si6 0.255956 0.938481 0.884609
O O1 0.455028 0.399477 0.729265
O O2 0.313183 0.319562 0.436028
O O3 0.376608 0.398324 0.387444
O O4 0.646620 0.344503 0.918537
O O5 0.710861 0.058468 0.455929
O O6 0.685484 0.100118 0.641755
O O7 0.667568 0.152171 0.412552
O O8 0.427351 0.080762 0.096471
O O9 0.572036 0.500000 0.308323
O O10 0.500000 0.552213 0.000000
O O11 0.000000 0.641422 0.500000
O O12 0.783332 0.574583 0.070802
O O13 0.250000 0.250000 0.500000
O O14 0.500000 0.204912 0.000000
O O15 0.226221 0.000000 0.821815
#
# Coordination Sequence:
#
# PCOD9178705 Si02
#       6
#     8   8   8   8   8   8
#     4  11  22  41  61  93 133 164 214 275 324 382
#     4  10  21  41  59  93 131 162 216 266 323 387
#     4  10  19  30  54  86 122 165 206 255 322 385
#     4  10  23  39  61  87 125 182 218 253 301 372
#     4  11  25  43  73 103 124 161 210 275 345 403
#     4  11  23  39  63  92 135 183 223 262 310 378
#
# _framework density 20.914287000000002
#
# number of rings (size 3 to 8) (size 9 to 14) (size 15 to 20)
#    0.000    1.500    3.333    1.500    2.333    5.667 
#    0.000    2.500    0.000   11.000    0.000    0.000 
#    0.000    0.000    0.000    0.000    0.000    0.000 
#
# Total GULP energy -133625.325866 kJ/mol
# GULP energy per Si atom -5567.721911 kJ/mol
# Density = 2.086668 g / cm^3
# Si number density = 20.914287 Si / 1000 Ang^3
#
#
#
# Elastic Constant Matrix: (Units=GPa)
#
#
# Indices 1 2 3 4 5 6 
#
# 1 73.5533 27.8932 46.0084 0.0000 3.7248 0.0000
# 2 27.8932 107.5025 35.1893 0.0000 -0.7561 0.0000
# 3 46.0084 35.1893 160.4352 0.0000 20.3241 0.0000
# 4 0.0000 0.0000 0.0000 21.6239 0.0000 -9.3009
# 5 3.7248 -0.7561 20.3241 0.0000 43.9154 0.0000
# 6 0.0000 0.0000 0.0000 -9.3009 0.0000 12.5435
#
#
#
# Elastic Compliance Matrix: (Units=1/GPa)
#
#
# Indices 1 2 3 4 5 6 
#
# 1 0.017498 -0.003096 -0.004402 0.000000 0.000500 0.000000
# 2 -0.003096 0.010636 -0.001595 0.000000 0.001184 0.000000
# 3 -0.004402 -0.001595 0.008287 0.000000 -0.003490 0.000000
# 4 0.000000 0.000000 0.000000 0.067901 0.000000 0.050348
# 5 0.000500 0.001184 -0.003490 0.000000 0.024364 0.000000
# 6 0.000000 0.000000 0.000000 0.050348 0.000000 0.117056
#
#
# Mechanical properties :
#
#
# Convention : Reuss Voigt Hill
#
# Bulk Modulus (GPa) = 54.83891 62.18587 58.51239
# Shear Modulus (GPa) = 18.51813 31.10991 24.81402
#
# Velocity S-wave (km/s) = 2.97885 3.86099 3.44824
# Velocity P-wave (km/s) = 6.17325 7.04802 6.62509
#
# Compressibility (1/GPa) = 0.01823523
#
# Stress axis : x y z
#
# Youngs Moduli (GPa) = 57.14987 94.02261 120.66501
#
# Poissons Ratio (x) = 0.29105 0.53120
# Poissons Ratio (y) = 0.17691 0.19247
# Poissons Ratio (z) = 0.25159 0.14997
#
# Static dielectric constant tensor:
#      x y z
#    x 1.811500 0.000000 0.056890 
#    y 0.000000 1.694180 0.000000 
#    z 0.056890 0.000000 1.880900 
# 
# From -- ./inp_files/123863.got.cif
#   From: 2010.05.17/outbox.cif.g08.bks.cpg/sg12_62_cif.got.tgz:123863.got - 2010.06.03 13:09:07.
