data_PCOD9178163
_publ_section_title
;
Structure prediction by ZEFSAII (Michael W. Deem and Ramdas Pophale) SiO2 
 PCOD9178163
Probable space group: C 2/M
;
_chemical_formula_sum "Si O2"
_cell_formula_units_Z 60
_cell_length_a 28.548325
_cell_length_b 15.306272
_cell_length_c 19.934795
_cell_angle_alpha 90.000000
_cell_angle_beta 22.094421
_cell_angle_gamma 90.000000
_cell_volume 3276.457022
_symmetry_space_group_name_H-M "C 2/M"
_symmetry_group_IT_number 12
_symmetry_cell_setting 'monoclinic'
loop_
_space_group_symop_operation_xyz
x,y,z
-x,y,-z
-x,-y,-z
x,-y,z
1/2+x,1/2+y,z
1/2-x,1/2+y,-z
1/2-x,1/2-y,-z
1/2+x,1/2-y,z
loop_
_atom_site_type_symbol
_atom_site_label
_atom_site_fract_x
_atom_site_fract_y
_atom_site_fract_z
Si Si1 0.752948 0.747462 0.309095
Si Si2 0.682083 0.745094 0.925497
Si Si3 0.620893 0.899963 0.291253
Si Si4 0.981747 0.907335 0.173540
Si Si5 0.932747 0.404791 0.428498
Si Si6 0.489076 0.901760 0.826678
Si Si7 0.263023 0.837260 0.437646
Si Si8 0.000000 0.858366 0.000000
O O1 0.768652 0.718593 0.211559
O O2 0.648926 0.822246 0.444822
O O3 0.736033 0.683660 0.395109
O O4 0.880909 0.797163 0.153310
O O5 0.787503 0.681270 0.816661
O O6 0.565919 0.677236 0.075867
O O7 0.621087 0.831860 0.037222
O O8 0.500000 0.891366 0.500000
O O9 0.564555 0.897100 0.291111
O O10 0.669430 0.000000 0.238040
O O11 0.845813 0.896685 0.386646
O O12 0.979552 0.909156 0.095841
O O13 0.035303 0.000000 0.126374
O O14 0.879170 0.500000 0.521084
O O15 0.943803 0.405289 0.334272
O O16 0.596512 0.871750 0.736502
O O17 0.446295 0.000000 0.900211
O O18 0.250000 0.750000 0.500000
#
# Coordination Sequence:
#
# PCOD9178163 Si02
#       8
#     8   8   8   8   8   8   8   4
#     4  11  20  33  54  80 110 151 190 232 278 335
#     4  11  22  37  57  83 116 146 188 240 286 333
#     4  10  20  36  59  90 120 146 180 231 297 358
#     4  11  21  32  52  81 113 146 178 227 287 344
#     4  10  20  35  58  86 114 148 190 231 283 350
#     4  11  23  40  59  82 114 156 198 237 279 333
#     4  12  19  37  54  77 114 153 192 225 276 338
#     4  10  19  30  46  78 113 140 179 226 282 340
#
# _framework density 18.312463999999999
#
# number of rings (size 3 to 8) (size 9 to 14) (size 15 to 20)
#    0.000    1.200    5.333    1.800    0.000    4.267 
#    0.000    2.000    0.000    0.400    0.000    0.000 
#    0.000    0.000    0.000    0.000    0.000    0.000 
#
# Total GULP energy -167070.201798 kJ/mol
# GULP energy per Si atom -5569.006727 kJ/mol
# Density = 1.827078 g / cm^3
# Si number density = 18.312464 Si / 1000 Ang^3
#
#
#
# Elastic Constant Matrix: (Units=GPa)
#
#
# Indices 1 2 3 4 5 6 
#
# 1 41.9188 9.3486 3.8599 0.0000 -6.6808 0.0000
# 2 9.3486 89.8574 29.3240 0.0000 -6.6284 0.0000
# 3 3.8599 29.3240 62.5738 0.0000 -5.5025 0.0000
# 4 0.0000 0.0000 0.0000 -3.1669 0.0000 -9.2817
# 5 -6.6808 -6.6284 -5.5025 0.0000 27.2403 0.0000
# 6 0.0000 0.0000 0.0000 -9.2817 0.0000 13.9845
#
#
#
# Elastic Compliance Matrix: (Units=1/GPa)
#
#
# Indices 1 2 3 4 5 6 
#
# 1 0.025250 -0.002200 -0.000029 0.000000 0.005651 0.000000
# 2 -0.002200 0.013436 -0.006028 0.000000 0.001512 0.000000
# 3 -0.000029 -0.006028 0.019016 0.000000 0.002367 0.000000
# 4 0.000000 0.000000 0.000000 -0.107212 0.000000 -0.071158
# 5 0.005651 0.001512 0.002367 0.000000 0.038942 0.000000
# 6 0.000000 0.000000 0.000000 -0.071158 0.000000 0.024280
#
#
# Mechanical properties :
#
#
# Convention : Reuss Voigt Hill
#
# Bulk Modulus (GPa) = 24.27985 31.04610 27.66298
# Shear Modulus (GPa) = 113.74955 17.73274 65.74115
#
# Velocity S-wave (km/s) = 7.88992 3.11520 5.99813
# Velocity P-wave (km/s) = 9.81267 5.47080 7.94412
#
# Compressibility (1/GPa) = 0.04118642
#
# Stress axis : x y z
#
# Youngs Moduli (GPa) = 39.60439 74.42477 52.58731
#
# Poissons Ratio (x) = 0.16377 0.00155
# Poissons Ratio (y) = 0.08715 0.31700
# Poissons Ratio (z) = 0.00116 0.44863
#
# Static dielectric constant tensor:
#      x y z
#    x 1.674310 0.000000 0.001410 
#    y 0.000000 1.642320 0.000000 
#    z 0.001410 0.000000 1.621090 
# 
# From -- ./inp_files/330267.got.cif
#   From: 2010.05.17/outbox.cif.g08.bks.cpg/sg12_166_cif.got.tgz:330267.got - 2010.06.03 13:09:07.
