data_PCOD9178655
_publ_section_title
;
Structure prediction by ZEFSAII (Michael W. Deem and Ramdas Pophale) SiO2 
 PCOD9178655
Probable space group: C 2/M
;
_chemical_formula_sum "Si O2"
_cell_formula_units_Z 48
_cell_length_a 26.321322
_cell_length_b 10.317864
_cell_length_c 19.671332
_cell_angle_alpha 90.000000
_cell_angle_beta 155.081389
_cell_angle_gamma 90.000000
_cell_volume 2250.889016
_symmetry_space_group_name_H-M "C 2/M"
_symmetry_group_IT_number 12
_symmetry_cell_setting 'monoclinic'
loop_
_space_group_symop_operation_xyz
x,y,z
-x,y,-z
-x,-y,-z
x,-y,z
1/2+x,1/2+y,z
1/2-x,1/2+y,-z
1/2-x,1/2-y,-z
1/2+x,1/2-y,z
loop_
_atom_site_type_symbol
_atom_site_label
_atom_site_fract_x
_atom_site_fract_y
_atom_site_fract_z
Si Si1 0.945114 0.654213 0.717360
Si Si2 0.378269 0.237119 0.250124
Si Si3 0.855147 0.648862 0.463023
Si Si4 0.773069 0.851386 0.257299
Si Si5 0.133498 0.136516 0.901421
Si Si6 0.492910 0.148725 0.917335
O O1 0.972175 0.500000 0.752398
O O2 0.059548 0.740105 0.836098
O O3 0.856106 0.670849 0.545559
O O4 0.916860 0.696172 0.760459
O O5 0.506252 0.168394 0.394367
O O6 0.353396 0.291676 0.294581
O O7 0.367959 0.351256 0.181777
O O8 0.267323 0.146186 0.093499
O O9 0.818247 0.500000 0.404300
O O10 0.784272 0.758384 0.335995
O O11 0.633151 0.853202 0.065102
O O12 0.808384 0.000000 0.315137
O O13 0.077356 0.000000 0.854422
O O14 0.450554 0.000000 0.877705
O O15 0.500000 0.213758 0.000000
#
# Coordination Sequence:
#
# PCOD9178655 Si02
#       6
#     8   8   8   8   8   8
#     4   9  18  36  57  78 107 142 180 220 265 320
#     4  10  20  32  50  77 111 149 182 213 256 316
#     4  10  22  36  52  77 114 152 179 208 260 328
#     4  11  22  36  55  80 109 141 180 228 268 308
#     4  10  19  30  51  81 109 140 180 223 263 308
#     4   9  18  36  62  84 100 131 183 232 272 321
#
# _framework density 21.324907
#
# number of rings (size 3 to 8) (size 9 to 14) (size 15 to 20)
#    0.000    2.167    1.667    1.500    0.000   10.000 
#    0.000    0.833    0.000    2.000    0.000    0.000 
#    0.000    0.000    0.000    0.000    0.000    0.000 
#
# Total GULP energy -133764.074441 kJ/mol
# GULP energy per Si atom -5573.503102 kJ/mol
# Density = 2.127637 g / cm^3
# Si number density = 21.324907 Si / 1000 Ang^3
#
#
#
# Elastic Constant Matrix: (Units=GPa)
#
#
# Indices 1 2 3 4 5 6 
#
# 1 89.5134 19.7407 26.6784 0.0000 -43.3482 0.0000
# 2 19.7407 91.8210 44.9378 0.0000 -23.4923 0.0000
# 3 26.6784 44.9378 68.4634 0.0000 -29.4263 0.0000
# 4 0.0000 0.0000 0.0000 972.1425 0.0000 -499.8828
# 5 -43.3482 -23.4923 -29.4263 0.0000 50.5826 0.0000
# 6 0.0000 0.0000 0.0000 -499.8828 0.0000 264.7639
#
#
#
# Elastic Compliance Matrix: (Units=1/GPa)
#
#
# Indices 1 2 3 4 5 6 
#
# 1 0.019122 0.000396 -0.000785 0.000000 0.016114 0.000000
# 2 0.000396 0.016172 -0.009861 0.000000 0.002114 0.000000
# 3 -0.000785 -0.009861 0.025504 0.000000 0.009584 0.000000
# 4 0.000000 0.000000 0.000000 0.035276 0.000000 0.066602
# 5 0.016114 0.002114 0.009584 0.000000 0.040136 0.000000
# 6 0.000000 0.000000 0.000000 0.066602 0.000000 0.129525
#
#
# Mechanical properties :
#
#
# Convention : Reuss Voigt Hill
#
# Bulk Modulus (GPa) = 24.81511 48.05686 36.43599
# Shear Modulus (GPa) = 16.68510 268.06055 142.37282
#
# Velocity S-wave (km/s) = 2.80022 11.22390 8.17977
# Velocity P-wave (km/s) = 4.70286 13.80407 10.31187
#
# Compressibility (1/GPa) = 0.04029802
#
# Stress axis : x y z
#
# Youngs Moduli (GPa) = 52.29682 61.83340 39.20905
#
# Poissons Ratio (x) = -0.02449 0.03079
# Poissons Ratio (y) = -0.02071 0.38664
# Poissons Ratio (z) = 0.04106 0.60974
#
# Static dielectric constant tensor:
#      x y z
#    x 1.825240 0.000000 -0.036220 
#    y 0.000000 1.744150 0.000000 
#    z -0.036220 0.000000 1.784040 
# 
# From -- ./inp_files/222587.got.cif
#   From: 2010.05.17/outbox.cif.g08.bks.cpg/sg12_112_cif.got.tgz:222587.got - 2010.06.03 13:09:07.
