data_PCOD9178819
_publ_section_title
;
Structure prediction by ZEFSAII (Michael W. Deem and Ramdas Pophale) SiO2 
 PCOD9178819
Probable space group: C 2/M
;
_chemical_formula_sum "Si O2"
_cell_formula_units_Z 52
_cell_length_a 24.898197
_cell_length_b 7.305511
_cell_length_c 11.444856
_cell_angle_alpha 90.000000
_cell_angle_beta 81.060480
_cell_angle_gamma 90.000000
_cell_volume 2056.464032
_symmetry_space_group_name_H-M "C 2/M"
_symmetry_group_IT_number 12
_symmetry_cell_setting 'monoclinic'
loop_
_space_group_symop_operation_xyz
x,y,z
-x,y,-z
-x,-y,-z
x,-y,z
1/2+x,1/2+y,z
1/2-x,1/2+y,-z
1/2-x,1/2-y,-z
1/2+x,1/2-y,z
loop_
_atom_site_type_symbol
_atom_site_label
_atom_site_fract_x
_atom_site_fract_y
_atom_site_fract_z
Si Si1 0.165643 0.279437 0.073731
Si Si2 0.641908 0.291148 0.815520
Si Si3 0.521447 0.277991 0.863745
Si Si4 0.757482 0.277483 0.762592
Si Si5 0.396661 0.500000 0.525425
Si Si6 0.571369 0.787808 0.289124
Si Si7 0.187510 0.286321 0.483280
O O1 0.166666 0.500000 0.065032
O O2 0.220514 0.216951 0.119918
O O3 0.116608 0.230755 0.177534
O O4 0.154592 0.205825 0.950024
O O5 0.638721 0.500000 0.778026
O O6 0.582654 0.208838 0.822920
O O7 0.697939 0.208021 0.747700
O O8 0.522715 0.500000 0.867094
O O9 0.483647 0.224692 0.768333
O O10 0.500000 0.219345 0.000000
O O11 0.754519 0.500000 0.762324
O O12 0.804360 0.228755 0.655870
O O13 0.425367 0.659725 0.599179
O O14 0.361908 0.659659 0.463736
O O15 0.581576 0.000000 0.317169
O O16 0.176577 0.500000 0.498536
O O17 0.250000 0.250000 0.500000
#
# Coordination Sequence:
#
# PCOD9178819 Si02
#       7
#     8   8   8   8   4   8   8
#     4  10  19  31  46  74 110 150 193 233 277 331
#     4  10  20  32  51  74 110 158 195 233 277 323
#     4  10  19  32  51  77 111 155 208 247 278 320
#     4   9  19  35  51  77 115 148 185 229 281 348
#     4  12  22  38  61  88 115 148 184 236 288 347
#     4  11  22  35  56  81 115 156 195 242 284 327
#     4  11  22  39  62  90 118 144 179 227 290 356
#
# _framework density 25.286121999999999
#
# number of rings (size 3 to 8) (size 9 to 14) (size 15 to 20)
#    0.000    1.692    4.615    0.923    1.077    0.923 
#    1.385    0.000    0.000    0.000    0.000    2.154 
#    0.000    2.462    0.000    0.000    0.000    0.000 
#
# Total GULP energy -144923.943834 kJ/mol
# GULP energy per Si atom -5573.997840 kJ/mol
# Density = 2.522857 g / cm^3
# Si number density = 25.286122 Si / 1000 Ang^3
#
#
#
# Elastic Constant Matrix: (Units=GPa)
#
#
# Indices 1 2 3 4 5 6 
#
# 1 138.0003 10.1607 21.1219 0.0000 29.5732 0.0000
# 2 10.1607 156.7548 14.0297 0.0000 9.8867 0.0000
# 3 21.1219 14.0297 72.9001 0.0000 29.7969 0.0000
# 4 0.0000 0.0000 0.0000 20.3441 0.0000 9.6747
# 5 29.5732 9.8867 29.7969 0.0000 43.5797 0.0000
# 6 0.0000 0.0000 0.0000 9.6747 0.0000 0.3305
#
#
#
# Elastic Compliance Matrix: (Units=1/GPa)
#
#
# Indices 1 2 3 4 5 6 
#
# 1 0.008486 -0.000184 -0.000120 0.000000 -0.005635 0.000000
# 2 -0.000184 0.006518 -0.000899 0.000000 -0.000739 0.000000
# 3 -0.000120 -0.000899 0.019164 0.000000 -0.012818 0.000000
# 4 0.000000 0.000000 0.000000 -0.003804 0.000000 0.111361
# 5 -0.005635 -0.000739 -0.012818 0.000000 0.035702 0.000000
# 6 0.000000 0.000000 0.000000 0.111361 0.000000 -0.234170
#
#
# Mechanical properties :
#
#
# Convention : Reuss Voigt Hill
#
# Bulk Modulus (GPa) = 31.48394 50.91998 41.20196
# Shear Modulus (GPa) = -32.23526 34.34039 1.05257
#
# Velocity S-wave (km/s) = -3.57434 3.68920 0.64588
# Velocity P-wave (km/s) = 2.13457 6.19098 4.10924
#
# Compressibility (1/GPa) = 0.03176222
#
# Stress axis : x y z
#
# Youngs Moduli (GPa) = 117.84441 153.41188 52.18034
#
# Poissons Ratio (x) = 0.02821 0.00627
# Poissons Ratio (y) = 0.02167 0.04691
# Poissons Ratio (z) = 0.01417 0.13792
#
# Static dielectric constant tensor:
#      x y z
#    x 2.061140 0.000000 -0.024390 
#    y 0.000000 1.931340 0.000000 
#    z -0.024390 0.000000 2.065660 
# 
# From -- ./inp_files/236809.got.cif
#   From: 2010.05.17/outbox.cif.g08.bks.cpg/sg12_119_cif.got.tgz:236809.got - 2010.06.03 13:09:07.
