data_PCOD9178053
_publ_section_title
;
Structure prediction by ZEFSAII (Michael W. Deem and Ramdas Pophale) SiO2 
 PCOD9178053
Probable space group: C 2/M
;
_chemical_formula_sum "Si O2"
_cell_formula_units_Z 40
_cell_length_a 17.398996
_cell_length_b 13.932929
_cell_length_c 30.237566
_cell_angle_alpha 90.000000
_cell_angle_beta 159.912641
_cell_angle_gamma 90.000000
_cell_volume 2517.561679
_symmetry_space_group_name_H-M "C 2/M"
_symmetry_group_IT_number 12
_symmetry_cell_setting 'monoclinic'
loop_
_space_group_symop_operation_xyz
x,y,z
-x,y,-z
-x,-y,-z
x,-y,z
1/2+x,1/2+y,z
1/2-x,1/2+y,-z
1/2-x,1/2-y,-z
1/2+x,1/2-y,z
loop_
_atom_site_type_symbol
_atom_site_label
_atom_site_fract_x
_atom_site_fract_y
_atom_site_fract_z
Si Si1 0.385472 0.391179 0.083642
Si Si2 0.884089 0.610439 0.316628
Si Si3 0.070548 0.385604 0.321227
Si Si4 0.518941 0.266923 0.560637
Si Si5 0.471653 0.196471 0.174654
O O1 0.364772 0.500000 0.089286
O O2 0.618748 0.384646 0.182689
O O3 0.402849 0.307607 0.129664
O O4 0.184300 0.365050 0.941959
O O5 0.954517 0.500000 0.362408
O O6 0.997135 0.683017 0.412113
O O7 0.944194 0.635019 0.298784
O O8 0.077130 0.500000 0.318291
O O9 0.320818 0.342914 0.459500
O O10 0.956552 0.337402 0.216942
O O11 0.500000 0.228564 0.500000
O O12 0.767185 0.311669 0.697807
#
# Coordination Sequence:
#
# PCOD9178053 Si02
#       5
#     8   8   8   8   8
#     4   9  17  31  49  68  91 117 150 187 222 264
#     4   9  18  31  47  68  92 118 148 185 226 265
#     4  10  19  30  46  68  93 119 149 185 224 266
#     4   9  18  31  47  67  91 119 151 184 219 264
#     4   9  18  30  46  70  91 118 151 183 225 263
#
# _framework density 15.888389
#
# number of rings (size 3 to 8) (size 9 to 14) (size 15 to 20)
#    0.000    2.800    0.000    1.200    0.000    5.600 
#    0.000    6.000    0.000    1.200    0.000   12.600 
#    0.000    0.000    0.000    0.000    0.000    0.000 
#
# Total GULP energy -111400.994015 kJ/mol
# GULP energy per Si atom -5570.049701 kJ/mol
# Density = 1.585223 g / cm^3
# Si number density = 15.888389 Si / 1000 Ang^3
#
#
#
# Elastic Constant Matrix: (Units=GPa)
#
#
# Indices 1 2 3 4 5 6 
#
# 1 104.5676 67.7005 29.1096 -0.0003 -24.1866 0.0005
# 2 67.7005 102.2425 44.3692 -0.0008 -17.1476 -0.0003
# 3 29.1096 44.3692 82.6900 -0.0028 -18.0571 0.0020
# 4 -0.0003 -0.0008 -0.0028 13.7436 -0.0001 -0.5544
# 5 -24.1866 -17.1476 -18.0571 -0.0001 12.7838 0.0006
# 6 0.0005 -0.0003 0.0020 -0.5544 0.0006 27.4845
#
#
#
# Elastic Compliance Matrix: (Units=1/GPa)
#
#
# Indices 1 2 3 4 5 6 
#
# 1 0.025416 -0.013049 0.006844 0.000002 0.040251 -0.000002
# 2 -0.013049 0.020561 -0.008398 -0.000001 -0.008971 0.000001
# 3 0.006844 -0.008398 0.021051 0.000004 0.031419 -0.000002
# 4 0.000002 -0.000001 0.000004 0.072820 0.000009 0.001469
# 5 0.040251 -0.008971 0.031419 0.000009 0.186725 -0.000007
# 6 -0.000002 0.000001 -0.000002 0.001469 -0.000007 0.036414
#
#
# Mechanical properties :
#
#
# Convention : Reuss Voigt Hill
#
# Bulk Modulus (GPa) = 26.43888 63.53987 44.98937
# Shear Modulus (GPa) = 12.35177 20.69044 16.52110
#
# Velocity S-wave (km/s) = 2.79123 3.61257 3.22813
# Velocity P-wave (km/s) = 5.20235 7.58149 6.50167
#
# Compressibility (1/GPa) = 0.03782308
#
# Stress axis : x y z
#
# Youngs Moduli (GPa) = 39.34467 48.63617 47.50364
#
# Poissons Ratio (x) = 0.63465 -0.32511
# Poissons Ratio (y) = 0.51341 0.39892
# Poissons Ratio (z) = -0.26927 0.40843
#
# Static dielectric constant tensor:
#      x y z
#    x 1.513550 0.000000 0.004790 
#    y 0.000000 1.530860 0.000000 
#    z 0.004790 0.000000 1.525330 
# 
# From -- ./inp_files/85505.got.cif
#   From: 2010.05.17/outbox.cif.g08.bks.cpg/sg12_43_cif.got.tgz:85505.got - 2010.06.03 13:09:07.
