data_PCOD9178809
_publ_section_title
;
Structure prediction by ZEFSAII (Michael W. Deem and Ramdas Pophale) SiO2 
 PCOD9178809
Probable space group: C 2/M
;
_chemical_formula_sum "Si O2"
_cell_formula_units_Z 56
_cell_length_a 12.066786
_cell_length_b 25.782556
_cell_length_c 12.349995
_cell_angle_alpha 90.000000
_cell_angle_beta 125.910963
_cell_angle_gamma 90.000000
_cell_volume 3111.942341
_symmetry_space_group_name_H-M "C 2/M"
_symmetry_group_IT_number 12
_symmetry_cell_setting 'monoclinic'
loop_
_space_group_symop_operation_xyz
x,y,z
-x,y,-z
-x,-y,-z
x,-y,z
1/2+x,1/2+y,z
1/2-x,1/2+y,-z
1/2-x,1/2-y,-z
1/2+x,1/2-y,z
loop_
_atom_site_type_symbol
_atom_site_label
_atom_site_fract_x
_atom_site_fract_y
_atom_site_fract_z
Si Si1 0.411925 0.697386 0.273806
Si Si2 0.132735 0.171592 0.997470
Si Si3 0.661893 0.443937 0.064008
Si Si4 0.869421 0.594980 0.361996
Si Si5 0.922507 0.307905 0.248410
Si Si6 0.677825 0.213697 0.299691
Si Si7 0.301234 0.326838 0.592022
O O1 0.385386 0.695419 0.130634
O O2 0.460377 0.755518 0.334454
O O3 0.277352 0.690319 0.266952
O O4 0.544694 0.661441 0.360351
O O5 0.171269 0.110523 0.006554
O O6 0.263884 0.196874 0.127841
O O7 0.000000 0.175656 0.000000
O O8 0.693262 0.500000 0.030138
O O9 0.766277 0.437383 0.225886
O O10 0.500000 0.445416 0.000000
O O11 0.935209 0.639944 0.323829
O O12 0.770576 0.626432 0.387118
O O13 0.000000 0.570641 0.500000
O O14 0.020720 0.304311 0.200393
O O15 0.690648 0.276095 0.324090
O O16 0.720516 0.189992 0.439768
#
# Coordination Sequence:
#
# PCOD9178809 Si02
#       7
#     8   8   8   8   8   8   8
#     4  11  20  31  48  71 101 143 185 209 243 308
#     4  10  21  35  51  72 101 133 171 223 271 309
#     4   9  19  36  57  79 102 131 172 223 283 334
#     4  11  19  33  55  79 111 140 174 218 270 315
#     4  10  20  32  45  71 105 143 174 210 258 299
#     4  10  20  29  47  70 102 145 180 207 238 303
#     4  10  19  31  46  70 105 140 176 207 250 296
#
# _framework density 17.995191999999999
#
# number of rings (size 3 to 8) (size 9 to 14) (size 15 to 20)
#    0.000    1.857    2.857    3.429    2.000    0.857 
#    0.000    0.000    0.000    0.000    0.000    9.000 
#    0.000    8.000    0.000    0.000    0.000    0.000 
#
# Total GULP energy -155890.519603 kJ/mol
# GULP energy per Si atom -5567.518557 kJ/mol
# Density = 1.795423 g / cm^3
# Si number density = 17.995192 Si / 1000 Ang^3
#
#
#
# Elastic Constant Matrix: (Units=GPa)
#
#
# Indices 1 2 3 4 5 6 
#
# 1 148.3636 21.5189 27.3549 0.0000 8.3565 0.0000
# 2 21.5189 56.3050 7.7197 0.0000 -7.1559 0.0000
# 3 27.3549 7.7197 66.9070 0.0000 10.6311 0.0000
# 4 0.0000 0.0000 0.0000 9.0869 0.0000 -7.7866
# 5 8.3565 -7.1559 10.6311 0.0000 30.3114 0.0000
# 6 0.0000 0.0000 0.0000 -7.7866 0.0000 -3.9940
#
#
#
# Elastic Compliance Matrix: (Units=1/GPa)
#
#
# Indices 1 2 3 4 5 6 
#
# 1 0.007727 -0.002851 -0.002526 0.000000 -0.001917 0.000000
# 2 -0.002851 0.019934 -0.002126 0.000000 0.006237 0.000000
# 3 -0.002526 -0.002126 0.017149 0.000000 -0.005820 0.000000
# 4 0.000000 0.000000 0.000000 0.041208 0.000000 -0.080337
# 5 -0.001917 0.006237 -0.005820 0.000000 0.037033 0.000000
# 6 0.000000 0.000000 0.000000 -0.080337 0.000000 -0.093752
#
#
# Mechanical properties :
#
#
# Convention : Reuss Voigt Hill
#
# Bulk Modulus (GPa) = 33.55008 42.75141 38.15074
# Shear Modulus (GPa) = 92.18526 21.41299 56.79912
#
# Velocity S-wave (km/s) = 7.16512 3.45328 5.62424
# Velocity P-wave (km/s) = 9.33468 6.30150 7.96383
#
# Compressibility (1/GPa) = 0.02980619
#
# Stress axis : x y z
#
# Youngs Moduli (GPa) = 129.41047 50.16546 58.31316
#
# Poissons Ratio (x) = 0.14301 0.14728
# Poissons Ratio (y) = 0.36891 0.12395
# Poissons Ratio (z) = 0.32686 0.10663
#
# Static dielectric constant tensor:
#      x y z
#    x 1.687980 0.000000 0.054840 
#    y 0.000000 1.612640 0.000000 
#    z 0.054840 0.000000 1.687840 
# 
# From -- ./inp_files/136565.got.cif
#   From: 2010.05.17/outbox.cif.g08.bks.cpg/sg12_69_cif.got.tgz:136565.got - 2010.06.03 13:09:07.
