data_PCOD9178914
_publ_section_title
;
Structure prediction by ZEFSAII (Michael W. Deem and Ramdas Pophale) SiO2 
 PCOD9178914
Probable space group: C 2/M
;
_chemical_formula_sum "Si O2"
_cell_formula_units_Z 56
_cell_length_a 19.799333
_cell_length_b 8.120762
_cell_length_c 18.665520
_cell_angle_alpha 90.000000
_cell_angle_beta 82.476771
_cell_angle_gamma 90.000000
_cell_volume 2975.313860
_symmetry_space_group_name_H-M "C 2/M"
_symmetry_group_IT_number 12
_symmetry_cell_setting 'monoclinic'
loop_
_space_group_symop_operation_xyz
x,y,z
-x,y,-z
-x,-y,-z
x,-y,z
1/2+x,1/2+y,z
1/2-x,1/2+y,-z
1/2-x,1/2-y,-z
1/2+x,1/2-y,z
loop_
_atom_site_type_symbol
_atom_site_label
_atom_site_fract_x
_atom_site_fract_y
_atom_site_fract_z
Si Si1 0.652969 0.198795 0.554551
Si Si2 0.551076 0.803464 0.930178
Si Si3 0.996317 0.301654 0.416323
Si Si4 0.790784 0.801554 0.603648
Si Si5 0.568199 0.699392 0.144561
Si Si6 0.828895 0.804007 0.995277
Si Si7 0.388201 0.694341 0.706349
O O1 0.580082 0.244822 0.595216
O O2 0.716052 0.259880 0.592818
O O3 0.663318 0.258433 0.471741
O O4 0.655375 0.000000 0.551136
O O5 0.508582 0.751661 0.866041
O O6 0.552433 0.000000 0.932592
O O7 0.500000 0.739512 0.000000
O O8 0.626997 0.744893 0.940206
O O9 0.005582 0.500000 0.409810
O O10 0.000000 0.259645 0.500000
O O11 0.050839 0.217353 0.358396
O O12 0.823182 0.736288 0.672363
O O13 0.788091 0.000000 0.608701
O O14 0.568979 0.500000 0.143858
O O15 0.623633 0.757887 0.077563
O O16 0.591197 0.761942 0.219271
O O17 0.828503 0.000000 0.991910
O O18 0.750000 0.750000 0.000000
O O19 0.376044 0.500000 0.718838
#
# Coordination Sequence:
#
# PCOD9178914 Si02
#       7
#     8   8   8   8   8   8   8
#     4   9  17  30  46  65  91 122 160 206 251 298
#     4   9  17  31  53  79 104 132 171 211 248 302
#     4  10  19  31  47  69  97 128 165 210 257 301
#     4   9  17  29  47  68  89 120 161 203 247 294
#     4   9  19  35  52  73 104 140 171 209 262 313
#     4  10  19  33  55  81 109 139 173 212 255 303
#     4  10  20  33  50  72  99 130 167 209 253 304
#
# _framework density 18.821543999999999
#
# number of rings (size 3 to 8) (size 9 to 14) (size 15 to 20)
#    0.000    2.571    1.429    0.857    0.000    3.714 
#    0.000    1.429    0.000    3.429    0.000    0.000 
#    0.000    0.000    0.000    0.000    0.000    0.000 
#
# Total GULP energy -155962.702449 kJ/mol
# GULP energy per Si atom -5570.096516 kJ/mol
# Density = 1.877870 g / cm^3
# Si number density = 18.821544 Si / 1000 Ang^3
#
#
#
# Elastic Constant Matrix: (Units=GPa)
#
#
# Indices 1 2 3 4 5 6 
#
# 1 117.6948 13.1765 50.7592 0.0000 36.7668 0.0000
# 2 13.1765 17.4205 8.8156 0.0000 7.5219 0.0000
# 3 50.7592 8.8156 108.6154 0.0000 40.1618 0.0000
# 4 0.0000 0.0000 0.0000 16.0269 0.0000 3.5979
# 5 36.7668 7.5219 40.1618 0.0000 32.0794 0.0000
# 6 0.0000 0.0000 0.0000 3.5979 0.0000 23.4348
#
#
#
# Elastic Compliance Matrix: (Units=1/GPa)
#
#
# Indices 1 2 3 4 5 6 
#
# 1 0.013547 -0.003985 -0.001139 0.000000 -0.013166 0.000000
# 2 -0.003985 0.065068 0.000994 0.000000 -0.011934 0.000000
# 3 -0.001139 0.000994 0.017245 0.000000 -0.020517 0.000000
# 4 0.000000 0.000000 0.000000 0.064623 0.000000 -0.009921
# 5 -0.013166 -0.011934 -0.020517 0.000000 0.074747 0.000000
# 6 0.000000 0.000000 0.000000 -0.009921 0.000000 0.044195
#
#
# Mechanical properties :
#
#
# Convention : Reuss Voigt Hill
#
# Bulk Modulus (GPa) = 11.41574 43.24816 27.33195
# Shear Modulus (GPa) = 15.77861 25.70683 20.74272
#
# Velocity S-wave (km/s) = 2.89853 3.69971 3.32335
# Velocity P-wave (km/s) = 4.15697 6.42482 5.41104
#
# Compressibility (1/GPa) = 0.08759836
#
# Stress axis : x y z
#
# Youngs Moduli (GPa) = 73.81778 15.36861 57.98759
#
# Poissons Ratio (x) = 0.06125 0.06606
# Poissons Ratio (y) = 0.29419 -0.05764
# Poissons Ratio (z) = 0.08410 -0.01528
#
# Static dielectric constant tensor:
#      x y z
#    x 1.690820 0.000000 0.043200 
#    y 0.000000 1.660970 0.000000 
#    z 0.043200 0.000000 1.673150 
# 
# From -- ./inp_files/280374.got.cif
#   From: 2010.05.17/outbox.cif.g08.bks.cpg/sg12_141_cif.got.tgz:280374.got - 2010.06.03 13:09:07.
