data_PCOD9178456
_publ_section_title
;
Structure prediction by ZEFSAII (Michael W. Deem and Ramdas Pophale) SiO2 
 PCOD9178456
Probable space group: C 2/M
;
_chemical_formula_sum "Si O2"
_cell_formula_units_Z 56
_cell_length_a 19.609790
_cell_length_b 8.874261
_cell_length_c 28.505099
_cell_angle_alpha 90.000000
_cell_angle_beta 140.329863
_cell_angle_gamma 90.000000
_cell_volume 3166.634418
_symmetry_space_group_name_H-M "C 2/M"
_symmetry_group_IT_number 12
_symmetry_cell_setting 'monoclinic'
loop_
_space_group_symop_operation_xyz
x,y,z
-x,y,-z
-x,-y,-z
x,-y,z
1/2+x,1/2+y,z
1/2-x,1/2+y,-z
1/2-x,1/2-y,-z
1/2+x,1/2-y,z
loop_
_atom_site_type_symbol
_atom_site_label
_atom_site_fract_x
_atom_site_fract_y
_atom_site_fract_z
Si Si1 0.974932 0.178383 0.763789
Si Si2 0.609573 0.179903 0.083263
Si Si3 0.870022 0.320786 0.795290
Si Si4 0.165777 0.679218 0.808637
Si Si5 0.634302 0.319231 0.689603
Si Si6 0.899449 0.180278 0.552036
Si Si7 0.318482 0.820683 0.606163
O O1 0.944522 0.230954 0.799638
O O2 0.879845 0.236144 0.679669
O O3 0.082757 0.253930 0.801742
O O4 0.984529 0.000000 0.765486
O O5 0.604282 0.206413 0.136432
O O6 0.713584 0.264745 0.119378
O O7 0.625284 0.000000 0.085135
O O8 0.500000 0.223730 0.000000
O O9 0.880467 0.500000 0.791705
O O10 0.744831 0.277817 0.722843
O O11 0.159964 0.500000 0.805370
O O12 0.133739 0.742040 0.740239
O O13 0.639926 0.500000 0.700354
O O14 0.522331 0.285996 0.605064
O O15 0.807855 0.213521 0.465569
O O16 0.868814 0.268038 0.583269
O O17 0.892119 0.000000 0.557872
O O18 0.332324 0.000000 0.619284
#
# Coordination Sequence:
#
# PCOD9178456 Si02
#       7
#     8   8   8   8   8   8   8
#     4  12  23  36  52  74 108 148 187 225 271 320
#     4   9  19  39  65  89 113 141 171 208 260 322
#     4   9  19  35  56  81 109 139 175 218 265 318
#     4  11  21  33  55  84 110 140 180 223 264 312
#     4   9  17  33  55  78 105 140 180 224 271 325
#     4   9  17  30  50  76 105 138 179 225 276 327
#     4  10  19  30  48  76 106 139 180 229 277 319
#
# _framework density 17.684391000000002
#
# number of rings (size 3 to 8) (size 9 to 14) (size 15 to 20)
#    0.000    2.143    1.429    3.857    0.000    3.143 
#    0.000    1.429    0.000    4.286    0.000    0.000 
#    0.000    0.000    0.000    0.000    0.000    0.000 
#
# Total GULP energy -156237.132946 kJ/mol
# GULP energy per Si atom -5579.897605 kJ/mol
# Density = 1.764414 g / cm^3
# Si number density = 17.684391 Si / 1000 Ang^3
#
#
#
# Elastic Constant Matrix: (Units=GPa)
#
#
# Indices 1 2 3 4 5 6 
#
# 1 96.1746 49.5709 40.8820 0.0000 23.4705 0.0000
# 2 49.5709 63.7578 38.9141 0.0000 12.9260 0.0000
# 3 40.8820 38.9141 105.8289 0.0000 27.7641 0.0000
# 4 0.0000 0.0000 0.0000 23.6180 0.0000 1.0122
# 5 23.4705 12.9260 27.7641 0.0000 19.9646 0.0000
# 6 0.0000 0.0000 0.0000 1.0122 0.0000 27.4826
#
#
#
# Elastic Compliance Matrix: (Units=1/GPa)
#
#
# Indices 1 2 3 4 5 6 
#
# 1 0.021336 -0.013888 0.001710 0.000000 -0.018469 0.000000
# 2 -0.013888 0.029504 -0.007487 0.000000 0.007637 0.000000
# 3 0.001710 -0.007487 0.017000 0.000000 -0.020803 0.000000
# 4 0.000000 0.000000 0.000000 0.042407 0.000000 -0.001562
# 5 -0.018469 0.007637 -0.020803 0.000000 0.095787 0.000000
# 6 0.000000 0.000000 0.000000 -0.001562 0.000000 0.036444
#
#
# Mechanical properties :
#
#
# Convention : Reuss Voigt Hill
#
# Bulk Modulus (GPa) = 35.07727 58.27725 46.67726
# Shear Modulus (GPa) = 17.16373 23.30601 20.23487
#
# Velocity S-wave (km/s) = 3.11876 3.63421 3.38630
# Velocity P-wave (km/s) = 5.73124 7.11587 6.46075
#
# Compressibility (1/GPa) = 0.02850849
#
# Stress axis : x y z
#
# Youngs Moduli (GPa) = 46.86816 33.89419 58.82515
#
# Poissons Ratio (x) = 0.47072 -0.10058
# Poissons Ratio (y) = 0.65090 0.44044
# Poissons Ratio (z) = -0.08013 0.25378
#
# Static dielectric constant tensor:
#      x y z
#    x 1.583570 0.000000 0.022550 
#    y 0.000000 1.590270 0.000000 
#    z 0.022550 0.000000 1.619040 
# 
# From -- ./inp_files/342334.got.cif
#   From: 2010.05.17/outbox.cif.g08.bks.cpg/sg12_172_cif.got.tgz:342334.got - 2010.06.03 13:09:07.
