data_PCOD9178801
_publ_section_title
;
Structure prediction by ZEFSAII (Michael W. Deem and Ramdas Pophale) SiO2 
 PCOD9178801
Probable space group: C 2/M
;
_chemical_formula_sum "Si O2"
_cell_formula_units_Z 64
_cell_length_a 5.015075
_cell_length_b 24.149695
_cell_length_c 32.105175
_cell_angle_alpha 90.000000
_cell_angle_beta 107.289281
_cell_angle_gamma 90.000000
_cell_volume 3712.649931
_symmetry_space_group_name_H-M "C 2/M"
_symmetry_group_IT_number 12
_symmetry_cell_setting 'monoclinic'
loop_
_space_group_symop_operation_xyz
x,y,z
-x,y,-z
-x,-y,-z
x,-y,z
1/2+x,1/2+y,z
1/2-x,1/2+y,-z
1/2-x,1/2-y,-z
1/2+x,1/2-y,z
loop_
_atom_site_type_symbol
_atom_site_label
_atom_site_fract_x
_atom_site_fract_y
_atom_site_fract_z
Si Si1 0.890792 0.434905 0.747185
Si Si2 0.822023 0.133376 0.721633
Si Si3 0.109807 0.867924 0.875490
Si Si4 0.020394 0.288014 0.545737
Si Si5 0.799423 0.785608 0.799072
Si Si6 0.804664 0.210471 0.641156
Si Si7 0.571369 0.213591 0.051424
Si Si8 0.421123 0.935029 0.150903
O O1 0.834936 0.500000 0.739109
O O2 0.607935 0.400538 0.739245
O O3 0.069705 0.408961 0.718195
O O4 0.066934 0.428676 0.798295
O O5 0.794309 0.178961 0.756777
O O6 0.817548 0.165705 0.678005
O O7 0.287912 0.837663 0.919132
O O8 0.319375 0.902189 0.856097
O O9 0.954282 0.820598 0.841613
O O10 0.864918 0.908662 0.878853
O O11 0.218823 0.234627 0.545338
O O12 0.171295 0.314282 0.592515
O O13 0.000000 0.317687 0.500000
O O14 0.491093 0.768032 0.798924
O O15 0.600716 0.260971 0.645330
O O16 0.293802 0.235892 0.060869
O O17 0.500000 0.201323 0.000000
O O18 0.442471 0.000000 0.142608
#
# Coordination Sequence:
#
# PCOD9178801 Si02
#       8
#     8   8   8   8   8   8   8   8
#     4  11  22  38  54  71  95 130 177 219 252 288
#     4  12  21  35  50  72 102 135 166 205 253 303
#     4  12  21  37  57  80 104 134 172 207 249 294
#     4   8  14  25  42  63  90 127 169 204 234 278
#     4  12  22  32  47  73 105 133 161 194 235 291
#     4  10  19  31  46  69 103 140 166 195 245 305
#     4  10  21  38  59  83 110 139 168 201 243 296
#     4  11  22  38  57  78 101 131 174 217 257 293
#
# _framework density 17.238361999999999
#
# number of rings (size 3 to 8) (size 9 to 14) (size 15 to 20)
#    0.000    1.250    2.500    5.250    0.000    2.000 
#    0.000    0.000    0.000    2.250    0.000    0.000 
#    0.000    3.000    0.000    0.000    0.000    0.000 
#
# Total GULP energy -178767.825287 kJ/mol
# GULP energy per Si atom -5586.494540 kJ/mol
# Density = 1.719913 g / cm^3
# Si number density = 17.238362 Si / 1000 Ang^3
#
#
#
# Elastic Constant Matrix: (Units=GPa)
#
#
# Indices 1 2 3 4 5 6 
#
# 1 43.5208 -5.7880 -17.3938 0.0000 -1.7008 0.0000
# 2 -5.7880 57.5976 23.2190 0.0000 2.3101 0.0000
# 3 -17.3938 23.2190 55.9913 0.0000 6.1945 0.0000
# 4 0.0000 0.0000 0.0000 9.0458 0.0000 -1.5918
# 5 -1.7008 2.3101 6.1945 0.0000 15.2401 0.0000
# 6 0.0000 0.0000 0.0000 -1.5918 0.0000 17.9172
#
#
#
# Elastic Compliance Matrix: (Units=1/GPa)
#
#
# Indices 1 2 3 4 5 6 
#
# 1 0.026266 -0.000783 0.008530 0.000000 -0.000417 0.000000
# 2 -0.000783 0.020872 -0.008941 0.000000 0.000383 0.000000
# 3 0.008530 -0.008941 0.025091 0.000000 -0.007891 0.000000
# 4 0.000000 0.000000 0.000000 0.112304 0.000000 0.009977
# 5 -0.000417 0.000383 -0.007891 0.000000 0.068719 0.000000
# 6 0.000000 0.000000 0.000000 0.009977 0.000000 0.056699
#
#
# Mechanical properties :
#
#
# Convention : Reuss Voigt Hill
#
# Bulk Modulus (GPa) = 14.31780 17.46490 15.89135
# Shear Modulus (GPa) = 14.89787 18.91213 16.90500
#
# Velocity S-wave (km/s) = 2.94296 3.31584 3.13495
# Velocity P-wave (km/s) = 4.45779 4.98128 4.72678
#
# Compressibility (1/GPa) = 0.06984311
#
# Stress axis : x y z
#
# Youngs Moduli (GPa) = 38.07134 47.91077 39.85547
#
# Poissons Ratio (x) = 0.03749 -0.33998
# Poissons Ratio (y) = 0.02979 0.35635
# Poissons Ratio (z) = -0.32476 0.42837
#
# Static dielectric constant tensor:
#      x y z
#    x 1.596990 0.000000 0.001010 
#    y 0.000000 1.567620 0.000000 
#    z 0.001010 0.000000 1.607340 
# 
# From -- ./inp_files/371681.got.cif
#   From: 2010.05.17/outbox.cif.g08.bks.cpg/sg12_186_cif.got.tgz:371681.got - 2010.06.03 13:09:07.
