data_PCOD9178531
_publ_section_title
;
Structure prediction by ZEFSAII (Michael W. Deem and Ramdas Pophale) SiO2 
 PCOD9178531
Probable space group: C 2/M
;
_chemical_formula_sum "Si O2"
_cell_formula_units_Z 64
_cell_length_a 34.075671
_cell_length_b 9.204897
_cell_length_c 11.333593
_cell_angle_alpha 90.000000
_cell_angle_beta 85.362085
_cell_angle_gamma 90.000000
_cell_volume 3543.288956
_symmetry_space_group_name_H-M "C 2/M"
_symmetry_group_IT_number 12
_symmetry_cell_setting 'monoclinic'
loop_
_space_group_symop_operation_xyz
x,y,z
-x,y,-z
-x,-y,-z
x,-y,z
1/2+x,1/2+y,z
1/2-x,1/2+y,-z
1/2-x,1/2-y,-z
1/2+x,1/2-y,z
loop_
_atom_site_type_symbol
_atom_site_label
_atom_site_fract_x
_atom_site_fract_y
_atom_site_fract_z
Si Si1 0.289209 0.172194 0.848201
Si Si2 0.558167 0.327603 0.682113
Si Si3 0.439890 0.327411 0.590844
Si Si4 0.514766 0.172744 0.207758
Si Si5 0.078193 0.830731 0.050056
Si Si6 0.707550 0.172820 0.873416
Si Si7 0.130673 0.172803 0.810374
Si Si8 0.863039 0.832531 0.740571
O O1 0.248687 0.253397 0.828463
O O2 0.325809 0.229922 0.764066
O O3 0.284294 0.000000 0.837415
O O4 0.297958 0.203951 0.984830
O O5 0.447568 0.500000 0.611979
O O6 0.550238 0.296339 0.546776
O O7 0.528648 0.239157 0.771764
O O8 0.603469 0.298170 0.703882
O O9 0.448388 0.500000 0.297022
O O10 0.463754 0.233189 0.678996
O O11 0.393509 0.303859 0.627344
O O12 0.540749 0.235226 0.094198
O O13 0.514228 0.000000 0.205758
O O14 0.109331 0.818691 0.150167
O O15 0.066233 0.000000 0.044560
O O16 0.102078 0.791180 0.927525
O O17 0.670720 0.239580 0.813551
O O18 0.709630 0.000000 0.858521
O O19 0.139137 0.000000 0.814883
O O20 0.849710 0.000000 0.737674
#
# Coordination Sequence:
#
# PCOD9178531 Si02
#       8
#     8   8   8   8   8   8   8   8
#     4  10  19  30  49  77 106 135 169 205 247 299
#     4  10  21  37  56  75  99 136 177 212 255 309
#     4   9  19  36  56  77 101 133 172 215 260 306
#     4  11  22  34  52  77 104 132 170 220 264 300
#     4   9  18  33  52  74 103 137 170 206 256 310
#     4  10  20  32  49  75 108 140 166 202 252 303
#     4  10  20  35  55  76 102 137 174 211 250 307
#     4   9  16  29  51  76 103 131 163 208 258 302
#
# _framework density 18.062314000000001
#
# number of rings (size 3 to 8) (size 9 to 14) (size 15 to 20)
#    0.000    2.250    1.250    3.000    0.000    6.500 
#    0.000    2.500    0.000    0.750    0.000    0.000 
#    0.000    0.000    0.000    0.000    0.000    0.000 
#
# Total GULP energy -178625.125341 kJ/mol
# GULP energy per Si atom -5582.035167 kJ/mol
# Density = 1.802120 g / cm^3
# Si number density = 18.062314 Si / 1000 Ang^3
#
#
#
# Elastic Constant Matrix: (Units=GPa)
#
#
# Indices 1 2 3 4 5 6 
#
# 1 98.0423 48.3991 -0.3037 0.0000 -0.5955 0.0000
# 2 48.3991 52.1708 2.3977 0.0000 -2.1443 0.0000
# 3 -0.3037 2.3977 14.3148 0.0000 -0.8082 0.0000
# 4 0.0000 0.0000 0.0000 10.9618 0.0000 -2.3709
# 5 -0.5955 -2.1443 -0.8082 0.0000 21.0538 0.0000
# 6 0.0000 0.0000 0.0000 -2.3709 0.0000 34.0903
#
#
#
# Elastic Compliance Matrix: (Units=1/GPa)
#
#
# Indices 1 2 3 4 5 6 
#
# 1 0.019006 -0.017832 0.003325 0.000000 -0.001151 0.000000
# 2 -0.017832 0.036119 -0.006263 0.000000 0.002934 0.000000
# 3 0.003325 -0.006263 0.071101 0.000000 0.002186 0.000000
# 4 0.000000 0.000000 0.000000 0.092619 0.000000 0.006442
# 5 -0.001151 0.002934 0.002186 0.000000 0.047848 0.000000
# 6 0.000000 0.000000 0.000000 0.006442 0.000000 0.029782
#
#
# Mechanical properties :
#
#
# Convention : Reuss Voigt Hill
#
# Bulk Modulus (GPa) = 11.80824 29.50157 20.65490
# Shear Modulus (GPa) = 13.65218 20.82348 17.23783
#
# Velocity S-wave (km/s) = 2.75223 3.39908 3.09261
# Velocity P-wave (km/s) = 4.08061 5.63681 4.92062
#
# Compressibility (1/GPa) = 0.08468666
#
# Stress axis : x y z
#
# Youngs Moduli (GPa) = 52.61555 27.68632 14.06457
#
# Poissons Ratio (x) = 0.49370 -0.04677
# Poissons Ratio (y) = 0.93823 0.08808
# Poissons Ratio (z) = -0.17495 0.17339
#
# Static dielectric constant tensor:
#      x y z
#    x 1.614820 0.000000 0.003980 
#    y 0.000000 1.597090 0.000000 
#    z 0.003980 0.000000 1.625090 
# 
# From -- ./inp_files/187444.got.cif
#   From: 2010.05.17/outbox.cif.g08.bks.cpg/sg12_94_cif.got.tgz:187444.got - 2010.06.03 13:09:07.
