data_PCOD9178572
_publ_section_title
;
Structure prediction by ZEFSAII (Michael W. Deem and Ramdas Pophale) SiO2 
 PCOD9178572
Probable space group: C 2/M
;
_chemical_formula_sum "Si O2"
_cell_formula_units_Z 56
_cell_length_a 19.300120
_cell_length_b 9.481658
_cell_length_c 19.856520
_cell_angle_alpha 90.000000
_cell_angle_beta 67.311403
_cell_angle_gamma 90.000000
_cell_volume 3352.493042
_symmetry_space_group_name_H-M "C 2/M"
_symmetry_group_IT_number 12
_symmetry_cell_setting 'monoclinic'
loop_
_space_group_symop_operation_xyz
x,y,z
-x,y,-z
-x,-y,-z
x,-y,z
1/2+x,1/2+y,z
1/2-x,1/2+y,-z
1/2-x,1/2-y,-z
1/2+x,1/2-y,z
loop_
_atom_site_type_symbol
_atom_site_label
_atom_site_fract_x
_atom_site_fract_y
_atom_site_fract_z
Si Si1 0.269944 0.169902 0.562125
Si Si2 0.826331 0.835880 0.049745
Si Si3 0.417616 0.668771 0.500090
Si Si4 0.103467 0.833756 0.651294
Si Si5 0.439723 0.835834 0.081568
Si Si6 0.501578 0.165745 0.208844
Si Si7 0.347132 0.834326 0.905381
O O1 0.250000 0.250000 0.500000
O O2 0.348066 0.240791 0.556354
O O3 0.192240 0.193444 0.631961
O O4 0.278120 0.000000 0.549861
O O5 0.869815 0.763816 0.094044
O O6 0.736924 0.821541 0.090376
O O7 0.844990 0.000000 0.036841
O O8 0.849669 0.755466 0.972625
O O9 0.500000 0.700378 0.500000
O O10 0.403869 0.500000 0.514132
O O11 0.414975 0.697472 0.420485
O O12 0.049214 0.749495 0.720442
O O13 0.091390 0.000000 0.664803
O O14 0.473209 0.815180 0.142823
O O15 0.418344 0.000000 0.082583
O O16 0.500000 0.806055 0.000000
O O17 0.588999 0.208298 0.171281
O O18 0.497201 0.000000 0.226771
O O19 0.360755 0.000000 0.917346
#
# Coordination Sequence:
#
# PCOD9178572 Si02
#       7
#     8   8   8   8   8   8   8
#     4   9  17  31  52  77 105 137 171 207 249 298
#     4  10  19  30  50  75  96 122 163 214 260 303
#     4   9  18  34  56  81 108 138 171 210 253 298
#     4   9  19  34  51  75 106 135 165 211 260 297
#     4  10  19  34  52  69  96 131 167 212 255 299
#     4  10  20  34  53  72  95 136 176 207 253 309
#     4   9  18  34  50  68  97 131 165 204 253 306
#
# _framework density 16.703987999999999
#
# number of rings (size 3 to 8) (size 9 to 14) (size 15 to 20)
#    0.000    2.571    1.429    1.714    0.000    5.143 
#    0.000    1.429    0.000    6.857    0.000    0.000 
#    0.000    0.000    0.000    0.000    0.000    0.000 
#
# Total GULP energy -155965.428841 kJ/mol
# GULP energy per Si atom -5570.193887 kJ/mol
# Density = 1.666597 g / cm^3
# Si number density = 16.703988 Si / 1000 Ang^3
#
#
#
# Elastic Constant Matrix: (Units=GPa)
#
#
# Indices 1 2 3 4 5 6 
#
# 1 112.6446 62.8280 42.4896 0.0000 -23.5532 0.0000
# 2 62.8280 58.2882 45.9482 0.0000 -19.7457 0.0000
# 3 42.4896 45.9482 82.6427 0.0000 -32.8970 0.0000
# 4 0.0000 0.0000 0.0000 28.8468 0.0000 -2.9408
# 5 -23.5532 -19.7457 -32.8970 0.0000 24.8279 0.0000
# 6 0.0000 0.0000 0.0000 -2.9408 0.0000 30.4903
#
#
#
# Elastic Compliance Matrix: (Units=1/GPa)
#
#
# Indices 1 2 3 4 5 6 
#
# 1 0.023923 -0.028199 0.007375 0.000000 0.010040 0.000000
# 2 -0.028199 0.063950 -0.024252 0.000000 -0.008025 0.000000
# 3 0.007375 -0.024252 0.035761 0.000000 0.035093 0.000000
# 4 0.000000 0.000000 0.000000 0.035010 0.000000 0.003377
# 5 0.010040 -0.008025 0.035093 0.000000 0.089918 0.000000
# 6 0.000000 0.000000 0.000000 0.003377 0.000000 0.033123
#
#
# Mechanical properties :
#
#
# Convention : Reuss Voigt Hill
#
# Bulk Modulus (GPa) = 29.86560 61.78969 45.82764
# Shear Modulus (GPa) = 13.05494 23.65364 18.35429
#
# Velocity S-wave (km/s) = 2.79865 3.76712 3.31841
# Velocity P-wave (km/s) = 5.32554 7.48284 6.49439
#
# Compressibility (1/GPa) = 0.03348334
#
# Stress axis : x y z
#
# Youngs Moduli (GPa) = 41.80112 15.63722 27.96317
#
# Poissons Ratio (x) = 0.44095 -0.20623
# Poissons Ratio (y) = 1.17873 0.67816
# Poissons Ratio (z) = -0.30828 0.37923
#
# Static dielectric constant tensor:
#      x y z
#    x 1.620830 0.000000 -0.002550 
#    y 0.000000 1.558740 0.000000 
#    z -0.002550 0.000000 1.547960 
# 
# From -- ./inp_files/275263.got.cif
#   From: 2010.05.17/outbox.cif.g08.bks.cpg/sg12_138_cif.got.tgz:275263.got - 2010.06.03 13:09:07.
