data_PCOD9178530
_publ_section_title
;
Structure prediction by ZEFSAII (Michael W. Deem and Ramdas Pophale) SiO2 
 PCOD9178530
Probable space group: C 2/M
;
_chemical_formula_sum "Si O2"
_cell_formula_units_Z 48
_cell_length_a 27.992003
_cell_length_b 7.612139
_cell_length_c 11.493073
_cell_angle_alpha 90.000000
_cell_angle_beta 120.482376
_cell_angle_gamma 90.000000
_cell_volume 2110.454052
_symmetry_space_group_name_H-M "C 2/M"
_symmetry_group_IT_number 12
_symmetry_cell_setting 'monoclinic'
loop_
_space_group_symop_operation_xyz
x,y,z
-x,y,-z
-x,-y,-z
x,-y,z
1/2+x,1/2+y,z
1/2-x,1/2+y,-z
1/2-x,1/2-y,-z
1/2+x,1/2-y,z
loop_
_atom_site_type_symbol
_atom_site_label
_atom_site_fract_x
_atom_site_fract_y
_atom_site_fract_z
Si Si1 0.520118 0.789905 0.846611
Si Si2 0.715835 0.710207 0.075598
Si Si3 0.685196 0.789529 0.417121
Si Si4 0.086100 0.285493 0.153768
Si Si5 0.885016 0.792670 0.186972
Si Si6 0.180940 0.290550 0.663728
O O1 0.457607 0.735080 0.798557
O O2 0.551848 0.745735 0.767680
O O3 0.519349 0.000000 0.853346
O O4 0.558542 0.721488 0.000379
O O5 0.711641 0.500000 0.087567
O O6 0.757790 0.781127 0.225297
O O7 0.750000 0.750000 0.000000
O O8 0.655410 0.782220 0.965824
O O9 0.750000 0.750000 0.500000
O O10 0.647045 0.721859 0.264681
O O11 0.663083 0.725270 0.515410
O O12 0.679672 0.000000 0.405714
O O13 0.086918 0.500000 0.147257
O O14 0.861480 0.736287 0.282683
O O15 0.877570 0.000000 0.175420
O O16 0.187397 0.500000 0.661302
#
# Coordination Sequence:
#
# PCOD9178530 Si02
#       6
#     8   8   8   8   8   8
#     4   9  17  33  57  77 100 135 175 216 254 298
#     4   8  15  27  42  64  95 128 159 197 241 288
#     4  10  21  36  55  78 105 137 172 210 255 310
#     4   8  17  35  55  77 102 134 177 216 249 298
#     4  10  19  30  49  77 106 131 167 216 263 304
#     4   9  18  33  50  70 101 138 173 205 248 309
#
# _framework density 22.743919999999999
#
# number of rings (size 3 to 8) (size 9 to 14) (size 15 to 20)
#    0.000    3.000    0.000    1.500    2.333    1.333 
#    0.000    3.333    0.000    5.000    0.000    0.000 
#    0.000    0.000    0.000    0.000    0.000    0.000 
#
# Total GULP energy -133771.405116 kJ/mol
# GULP energy per Si atom -5573.808547 kJ/mol
# Density = 2.269215 g / cm^3
# Si number density = 22.743920 Si / 1000 Ang^3
#
#
#
# Elastic Constant Matrix: (Units=GPa)
#
#
# Indices 1 2 3 4 5 6 
#
# 1 101.7558 -15.5349 8.8819 0.0000 3.4446 0.0000
# 2 -15.5349 48.5826 5.9691 0.0000 0.3787 0.0000
# 3 8.8819 5.9691 65.6287 0.0000 9.7391 0.0000
# 4 0.0000 0.0000 0.0000 6.8920 0.0000 4.4859
# 5 3.4446 0.3787 9.7391 0.0000 23.9415 0.0000
# 6 0.0000 0.0000 0.0000 4.4859 0.0000 9.1816
#
#
#
# Elastic Compliance Matrix: (Units=1/GPa)
#
#
# Indices 1 2 3 4 5 6 
#
# 1 0.010546 0.003578 -0.001617 0.000000 -0.000916 0.000000
# 2 0.003578 0.022035 -0.002512 0.000000 0.000158 0.000000
# 3 -0.001617 -0.002512 0.016649 0.000000 -0.006500 0.000000
# 4 0.000000 0.000000 0.000000 0.212751 0.000000 -0.103945
# 5 -0.000916 0.000158 -0.006500 0.000000 0.044542 0.000000
# 6 0.000000 0.000000 0.000000 -0.103945 0.000000 0.159699
#
#
# Mechanical properties :
#
#
# Convention : Reuss Voigt Hill
#
# Bulk Modulus (GPa) = 20.77765 23.84437 22.31101
# Shear Modulus (GPa) = 10.34414 22.44642 16.39528
#
# Velocity S-wave (km/s) = 2.13494 3.14494 2.68780
# Velocity P-wave (km/s) = 3.90290 4.86766 4.41173
#
# Compressibility (1/GPa) = 0.04812863
#
# Stress axis : x y z
#
# Youngs Moduli (GPa) = 94.82429 45.38241 60.06325
#
# Poissons Ratio (x) = -0.16238 0.09710
# Poissons Ratio (y) = -0.33928 0.15087
# Poissons Ratio (z) = 0.15330 0.11400
#
# Static dielectric constant tensor:
#      x y z
#    x 1.867080 0.000000 0.026520 
#    y 0.000000 1.841370 0.000000 
#    z 0.026520 0.000000 1.897680 
# 
# From -- ./inp_files/179721.got.cif
#   From: 2010.05.17/outbox.cif.g08.bks.cpg/sg12_90_cif.got.tgz:179721.got - 2010.06.03 13:09:07.
