data_PCOD9178172
_publ_section_title
;
Structure prediction by ZEFSAII (Michael W. Deem and Ramdas Pophale) SiO2 
 PCOD9178172
Probable space group: C 2/M
;
_chemical_formula_sum "Si O2"
_cell_formula_units_Z 56
_cell_length_a 32.494378
_cell_length_b 10.965588
_cell_length_c 28.923933
_cell_angle_alpha 90.000000
_cell_angle_beta 161.544804
_cell_angle_gamma 90.000000
_cell_volume 3262.553495
_symmetry_space_group_name_H-M "C 2/M"
_symmetry_group_IT_number 12
_symmetry_cell_setting 'monoclinic'
loop_
_space_group_symop_operation_xyz
x,y,z
-x,y,-z
-x,-y,-z
x,-y,z
1/2+x,1/2+y,z
1/2-x,1/2+y,-z
1/2-x,1/2-y,-z
1/2+x,1/2-y,z
loop_
_atom_site_type_symbol
_atom_site_label
_atom_site_fract_x
_atom_site_fract_y
_atom_site_fract_z
Si Si1 0.942141 0.146928 0.298456
Si Si2 0.128272 0.643739 0.160460
Si Si3 0.390763 0.137530 0.749676
Si Si4 0.036179 0.240059 0.300626
Si Si5 0.851260 0.358465 0.034196
Si Si6 0.785783 0.131489 0.583972
Si Si7 0.418675 0.649086 0.458407
O O1 0.005798 0.197274 0.319599
O O2 0.013756 0.187909 0.421579
O O3 0.951067 0.000000 0.306908
O O4 0.789367 0.179693 0.134219
O O5 0.131711 0.500000 0.150968
O O6 0.114499 0.649150 0.200963
O O7 0.269715 0.692996 0.297536
O O8 0.000000 0.697777 0.000000
O O9 0.537426 0.146266 0.886484
O O10 0.314670 0.249730 0.645758
O O11 0.341920 0.000000 0.685761
O O12 0.116193 0.143815 0.354826
O O13 0.137533 0.352767 0.409483
O O14 0.907102 0.278412 0.135606
O O15 0.840534 0.500000 0.037643
O O16 0.804442 0.000000 0.626457
O O17 0.500000 0.685442 0.500000
O O18 0.416737 0.500000 0.457228
#
# Coordination Sequence:
#
# PCOD9178172 Si02
#       7
#     8   8   8   8   8   8   8
#     4  10  19  30  47  68  98 133 164 201 254 305
#     4   9  17  28  47  72  99 130 165 208 258 306
#     4   9  18  32  50  74 104 133 168 208 255 303
#     4  10  19  31  47  68  98 129 171 210 245 293
#     4   9  18  30  46  69  98 133 165 202 247 299
#     4  10  20  32  50  72  99 134 170 209 251 300
#     4   9  18  29  42  65  97 129 162 203 253 306
#
# _framework density 17.164470000000001
#
# number of rings (size 3 to 8) (size 9 to 14) (size 15 to 20)
#    0.000    2.571    0.000    2.143    2.000    5.143 
#    0.000    0.000    0.000    1.286    0.000    0.000 
#    0.000    4.857    0.000    0.000    0.000    0.000 
#
# Total GULP energy -156013.504216 kJ/mol
# GULP energy per Si atom -5571.910865 kJ/mol
# Density = 1.712540 g / cm^3
# Si number density = 17.164470 Si / 1000 Ang^3
#
#
#
# Elastic Constant Matrix: (Units=GPa)
#
#
# Indices 1 2 3 4 5 6 
#
# 1 93.7299 17.1031 59.7300 0.0006 0.1053 0.0002
# 2 17.1031 60.0823 29.1899 0.0016 -2.8972 0.0008
# 3 59.7300 29.1899 142.4878 0.0025 -1.9231 0.0014
# 4 0.0006 0.0016 0.0025 8.7428 0.0011 -7.5419
# 5 0.1053 -2.8972 -1.9231 0.0011 15.4886 0.0005
# 6 0.0002 0.0008 0.0014 -7.5419 0.0005 10.8384
#
#
#
# Elastic Compliance Matrix: (Units=1/GPa)
#
#
# Indices 1 2 3 4 5 6 
#
# 1 0.014669 -0.001370 -0.005883 0.000004 -0.001087 0.000004
# 2 -0.001370 0.018751 -0.003225 -0.000009 0.003116 -0.000008
# 3 -0.005883 -0.003225 0.010154 -0.000007 0.000698 -0.000006
# 4 0.000004 -0.000009 -0.000007 0.286137 -0.000029 0.199107
# 5 -0.001087 0.003116 0.000698 -0.000029 0.065241 -0.000023
# 6 0.000004 -0.000008 -0.000006 0.199107 -0.000023 0.230811
#
#
# Mechanical properties :
#
#
# Convention : Reuss Voigt Hill
#
# Bulk Modulus (GPa) = 44.21197 56.48290 50.34744
# Shear Modulus (GPa) = 7.64223 19.69909 13.67066
#
# Velocity S-wave (km/s) = 2.11235 3.39140 2.82521
# Velocity P-wave (km/s) = 5.63588 6.95081 6.32759
#
# Compressibility (1/GPa) = 0.02261831
#
# Stress axis : x y z
#
# Youngs Moduli (GPa) = 68.16949 53.33090 98.47877
#
# Poissons Ratio (x) = 0.07306 0.57938
# Poissons Ratio (y) = 0.09338 0.31759
# Poissons Ratio (z) = 0.40106 0.17199
#
# Static dielectric constant tensor:
#      x y z
#    x 1.575130 0.000000 0.006600 
#    y 0.000000 1.574860 0.000000 
#    z 0.006600 0.000000 1.620040 
# 
# From -- ./inp_files/370808.got.cif
#   From: 2010.05.17/outbox.cif.g08.bks.cpg/sg12_186_cif.got.tgz:370808.got - 2010.06.03 13:09:07.
