data_PCOD9178618
_publ_section_title
;
Structure prediction by ZEFSAII (Michael W. Deem and Ramdas Pophale) SiO2 
 PCOD9178618
Probable space group: C 2/M
;
_chemical_formula_sum "Si O2"
_cell_formula_units_Z 64
_cell_length_a 22.515372
_cell_length_b 8.337919
_cell_length_c 17.379428
_cell_angle_alpha 90.000000
_cell_angle_beta 94.794377
_cell_angle_gamma 90.000000
_cell_volume 3251.247604
_symmetry_space_group_name_H-M "C 2/M"
_symmetry_group_IT_number 12
_symmetry_cell_setting 'monoclinic'
loop_
_space_group_symop_operation_xyz
x,y,z
-x,y,-z
-x,-y,-z
x,-y,z
1/2+x,1/2+y,z
1/2-x,1/2+y,-z
1/2-x,1/2-y,-z
1/2+x,1/2-y,z
loop_
_atom_site_type_symbol
_atom_site_label
_atom_site_fract_x
_atom_site_fract_y
_atom_site_fract_z
Si Si1 0.017078 0.689036 0.330026
Si Si2 0.134182 0.689306 0.240304
Si Si3 0.103256 0.812063 0.752796
Si Si4 0.160081 0.689361 0.613667
Si Si5 0.904574 0.190766 0.532320
Si Si6 0.291561 0.690652 0.618552
Si Si7 0.439324 0.304588 0.089088
Si Si8 0.923307 0.193653 0.915344
O O1 0.003243 0.500000 0.323370
O O2 0.073258 0.726641 0.280644
O O3 0.040103 0.730678 0.417878
O O4 0.961315 0.787665 0.293509
O O5 0.144008 0.500000 0.246482
O O6 0.186545 0.775472 0.292492
O O7 0.122407 0.740112 0.151829
O O8 0.148624 0.722588 0.701889
O O9 0.095757 0.750480 0.839207
O O10 0.118234 0.000000 0.755956
O O11 0.157948 0.500000 0.599186
O O12 0.108462 0.768958 0.557126
O O13 0.225330 0.755654 0.598089
O O14 0.844388 0.252627 0.569434
O O15 0.909583 0.000000 0.543069
O O16 0.288776 0.500000 0.606461
O O17 0.439723 0.500000 0.090840
O O18 0.508975 0.255414 0.099319
O O19 0.414251 0.256568 0.003067
O O20 0.922005 0.000000 0.912257
#
# Coordination Sequence:
#
# PCOD9178618 Si02
#       8
#     8   8   8   8   8   8   8   8
#     4  10  20  34  51  76 109 141 169 207 261 310
#     4  10  19  30  50  81 111 135 166 213 264 304
#     4  11  21  35  54  76 105 141 178 213 249 305
#     4  11  23  38  54  76 104 137 173 212 262 312
#     4  10  20  36  58  81 101 129 172 219 260 304
#     4   9  20  37  57  77 101 135 174 214 258 307
#     4   8  16  29  50  77 104 137 174 210 248 300
#     4   9  15  29  52  77 105 137 172 208 252 307
#
# _framework density 19.684750999999999
#
# number of rings (size 3 to 8) (size 9 to 14) (size 15 to 20)
#    0.000    2.250    1.250    3.000    0.000    3.000 
#    0.000    5.000    0.000    0.750    0.000    0.000 
#    0.000    0.000    0.000    0.000    0.000    0.000 
#
# Total GULP energy -178626.000929 kJ/mol
# GULP energy per Si atom -5582.062529 kJ/mol
# Density = 1.963995 g / cm^3
# Si number density = 19.684751 Si / 1000 Ang^3
#
#
#
# Elastic Constant Matrix: (Units=GPa)
#
#
# Indices 1 2 3 4 5 6 
#
# 1 19.5491 0.7981 2.7839 0.0000 -0.7711 0.0000
# 2 0.7981 8.5401 -10.0532 0.0000 -1.8830 0.0000
# 3 2.7839 -10.0532 107.0467 0.0000 1.8051 0.0000
# 4 0.0000 0.0000 0.0000 21.9725 0.0000 -2.2644
# 5 -0.7711 -1.8830 1.8051 0.0000 21.4177 0.0000
# 6 0.0000 0.0000 0.0000 -2.2644 0.0000 13.7299
#
#
#
# Elastic Compliance Matrix: (Units=1/GPa)
#
#
# Indices 1 2 3 4 5 6 
#
# 1 0.051779 -0.006900 -0.002019 0.000000 0.001428 0.000000
# 2 -0.006900 0.134991 0.012679 0.000000 0.010551 0.000000
# 3 -0.002019 0.012679 0.010582 0.000000 0.000150 0.000000
# 4 0.000000 0.000000 0.000000 0.046298 0.000000 0.007636
# 5 0.001428 0.010551 0.000150 0.000000 0.047657 0.000000
# 6 0.000000 0.000000 0.000000 0.007636 0.000000 0.074093
#
#
# Mechanical properties :
#
#
# Convention : Reuss Voigt Hill
#
# Bulk Modulus (GPa) = 4.88110 13.57708 9.22909
# Shear Modulus (GPa) = 11.73240 20.86450 16.29845
#
# Velocity S-wave (km/s) = 2.44399 3.25919 2.88057
# Velocity P-wave (km/s) = 3.23251 4.59079 3.97017
#
# Compressibility (1/GPa) = 0.20487165
#
# Stress axis : x y z
#
# Youngs Moduli (GPa) = 19.31299 7.40792 94.49640
#
# Poissons Ratio (x) = 0.05112 0.19076
# Poissons Ratio (y) = 0.13327 -1.19812
# Poissons Ratio (z) = 0.03899 -0.09393
#
# Static dielectric constant tensor:
#      x y z
#    x 1.699400 0.000000 -0.026850 
#    y 0.000000 1.667470 0.000000 
#    z -0.026850 0.000000 1.722690 
# 
# From -- ./inp_files/238790.got.cif
#   From: 2010.05.17/outbox.cif.g08.bks.cpg/sg12_120_cif.got.tgz:238790.got - 2010.06.03 13:09:07.
