data_PCOD9178712
_publ_section_title
;
Structure prediction by ZEFSAII (Michael W. Deem and Ramdas Pophale) SiO2 
 PCOD9178712
Probable space group: C 2/M
;
_chemical_formula_sum "Si O2"
_cell_formula_units_Z 58
_cell_length_a 30.279425
_cell_length_b 8.843817
_cell_length_c 12.720141
_cell_angle_alpha 90.000000
_cell_angle_beta 108.280097
_cell_angle_gamma 90.000000
_cell_volume 3234.372547
_symmetry_space_group_name_H-M "C 2/M"
_symmetry_group_IT_number 12
_symmetry_cell_setting 'monoclinic'
loop_
_space_group_symop_operation_xyz
x,y,z
-x,y,-z
-x,-y,-z
x,-y,z
1/2+x,1/2+y,z
1/2-x,1/2+y,-z
1/2-x,1/2-y,-z
1/2+x,1/2-y,z
loop_
_atom_site_type_symbol
_atom_site_label
_atom_site_fract_x
_atom_site_fract_y
_atom_site_fract_z
Si Si1 0.844365 0.677758 0.241529
Si Si2 0.402426 0.684869 0.700128
Si Si3 0.100346 0.177917 0.903412
Si Si4 0.001694 0.184407 0.122342
Si Si5 0.404118 0.331709 0.462974
Si Si6 0.840627 0.178314 0.845522
Si Si7 0.749284 0.179438 0.116627
Si Si8 0.500000 0.500000 0.500000
O O1 0.836431 0.500000 0.238856
O O2 0.867615 0.726190 0.148743
O O3 0.879836 0.730531 0.357933
O O4 0.795224 0.762718 0.210046
O O5 0.403625 0.500000 0.701328
O O6 0.452057 0.735143 0.784116
O O7 0.397658 0.730260 0.575822
O O8 0.361910 0.729884 0.750465
O O9 0.046630 0.225425 0.858370
O O10 0.103714 0.000000 0.875407
O O11 0.118682 0.189506 0.036303
O O12 0.002465 0.000000 0.121558
O O13 0.000000 0.234330 0.000000
O O14 0.381441 0.500000 0.440961
O O15 0.458488 0.370325 0.483166
O O16 0.796507 0.266813 0.856103
O O17 0.828713 0.000000 0.829414
O O18 0.750092 0.000000 0.106859
O O19 0.750000 0.250000 0.000000
#
# Coordination Sequence:
#
# PCOD9178712 Si02
#       8
#     8   8   8   8   8   8   8   2
#     4  12  25  40  59  85 120 157 202 258 307 362
#     4   9  17  31  55  85 123 159 199 246 296 356
#     4  10  19  30  55  86 119 155 192 239 298 359
#     4   9  15  25  48  86 120 149 189 232 282 349
#     4   9  20  37  61  89 119 163 204 249 295 345
#     4  10  19  34  56  89 122 155 193 244 301 363
#     4  12  24  40  62  89 118 155 199 253 314 370
#     4   8  20  36  66  92 118 164 210 260 284 344
#
# _framework density 17.932380999999999
#
# number of rings (size 3 to 8) (size 9 to 14) (size 15 to 20)
#    0.414    1.517    2.759    2.483    1.931    0.000 
#    0.000    1.724    0.000    1.241    0.000    0.000 
#    0.000    0.000    0.000    0.000    0.000    0.000 
#
# Total GULP energy -161493.583949 kJ/mol
# GULP energy per Si atom -5568.744274 kJ/mol
# Density = 1.789157 g / cm^3
# Si number density = 17.932381 Si / 1000 Ang^3
#
#
#
# Elastic Constant Matrix: (Units=GPa)
#
#
# Indices 1 2 3 4 5 6 
#
# 1 124.2239 42.1391 32.1138 0.0000 -2.0237 0.0000
# 2 42.1391 69.7730 26.3861 0.0000 -0.4451 0.0000
# 3 32.1138 26.3861 73.2694 0.0000 -2.9607 0.0000
# 4 0.0000 0.0000 0.0000 11.4682 0.0000 1.0314
# 5 -2.0237 -0.4451 -2.9607 0.0000 13.7989 0.0000
# 6 0.0000 0.0000 0.0000 1.0314 0.0000 20.5581
#
#
#
# Elastic Compliance Matrix: (Units=1/GPa)
#
#
# Indices 1 2 3 4 5 6 
#
# 1 0.010575 -0.005373 -0.002668 0.000000 0.000805 0.000000
# 2 -0.005373 0.019329 -0.004653 0.000000 -0.001163 0.000000
# 3 -0.002668 -0.004653 0.016615 0.000000 0.003024 0.000000
# 4 0.000000 0.000000 0.000000 0.087593 0.000000 -0.004395
# 5 0.000805 -0.001163 0.003024 0.000000 0.073199 0.000000
# 6 0.000000 0.000000 0.000000 -0.004395 0.000000 0.048863
#
#
# Mechanical properties :
#
#
# Convention : Reuss Voigt Hill
#
# Bulk Modulus (GPa) = 47.31987 52.06047 49.69017
# Shear Modulus (GPa) = 17.32460 20.27351 18.79906
#
# Velocity S-wave (km/s) = 3.11160 3.36602 3.24131
# Velocity P-wave (km/s) = 6.27333 6.64841 6.46359
#
# Compressibility (1/GPa) = 0.02113277
#
# Stress axis : x y z
#
# Youngs Moduli (GPa) = 94.55955 51.73473 60.18535
#
# Poissons Ratio (x) = 0.27797 0.16055
# Poissons Ratio (y) = 0.50807 0.28004
# Poissons Ratio (z) = 0.25225 0.24072
#
# Static dielectric constant tensor:
#      x y z
#    x 1.609260 0.000000 -0.002530 
#    y 0.000000 1.609090 0.000000 
#    z -0.002530 0.000000 1.623040 
# 
# From -- ./inp_files/186733.got.cif
#   From: 2010.05.17/outbox.cif.g08.bks.cpg/sg12_94_cif.got.tgz:186733.got - 2010.06.03 13:09:07.
