data_PCOD9178974
_publ_section_title
;
Structure prediction by ZEFSAII (Michael W. Deem and Ramdas Pophale) SiO2 
 PCOD9178974
Probable space group: C 2/M
;
_chemical_formula_sum "Si O2"
_cell_formula_units_Z 64
_cell_length_a 14.212092
_cell_length_b 9.579723
_cell_length_c 21.166694
_cell_angle_alpha 90.000000
_cell_angle_beta 92.719739
_cell_angle_gamma 90.000000
_cell_volume 2878.554938
_symmetry_space_group_name_H-M "C 2/M"
_symmetry_group_IT_number 12
_symmetry_cell_setting 'monoclinic'
loop_
_space_group_symop_operation_xyz
x,y,z
-x,y,-z
-x,-y,-z
x,-y,z
1/2+x,1/2+y,z
1/2-x,1/2+y,-z
1/2-x,1/2-y,-z
1/2+x,1/2-y,z
loop_
_atom_site_type_symbol
_atom_site_label
_atom_site_fract_x
_atom_site_fract_y
_atom_site_fract_z
Si Si1 0.116386 0.159707 0.073455
Si Si2 0.866977 0.157932 0.448170
Si Si3 0.113049 0.840639 0.930389
Si Si4 0.389350 0.158413 0.188689
Si Si5 0.380439 0.342374 0.688903
Si Si6 0.380330 0.159069 0.807723
Si Si7 0.395123 0.342765 0.307037
Si Si8 0.143039 0.342721 0.436523
O O1 0.146511 0.268111 0.127495
O O2 0.001676 0.158054 0.072062
O O3 0.146513 0.000000 0.087624
O O4 0.143013 0.196674 0.002511
O O5 0.882604 0.213143 0.377717
O O6 0.897952 0.258985 0.505216
O O7 0.754642 0.143999 0.451788
O O8 0.907436 0.000000 0.452765
O O9 0.140839 0.735570 0.876283
O O10 0.142787 0.000000 0.917655
O O11 0.504552 0.155313 0.190983
O O12 0.361275 0.245528 0.249559
O O13 0.355760 0.000000 0.190471
O O14 0.341342 0.500000 0.683260
O O15 0.348733 0.255202 0.748641
O O16 0.493078 0.355657 0.699151
O O17 0.365597 0.251511 0.625882
O O18 0.347136 0.000000 0.801679
O O19 0.353803 0.500000 0.303851
O O20 0.104603 0.500000 0.427256
#
# Coordination Sequence:
#
# PCOD9178974 Si02
#       8
#     8   8   8   8   8   8   8   8
#     4   8  13  21  33  50  74 109 151 187 220 262
#     4   9  19  36  54  70  90 119 153 185 221 268
#     4   8  13  21  33  49  74 111 151 185 218 264
#     4   9  16  24  36  57  85 114 145 185 230 269
#     4  10  19  31  48  68  92 122 154 187 223 268
#     4   9  16  25  37  56  84 115 147 185 228 269
#     4   9  18  32  49  67  89 121 157 188 220 265
#     4  10  20  34  52  72  94 118 146 185 229 270
#
# _framework density 22.233378999999999
#
# number of rings (size 3 to 8) (size 9 to 14) (size 15 to 20)
#    0.000    3.000    0.000    2.250    0.000    5.500 
#    0.000    5.000    0.000    0.000    0.000    0.000 
#    0.000    1.000    0.000    3.000    0.000    5.750 
#
# Total GULP energy -178749.347422 kJ/mol
# GULP energy per Si atom -5585.917107 kJ/mol
# Density = 2.218278 g / cm^3
# Si number density = 22.233379 Si / 1000 Ang^3
#
#
#
# Elastic Constant Matrix: (Units=GPa)
#
#
# Indices 1 2 3 4 5 6 
#
# 1 62.0977 3.7078 -1.0306 0.0000 -7.1003 0.0000
# 2 3.7078 201.3502 158.4113 0.0000 -0.7168 0.0000
# 3 -1.0306 158.4113 239.6459 0.0000 -33.8022 0.0000
# 4 0.0000 0.0000 0.0000 106.3563 0.0000 -27.1990
# 5 -7.1003 -0.7168 -33.8022 0.0000 64.4437 0.0000
# 6 0.0000 0.0000 0.0000 -27.1990 0.0000 10.3228
#
#
#
# Elastic Compliance Matrix: (Units=1/GPa)
#
#
# Indices 1 2 3 4 5 6 
#
# 1 0.016485 -0.001302 0.001281 0.000000 0.002474 0.000000
# 2 -0.001302 0.011364 -0.008121 0.000000 -0.004277 0.000000
# 3 0.001281 -0.008121 0.010317 0.000000 0.005462 0.000000
# 4 0.000000 0.000000 0.000000 0.028826 0.000000 0.075951
# 5 0.002474 -0.004277 0.005462 0.000000 0.018607 0.000000
# 6 0.000000 0.000000 0.000000 0.075951 0.000000 0.296992
#
#
# Mechanical properties :
#
#
# Convention : Reuss Voigt Hill
#
# Bulk Modulus (GPa) = 45.70056 91.69675 68.69866
# Shear Modulus (GPa) = 12.31009 59.02492 35.66751
#
# Velocity S-wave (km/s) = 2.35559 5.15805 4.00963
# Velocity P-wave (km/s) = 5.29131 8.76393 7.23893
#
# Compressibility (1/GPa) = 0.02188157
#
# Stress axis : x y z
#
# Youngs Moduli (GPa) = 60.65937 87.99501 96.92879
#
# Poissons Ratio (x) = 0.11460 -0.12413
# Poissons Ratio (y) = 0.07900 0.78715
# Poissons Ratio (z) = -0.07768 0.71460
#
# Static dielectric constant tensor:
#      x y z
#    x 1.868430 0.000000 0.007390 
#    y 0.000000 1.794970 0.000000 
#    z 0.007390 0.000000 1.776620 
# 
# From -- ./inp_files/287701.got.cif
#   From: 2010.05.17/outbox.cif.g08.bks.cpg/sg12_144_cif.got.tgz:287701.got - 2010.06.03 13:09:07.
