data_PCOD9178506
_publ_section_title
;
Structure prediction by ZEFSAII (Michael W. Deem and Ramdas Pophale) SiO2 
 PCOD9178506
Probable space group: C 2/M
;
_chemical_formula_sum "Si O2"
_cell_formula_units_Z 64
_cell_length_a 12.528197
_cell_length_b 22.178080
_cell_length_c 21.446261
_cell_angle_alpha 90.000000
_cell_angle_beta 145.400365
_cell_angle_gamma 90.000000
_cell_volume 3383.677335
_symmetry_space_group_name_H-M "C 2/M"
_symmetry_group_IT_number 12
_symmetry_cell_setting 'monoclinic'
loop_
_space_group_symop_operation_xyz
x,y,z
-x,y,-z
-x,-y,-z
x,-y,z
1/2+x,1/2+y,z
1/2-x,1/2+y,-z
1/2-x,1/2-y,-z
1/2+x,1/2-y,z
loop_
_atom_site_type_symbol
_atom_site_label
_atom_site_fract_x
_atom_site_fract_y
_atom_site_fract_z
Si Si1 0.388112 0.159563 0.571056
Si Si2 0.941544 0.070323 0.543019
Si Si3 0.441996 0.432356 0.178518
Si Si4 0.365608 0.933334 0.376443
Si Si5 0.974929 0.809769 0.146316
Si Si6 0.790928 0.124255 0.229167
Si Si7 0.598682 0.278082 0.343908
Si Si8 0.030795 0.706994 0.942147
O O1 0.232110 0.111795 0.519386
O O2 0.569937 0.121548 0.636628
O O3 0.419284 0.210080 0.639178
O O4 0.290660 0.194581 0.465616
O O5 0.000000 0.083477 0.500000
O O6 0.117725 0.084225 0.673049
O O7 0.891514 0.000000 0.524277
O O8 0.391786 0.500000 0.135422
O O9 0.657426 0.431726 0.305503
O O10 0.466297 0.381952 0.137134
O O11 0.312084 0.409086 0.172410
O O12 0.500000 0.931079 0.500000
O O13 0.383350 0.000000 0.354394
O O14 0.047591 0.768031 0.126246
O O15 0.077384 0.788739 0.259566
O O16 0.753600 0.795939 0.043687
O O17 0.583161 0.149986 0.139963
O O18 0.927743 0.182312 0.289354
O O19 0.000000 0.706933 0.000000
#
# Coordination Sequence:
#
# PCOD9178506 Si02
#       8
#     8   8   8   8   8   8   8   8
#     4  10  20  34  51  80 116 152 188 231 278 343
#     4  10  21  36  54  79 114 157 193 227 281 345
#     4  10  20  35  57  85 115 146 188 238 285 331
#     4  10  19  30  49  75 105 150 192 227 273 328
#     4  10  22  37  58  85 114 148 187 242 281 350
#     4  10  20  37  57  82 113 147 186 242 285 341
#     4   9  19  35  50  83 114 142 188 231 285 327
#     4  11  21  38  61  84 110 146 194 232 301 349
#
# _framework density 18.914332999999999
#
# number of rings (size 3 to 8) (size 9 to 14) (size 15 to 20)
#    0.000    2.000    2.500    3.000    3.500    1.000 
#    0.000    3.125    0.000    0.375    0.000    0.000 
#    0.000    0.000    0.000    0.000    0.000    0.000 
#
# Total GULP energy -178318.841593 kJ/mol
# GULP energy per Si atom -5572.463800 kJ/mol
# Density = 1.887128 g / cm^3
# Si number density = 18.914333 Si / 1000 Ang^3
#
#
#
# Elastic Constant Matrix: (Units=GPa)
#
#
# Indices 1 2 3 4 5 6 
#
# 1 20.3583 16.3436 1.6901 0.0013 3.0532 0.0013
# 2 16.3436 118.1688 10.6992 0.0013 -8.9345 0.0014
# 3 1.6901 10.6992 32.5028 0.0091 -7.2286 0.0097
# 4 0.0013 0.0013 0.0091 91.0395 0.0040 63.6080
# 5 3.0532 -8.9345 -7.2286 0.0040 7.6293 0.0042
# 6 0.0013 0.0014 0.0097 63.6080 0.0042 92.1541
#
#
#
# Elastic Compliance Matrix: (Units=1/GPa)
#
#
# Indices 1 2 3 4 5 6 
#
# 1 0.067688 -0.012290 -0.011022 0.000001 -0.051923 0.000002
# 2 -0.012290 0.011533 0.001191 0.000000 0.019552 -0.000001
# 3 -0.011022 0.001191 0.040846 -0.000003 0.044506 -0.000004
# 4 0.000001 0.000000 -0.000003 0.021216 -0.000007 -0.014644
# 5 -0.051923 0.019552 0.044506 -0.000007 0.216917 -0.000009
# 6 0.000002 -0.000001 -0.000004 -0.014644 -0.000009 0.020959
#
#
# Mechanical properties :
#
#
# Convention : Reuss Voigt Hill
#
# Bulk Modulus (GPa) = 13.18813 25.38844 19.28828
# Shear Modulus (GPa) = 11.14394 47.65106 29.39750
#
# Velocity S-wave (km/s) = 2.42994 5.02472 3.94667
# Velocity P-wave (km/s) = 3.85493 6.86409 5.56670
#
# Compressibility (1/GPa) = 0.07582577
#
# Stress axis : x y z
#
# Youngs Moduli (GPa) = 14.77361 86.71020 24.48240
#
# Poissons Ratio (x) = 1.06564 0.26984
# Poissons Ratio (y) = 0.18156 -0.02916
# Poissons Ratio (z) = 0.16283 -0.10328
#
# Static dielectric constant tensor:
#      x y z
#    x 1.736350 0.000000 0.120290 
#    y 0.000000 1.722580 -0.000010 
#    z 0.120290 -0.000010 1.833410 
# 
# From -- ./inp_files/307134.got.cif
#   From: 2010.05.17/outbox.cif.g08.bks.cpg/sg12_154_cif.got.tgz:307134.got - 2010.06.03 13:09:07.
