data_PCOD9178748
_publ_section_title
;
Structure prediction by ZEFSAII (Michael W. Deem and Ramdas Pophale) SiO2 
 PCOD9178748
Probable space group: C 2/M
;
_chemical_formula_sum "Si O2"
_cell_formula_units_Z 56
_cell_length_a 20.489527
_cell_length_b 30.112294
_cell_length_c 5.601504
_cell_angle_alpha 90.000000
_cell_angle_beta 132.493306
_cell_angle_gamma 90.000000
_cell_volume 2548.342507
_symmetry_space_group_name_H-M "C 2/M"
_symmetry_group_IT_number 12
_symmetry_cell_setting 'monoclinic'
loop_
_space_group_symop_operation_xyz
x,y,z
-x,y,-z
-x,-y,-z
x,-y,z
1/2+x,1/2+y,z
1/2-x,1/2+y,-z
1/2-x,1/2-y,-z
1/2+x,1/2-y,z
loop_
_atom_site_type_symbol
_atom_site_label
_atom_site_fract_x
_atom_site_fract_y
_atom_site_fract_z
Si Si1 0.151388 0.645150 0.137634
Si Si2 0.351913 0.678042 0.665226
Si Si3 0.982981 0.275919 0.207527
Si Si4 0.303597 0.293200 0.047888
Si Si5 0.396206 0.447387 0.273125
Si Si6 0.131027 0.354048 0.586868
Si Si7 0.401886 0.416308 0.789134
O O1 0.254590 0.655549 0.403409
O O2 0.123406 0.622268 0.314459
O O3 0.105862 0.694375 0.019146
O O4 0.123063 0.622485 0.821488
O O5 0.364289 0.696513 0.428070
O O6 0.411752 0.635776 0.865526
O O7 0.347084 0.709140 0.890008
O O8 0.000000 0.252316 0.500000
O O9 0.058201 0.314909 0.398889
O O10 0.000000 0.251485 0.000000
O O11 0.250000 0.250000 0.000000
O O12 0.227506 0.330666 0.832464
O O13 0.500000 0.433782 0.500000
O O14 0.392354 0.500000 0.301193
O O15 0.360010 0.424047 0.423347
O O16 0.356741 0.435835 0.915210
O O17 0.500000 0.437366 0.000000
#
# Coordination Sequence:
#
# PCOD9178748 Si02
#       7
#     8   8   8   8   8   8   8
#     4   8  14  23  37  55  74  98 128 164 207 258
#     4  10  19  31  46  63  85 114 154 191 231 280
#     4   8  12  20  34  52  72  92 119 156 205 258
#     4  10  19  31  46  62  82 114 154 196 236 278
#     4   9  17  30  49  74  99 122 153 189 226 279
#     4   8  14  23  37  55  73  96 130 169 220 270
#     4  10  19  31  49  70  95 128 158 192 237 277
#
# _framework density 21.975066999999999
#
# number of rings (size 3 to 8) (size 9 to 14) (size 15 to 20)
#    0.000    3.000    0.000    1.714    0.000    1.714 
#    0.000    0.000    0.000   12.857    0.000    0.000 
#    0.000    0.000    0.000    0.000    0.000  357.143 
#
# Total GULP energy -156012.212184 kJ/mol
# GULP energy per Si atom -5571.864721 kJ/mol
# Density = 2.192505 g / cm^3
# Si number density = 21.975067 Si / 1000 Ang^3
#
#
#
# Elastic Constant Matrix: (Units=GPa)
#
#
# Indices 1 2 3 4 5 6 
#
# 1 85.3834 11.2298 52.7554 0.0000 -39.2006 0.0000
# 2 11.2298 32.4149 18.3506 0.0000 -16.4560 0.0000
# 3 52.7554 18.3506 93.6984 0.0000 -47.0486 0.0000
# 4 0.0000 0.0000 0.0000 16.3093 0.0000 -8.1327
# 5 -39.2006 -16.4560 -47.0486 0.0000 66.8093 0.0000
# 6 0.0000 0.0000 0.0000 -8.1327 0.0000 12.8717
#
#
#
# Elastic Compliance Matrix: (Units=1/GPa)
#
#
# Indices 1 2 3 4 5 6 
#
# 1 0.019274 0.000861 -0.008099 0.000000 0.005817 0.000000
# 2 0.000861 0.036262 -0.004406 0.000000 0.006334 0.000000
# 3 -0.008099 -0.004406 0.020366 0.000000 0.008505 0.000000
# 4 0.000000 0.000000 0.000000 0.089519 0.000000 0.056560
# 5 0.005817 0.006334 0.008505 0.000000 0.025931 0.000000
# 6 0.000000 0.000000 0.000000 0.056560 0.000000 0.113426
#
#
# Mechanical properties :
#
#
# Convention : Reuss Voigt Hill
#
# Bulk Modulus (GPa) = 19.00670 41.79648 30.40159
# Shear Modulus (GPa) = 14.46745 27.80878 21.13812
#
# Velocity S-wave (km/s) = 2.56863 3.56120 3.10484
# Velocity P-wave (km/s) = 4.17913 5.99757 5.16894
#
# Compressibility (1/GPa) = 0.05261303
#
# Stress axis : x y z
#
# Youngs Moduli (GPa) = 51.88397 27.57729 49.10112
#
# Poissons Ratio (x) = -0.02375 0.39769
# Poissons Ratio (y) = -0.04469 0.21635
# Poissons Ratio (z) = 0.42023 0.12151
#
# Static dielectric constant tensor:
#      x y z
#    x 1.984170 0.000000 -0.089160 
#    y 0.000000 0.798100 0.000000 
#    z -0.089160 0.000000 1.931300 
# 
# From -- ./inp_files/29763.got.cif
#   From: 2010.05.17/outbox.cif.g08.bks.cpg/sg12_15_cif.got.tgz:29763.got - 2010.06.03 13:09:07.
