data_PCOD9178056
_publ_section_title
;
Structure prediction by ZEFSAII (Michael W. Deem and Ramdas Pophale) SiO2 
 PCOD9178056
Probable space group: C 2/M
;
_chemical_formula_sum "Si O2"
_cell_formula_units_Z 64
_cell_length_a 21.897209
_cell_length_b 9.167066
_cell_length_c 19.368338
_cell_angle_alpha 90.000000
_cell_angle_beta 95.604533
_cell_angle_gamma 90.000000
_cell_volume 3869.282428
_symmetry_space_group_name_H-M "C 2/M"
_symmetry_group_IT_number 12
_symmetry_cell_setting 'monoclinic'
loop_
_space_group_symop_operation_xyz
x,y,z
-x,y,-z
-x,-y,-z
x,-y,z
1/2+x,1/2+y,z
1/2-x,1/2+y,-z
1/2-x,1/2-y,-z
1/2+x,1/2-y,z
loop_
_atom_site_type_symbol
_atom_site_label
_atom_site_fract_x
_atom_site_fract_y
_atom_site_fract_z
Si Si1 0.605754 0.824774 0.628740
Si Si2 0.990781 0.170016 0.195878
Si Si3 0.294253 0.170935 0.103492
Si Si4 0.523163 0.327213 0.349211
Si Si5 0.341052 0.329430 0.975658
Si Si6 0.351487 0.327236 0.236096
Si Si7 0.456399 0.829148 0.928872
Si Si8 0.569930 0.829962 0.477882
O O1 0.538999 0.760911 0.641068
O O2 0.649864 0.750166 0.689412
O O3 0.612613 0.790513 0.547951
O O4 0.605809 0.000000 0.635824
O O5 0.032702 0.194788 0.268643
O O6 0.009690 0.270978 0.135190
O O7 0.920458 0.192792 0.212487
O O8 0.996555 0.000000 0.176352
O O9 0.223891 0.184080 0.070913
O O10 0.306783 0.253495 0.176028
O O11 0.309456 0.000000 0.111595
O O12 0.334301 0.243882 0.047084
O O13 0.512639 0.500000 0.358511
O O14 0.572038 0.267768 0.409738
O O15 0.352185 0.500000 0.990871
O O16 0.395067 0.261394 0.936797
O O17 0.341323 0.500000 0.241557
O O18 0.442124 0.000000 0.920660
O O19 0.500000 0.809572 0.000000
O O20 0.500000 0.817784 0.500000
O O21 0.579181 0.000000 0.461540
#
# Coordination Sequence:
#
# PCOD9178056 Si02
#       8
#     8   8   8   8   8   8   8   8
#     4   9  16  25  37  56  85 118 151 187 224 267
#     4   9  19  32  44  63  91 122 155 188 227 274
#     4  10  20  34  52  72  93 118 150 187 227 271
#     4   9  16  25  38  57  82 114 152 190 226 268
#     4  10  21  36  53  71  92 120 151 186 228 271
#     4  10  19  30  46  68  93 123 156 189 229 272
#     4  11  23  35  49  70  93 119 153 191 229 269
#     4   8  14  23  35  53  79 114 151 184 223 267
#
# _framework density 16.540534999999998
#
# number of rings (size 3 to 8) (size 9 to 14) (size 15 to 20)
#    0.000    2.500    0.000    4.500    0.000   10.250 
#    0.000    0.000    0.000    0.000    0.000    0.000 
#    0.000    1.000    0.000    3.250    0.000    5.375 
#
# Total GULP energy -178323.853647 kJ/mol
# GULP energy per Si atom -5572.620426 kJ/mol
# Density = 1.650289 g / cm^3
# Si number density = 16.540535 Si / 1000 Ang^3
#
#
#
# Elastic Constant Matrix: (Units=GPa)
#
#
# Indices 1 2 3 4 5 6 
#
# 1 13.6951 20.8557 1.0855 0.0000 -1.3905 0.0000
# 2 20.8557 96.4672 61.4703 0.0000 7.3347 0.0000
# 3 1.0855 61.4703 101.2604 0.0000 19.1605 0.0000
# 4 0.0000 0.0000 0.0000 35.7348 0.0000 11.2877
# 5 -1.3905 7.3347 19.1605 0.0000 13.7445 0.0000
# 6 0.0000 0.0000 0.0000 11.2877 0.0000 54.3857
#
#
#
# Elastic Compliance Matrix: (Units=1/GPa)
#
#
# Indices 1 2 3 4 5 6 
#
# 1 0.147367 -0.050176 0.028514 0.000000 0.001936 0.000000
# 2 -0.050176 0.034528 -0.021699 0.000000 0.006748 0.000000
# 3 0.028514 -0.021699 0.027173 0.000000 -0.023416 0.000000
# 4 0.000000 0.000000 0.000000 0.029947 0.000000 -0.006216
# 5 0.001936 0.006748 -0.023416 0.000000 0.101994 0.000000
# 6 0.000000 0.000000 0.000000 -0.006216 0.000000 0.019677
#
#
# Mechanical properties :
#
#
# Convention : Reuss Voigt Hill
#
# Bulk Modulus (GPa) = 8.17365 42.02729 25.10047
# Shear Modulus (GPa) = 10.24185 29.30708 19.77446
#
# Velocity S-wave (km/s) = 2.49107 4.21388 3.46137
# Velocity P-wave (km/s) = 3.63678 7.00996 5.58416
#
# Compressibility (1/GPa) = 0.12234435
#
# Stress axis : x y z
#
# Youngs Moduli (GPa) = 6.78578 28.96191 36.80086
#
# Poissons Ratio (x) = 1.45320 -1.04933
# Poissons Ratio (y) = 0.34049 0.79855
# Poissons Ratio (z) = -0.19349 0.62845
#
# Static dielectric constant tensor:
#      x y z
#    x 1.547100 0.000000 0.030560 
#    y 0.000000 1.549910 0.000000 
#    z 0.030560 0.000000 1.593630 
# 
# From -- ./inp_files/287704.got.cif
#   From: 2010.05.17/outbox.cif.g08.bks.cpg/sg12_144_cif.got.tgz:287704.got - 2010.06.03 13:09:07.
