data_PCOD9178540
_publ_section_title
;
Structure prediction by ZEFSAII (Michael W. Deem and Ramdas Pophale) SiO2 
 PCOD9178540
Probable space group: C 2/M
;
_chemical_formula_sum "Si O2"
_cell_formula_units_Z 64
_cell_length_a 12.726414
_cell_length_b 20.815758
_cell_length_c 23.346996
_cell_angle_alpha 90.000000
_cell_angle_beta 143.872725
_cell_angle_gamma 90.000000
_cell_volume 3646.470549
_symmetry_space_group_name_H-M "C 2/M"
_symmetry_group_IT_number 12
_symmetry_cell_setting 'monoclinic'
loop_
_space_group_symop_operation_xyz
x,y,z
-x,y,-z
-x,-y,-z
x,-y,z
1/2+x,1/2+y,z
1/2-x,1/2+y,-z
1/2-x,1/2-y,-z
1/2+x,1/2-y,z
loop_
_atom_site_type_symbol
_atom_site_label
_atom_site_fract_x
_atom_site_fract_y
_atom_site_fract_z
Si Si1 0.193508 0.927362 0.056368
Si Si2 0.907617 0.335749 0.593848
Si Si3 0.570778 0.330811 0.912502
Si Si4 0.550633 0.077550 0.277536
Si Si5 0.295443 0.167669 0.749748
Si Si6 0.724959 0.684984 0.302931
Si Si7 0.587344 0.312392 0.369260
Si Si8 0.442627 0.203949 0.036695
O O1 0.348834 0.905964 0.167783
O O2 0.239403 0.000000 0.061022
O O3 0.168781 0.886515 0.988975
O O4 0.000000 0.925997 0.000000
O O5 0.917968 0.389783 0.647124
O O6 0.726300 0.337356 0.477845
O O7 0.916961 0.265341 0.627480
O O8 0.075600 0.336498 0.624562
O O9 0.408775 0.348542 0.800736
O O10 0.504707 0.278289 0.929432
O O11 0.728680 0.298128 0.945597
O O12 0.673084 0.113002 0.283871
O O13 0.572202 0.000000 0.288466
O O14 0.292080 0.238147 0.717792
O O15 0.455478 0.168510 0.866654
O O16 0.109369 0.162636 0.701884
O O17 0.660029 0.671794 0.338359
O O18 0.500000 0.180830 0.000000
#
# Coordination Sequence:
#
# PCOD9178540 Si02
#       8
#     8   8   8   8   8   8   8   8
#     4  10  20  34  54  78 108 146 186 226 267 327
#     4  10  21  35  57  85 111 147 193 235 293 339
#     4  10  19  30  50  79 106 141 174 216 276 329
#     4  11  22  39  60  82 119 153 193 241 277 341
#     4  10  20  35  54  83 117 149 191 230 287 346
#     4  10  19  34  57  84 117 144 180 247 288 339
#     4  10  20  35  58  83 114 147 183 243 293 340
#     4  10  19  30  49  77 111 142 175 226 273 330
#
# _framework density 17.551217999999999
#
# number of rings (size 3 to 8) (size 9 to 14) (size 15 to 20)
#    0.000    1.875    2.500    2.250    0.000    2.500 
#    0.000    1.250    0.000    6.750    0.000    0.000 
#    0.000    0.000    0.000    0.000    0.000    0.000 
#
# Total GULP energy -178436.225744 kJ/mol
# GULP energy per Si atom -5576.132055 kJ/mol
# Density = 1.751127 g / cm^3
# Si number density = 17.551218 Si / 1000 Ang^3
#
#
#
# Elastic Constant Matrix: (Units=GPa)
#
#
# Indices 1 2 3 4 5 6 
#
# 1 94.5045 27.4198 28.6548 0.0004 -3.0977 -0.0002
# 2 27.4198 54.1660 30.3165 0.0002 -9.1892 -0.0002
# 3 28.6548 30.3165 70.6220 0.0000 9.0094 0.0004
# 4 0.0004 0.0002 0.0000 4.5663 0.0002 5.0045
# 5 -3.0977 -9.1892 9.0094 0.0002 29.1374 0.0000
# 6 -0.0002 -0.0002 0.0004 5.0045 0.0000 12.0438
#
#
#
# Elastic Compliance Matrix: (Units=1/GPa)
#
#
# Indices 1 2 3 4 5 6 
#
# 1 0.012960 -0.004424 -0.003495 -0.000002 0.001063 0.000001
# 2 -0.004424 0.030032 -0.012748 -0.000005 0.012943 0.000003
# 3 -0.003495 -0.012748 0.022498 0.000005 -0.011349 -0.000003
# 4 -0.000002 -0.000005 0.000005 0.402125 -0.000007 -0.167094
# 5 0.001063 0.012943 -0.011349 -0.000007 0.042024 0.000003
# 6 0.000001 0.000003 -0.000003 -0.167094 0.000003 0.152462
#
#
# Mechanical properties :
#
#
# Convention : Reuss Voigt Hill
#
# Bulk Modulus (GPa) = 41.39794 43.56387 42.48090
# Shear Modulus (GPa) = 7.02753 18.00959 12.51856
#
# Velocity S-wave (km/s) = 2.00317 3.20678 2.67359
# Velocity P-wave (km/s) = 5.38409 6.21177 5.81268
#
# Compressibility (1/GPa) = 0.02415579
#
# Stress axis : x y z
#
# Youngs Moduli (GPa) = 77.16271 33.29754 44.44782
#
# Poissons Ratio (x) = 0.14731 0.15534
# Poissons Ratio (y) = 0.34137 0.56664
# Poissons Ratio (z) = 0.26967 0.42449
#
# Static dielectric constant tensor:
#      x y z
#    x 1.618780 0.000000 0.007470 
#    y 0.000000 1.601160 0.000000 
#    z 0.007470 0.000000 1.594430 
# 
# From -- ./inp_files/207687.got.cif
#   From: 2010.05.17/outbox.cif.g08.bks.cpg/sg12_104_cif.got.tgz:207687.got - 2010.06.03 13:09:07.
