data_PCOD9178230
_publ_section_title
;
Structure prediction by ZEFSAII (Michael W. Deem and Ramdas Pophale) SiO2 
 PCOD9178230
Probable space group: C 2/M
;
_chemical_formula_sum "Si O2"
_cell_formula_units_Z 64
_cell_length_a 16.147324
_cell_length_b 9.439340
_cell_length_c 20.056236
_cell_angle_alpha 90.000000
_cell_angle_beta 74.299256
_cell_angle_gamma 90.000000
_cell_volume 2942.912052
_symmetry_space_group_name_H-M "C 2/M"
_symmetry_group_IT_number 12
_symmetry_cell_setting 'monoclinic'
loop_
_space_group_symop_operation_xyz
x,y,z
-x,y,-z
-x,-y,-z
x,-y,z
1/2+x,1/2+y,z
1/2-x,1/2+y,-z
1/2-x,1/2-y,-z
1/2+x,1/2-y,z
loop_
_atom_site_type_symbol
_atom_site_label
_atom_site_fract_x
_atom_site_fract_y
_atom_site_fract_z
Si Si1 0.340864 0.333852 0.354397
Si Si2 0.371100 0.164465 0.974682
Si Si3 0.030558 0.166672 0.778954
Si Si4 0.671039 0.666803 0.143513
Si Si5 0.075709 0.336538 0.894171
Si Si6 0.793010 0.332388 0.737884
Si Si7 0.876613 0.669238 0.470730
Si Si8 0.076713 0.670739 0.396099
O O1 0.343710 0.500000 0.371366
O O2 0.430632 0.287394 0.300089
O O3 0.274946 0.317968 0.307415
O O4 0.323909 0.247488 0.425021
O O5 0.324511 0.260650 0.930132
O O6 0.473575 0.166196 0.934873
O O7 0.343491 0.000000 0.976044
O O8 0.371459 0.210444 0.052016
O O9 0.080483 0.244232 0.827422
O O10 0.929400 0.185888 0.812824
O O11 0.048669 0.000000 0.780321
O O12 0.689597 0.500000 0.135706
O O13 0.721609 0.743883 0.191990
O O14 0.097864 0.500000 0.876187
O O15 0.799209 0.500000 0.753743
O O16 0.879990 0.280465 0.681500
O O17 0.861967 0.500000 0.471788
O O18 0.872505 0.718209 0.548408
O O19 0.976617 0.698097 0.429398
O O20 0.085752 0.500000 0.393408
#
# Coordination Sequence:
#
# PCOD9178230 Si02
#       8
#     8   8   8   8   8   8   8   8
#     4  10  21  34  47  68  98 129 159 191 232 281
#     4   8  14  26  44  68  97 123 150 189 236 282
#     4   9  18  31  46  67  97 127 153 190 239 282
#     4  10  19  30  47  71  96 122 156 197 236 277
#     4   8  14  25  44  70  95 120 154 193 230 276
#     4  10  20  34  50  66  92 130 163 192 230 279
#     4   9  17  32  54  75  95 120 154 197 237 276
#     4   8  16  32  53  75  95 120 157 195 233 278
#
# _framework density 21.747169
#
# number of rings (size 3 to 8) (size 9 to 14) (size 15 to 20)
#    0.000    3.000    0.000    2.625    0.000    2.500 
#    0.000    4.375    0.000    0.750    0.000    0.000 
#    0.000    0.000    0.000    0.000    0.000    0.000 
#
# Total GULP energy -178625.341719 kJ/mol
# GULP energy per Si atom -5582.041929 kJ/mol
# Density = 2.169767 g / cm^3
# Si number density = 21.747169 Si / 1000 Ang^3
#
#
#
# Elastic Constant Matrix: (Units=GPa)
#
#
# Indices 1 2 3 4 5 6 
#
# 1 67.0296 18.4005 17.0025 0.0000 9.9684 0.0000
# 2 18.4005 41.0943 65.3499 0.0000 23.9737 0.0000
# 3 17.0025 65.3499 162.1479 0.0000 29.4876 0.0000
# 4 0.0000 0.0000 0.0000 33.1002 0.0000 14.5070
# 5 9.9684 23.9737 29.4876 0.0000 36.2153 0.0000
# 6 0.0000 0.0000 0.0000 14.5070 0.0000 14.5614
#
#
#
# Elastic Compliance Matrix: (Units=1/GPa)
#
#
# Indices 1 2 3 4 5 6 
#
# 1 0.017892 -0.015810 0.004094 0.000000 0.002207 0.000000
# 2 -0.015810 0.113777 -0.036730 0.000000 -0.041059 0.000000
# 3 0.004094 -0.036730 0.019162 0.000000 0.007586 0.000000
# 4 0.000000 0.000000 0.000000 0.053627 0.000000 -0.053427
# 5 0.002207 -0.041059 0.007586 0.000000 0.048009 0.000000
# 6 0.000000 0.000000 0.000000 -0.053427 0.000000 0.121901
#
#
# Mechanical properties :
#
#
# Convention : Reuss Voigt Hill
#
# Bulk Modulus (GPa) = 18.53978 52.41972 35.47975
# Shear Modulus (GPa) = 10.21995 28.07665 19.14830
#
# Velocity S-wave (km/s) = 2.17017 3.59701 2.97053
# Velocity P-wave (km/s) = 3.85009 6.43489 5.30241
#
# Compressibility (1/GPa) = 0.05393808
#
# Stress axis : x y z
#
# Youngs Moduli (GPa) = 55.89074 8.78914 52.18746
#
# Poissons Ratio (x) = 0.13896 -0.21367
# Poissons Ratio (y) = 0.88364 1.91687
# Poissons Ratio (z) = -0.22884 0.32283
#
# Static dielectric constant tensor:
#      x y z
#    x 1.919210 0.000000 -0.042230 
#    y 0.000000 1.719790 0.000000 
#    z -0.042230 0.000000 1.769410 
# 
# From -- ./inp_files/314188.got.cif
#   From: 2010.05.17/outbox.cif.g08.bks.cpg/sg12_158_cif.got.tgz:314188.got - 2010.06.03 13:09:07.
