data_PCOD9178470
_publ_section_title
;
Structure prediction by ZEFSAII (Michael W. Deem and Ramdas Pophale) SiO2 
 PCOD9178470
Probable space group: C 2/M
;
_chemical_formula_sum "Si O2"
_cell_formula_units_Z 60
_cell_length_a 9.526230
_cell_length_b 23.072324
_cell_length_c 14.279675
_cell_angle_alpha 90.000000
_cell_angle_beta 45.773190
_cell_angle_gamma 90.000000
_cell_volume 2249.044365
_symmetry_space_group_name_H-M "C 2/M"
_symmetry_group_IT_number 12
_symmetry_cell_setting 'monoclinic'
loop_
_space_group_symop_operation_xyz
x,y,z
-x,y,-z
-x,-y,-z
x,-y,z
1/2+x,1/2+y,z
1/2-x,1/2+y,-z
1/2-x,1/2-y,-z
1/2+x,1/2-y,z
loop_
_atom_site_type_symbol
_atom_site_label
_atom_site_fract_x
_atom_site_fract_y
_atom_site_fract_z
Si Si1 0.452154 0.811517 0.383500
Si Si2 0.920117 0.061930 0.875013
Si Si3 0.045522 0.062546 0.605026
Si Si4 0.979561 0.302877 0.156052
Si Si5 0.014724 0.814524 0.648311
Si Si6 0.433115 0.684253 0.906910
Si Si7 0.500000 0.100872 0.000000
Si Si8 0.500830 0.062496 0.611521
O O1 0.402513 0.806129 0.296593
O O2 0.252414 0.817325 0.535920
O O3 0.536597 0.748243 0.370133
O O4 0.570345 0.871985 0.334527
O O5 0.982604 0.117962 0.903494
O O6 0.039566 0.062373 0.721466
O O7 0.946043 0.000000 0.908833
O O8 0.690487 0.068222 0.950750
O O9 0.956727 0.125475 0.624241
O O10 0.269388 0.062422 0.466360
O O11 0.953031 0.000000 0.621880
O O12 0.940164 0.240310 0.127493
O O13 0.216224 0.306827 0.047940
O O14 0.926187 0.356571 0.116254
O O15 0.938405 0.814122 0.790497
O O16 0.500000 0.059508 0.500000
O O17 0.416858 0.000000 0.684970
#
# Coordination Sequence:
#
# PCOD9178470 Si02
#       8
#     8   8   8   8   8   8   4   8
#     4   9  16  28  49  72 100 132 164 211 269 301
#     4   9  16  28  49  73  98 129 170 214 250 306
#     4   8  14  26  48  70  93 135 168 194 252 313
#     4   9  17  30  50  70 101 136 167 216 252 314
#     4   8  14  26  49  67  95 124 160 213 238 311
#     4   8  15  29  50  66  94 136 170 199 256 317
#     4  10  19  30  48  78 105 128 176 218 258 302
#     4   9  17  30  50  76 105 134 174 216 256 316
#
# _framework density 26.677997999999999
#
# number of rings (size 3 to 8) (size 9 to 14) (size 15 to 20)
#    0.000    3.333    0.000    0.200    0.000    0.000 
#    0.000    3.333  105.600    5.600    0.000   13.533 
#    0.000    1.600    0.000    0.000    0.000    0.000 
#
# Total GULP energy -167442.809852 kJ/mol
# GULP energy per Si atom -5581.426995 kJ/mol
# Density = 2.661728 g / cm^3
# Si number density = 26.677998 Si / 1000 Ang^3
#
#
#
# Elastic Constant Matrix: (Units=GPa)
#
#
# Indices 1 2 3 4 5 6 
#
# 1 64.3705 25.3057 50.9345 0.0000 -15.2247 0.0000
# 2 25.3057 313.7805 3.9995 0.0000 2.4112 0.0000
# 3 50.9345 3.9995 96.2258 0.0000 0.8570 0.0000
# 4 0.0000 0.0000 0.0000 12.6312 0.0000 -5.5590
# 5 -15.2247 2.4112 0.8570 0.0000 50.4126 0.0000
# 6 0.0000 0.0000 0.0000 -5.5590 0.0000 -14.8627
#
#
#
# Elastic Compliance Matrix: (Units=1/GPa)
#
#
# Indices 1 2 3 4 5 6 
#
# 1 0.032566 -0.002486 -0.017226 0.000000 0.010247 0.000000
# 2 -0.002486 0.003379 0.001184 0.000000 -0.000932 0.000000
# 3 -0.017226 0.001184 0.019511 0.000000 -0.005591 0.000000
# 4 0.000000 0.000000 0.000000 0.067979 0.000000 -0.025426
# 5 0.010247 -0.000932 -0.005591 0.000000 0.023070 0.000000
# 6 0.000000 0.000000 0.000000 -0.025426 0.000000 -0.057773
#
#
# Mechanical properties :
#
#
# Convention : Reuss Voigt Hill
#
# Bulk Modulus (GPa) = 54.34633 70.53958 62.44296
# Shear Modulus (GPa) = 37.90103 35.91204 36.90654
#
# Velocity S-wave (km/s) = 3.77329 3.67294 3.72345
# Velocity P-wave (km/s) = 6.27686 6.66977 6.47630
#
# Compressibility (1/GPa) = 0.01840051
#
# Stress axis : x y z
#
# Youngs Moduli (GPa) = 30.70679 295.90391 51.25340
#
# Poissons Ratio (x) = 0.73549 0.88289
# Poissons Ratio (y) = 0.07632 -0.06066
# Poissons Ratio (z) = 0.52895 -0.35020
#
# Static dielectric constant tensor:
#      x y z
#    x 2.098520 0.000000 -0.024120 
#    y 0.000000 2.186500 0.000000 
#    z -0.024120 0.000000 2.026350 
# 
# From -- ./inp_files/208635.got.cif
#   From: 2010.05.17/outbox.cif.g08.bks.cpg/sg12_105_cif.got.tgz:208635.got - 2010.06.03 13:09:07.
