data_PCOD9178352
_publ_section_title
;
Structure prediction by ZEFSAII (Michael W. Deem and Ramdas Pophale) SiO2 
 PCOD9178352
Probable space group: C 2/M
;
_chemical_formula_sum "Si O2"
_cell_formula_units_Z 64
_cell_length_a 28.996328
_cell_length_b 24.739185
_cell_length_c 5.353397
_cell_angle_alpha 90.000000
_cell_angle_beta 119.041581
_cell_angle_gamma 90.000000
_cell_volume 3357.393506
_symmetry_space_group_name_H-M "C 2/M"
_symmetry_group_IT_number 12
_symmetry_cell_setting 'monoclinic'
loop_
_space_group_symop_operation_xyz
x,y,z
-x,y,-z
-x,-y,-z
x,-y,z
1/2+x,1/2+y,z
1/2-x,1/2+y,-z
1/2-x,1/2-y,-z
1/2+x,1/2-y,z
loop_
_atom_site_type_symbol
_atom_site_label
_atom_site_fract_x
_atom_site_fract_y
_atom_site_fract_z
Si Si1 0.374827 0.565140 0.162817
Si Si2 0.185079 0.641723 0.682831
Si Si3 0.630431 0.059307 0.834110
Si Si4 0.439873 0.435069 0.842300
Si Si5 0.265556 0.059047 0.574231
Si Si6 0.527172 0.064942 0.824190
Si Si7 0.292867 0.628326 0.242556
Si Si8 0.285784 0.255417 0.344545
O O1 0.363277 0.500000 0.122885
O O2 0.411892 0.574693 0.503578
O O3 0.324310 0.602191 0.095703
O O4 0.405212 0.582038 0.990637
O O5 0.135499 0.608704 0.657691
O O6 0.211421 0.604197 0.544087
O O7 0.176990 0.702560 0.568573
O O8 0.232382 0.642570 0.011095
O O9 0.589323 0.072214 0.945006
O O10 0.615187 0.000000 0.683364
O O11 0.688326 0.052841 0.099890
O O12 0.443253 0.500000 0.878528
O O13 0.500000 0.414048 0.000000
O O14 0.213199 0.080939 0.569438
O O15 0.258064 0.000000 0.435179
O O16 0.500000 0.085335 0.500000
O O17 0.519277 0.000000 0.808571
O O18 0.500000 0.087161 0.000000
O O19 0.313044 0.685695 0.399804
O O20 0.250000 0.250000 0.500000
O O21 0.250000 0.250000 0.000000
#
# Coordination Sequence:
#
# PCOD9178352 Si02
#       8
#     8   8   8   8   8   8   8   8
#     4  10  20  31  50  77 106 135 166 208 257 308
#     4  10  20  33  51  71 101 141 175 212 249 303
#     4   9  19  32  47  74 104 135 173 209 253 315
#     4   9  18  33  51  73 103 137 170 205 250 307
#     4  10  19  30  48  71 106 143 168 199 250 311
#     4   9  18  31  48  70  98 130 164 209 257 300
#     4  10  21  34  48  74 106 135 175 213 254 298
#     4  10  20  36  54  71  97 137 179 220 248 286
#
# _framework density 19.062408000000001
#
# number of rings (size 3 to 8) (size 9 to 14) (size 15 to 20)
#    0.000    2.375    1.250    1.125    3.500    3.000 
#    0.000    0.000    0.000    0.000    0.000    2.625 
#    0.000    0.000    0.000    0.000    0.000    0.000 
#
# Total GULP energy -178229.887708 kJ/mol
# GULP energy per Si atom -5569.683991 kJ/mol
# Density = 1.901902 g / cm^3
# Si number density = 19.062408 Si / 1000 Ang^3
#
#
#
# Elastic Constant Matrix: (Units=GPa)
#
#
# Indices 1 2 3 4 5 6 
#
# 1 107.0261 35.1347 31.2786 0.0000 -24.9238 0.0000
# 2 35.1347 105.3416 8.0915 0.0000 -12.5561 0.0000
# 3 31.2786 8.0915 59.5684 0.0000 -21.5499 0.0000
# 4 0.0000 0.0000 0.0000 1.0150 0.0000 -33.7765
# 5 -24.9238 -12.5561 -21.5499 0.0000 32.9935 0.0000
# 6 0.0000 0.0000 0.0000 -33.7765 0.0000 -69.8248
#
#
#
# Elastic Compliance Matrix: (Units=1/GPa)
#
#
# Indices 1 2 3 4 5 6 
#
# 1 0.013039 -0.003330 -0.004307 0.000000 0.005769 0.000000
# 2 -0.003330 0.010795 0.001124 0.000000 0.002326 0.000000
# 3 -0.004307 0.001124 0.023404 0.000000 0.012461 0.000000
# 4 0.000000 0.000000 0.000000 0.057624 0.000000 -0.027875
# 5 0.005769 0.002326 0.012461 0.000000 0.043691 0.000000
# 6 0.000000 0.000000 0.000000 -0.027875 0.000000 -0.000838
#
#
# Mechanical properties :
#
#
# Convention : Reuss Voigt Hill
#
# Bulk Modulus (GPa) = 29.23036 46.77175 38.00106
# Shear Modulus (GPa) = 29.04498 5.99883 17.52190
#
# Velocity S-wave (km/s) = 3.90767 1.77589 3.03510
# Velocity P-wave (km/s) = 5.97722 5.36604 5.67986
#
# Compressibility (1/GPa) = 0.03421100
#
# Stress axis : x y z
#
# Youngs Moduli (GPa) = 76.69224 92.63824 42.72731
#
# Poissons Ratio (x) = 0.30853 0.18403
# Poissons Ratio (y) = 0.25542 -0.04803
# Poissons Ratio (z) = 0.33032 -0.10413
#
# Static dielectric constant tensor:
#      x y z
#    x 1.682250 0.000000 0.006580 
#    y 0.000000 1.724780 0.000000 
#    z 0.006580 0.000000 1.678810 
# 
# From -- ./inp_files/26088.got.cif
#   From: 2010.05.17/outbox.cif.g08.bks.cpg/sg12_14_cif.got.tgz:26088.got - 2010.06.03 13:09:07.
