data_PCOD9178176
_publ_section_title
;
Structure prediction by ZEFSAII (Michael W. Deem and Ramdas Pophale) SiO2 
 PCOD9178176
Probable space group: C 2/M
;
_chemical_formula_sum "Si O2"
_cell_formula_units_Z 44
_cell_length_a 5.129979
_cell_length_b 14.906469
_cell_length_c 28.503401
_cell_angle_alpha 90.000000
_cell_angle_beta 90.048407
_cell_angle_gamma 90.000000
_cell_volume 2179.650675
_symmetry_space_group_name_H-M "C 2/M"
_symmetry_group_IT_number 12
_symmetry_cell_setting 'monoclinic'
loop_
_space_group_symop_operation_xyz
x,y,z
-x,y,-z
-x,-y,-z
x,-y,z
1/2+x,1/2+y,z
1/2-x,1/2+y,-z
1/2-x,1/2-y,-z
1/2+x,1/2-y,z
loop_
_atom_site_type_symbol
_atom_site_label
_atom_site_fract_x
_atom_site_fract_y
_atom_site_fract_z
Si Si1 0.557369 0.187805 0.549514
Si Si2 0.941428 0.690458 0.252151
Si Si3 0.941491 0.311787 0.648339
Si Si4 0.000000 0.812470 0.000000
Si Si5 0.412869 0.892004 0.846247
Si Si6 0.086379 0.107592 0.100526
O O1 0.500000 0.140006 0.500000
O O2 0.347250 0.270476 0.549513
O O3 0.000244 0.360071 0.599013
O O4 0.146345 0.773620 0.251853
O O5 0.001447 0.642131 0.301830
O O6 0.005225 0.636465 0.205516
O O7 0.650534 0.271133 0.648128
O O8 0.988825 0.868373 0.952183
O O9 0.750000 0.750000 0.000000
O O10 0.630359 0.859804 0.883329
O O11 0.131649 0.858624 0.863076
O O12 0.406058 0.000000 0.847737
O O13 0.092008 0.000000 0.103882
#
# Coordination Sequence:
#
# PCOD9178176 Si02
#       6
#     8   8   8   4   8   8
#     4   8  12  18  29  45  69 103 139 174 213 260
#     4  10  19  30  47  69  94 123 152 190 237 278
#     4   8  14  23  34  53  80 109 142 178 222 271
#     4  12  25  38  57  84 106 124 154 196 231 266
#     4  10  21  36  54  74  96 126 162 193 224 271
#     4  10  22  40  57  73  99 132 158 185 228 277
#
# _framework density 20.186720000000001
#
# number of rings (size 3 to 8) (size 9 to 14) (size 15 to 20)
#    0.000    2.545    0.000    2.455    0.000    4.364 
#    0.000    3.636    0.000    0.000    0.000    0.000 
#    0.000    0.727    0.000    0.000    0.000  184.727 
#
# Total GULP energy -122639.399169 kJ/mol
# GULP energy per Si atom -5574.518144 kJ/mol
# Density = 2.014077 g / cm^3
# Si number density = 20.186720 Si / 1000 Ang^3
#
#
#
# Elastic Constant Matrix: (Units=GPa)
#
#
# Indices 1 2 3 4 5 6 
#
# 1 99.6634 1.6163 -11.6602 0.0000 1.5834 0.0000
# 2 1.6163 14.7169 -5.5803 0.0000 1.6842 0.0000
# 3 -11.6602 -5.5803 124.8613 0.0000 -4.8215 0.0000
# 4 0.0000 0.0000 0.0000 -20.6837 0.0000 5.6418
# 5 1.5834 1.6842 -4.8215 0.0000 35.7594 0.0000
# 6 0.0000 0.0000 0.0000 5.6418 0.0000 3.9995
#
#
#
# Elastic Compliance Matrix: (Units=1/GPa)
#
#
# Indices 1 2 3 4 5 6 
#
# 1 0.010156 -0.000739 0.000904 0.000000 -0.000293 0.000000
# 2 -0.000739 0.069465 0.002926 0.000000 -0.002845 0.000000
# 3 0.000904 0.002926 0.008260 0.000000 0.000936 0.000000
# 4 0.000000 0.000000 0.000000 -0.034913 0.000000 0.049250
# 5 -0.000293 -0.002845 0.000936 0.000000 0.028238 0.000000
# 6 0.000000 0.000000 0.000000 0.049250 0.000000 0.180558
#
#
# Mechanical properties :
#
#
# Convention : Reuss Voigt Hill
#
# Bulk Modulus (GPa) = 10.63118 23.11036 16.87077
# Shear Modulus (GPa) = 17.42546 20.80608 19.11577
#
# Velocity S-wave (km/s) = 2.94124 3.21391 3.08059
# Velocity P-wave (km/s) = 4.10029 5.02448 4.58573
#
# Compressibility (1/GPa) = 0.09406291
#
# Stress axis : x y z
#
# Youngs Moduli (GPa) = 98.46215 14.39570 121.06227
#
# Poissons Ratio (x) = 0.01064 -0.10945
# Poissons Ratio (y) = 0.07277 -0.35419
# Poissons Ratio (z) = -0.08902 -0.04212
#
# Static dielectric constant tensor:
#      x y z
#    x 1.707190 0.000000 -0.001420 
#    y 0.000000 1.673500 0.000000 
#    z -0.001420 0.000000 1.804620 
# 
# From -- ./inp_files/330937.got.cif
#   From: 2010.05.17/outbox.cif.g08.bks.cpg/sg12_166_cif.got.tgz:330937.got - 2010.06.03 13:09:07.
