data_PCOD9178977
_publ_section_title
;
Structure prediction by ZEFSAII (Michael W. Deem and Ramdas Pophale) SiO2 
 PCOD9178977
Probable space group: C 2/M
;
_chemical_formula_sum "Si O2"
_cell_formula_units_Z 56
_cell_length_a 22.591321
_cell_length_b 9.694218
_cell_length_c 11.926730
_cell_angle_alpha 90.000000
_cell_angle_beta 101.685209
_cell_angle_gamma 90.000000
_cell_volume 2557.882085
_symmetry_space_group_name_H-M "C 2/M"
_symmetry_group_IT_number 12
_symmetry_cell_setting 'monoclinic'
loop_
_space_group_symop_operation_xyz
x,y,z
-x,y,-z
-x,-y,-z
x,-y,z
1/2+x,1/2+y,z
1/2-x,1/2+y,-z
1/2-x,1/2-y,-z
1/2+x,1/2-y,z
loop_
_atom_site_type_symbol
_atom_site_label
_atom_site_fract_x
_atom_site_fract_y
_atom_site_fract_z
Si Si1 0.520722 0.652974 0.807906
Si Si2 0.665064 0.342536 0.042557
Si Si3 0.750461 0.161623 0.706467
Si Si4 0.847708 0.340705 0.621754
Si Si5 0.570242 0.156297 0.119388
Si Si6 0.342024 0.660168 0.211665
Si Si7 0.443832 0.343356 0.553568
O O1 0.522487 0.500000 0.861115
O O2 0.492141 0.769030 0.874587
O O3 0.586632 0.681260 0.781598
O O4 0.473588 0.644364 0.687401
O O5 0.642855 0.500000 0.038114
O O6 0.712407 0.330371 0.161535
O O7 0.610208 0.241876 0.048106
O O8 0.686653 0.320281 0.923849
O O9 0.789545 0.249586 0.632909
O O10 0.688070 0.236897 0.712510
O O11 0.745415 0.000000 0.675183
O O12 0.834014 0.500000 0.587357
O O13 0.889038 0.345125 0.750616
O O14 0.887992 0.259808 0.545658
O O15 0.562531 0.000000 0.080855
O O16 0.332014 0.500000 0.240010
O O17 0.500000 0.293963 0.500000
O O18 0.573172 0.500000 0.490161
#
# Coordination Sequence:
#
# PCOD9178977 Si02
#       7
#     8   8   8   8   8   8   8
#     4   9  18  32  48  67  94 126 154 183 230 286
#     4   9  18  31  46  65  90 123 162 199 233 269
#     4  10  19  31  48  68  92 124 161 198 232 265
#     4   9  17  30  49  72  96 122 153 189 229 273
#     4   9  17  29  46  67  92 122 156 196 234 269
#     4  10  20  32  46  65  92 127 162 194 229 272
#     4   9  17  31  53  78  99 118 145 185 231 279
#
# _framework density 21.893111000000001
#
# number of rings (size 3 to 8) (size 9 to 14) (size 15 to 20)
#    0.000    2.714    0.000    1.714    0.000    6.000 
#    0.000    2.857    0.000    0.857    0.000    0.000 
#    0.000    0.000    0.000    0.000    0.000    0.000 
#
# Total GULP energy -156389.568887 kJ/mol
# GULP energy per Si atom -5585.341746 kJ/mol
# Density = 2.184328 g / cm^3
# Si number density = 21.893111 Si / 1000 Ang^3
#
#
#
# Elastic Constant Matrix: (Units=GPa)
#
#
# Indices 1 2 3 4 5 6 
#
# 1 108.1647 120.5799 28.5840 0.0000 -34.9601 0.0000
# 2 120.5799 201.2232 33.0657 0.0000 -56.8457 0.0000
# 3 28.5840 33.0657 58.4803 0.0000 0.5680 0.0000
# 4 0.0000 0.0000 0.0000 1.8066 0.0000 -16.2004
# 5 -34.9601 -56.8457 0.5680 0.0000 46.9158 0.0000
# 6 0.0000 0.0000 0.0000 -16.2004 0.0000 35.7541
#
#
#
# Elastic Compliance Matrix: (Units=1/GPa)
#
#
# Indices 1 2 3 4 5 6 
#
# 1 0.029207 -0.015909 -0.005305 0.000000 0.002552 0.000000
# 2 -0.015909 0.017526 -0.002225 0.000000 0.009408 0.000000
# 3 -0.005305 -0.002225 0.021018 0.000000 -0.006904 0.000000
# 4 0.000000 0.000000 0.000000 -0.180704 0.000000 -0.081878
# 5 0.002552 0.009408 -0.006904 0.000000 0.034699 0.000000
# 6 0.000000 0.000000 0.000000 -0.081878 0.000000 -0.009131
#
#
# Mechanical properties :
#
#
# Convention : Reuss Voigt Hill
#
# Bulk Modulus (GPa) = 47.90990 81.36970 64.63980
# Shear Modulus (GPa) = -149.04432 29.27120 -59.88656
#
# Velocity S-wave (km/s) = -8.25990 3.66047 -5.23579
# Velocity P-wave (km/s) = 8.30885 7.42381 2.63856
#
# Compressibility (1/GPa) = 0.02087251
#
# Stress axis : x y z
#
# Youngs Moduli (GPa) = 34.23779 57.05711 47.57830
#
# Poissons Ratio (x) = 0.90774 0.25242
# Poissons Ratio (y) = 0.54470 0.10585
# Poissons Ratio (z) = 0.18165 0.12694
#
# Static dielectric constant tensor:
#      x y z
#    x 1.787070 0.000000 0.057390 
#    y 0.000000 1.763270 0.000000 
#    z 0.057390 0.000000 1.852720 
# 
# From -- ./inp_files/230954.got.cif
#   From: 2010.05.17/outbox.cif.g08.bks.cpg/sg12_116_cif.got.tgz:230954.got - 2010.06.03 13:09:07.
