data_PCOD9178529
_publ_section_title
;
Structure prediction by ZEFSAII (Michael W. Deem and Ramdas Pophale) SiO2 
 PCOD9178529
Probable space group: C 2/M
;
_chemical_formula_sum "Si O2"
_cell_formula_units_Z 48
_cell_length_a 20.612921
_cell_length_b 17.734667
_cell_length_c 7.055496
_cell_angle_alpha 90.000000
_cell_angle_beta 136.777238
_cell_angle_gamma 90.000000
_cell_volume 1766.351460
_symmetry_space_group_name_H-M "C 2/M"
_symmetry_group_IT_number 12
_symmetry_cell_setting 'monoclinic'
loop_
_space_group_symop_operation_xyz
x,y,z
-x,y,-z
-x,-y,-z
x,-y,z
1/2+x,1/2+y,z
1/2-x,1/2+y,-z
1/2-x,1/2-y,-z
1/2+x,1/2-y,z
loop_
_atom_site_type_symbol
_atom_site_label
_atom_site_fract_x
_atom_site_fract_y
_atom_site_fract_z
Si Si1 0.105462 0.218403 0.266706
Si Si2 0.615046 0.416161 0.760725
Si Si3 0.386427 0.914624 0.302491
Si Si4 0.386878 0.251173 0.273578
Si Si5 0.793565 0.922046 0.462929
Si Si6 0.608076 0.111138 0.241491
O O1 0.127346 0.235807 0.532915
O O2 0.175239 0.152348 0.361468
O O3 0.108358 0.300617 0.184399
O O4 0.000000 0.188997 0.000000
O O5 0.500000 0.414215 0.500000
O O6 0.637689 0.500000 0.891953
O O7 0.640788 0.330484 0.885023
O O8 0.664187 0.418125 0.657969
O O9 0.500000 0.915073 0.500000
O O10 0.349724 0.832800 0.145918
O O11 0.366931 0.905092 0.486745
O O12 0.352805 0.000000 0.184331
O O13 0.500000 0.245432 0.500000
O O14 0.681741 0.924571 0.255825
O O15 0.833974 0.000000 0.628629
O O16 0.500000 0.085513 0.000000
#
# Coordination Sequence:
#
# PCOD9178529 Si02
#       6
#     8   8   8   8   8   8
#     4   9  18  32  50  73 101 133 170 212 257 304
#     4   8  14  26  45  69  95 124 160 203 251 298
#     4   9  17  29  46  67  94 131 169 204 247 297
#     4   8  14  26  45  68  93 125 163 201 247 300
#     4  10  19  30  49  77 105 134 169 210 259 311
#     4  10  20  34  53  76 103 136 175 216 254 300
#
# _framework density 27.174661
#
# number of rings (size 3 to 8) (size 9 to 14) (size 15 to 20)
#    0.000    3.000    0.000    1.000    0.000    1.667 
#    0.000    0.000    0.000    8.000    0.000   75.833 
#    0.000    0.000    0.000    0.000    0.000    0.000 
#
# Total GULP energy -133976.162957 kJ/mol
# GULP energy per Si atom -5582.340123 kJ/mol
# Density = 2.711281 g / cm^3
# Si number density = 27.174661 Si / 1000 Ang^3
#
#
#
# Elastic Constant Matrix: (Units=GPa)
#
#
# Indices 1 2 3 4 5 6 
#
# 1 171.2693 44.9822 55.0150 0.0000 12.8543 0.0000
# 2 44.9822 312.5629 53.1509 0.0000 2.6004 0.0000
# 3 55.0150 53.1509 61.1701 0.0000 1.3023 0.0000
# 4 0.0000 0.0000 0.0000 70.5498 0.0000 20.4980
# 5 12.8543 2.6004 1.3023 0.0000 57.5122 0.0000
# 6 0.0000 0.0000 0.0000 20.4980 0.0000 14.7469
#
#
#
# Elastic Compliance Matrix: (Units=1/GPa)
#
#
# Indices 1 2 3 4 5 6 
#
# 1 0.008377 0.000098 -0.007583 0.000000 -0.001705 0.000000
# 2 0.000098 0.003756 -0.003349 0.000000 -0.000116 0.000000
# 3 -0.007583 -0.003349 0.026051 0.000000 0.001256 0.000000
# 4 0.000000 0.000000 0.000000 0.023777 0.000000 -0.033050
# 5 -0.001705 -0.000116 0.001256 0.000000 0.017745 0.000000
# 6 0.000000 0.000000 0.000000 -0.033050 0.000000 0.113749
#
#
# Mechanical properties :
#
#
# Convention : Reuss Voigt Hill
#
# Bulk Modulus (GPa) = 60.54807 94.58872 77.56840
# Shear Modulus (GPa) = 22.66260 54.68540 38.67400
#
# Velocity S-wave (km/s) = 2.89097 4.49081 3.77658
# Velocity P-wave (km/s) = 5.78559 7.85958 6.90095
#
# Compressibility (1/GPa) = 0.01651580
#
# Stress axis : x y z
#
# Youngs Moduli (GPa) = 119.37908 266.26091 38.38639
#
# Poissons Ratio (x) = -0.02612 0.29107
# Poissons Ratio (y) = -0.01171 0.12856
# Poissons Ratio (z) = 0.90522 0.89174
#
# Static dielectric constant tensor:
#      x y z
#    x 1.969710 0.000000 0.186270 
#    y 0.000000 2.166450 0.000000 
#    z 0.186270 0.000000 1.499770 
# 
# From -- ./inp_files/88129.got.cif
#   From: 2010.05.17/outbox.cif.g08.bks.cpg/sg12_45_cif.got.tgz:88129.got - 2010.06.03 13:09:07.
