data_PCOD9178196
_publ_section_title
;
Structure prediction by ZEFSAII (Michael W. Deem and Ramdas Pophale) SiO2 
 PCOD9178196
Probable space group: C 2/M
;
_chemical_formula_sum "Si O2"
_cell_formula_units_Z 64
_cell_length_a 23.520535
_cell_length_b 9.413139
_cell_length_c 21.509245
_cell_angle_alpha 90.000000
_cell_angle_beta 130.563517
_cell_angle_gamma 90.000000
_cell_volume 3617.767810
_symmetry_space_group_name_H-M "C 2/M"
_symmetry_group_IT_number 12
_symmetry_cell_setting 'monoclinic'
loop_
_space_group_symop_operation_xyz
x,y,z
-x,y,-z
-x,-y,-z
x,-y,z
1/2+x,1/2+y,z
1/2-x,1/2+y,-z
1/2-x,1/2-y,-z
1/2+x,1/2-y,z
loop_
_atom_site_type_symbol
_atom_site_label
_atom_site_fract_x
_atom_site_fract_y
_atom_site_fract_z
Si Si1 0.530464 0.163067 0.333780
Si Si2 0.356050 0.163414 0.165014
Si Si3 0.418522 0.165252 0.967625
Si Si4 0.823465 0.335118 0.774444
Si Si5 0.318468 0.334245 0.255989
Si Si6 0.426131 0.333322 0.753068
Si Si7 0.009796 0.834129 0.578280
Si Si8 0.401142 0.333005 0.079134
O O1 0.443065 0.163611 0.249761
O O2 0.573197 0.252496 0.312007
O O3 0.533136 0.238498 0.402363
O O4 0.554941 0.000000 0.353403
O O5 0.312114 0.240609 0.189426
O O6 0.356099 0.251687 0.101208
O O7 0.333083 0.000000 0.139910
O O8 0.364479 0.171940 0.870284
O O9 0.425048 0.000000 0.992839
O O10 0.500000 0.210276 0.000000
O O11 0.391846 0.259962 0.005848
O O12 0.826041 0.500000 0.755476
O O13 0.738903 0.292641 0.730642
O O14 0.867375 0.238081 0.757621
O O15 0.303125 0.500000 0.229550
O O16 0.402887 0.325640 0.340994
O O17 0.412099 0.500000 0.735126
O O18 0.510244 0.318229 0.840996
O O19 0.000000 0.790193 0.500000
O O20 0.987214 0.000000 0.567808
O O21 0.383201 0.500000 0.065755
#
# Coordination Sequence:
#
# PCOD9178196 Si02
#       8
#     8   8   8   8   8   8   8   8
#     4   9  17  29  48  74 101 127 159 199 238 280
#     4   9  17  30  49  70  94 125 161 201 244 287
#     4  10  19  31  47  67  94 126 163 205 245 285
#     4  10  20  33  49  69  96 131 164 198 241 287
#     4   9  18  33  51  72  99 128 160 194 234 288
#     4  10  19  30  47  71  98 128 163 203 243 283
#     4   9  17  31  53  79 104 128 154 190 237 285
#     4  10  19  30  47  70  95 123 161 208 250 286
#
# _framework density 17.690467999999999
#
# number of rings (size 3 to 8) (size 9 to 14) (size 15 to 20)
#    0.000    2.500    1.250    1.500    0.000    5.500 
#    0.000    0.625    0.000    0.750    0.000    0.000 
#    0.000    0.000    0.000    0.000    0.000    0.000 
#
# Total GULP energy -178517.040460 kJ/mol
# GULP energy per Si atom -5578.657514 kJ/mol
# Density = 1.765020 g / cm^3
# Si number density = 17.690468 Si / 1000 Ang^3
#
#
#
# Elastic Constant Matrix: (Units=GPa)
#
#
# Indices 1 2 3 4 5 6 
#
# 1 105.0412 83.4105 28.9032 0.0000 -30.4202 0.0000
# 2 83.4105 122.6774 35.2265 0.0000 -32.9610 0.0000
# 3 28.9032 35.2265 34.0515 0.0000 -29.5782 0.0000
# 4 0.0000 0.0000 0.0000 17.5199 0.0000 -10.5096
# 5 -30.4202 -32.9610 -29.5782 0.0000 29.7880 0.0000
# 6 0.0000 0.0000 0.0000 -10.5096 0.0000 30.7918
#
#
#
# Elastic Compliance Matrix: (Units=1/GPa)
#
#
# Indices 1 2 3 4 5 6 
#
# 1 0.022920 -0.013623 0.013645 0.000000 0.021882 0.000000
# 2 -0.013623 0.019879 -0.014396 0.000000 -0.006210 0.000000
# 3 0.013645 -0.014396 0.225074 0.000000 0.221494 0.000000
# 4 0.000000 0.000000 0.000000 0.071773 0.000000 0.024497
# 5 0.021882 -0.006210 0.221494 0.000000 0.268979 0.000000
# 6 0.000000 0.000000 0.000000 0.024497 0.000000 0.040837
#
#
# Mechanical properties :
#
#
# Convention : Reuss Voigt Hill
#
# Bulk Modulus (GPa) = 4.18189 61.87228 33.02709
# Shear Modulus (GPa) = 6.59702 23.23528 14.91615
#
# Velocity S-wave (km/s) = 1.93319 3.62807 2.90690
# Velocity P-wave (km/s) = 2.71146 7.25268 5.47510
#
# Compressibility (1/GPa) = 0.23912633
#
# Stress axis : x y z
#
# Youngs Moduli (GPa) = 43.63047 50.30425 4.44298
#
# Poissons Ratio (x) = 0.68527 -0.06063
# Poissons Ratio (y) = 0.59436 0.06396
# Poissons Ratio (z) = -0.59535 0.72418
#
# Static dielectric constant tensor:
#      x y z
#    x 1.602390 0.000000 0.026240 
#    y 0.000000 1.597060 0.000000 
#    z 0.026240 0.000000 1.595100 
# 
# From -- ./inp_files/319850.got.cif
#   From: 2010.05.17/outbox.cif.g08.bks.cpg/sg12_160_cif.got.tgz:319850.got - 2010.06.03 13:09:07.
