data_PCOD9178688
_publ_section_title
;
Structure prediction by ZEFSAII (Michael W. Deem and Ramdas Pophale) SiO2 
 PCOD9178688
Probable space group: C 2/M
;
_chemical_formula_sum "Si O2"
_cell_formula_units_Z 56
_cell_length_a 21.158923
_cell_length_b 7.680323
_cell_length_c 31.548774
_cell_angle_alpha 90.000000
_cell_angle_beta 32.908312
_cell_angle_gamma 90.000000
_cell_volume 2785.429924
_symmetry_space_group_name_H-M "C 2/M"
_symmetry_group_IT_number 12
_symmetry_cell_setting 'monoclinic'
loop_
_space_group_symop_operation_xyz
x,y,z
-x,y,-z
-x,-y,-z
x,-y,z
1/2+x,1/2+y,z
1/2-x,1/2+y,-z
1/2-x,1/2-y,-z
1/2+x,1/2-y,z
loop_
_atom_site_type_symbol
_atom_site_label
_atom_site_fract_x
_atom_site_fract_y
_atom_site_fract_z
Si Si1 0.565161 0.706481 0.585763
Si Si2 0.551673 0.213945 0.752168
Si Si3 0.192932 0.297768 0.253493
Si Si4 0.182140 0.291154 0.163264
Si Si5 0.075180 0.702138 0.834016
Si Si6 0.062779 0.709458 0.007435
Si Si7 0.290105 0.789676 0.411912
O O1 0.553441 0.500000 0.586819
O O2 0.437180 0.784204 0.655436
O O3 0.620293 0.740812 0.601084
O O4 0.662796 0.773404 0.497911
O O5 0.431986 0.270531 0.797135
O O6 0.560365 0.277042 0.795434
O O7 0.657737 0.269173 0.662065
O O8 0.553234 0.000000 0.751600
O O9 0.226211 0.500000 0.232238
O O10 0.190648 0.224121 0.206783
O O11 0.291379 0.209700 0.226166
O O12 0.170423 0.500000 0.173091
O O13 0.301319 0.249600 0.072306
O O14 0.039936 0.500000 0.850327
O O15 0.998533 0.778303 0.915568
O O16 0.048305 0.500000 0.015488
O O17 0.000000 0.775957 0.000000
O O18 0.285310 0.000000 0.414202
#
# Coordination Sequence:
#
# PCOD9178688 Si02
#       7
#     8   8   8   8   8   8   8
#     4  10  19  30  53  84 109 137 177 221 265 312
#     4   9  18  36  57  78 106 142 179 215 261 317
#     4  11  21  35  55  79 108 140 178 222 264 314
#     4  10  20  34  56  79 102 139 180 217 260 316
#     4  10  21  37  57  77 105 143 179 217 266 320
#     4  10  20  34  52  79 110 136 170 222 271 309
#     4   9  17  33  54  79 110 141 176 219 262 310
#
# _framework density 20.104617000000001
#
# number of rings (size 3 to 8) (size 9 to 14) (size 15 to 20)
#    0.000    2.143    2.857    0.857    0.000    2.571 
#    0.000    2.143    0.000    4.286    0.000    0.000 
#    0.000    0.000    0.000    0.000    0.000    0.000 
#
# Total GULP energy -156309.422998 kJ/mol
# GULP energy per Si atom -5582.479393 kJ/mol
# Density = 2.005886 g / cm^3
# Si number density = 20.104617 Si / 1000 Ang^3
#
#
#
# Elastic Constant Matrix: (Units=GPa)
#
#
# Indices 1 2 3 4 5 6 
#
# 1 108.3480 -1.2089 71.2008 0.0012 21.0736 -0.0110
# 2 -1.2089 35.1308 -4.0015 0.0050 9.0111 -0.0081
# 3 71.2008 -4.0015 153.2574 0.0016 8.7775 -0.0031
# 4 0.0012 0.0050 0.0016 20.6108 0.0004 -8.3021
# 5 21.0736 9.0111 8.7775 0.0004 31.8457 -0.0006
# 6 -0.0110 -0.0081 -0.0031 -8.3021 -0.0006 14.6327
#
#
#
# Elastic Compliance Matrix: (Units=1/GPa)
#
#
# Indices 1 2 3 4 5 6 
#
# 1 0.015275 0.002062 -0.006534 0.000005 -0.008891 0.000014
# 2 0.002062 0.031236 0.000449 0.000000 -0.010327 0.000018
# 3 -0.006534 0.000449 0.009481 -0.000002 0.001583 -0.000004
# 4 0.000005 0.000000 -0.000002 0.062891 -0.000003 0.035682
# 5 -0.008891 -0.010327 0.001583 -0.000003 0.039771 -0.000012
# 6 0.000014 0.000018 -0.000004 0.035682 -0.000012 0.088585
#
#
# Mechanical properties :
#
#
# Convention : Reuss Voigt Hill
#
# Bulk Modulus (GPa) = 20.85610 47.63522 34.24566
# Shear Modulus (GPa) = 18.43199 28.80089 23.61644
#
# Velocity S-wave (km/s) = 3.03116 3.78901 3.43107
# Velocity P-wave (km/s) = 4.75888 6.54884 5.72425
#
# Compressibility (1/GPa) = 0.04794759
#
# Stress axis : x y z
#
# Youngs Moduli (GPa) = 65.46481 32.01434 105.46919
#
# Poissons Ratio (x) = -0.06601 0.68910
# Poissons Ratio (y) = -0.13499 -0.04736
# Poissons Ratio (z) = 0.42772 -0.01438
#
# Static dielectric constant tensor:
#      x y z
#    x 1.675060 0.000000 0.020160 
#    y 0.000000 1.705780 0.000000 
#    z 0.020160 0.000000 1.722390 
# 
# From -- ./inp_files/275236.got.cif
#   From: 2010.05.17/outbox.cif.g08.bks.cpg/sg12_138_cif.got.tgz:275236.got - 2010.06.03 13:09:07.
