data_PCOD9178297
_publ_section_title
;
Structure prediction by ZEFSAII (Michael W. Deem and Ramdas Pophale) SiO2 
 PCOD9178297
Probable space group: C 2/M
;
_chemical_formula_sum "Si O2"
_cell_formula_units_Z 64
_cell_length_a 30.202841
_cell_length_b 9.144016
_cell_length_c 15.755548
_cell_angle_alpha 90.000000
_cell_angle_beta 60.628470
_cell_angle_gamma 90.000000
_cell_volume 3791.967131
_symmetry_space_group_name_H-M "C 2/M"
_symmetry_group_IT_number 12
_symmetry_cell_setting 'monoclinic'
loop_
_space_group_symop_operation_xyz
x,y,z
-x,y,-z
-x,-y,-z
x,-y,z
1/2+x,1/2+y,z
1/2-x,1/2+y,-z
1/2-x,1/2-y,-z
1/2+x,1/2-y,z
loop_
_atom_site_type_symbol
_atom_site_label
_atom_site_fract_x
_atom_site_fract_y
_atom_site_fract_z
Si Si1 0.861153 0.324004 0.356923
Si Si2 0.909698 0.672704 0.564658
Si Si3 0.321869 0.325798 0.880992
Si Si4 0.467433 0.828553 0.331586
Si Si5 0.227204 0.173925 0.891953
Si Si6 0.294940 0.825990 0.259602
Si Si7 0.065459 0.174153 0.286076
Si Si8 0.317391 0.674573 0.563948
O O1 0.855837 0.500000 0.375162
O O2 0.920577 0.289186 0.314128
O O3 0.838013 0.287368 0.287527
O O4 0.830405 0.242955 0.460227
O O5 0.902306 0.500000 0.585866
O O6 0.944168 0.689410 0.448240
O O7 0.934407 0.747126 0.622852
O O8 0.856618 0.751110 0.592401
O O9 0.314967 0.500000 0.874409
O O10 0.282693 0.242496 0.856919
O O11 0.380177 0.290410 0.807106
O O12 0.305528 0.291691 0.992856
O O13 0.517769 0.733337 0.278218
O O14 0.479494 0.000000 0.309105
O O15 0.203318 0.241301 0.830149
O O16 0.231316 0.000000 0.880616
O O17 0.240256 0.796575 0.354343
O O18 0.297662 0.000000 0.240893
O O19 0.062074 0.000000 0.299906
O O20 0.325479 0.500000 0.555174
#
# Coordination Sequence:
#
# PCOD9178297 Si02
#       8
#     8   8   8   8   8   8   8   8
#     4   9  19  35  51  68  97 135 167 199 240 283
#     4  10  20  33  48  69 101 135 164 197 238 286
#     4   9  20  37  52  72 103 130 154 193 245 293
#     4   9  19  34  49  67  95 130 166 202 237 279
#     4  10  20  34  54  77  99 126 160 196 237 290
#     4  10  20  33  50  73 101 131 162 199 244 287
#     4  11  21  32  50  73  97 126 161 202 245 289
#     4  10  19  30  47  73 103 131 162 201 239 281
#
# _framework density 16.877783000000001
#
# number of rings (size 3 to 8) (size 9 to 14) (size 15 to 20)
#    0.000    2.250    0.000    3.750    0.000   10.000 
#    0.000    0.000    0.000    0.750    0.000    5.250 
#    0.000    0.000    0.000    0.000    0.000    0.000 
#
# Total GULP energy -178640.733644 kJ/mol
# GULP energy per Si atom -5582.522926 kJ/mol
# Density = 1.683937 g / cm^3
# Si number density = 16.877783 Si / 1000 Ang^3
#
#
#
# Elastic Constant Matrix: (Units=GPa)
#
#
# Indices 1 2 3 4 5 6 
#
# 1 132.9813 52.8313 49.1536 0.0000 7.0707 0.0000
# 2 52.8313 43.9604 30.9889 0.0000 -0.1713 0.0000
# 3 49.1536 30.9889 39.5458 0.0000 7.9517 0.0000
# 4 0.0000 0.0000 0.0000 24.2381 0.0000 1.7871
# 5 7.0707 -0.1713 7.9517 0.0000 23.9346 0.0000
# 6 0.0000 0.0000 0.0000 1.7871 0.0000 29.6528
#
#
#
# Elastic Compliance Matrix: (Units=1/GPa)
#
#
# Indices 1 2 3 4 5 6 
#
# 1 0.016312 -0.012349 -0.010299 0.000000 -0.001486 0.000000
# 2 -0.012349 0.065398 -0.039355 0.000000 0.017191 0.000000
# 3 -0.010299 -0.039355 0.073267 0.000000 -0.021580 0.000000
# 4 0.000000 0.000000 0.000000 0.041441 0.000000 -0.002498
# 5 -0.001486 0.017191 -0.021580 0.000000 0.049512 0.000000
# 6 0.000000 0.000000 0.000000 -0.002498 0.000000 0.033874
#
#
# Mechanical properties :
#
#
# Convention : Reuss Voigt Hill
#
# Bulk Modulus (GPa) = 32.28821 53.60390 42.94606
# Shear Modulus (GPa) = 12.07341 21.13267 16.60304
#
# Velocity S-wave (km/s) = 2.67749 3.54234 3.13984
# Velocity P-wave (km/s) = 5.36011 6.96849 6.21654
#
# Compressibility (1/GPa) = 0.03097105
#
# Stress axis : x y z
#
# Youngs Moduli (GPa) = 61.30555 15.29097 13.64876
#
# Poissons Ratio (x) = 0.18883 0.14057
# Poissons Ratio (y) = 0.75707 0.53714
# Poissons Ratio (z) = 0.63139 0.60177
#
# Static dielectric constant tensor:
#      x y z
#    x 1.573260 0.000000 -0.002450 
#    y 0.000000 1.562240 0.000000 
#    z -0.002450 0.000000 1.553960 
# 
# From -- ./inp_files/249004.got.cif
#   From: 2010.05.17/outbox.cif.g08.bks.cpg/sg12_125_cif.got.tgz:249004.got - 2010.06.03 13:09:07.
