data_PCOD9178434
_publ_section_title
;
Structure prediction by ZEFSAII (Michael W. Deem and Ramdas Pophale) SiO2 
 PCOD9178434
Probable space group: C 2/M
;
_chemical_formula_sum "Si O2"
_cell_formula_units_Z 64
_cell_length_a 27.860154
_cell_length_b 11.700198
_cell_length_c 15.082635
_cell_angle_alpha 90.000000
_cell_angle_beta 45.328557
_cell_angle_gamma 90.000000
_cell_volume 3496.351921
_symmetry_space_group_name_H-M "C 2/M"
_symmetry_group_IT_number 12
_symmetry_cell_setting 'monoclinic'
loop_
_space_group_symop_operation_xyz
x,y,z
-x,y,-z
-x,-y,-z
x,-y,z
1/2+x,1/2+y,z
1/2-x,1/2+y,-z
1/2-x,1/2-y,-z
1/2+x,1/2-y,z
loop_
_atom_site_type_symbol
_atom_site_label
_atom_site_fract_x
_atom_site_fract_y
_atom_site_fract_z
Si Si1 0.431026 0.129775 0.219831
Si Si2 0.935540 0.637951 0.727298
Si Si3 0.585072 0.812030 0.555759
Si Si4 0.206137 0.765952 0.789054
Si Si5 0.588531 0.868190 0.035981
Si Si6 0.827835 0.370917 0.723200
Si Si7 0.691933 0.630286 0.463052
Si Si8 0.142825 0.872326 0.718058
O O1 0.418509 0.129710 0.342748
O O2 0.398735 0.251118 0.229807
O O3 0.410421 0.000000 0.214105
O O4 0.511581 0.140432 0.101688
O O5 0.944958 0.500000 0.705219
O O6 0.879092 0.675030 0.730825
O O7 0.008884 0.693314 0.619559
O O8 0.913615 0.660037 0.856717
O O9 0.630948 0.872370 0.422805
O O10 0.623296 0.693352 0.523309
O O11 0.141560 0.707830 0.915824
O O12 0.260798 0.799840 0.791619
O O13 0.245330 0.687047 0.667280
O O14 0.181820 0.870376 0.760024
O O15 0.609062 0.000000 0.000710
O O16 0.809784 0.500000 0.771980
O O17 0.689273 0.500000 0.440055
O O18 0.692716 0.637197 0.568763
O O19 0.109492 0.000000 0.751208
#
# Coordination Sequence:
#
# PCOD9178434 Si02
#       8
#     8   8   8   8   8   8   8   8
#     4   9  18  34  56  81 104 133 174 216 257 304
#     4   9  17  31  52  76 100 128 165 213 264 306
#     4   9  16  29  53  80 104 128 161 213 265 306
#     4  11  21  33  50  72 101 140 176 207 247 303
#     4   9  19  35  53  74 101 131 170 216 256 301
#     4  10  19  30  48  75 103 131 167 211 258 309
#     4   9  19  34  52  75 103 135 170 208 256 311
#     4  10  21  37  54  77 108 137 168 214 267 310
#
# _framework density 18.304794000000001
#
# number of rings (size 3 to 8) (size 9 to 14) (size 15 to 20)
#    0.000    2.500    0.000    3.375    0.000    3.000 
#    0.000    6.250    0.000    8.250    0.000    0.000 
#    0.000    0.000    0.000    0.000    0.000    0.000 
#
# Total GULP energy -178271.895887 kJ/mol
# GULP energy per Si atom -5570.996746 kJ/mol
# Density = 1.826313 g / cm^3
# Si number density = 18.304794 Si / 1000 Ang^3
#
#
#
# Elastic Constant Matrix: (Units=GPa)
#
#
# Indices 1 2 3 4 5 6 
#
# 1 51.5445 27.6772 10.6351 0.0000 2.2706 0.0000
# 2 27.6772 111.5060 37.4188 0.0000 -12.2483 0.0000
# 3 10.6351 37.4188 72.3098 0.0000 -10.9253 0.0000
# 4 0.0000 0.0000 0.0000 2.8681 0.0000 -1.0584
# 5 2.2706 -12.2483 -10.9253 0.0000 11.2628 0.0000
# 6 0.0000 0.0000 0.0000 -1.0584 0.0000 10.1718
#
#
#
# Elastic Compliance Matrix: (Units=1/GPa)
#
#
# Indices 1 2 3 4 5 6 
#
# 1 0.024168 -0.006850 -0.002193 0.000000 -0.014449 0.000000
# 2 -0.006850 0.013355 -0.004101 0.000000 0.011926 0.000000
# 3 -0.002193 -0.004101 0.018358 0.000000 0.013789 0.000000
# 4 0.000000 0.000000 0.000000 0.362585 0.000000 0.037728
# 5 -0.014449 0.011926 0.013789 0.000000 0.118046 0.000000
# 6 0.000000 0.000000 0.000000 0.037728 0.000000 0.102237
#
#
# Mechanical properties :
#
#
# Convention : Reuss Voigt Hill
#
# Bulk Modulus (GPa) = 33.79333 42.98026 38.38680
# Shear Modulus (GPa) = 7.40850 15.50249 11.45549
#
# Velocity S-wave (km/s) = 2.01397 2.91333 2.50435
# Velocity P-wave (km/s) = 4.88975 5.90321 5.42022
#
# Compressibility (1/GPa) = 0.02959164
#
# Stress axis : x y z
#
# Youngs Moduli (GPa) = 41.37732 74.87996 54.47291
#
# Poissons Ratio (x) = 0.51293 0.11945
# Poissons Ratio (y) = 0.28344 0.22342
# Poissons Ratio (z) = 0.09073 0.30712
#
# Static dielectric constant tensor:
#      x y z
#    x 1.664920 0.000000 0.011310 
#    y 0.000000 1.650190 0.000000 
#    z 0.011310 0.000000 1.615870 
# 
# From -- ./inp_files/245943.got.cif
#   From: 2010.05.17/outbox.cif.g08.bks.cpg/sg12_123_cif.got.tgz:245943.got - 2010.06.03 13:09:07.
