data_PCOD9178183
_publ_section_title
;
Structure prediction by ZEFSAII (Michael W. Deem and Ramdas Pophale) SiO2 
 PCOD9178183
Probable space group: C 2/M
;
_chemical_formula_sum "Si O2"
_cell_formula_units_Z 64
_cell_length_a 14.586757
_cell_length_b 9.377810
_cell_length_c 21.973754
_cell_angle_alpha 90.000000
_cell_angle_beta 89.218723
_cell_angle_gamma 90.000000
_cell_volume 3005.550704
_symmetry_space_group_name_H-M "C 2/M"
_symmetry_group_IT_number 12
_symmetry_cell_setting 'monoclinic'
loop_
_space_group_symop_operation_xyz
x,y,z
-x,y,-z
-x,-y,-z
x,-y,z
1/2+x,1/2+y,z
1/2-x,1/2+y,-z
1/2-x,1/2-y,-z
1/2+x,1/2-y,z
loop_
_atom_site_type_symbol
_atom_site_label
_atom_site_fract_x
_atom_site_fract_y
_atom_site_fract_z
Si Si1 0.865951 0.833259 0.126428
Si Si2 0.391725 0.160109 0.506620
Si Si3 0.354058 0.840048 0.374166
Si Si4 0.137221 0.165397 0.741645
Si Si5 0.363294 0.658259 0.627555
Si Si6 0.361404 0.835777 0.742389
Si Si7 0.849312 0.826650 0.995758
Si Si8 0.142781 0.666794 0.122135
O O1 0.891733 0.771341 0.192162
O O2 0.754412 0.826776 0.124133
O O3 0.890661 0.000000 0.129510
O O4 0.896724 0.782989 0.059292
O O5 0.500000 0.146429 0.500000
O O6 0.361669 0.223710 0.441887
O O7 0.374797 0.252708 0.566056
O O8 0.350678 0.000000 0.513060
O O9 0.392120 0.751005 0.317654
O O10 0.246102 0.853960 0.363434
O O11 0.394884 0.000000 0.376352
O O12 0.249382 0.165093 0.741640
O O13 0.109216 0.000000 0.737432
O O14 0.402934 0.500000 0.621502
O O15 0.396324 0.739482 0.687310
O O16 0.388711 0.789418 0.810140
O O17 0.389280 0.000000 0.733569
O O18 0.889229 0.766477 0.932535
O O19 0.841854 0.000000 0.994556
O O20 0.750000 0.750000 0.000000
O O21 0.119695 0.500000 0.111960
#
# Coordination Sequence:
#
# PCOD9178183 Si02
#       8
#     8   8   8   8   8   8   8   8
#     4   7  11  19  29  43  66  97 133 168 202 244
#     4  10  21  36  51  65  86 118 148 172 207 261
#     4   9  18  31  46  67  90 110 140 181 220 256
#     4   8  13  23  39  56  75 104 140 174 210 252
#     4  10  19  30  47  70  92 111 138 182 224 255
#     4   8  14  25  40  56  78 108 140 173 209 255
#     4   9  14  19  27  40  63  97 135 172 207 246
#     4   8  13  21  31  45  67  97 134 172 206 242
#
# _framework density 21.293934
#
# number of rings (size 3 to 8) (size 9 to 14) (size 15 to 20)
#    0.000    3.375    0.000    3.375    0.000    1.750 
#    0.000    6.875    0.000    0.000    0.000    0.000 
#    0.000    0.000    0.000    1.125    0.000   24.000 
#
# Total GULP energy -178242.910633 kJ/mol
# GULP energy per Si atom -5570.090957 kJ/mol
# Density = 2.124547 g / cm^3
# Si number density = 21.293934 Si / 1000 Ang^3
#
#
#
# Elastic Constant Matrix: (Units=GPa)
#
#
# Indices 1 2 3 4 5 6 
#
# 1 43.6993 8.3674 1.1745 0.0000 -9.8420 0.0000
# 2 8.3674 78.2462 111.0679 0.0000 14.8190 0.0000
# 3 1.1745 111.0679 269.8809 0.0000 15.0530 0.0000
# 4 0.0000 0.0000 0.0000 -7.3199 0.0000 -2.9350
# 5 -9.8420 14.8190 15.0530 0.0000 -41.6644 0.0000
# 6 0.0000 0.0000 0.0000 -2.9350 0.0000 -13.1183
#
#
#
# Elastic Compliance Matrix: (Units=1/GPa)
#
#
# Indices 1 2 3 4 5 6 
#
# 1 0.022224 -0.003807 0.001802 0.000000 -0.005953 0.000000
# 2 -0.003807 0.029818 -0.012642 0.000000 0.006938 0.000000
# 3 0.001802 -0.012642 0.008993 0.000000 -0.001673 0.000000
# 4 0.000000 0.000000 0.000000 -0.150076 0.000000 0.033577
# 5 -0.005953 0.006938 -0.001673 0.000000 -0.020732 0.000000
# 6 0.000000 0.000000 0.000000 0.033577 0.000000 -0.083741
#
#
# Mechanical properties :
#
#
# Convention : Reuss Voigt Hill
#
# Bulk Modulus (GPa) = 31.50472 70.33843 50.92158
# Shear Modulus (GPa) = -32.54350 5.66059 -13.44146
#
# Velocity S-wave (km/s) = -3.91359 1.63220 -2.51516
# Velocity P-wave (km/s) = 2.36522 6.05442 3.94092
#
# Compressibility (1/GPa) = 0.03174127
#
# Stress axis : x y z
#
# Youngs Moduli (GPa) = 44.99736 33.53672 111.19179
#
# Poissons Ratio (x) = 0.12768 -0.20038
# Poissons Ratio (y) = 0.17131 1.40567
# Poissons Ratio (z) = -0.08109 0.42397
#
# Static dielectric constant tensor:
#      x y z
#    x 1.796980 0.000000 -0.003510 
#    y 0.000000 1.751210 0.000000 
#    z -0.003510 0.000000 1.823030 
# 
# From -- ./inp_files/319082.got.cif
#   From: 2010.05.17/outbox.cif.g08.bks.cpg/sg12_160_cif.got.tgz:319082.got - 2010.06.03 13:09:07.
