data_PCOD9178267
_publ_section_title
;
Structure prediction by ZEFSAII (Michael W. Deem and Ramdas Pophale) SiO2 
 PCOD9178267
Probable space group: C 2/M
;
_chemical_formula_sum "Si O2"
_cell_formula_units_Z 64
_cell_length_a 31.025409
_cell_length_b 8.642872
_cell_length_c 16.607250
_cell_angle_alpha 90.000000
_cell_angle_beta 133.550060
_cell_angle_gamma 90.000000
_cell_volume 3227.565978
_symmetry_space_group_name_H-M "C 2/M"
_symmetry_group_IT_number 12
_symmetry_cell_setting 'monoclinic'
loop_
_space_group_symop_operation_xyz
x,y,z
-x,y,-z
-x,-y,-z
x,-y,z
1/2+x,1/2+y,z
1/2-x,1/2+y,-z
1/2-x,1/2-y,-z
1/2+x,1/2-y,z
loop_
_atom_site_type_symbol
_atom_site_label
_atom_site_fract_x
_atom_site_fract_y
_atom_site_fract_z
Si Si1 0.685698 0.685899 0.191002
Si Si2 0.688998 0.175859 0.947780
Si Si3 0.688033 0.683734 0.672132
Si Si4 0.192917 0.683116 0.379627
Si Si5 0.899927 0.819418 0.049812
Si Si6 0.879029 0.185458 0.574661
Si Si7 0.598000 0.174049 0.681977
Si Si8 0.012433 0.813305 0.699341
O O1 0.685290 0.500000 0.188524
O O2 0.747621 0.741151 0.229645
O O3 0.686747 0.744459 0.283595
O O4 0.625900 0.742983 0.067736
O O5 0.657331 0.291947 0.967983
O O6 0.646460 0.166784 0.815862
O O7 0.695458 0.000000 0.988338
O O8 0.750000 0.250000 0.000000
O O9 0.694201 0.500000 0.687497
O O10 0.668965 0.721933 0.556198
O O11 0.633254 0.736662 0.657638
O O12 0.199609 0.500000 0.380554
O O13 0.250000 0.750000 0.500000
O O14 0.137618 0.727829 0.365333
O O15 0.952241 0.755313 0.174782
O O16 0.913706 0.000000 0.055733
O O17 0.943701 0.224879 0.622998
O O18 0.877523 0.000000 0.586828
O O19 0.541646 0.249078 0.654980
O O20 0.583722 0.000000 0.636737
O O21 0.018862 0.000000 0.704811
#
# Coordination Sequence:
#
# PCOD9178267 Si02
#       8
#     8   8   8   8   8   8   8   8
#     4  11  22  37  59  88 120 149 184 236 290 344
#     4  10  19  30  47  72 105 146 189 234 283 334
#     4  11  22  35  55  84 116 151 193 239 290 344
#     4  12  24  40  63  89 117 149 185 229 286 344
#     4   9  19  35  56  81 109 146 189 232 281 333
#     4  10  22  40  62  86 113 148 192 240 287 339
#     4  10  21  35  51  77 114 153 193 237 285 338
#     4   9  19  39  62  82 111 153 198 239 280 332
#
# _framework density 19.829184999999999
#
# number of rings (size 3 to 8) (size 9 to 14) (size 15 to 20)
#    0.000    1.750    1.250    3.375    0.000    7.000 
#    0.000    3.125    0.000    3.750    0.000    0.000 
#    0.000    0.000    0.000    0.000    0.000    0.000 
#
# Total GULP energy -178557.160264 kJ/mol
# GULP energy per Si atom -5579.911258 kJ/mol
# Density = 1.978405 g / cm^3
# Si number density = 19.829185 Si / 1000 Ang^3
#
#
#
# Elastic Constant Matrix: (Units=GPa)
#
#
# Indices 1 2 3 4 5 6 
#
# 1 75.6435 18.2234 3.7253 0.0000 -4.7752 0.0000
# 2 18.2234 36.9906 12.2051 0.0000 1.0229 0.0000
# 3 3.7253 12.2051 56.8688 0.0000 -10.2893 0.0000
# 4 0.0000 0.0000 0.0000 18.5158 0.0000 -4.9354
# 5 -4.7752 1.0229 -10.2893 0.0000 30.9704 0.0000
# 6 0.0000 0.0000 0.0000 -4.9354 0.0000 32.0711
#
#
#
# Elastic Compliance Matrix: (Units=1/GPa)
#
#
# Indices 1 2 3 4 5 6 
#
# 1 0.015285 -0.008035 0.001274 0.000000 0.003045 0.000000
# 2 -0.008035 0.033625 -0.007570 0.000000 -0.004865 0.000000
# 3 0.001274 -0.007570 0.020435 0.000000 0.007236 0.000000
# 4 0.000000 0.000000 0.000000 0.056318 0.000000 0.008667
# 5 0.003045 -0.004865 0.007236 0.000000 0.035323 0.000000
# 6 0.000000 0.000000 0.000000 0.008667 0.000000 0.032514
#
#
# Mechanical properties :
#
#
# Convention : Reuss Voigt Hill
#
# Bulk Modulus (GPa) = 24.58057 26.42339 25.50198
# Shear Modulus (GPa) = 21.21137 25.33474 23.27305
#
# Velocity S-wave (km/s) = 3.27418 3.57830 3.42961
# Velocity P-wave (km/s) = 5.16883 5.51604 5.34525
#
# Compressibility (1/GPa) = 0.04068253
#
# Stress axis : x y z
#
# Youngs Moduli (GPa) = 65.42326 29.74015 48.93629
#
# Poissons Ratio (x) = 0.23896 -0.06235
# Poissons Ratio (y) = 0.52566 0.37046
# Poissons Ratio (z) = -0.08336 0.22514
#
# Static dielectric constant tensor:
#      x y z
#    x 1.656450 0.000000 -0.004600 
#    y 0.000000 1.696660 0.000000 
#    z -0.004600 0.000000 1.739930 
# 
# From -- ./inp_files/249913.got.cif
#   From: 2010.05.17/outbox.cif.g08.bks.cpg/sg12_125_cif.got.tgz:249913.got - 2010.06.03 13:09:07.
