data_PCOD9178983
_publ_section_title
;
Structure prediction by ZEFSAII (Michael W. Deem and Ramdas Pophale) SiO2 
 PCOD9178983
Probable space group: C 2/M
;
_chemical_formula_sum "Si O2"
_cell_formula_units_Z 40
_cell_length_a 5.414354
_cell_length_b 44.557841
_cell_length_c 7.818812
_cell_angle_alpha 90.000000
_cell_angle_beta 119.816498
_cell_angle_gamma 90.000000
_cell_volume 1636.598963
_symmetry_space_group_name_H-M "C 2/M"
_symmetry_group_IT_number 12
_symmetry_cell_setting 'monoclinic'
loop_
_space_group_symop_operation_xyz
x,y,z
-x,y,-z
-x,-y,-z
x,-y,z
1/2+x,1/2+y,z
1/2-x,1/2+y,-z
1/2-x,1/2-y,-z
1/2+x,1/2-y,z
loop_
_atom_site_type_symbol
_atom_site_label
_atom_site_fract_x
_atom_site_fract_y
_atom_site_fract_z
Si Si1 0.211303 0.260325 0.220210
Si Si2 0.672234 0.329507 0.738059
Si Si3 0.673071 0.137266 0.740649
Si Si4 0.827232 0.431801 0.259496
Si Si5 0.172488 0.034479 0.740555
O O1 0.503223 0.241909 0.311106
O O2 0.289270 0.294601 0.208578
O O3 0.000000 0.248327 0.000000
O O4 0.500000 0.330439 0.500000
O O5 0.473679 0.347433 0.801103
O O6 0.975355 0.344346 0.801886
O O7 0.500000 0.137130 0.500000
O O8 0.698569 0.102713 0.803639
O O9 0.524372 0.446373 0.200344
O O10 0.000000 0.431725 0.500000
O O11 0.024636 0.450915 0.200442
O O12 0.000000 0.034324 0.500000
O O13 0.195458 0.000000 0.804243
#
# Coordination Sequence:
#
# PCOD9178983 Si02
#       5
#     8   8   8   8   8
#     4  10  21  36  52  70  93 120 148 178 218 269
#     4  10  19  31  48  69  91 115 149 188 220 259
#     4   9  17  28  42  62  86 113 147 186 226 265
#     4   9  15  23  34  48  72 105 140 180 220 255
#     4   9  15  21  30  46  69 102 146 186 214 249
#
# _framework density 24.440929000000001
#
# number of rings (size 3 to 8) (size 9 to 14) (size 15 to 20)
#    0.000    2.600    0.000    3.000    0.000    8.000 
#    0.000    0.000    0.000    0.000    0.000    0.000 
#    0.000    0.000    0.000    0.000    0.000   70.000 
#
# Total GULP energy -112005.732545 kJ/mol
# GULP energy per Si atom -5600.286627 kJ/mol
# Density = 2.438530 g / cm^3
# Si number density = 24.440929 Si / 1000 Ang^3
#
#
#
# Elastic Constant Matrix: (Units=GPa)
#
#
# Indices 1 2 3 4 5 6 
#
# 1 226.1565 105.8560 12.7007 0.0000 17.5261 0.0000
# 2 105.8560 198.8352 -20.5304 0.0000 0.6695 0.0000
# 3 12.7007 -20.5304 80.0633 0.0000 7.6728 0.0000
# 4 0.0000 0.0000 0.0000 20.2110 0.0000 -0.7441
# 5 17.5261 0.6695 7.6728 0.0000 44.7756 0.0000
# 6 0.0000 0.0000 0.0000 -0.7441 0.0000 54.5288
#
#
#
# Elastic Compliance Matrix: (Units=1/GPa)
#
#
# Indices 1 2 3 4 5 6 
#
# 1 0.006343 -0.003547 -0.001711 0.000000 -0.002137 0.000000
# 2 -0.003547 0.007153 0.002312 0.000000 0.000885 0.000000
# 3 -0.001711 0.002312 0.013515 0.000000 -0.001681 0.000000
# 4 0.000000 0.000000 0.000000 0.049503 0.000000 0.000676
# 5 -0.002137 0.000885 -0.001681 0.000000 0.023445 0.000000
# 6 0.000000 0.000000 0.000000 0.000676 0.000000 0.018348
#
#
# Mechanical properties :
#
#
# Convention : Reuss Voigt Hill
#
# Bulk Modulus (GPa) = 47.34592 77.90084 62.62338
# Shear Modulus (GPa) = 38.09838 51.03833 44.56836
#
# Velocity S-wave (km/s) = 3.95244 4.57468 4.27489
# Velocity P-wave (km/s) = 6.34371 7.73601 7.07420
#
# Compressibility (1/GPa) = 0.02112114
#
# Stress axis : x y z
#
# Youngs Moduli (GPa) = 157.64359 139.79812 73.98913
#
# Poissons Ratio (x) = 0.49581 0.12659
# Poissons Ratio (y) = 0.55910 -0.17107
# Poissons Ratio (z) = 0.26972 -0.32322
#
# Static dielectric constant tensor:
#      x y z
#    x 1.903960 0.000000 0.005900 
#    y 0.000000 1.821850 0.000000 
#    z 0.005900 0.000000 2.017880 
# 
# From -- ./inp_files/116175.got.cif
#   From: 2010.05.17/outbox.cif.g08.bks.cpg/sg12_59_cif.got.tgz:116175.got - 2010.06.03 13:09:07.
