data_PCOD9178296
_publ_section_title
;
Structure prediction by ZEFSAII (Michael W. Deem and Ramdas Pophale) SiO2 
 PCOD9178296
Probable space group: C 2/M
;
_chemical_formula_sum "Si O2"
_cell_formula_units_Z 56
_cell_length_a 22.289769
_cell_length_b 12.230421
_cell_length_c 17.245427
_cell_angle_alpha 90.000000
_cell_angle_beta 41.038801
_cell_angle_gamma 90.000000
_cell_volume 3086.753455
_symmetry_space_group_name_H-M "C 2/M"
_symmetry_group_IT_number 12
_symmetry_cell_setting 'monoclinic'
loop_
_space_group_symop_operation_xyz
x,y,z
-x,y,-z
-x,-y,-z
x,-y,z
1/2+x,1/2+y,z
1/2-x,1/2+y,-z
1/2-x,1/2-y,-z
1/2+x,1/2-y,z
loop_
_atom_site_type_symbol
_atom_site_label
_atom_site_fract_x
_atom_site_fract_y
_atom_site_fract_z
Si Si1 0.762549 0.381261 0.576917
Si Si2 0.402537 0.127378 0.054677
Si Si3 0.605928 0.700119 0.627915
Si Si4 0.083752 0.626069 0.306300
Si Si5 0.446076 0.679310 0.481708
Si Si6 0.731362 0.771659 0.271422
Si Si7 0.032066 0.623906 0.181967
O O1 0.805364 0.500000 0.524957
O O2 0.668692 0.372101 0.621295
O O3 0.828340 0.288825 0.478300
O O4 0.746077 0.357696 0.683067
O O5 0.320473 0.204596 0.161356
O O6 0.383410 0.000000 0.093349
O O7 0.500000 0.154722 0.000000
O O8 0.413575 0.134652 0.950961
O O9 0.559422 0.637079 0.601058
O O10 0.538510 0.776324 0.742943
O O11 0.067852 0.500000 0.344327
O O12 0.175752 0.671238 0.256018
O O13 0.086790 0.630618 0.209773
O O14 0.000437 0.704617 0.415001
O O15 0.500000 0.624348 0.500000
O O16 0.344767 0.694272 0.614066
O O17 0.990908 0.500000 0.220303
#
# Coordination Sequence:
#
# PCOD9178296 Si02
#       7
#     8   8   8   8   8   8   8
#     4  10  19  30  47  73 103 131 161 202 255 311
#     4  10  21  36  53  72  96 133 181 223 253 290
#     4   9  17  30  49  73  99 129 165 205 253 301
#     4   9  17  30  53  82 106 130 162 203 254 309
#     4   8  16  29  48  74 103 127 157 199 247 299
#     4  10  19  31  50  76 105 133 164 205 256 304
#     4   9  17  31  52  74  96 126 170 217 253 289
#
# _framework density 18.142037999999999
#
# number of rings (size 3 to 8) (size 9 to 14) (size 15 to 20)
#    0.000    2.714    0.000    1.714    0.000    6.571 
#    0.000    7.857    0.000   19.714    0.000    0.000 
#    0.000    0.000    0.000    0.000    0.000    0.000 
#
# Total GULP energy -155897.602634 kJ/mol
# GULP energy per Si atom -5567.771523 kJ/mol
# Density = 1.810075 g / cm^3
# Si number density = 18.142038 Si / 1000 Ang^3
#
#
#
# Elastic Constant Matrix: (Units=GPa)
#
#
# Indices 1 2 3 4 5 6 
#
# 1 87.2060 17.7578 35.8749 0.0000 -0.6664 0.0000
# 2 17.7578 61.3865 33.7963 0.0000 -5.7047 0.0000
# 3 35.8749 33.7963 79.0372 0.0000 -1.1740 0.0000
# 4 0.0000 0.0000 0.0000 5.8377 0.0000 1.3920
# 5 -0.6664 -5.7047 -1.1740 0.0000 24.5197 0.0000
# 6 0.0000 0.0000 0.0000 1.3920 0.0000 11.1587
#
#
#
# Elastic Compliance Matrix: (Units=1/GPa)
#
#
# Indices 1 2 3 4 5 6 
#
# 1 0.014125 -0.000736 -0.006098 0.000000 -0.000079 0.000000
# 2 -0.000736 0.021858 -0.008943 0.000000 0.004637 0.000000
# 3 -0.006098 -0.008943 0.019224 0.000000 -0.001326 0.000000
# 4 0.000000 0.000000 0.000000 0.176552 0.000000 -0.022024
# 5 -0.000079 0.004637 -0.001326 0.000000 0.041797 0.000000
# 6 0.000000 0.000000 0.000000 -0.022024 0.000000 0.092364
#
#
# Mechanical properties :
#
#
# Convention : Reuss Voigt Hill
#
# Bulk Modulus (GPa) = 42.27855 44.72087 43.49971
# Shear Modulus (GPa) = 12.33475 17.64992 14.99234
#
# Velocity S-wave (km/s) = 2.61032 3.12248 2.87781
# Velocity P-wave (km/s) = 5.69559 6.14034 5.92214
#
# Compressibility (1/GPa) = 0.02365266
#
# Stress axis : x y z
#
# Youngs Moduli (GPa) = 70.79712 45.74999 52.01718
#
# Poissons Ratio (x) = 0.03369 0.31718
# Poissons Ratio (y) = 0.05214 0.46521
# Poissons Ratio (z) = 0.43169 0.40916
#
# Static dielectric constant tensor:
#      x y z
#    x 1.682490 0.000000 0.015440 
#    y 0.000000 1.631350 0.000000 
#    z 0.015440 0.000000 1.588030 
# 
# From -- ./inp_files/289044.got.cif
#   From: 2010.05.17/outbox.cif.g08.bks.cpg/sg12_145_cif.got.tgz:289044.got - 2010.06.03 13:09:07.
