data_PCOD9178838
_publ_section_title
;
Structure prediction by ZEFSAII (Michael W. Deem and Ramdas Pophale) SiO2 
 PCOD9178838
Probable space group: C 2/M
;
_chemical_formula_sum "Si O2"
_cell_formula_units_Z 56
_cell_length_a 13.804605
_cell_length_b 9.324946
_cell_length_c 22.565364
_cell_angle_alpha 90.000000
_cell_angle_beta 123.758438
_cell_angle_gamma 90.000000
_cell_volume 2414.995314
_symmetry_space_group_name_H-M "C 2/M"
_symmetry_group_IT_number 12
_symmetry_cell_setting 'monoclinic'
loop_
_space_group_symop_operation_xyz
x,y,z
-x,y,-z
-x,-y,-z
x,-y,z
1/2+x,1/2+y,z
1/2-x,1/2+y,-z
1/2-x,1/2-y,-z
1/2+x,1/2-y,z
loop_
_atom_site_type_symbol
_atom_site_label
_atom_site_fract_x
_atom_site_fract_y
_atom_site_fract_z
Si Si1 0.942533 0.661314 0.919157
Si Si2 0.023563 0.335208 0.345269
Si Si3 0.773865 0.163490 0.360838
Si Si4 0.330991 0.336996 0.779119
Si Si5 0.319627 0.839864 0.071298
Si Si6 0.366742 0.327061 0.515417
Si Si7 0.920094 0.163280 0.206288
O O1 0.897999 0.500000 0.918139
O O2 0.052562 0.645223 0.913041
O O3 0.855384 0.751838 0.848289
O O4 0.000000 0.721164 0.000000
O O5 0.994612 0.500000 0.348506
O O6 0.148980 0.337015 0.353419
O O7 0.037465 0.241361 0.409062
O O8 0.939299 0.258901 0.270386
O O9 0.754453 0.263302 0.297723
O O10 0.863996 0.201728 0.444083
O O11 0.797110 0.000000 0.349612
O O12 0.296266 0.500000 0.779855
O O13 0.455824 0.341268 0.786687
O O14 0.332303 0.742844 0.132995
O O15 0.272595 0.000000 0.065950
O O16 0.250000 0.750000 0.000000
O O17 0.361850 0.500000 0.520979
O O18 0.250000 0.250000 0.500000
O O19 0.888220 0.000000 0.209398
#
# Coordination Sequence:
#
# PCOD9178838 Si02
#       7
#     8   8   8   8   8   8   8
#     4   9  18  32  48  64  84 113 146 178 214 258
#     4   9  15  22  32  47  68  96 130 167 206 247
#     4   8  14  22  31  44  66  97 131 165 201 245
#     4   9  16  24  37  56  76 100 132 171 211 250
#     4  10  19  31  47  66  88 113 144 180 218 260
#     4   9  15  21  29  43  64  93 129 167 205 244
#     4   9  16  26  39  55  76 103 136 171 208 251
#
# _framework density 23.188452000000002
#
# number of rings (size 3 to 8) (size 9 to 14) (size 15 to 20)
#    0.000    3.000    0.000    3.000    0.000    8.286 
#    0.000    0.000    0.000    0.000    0.000    0.000 
#    0.000    0.000    0.000    1.286    0.000   27.143 
#
# Total GULP energy -156456.144979 kJ/mol
# GULP energy per Si atom -5587.719464 kJ/mol
# Density = 2.313567 g / cm^3
# Si number density = 23.188452 Si / 1000 Ang^3
#
#
#
# Elastic Constant Matrix: (Units=GPa)
#
#
# Indices 1 2 3 4 5 6 
#
# 1 67.2649 7.8946 8.9070 0.0000 -16.5114 0.0000
# 2 7.8946 186.7703 154.5230 0.0000 -7.4692 0.0000
# 3 8.9070 154.5230 285.7421 0.0000 -0.0591 0.0000
# 4 0.0000 0.0000 0.0000 34.8283 0.0000 -2.5761
# 5 -16.5114 -7.4692 -0.0591 0.0000 26.1637 0.0000
# 6 0.0000 0.0000 0.0000 -2.5761 0.0000 0.2933
#
#
#
# Elastic Compliance Matrix: (Units=1/GPa)
#
#
# Indices 1 2 3 4 5 6 
#
# 1 0.017685 0.000283 -0.000702 0.000000 0.011240 0.000000
# 2 0.000283 0.009896 -0.005360 0.000000 0.002991 0.000000
# 3 -0.000702 -0.005360 0.006420 0.000000 -0.001959 0.000000
# 4 0.000000 0.000000 0.000000 0.081962 0.000000 0.719931
# 5 0.011240 0.002991 -0.001959 0.000000 0.046164 0.000000
# 6 0.000000 0.000000 0.000000 0.719931 0.000000 9.733395
#
#
# Mechanical properties :
#
#
# Convention : Reuss Voigt Hill
#
# Bulk Modulus (GPa) = 44.55697 98.04740 71.30218
# Shear Modulus (GPa) = 0.50431 36.82055 18.66243
#
# Velocity S-wave (km/s) = 0.46686 3.98915 2.84000
# Velocity P-wave (km/s) = 4.42125 7.97448 6.44747
#
# Compressibility (1/GPa) = 0.02244318
#
# Stress axis : x y z
#
# Youngs Moduli (GPa) = 56.54374 101.04745 155.77175
#
# Poissons Ratio (x) = -0.02855 0.10931
# Poissons Ratio (y) = -0.01598 0.83492
# Poissons Ratio (z) = 0.03968 0.54161
#
# Static dielectric constant tensor:
#      x y z
#    x 1.959310 0.000000 -0.192990 
#    y 0.000000 1.812170 0.000000 
#    z -0.192990 0.000000 1.288390 
# 
# From -- ./inp_files/345655.got.cif
#   From: 2010.05.17/outbox.cif.g08.bks.cpg/sg12_173_cif.got.tgz:345655.got - 2010.06.03 13:09:07.
