data_PCOD9178958
_publ_section_title
;
Structure prediction by ZEFSAII (Michael W. Deem and Ramdas Pophale) SiO2 
 PCOD9178958
Probable space group: C 2/M
;
_chemical_formula_sum "Si O2"
_cell_formula_units_Z 56
_cell_length_a 33.867176
_cell_length_b 13.687002
_cell_length_c 9.546537
_cell_angle_alpha 90.000000
_cell_angle_beta 47.792570
_cell_angle_gamma 90.000000
_cell_volume 3277.825056
_symmetry_space_group_name_H-M "C 2/M"
_symmetry_group_IT_number 12
_symmetry_cell_setting 'monoclinic'
loop_
_space_group_symop_operation_xyz
x,y,z
-x,y,-z
-x,-y,-z
x,-y,z
1/2+x,1/2+y,z
1/2-x,1/2+y,-z
1/2-x,1/2-y,-z
1/2+x,1/2-y,z
loop_
_atom_site_type_symbol
_atom_site_label
_atom_site_fract_x
_atom_site_fract_y
_atom_site_fract_z
Si Si1 0.717173 0.387528 0.469755
Si Si2 0.062657 0.884356 0.829787
Si Si3 0.860077 0.791849 0.564924
Si Si4 0.857108 0.189553 0.129195
Si Si5 0.665917 0.110443 0.933467
Si Si6 0.820878 0.113048 0.923768
Si Si7 0.802582 0.384831 0.814200
O O1 0.702971 0.500000 0.537460
O O2 0.685424 0.352418 0.408664
O O3 0.694858 0.320422 0.646933
O O4 0.778797 0.385701 0.284371
O O5 0.087158 0.818480 0.646613
O O6 0.095385 0.853319 0.890384
O O7 0.072033 0.000000 0.778685
O O8 0.000000 0.870020 0.000000
O O9 0.858327 0.831002 0.726349
O O10 0.840432 0.680486 0.625797
O O11 0.866967 0.299751 0.051908
O O12 0.842801 0.128222 0.026280
O O13 0.643976 0.000000 0.973082
O O14 0.680583 0.126657 0.062559
O O15 0.820320 0.000000 0.885673
O O16 0.759116 0.146940 0.059749
O O17 0.805757 0.500000 0.773359
#
# Coordination Sequence:
#
# PCOD9178958 Si02
#       7
#     8   8   8   8   8   8   8
#     4  10  19  31  47  73 112 151 178 205 257 322
#     4  10  23  43  61  77 102 135 173 224 284 330
#     4  11  18  33  56  77 104 148 185 210 261 319
#     4  11  20  33  52  78 106 139 179 225 263 309
#     4  10  19  32  49  75 112 150 181 208 250 311
#     4  11  19  29  51  84 116 143 179 218 253 310
#     4  10  20  32  49  80 120 151 177 209 252 310
#
# _framework density 17.084499999999998
#
# number of rings (size 3 to 8) (size 9 to 14) (size 15 to 20)
#    0.000    1.571    2.857    5.143    0.000    1.143 
#    0.000    6.429    0.000    4.286    0.000    2.000 
#    0.000    0.000    0.000    0.000    0.000    0.000 
#
# Total GULP energy -156173.311720 kJ/mol
# GULP energy per Si atom -5577.618276 kJ/mol
# Density = 1.704561 g / cm^3
# Si number density = 17.084500 Si / 1000 Ang^3
#
#
#
# Elastic Constant Matrix: (Units=GPa)
#
#
# Indices 1 2 3 4 5 6 
#
# 1 50.3824 26.8550 45.7978 0.0000 6.9559 0.0000
# 2 26.8550 107.3812 37.5899 0.0000 -7.3735 0.0000
# 3 45.7978 37.5899 86.4307 0.0000 -1.0295 0.0000
# 4 0.0000 0.0000 0.0000 29.5467 0.0000 5.2665
# 5 6.9559 -7.3735 -1.0295 0.0000 22.2264 0.0000
# 6 0.0000 0.0000 0.0000 5.2665 0.0000 19.3968
#
#
#
# Elastic Compliance Matrix: (Units=1/GPa)
#
#
# Indices 1 2 3 4 5 6 
#
# 1 0.044221 -0.004615 -0.021619 0.000000 -0.016372 0.000000
# 2 -0.004615 0.011734 -0.002595 0.000000 0.005217 0.000000
# 3 -0.021619 -0.002595 0.024238 0.000000 0.007028 0.000000
# 4 0.000000 0.000000 0.000000 0.035566 0.000000 -0.009657
# 5 -0.016372 0.005217 0.007028 0.000000 0.052171 0.000000
# 6 0.000000 0.000000 0.000000 -0.009657 0.000000 0.054177
#
#
# Mechanical properties :
#
#
# Convention : Reuss Voigt Hill
#
# Bulk Modulus (GPa) = 44.38084 51.63109 48.00596
# Shear Modulus (GPa) = 17.40480 23.16411 20.28445
#
# Velocity S-wave (km/s) = 3.19525 3.68619 3.44946
# Velocity P-wave (km/s) = 6.29654 6.95729 6.63515
#
# Compressibility (1/GPa) = 0.02253225
#
# Stress axis : x y z
#
# Youngs Moduli (GPa) = 22.61389 85.22518 41.25736
#
# Poissons Ratio (x) = 0.39334 0.89196
# Poissons Ratio (y) = 0.10437 0.10708
# Poissons Ratio (z) = 0.48890 0.22120
#
# Static dielectric constant tensor:
#      x y z
#    x 1.568150 0.000000 0.018820 
#    y 0.000000 1.630340 0.000000 
#    z 0.018820 0.000000 1.581080 
# 
# From -- ./inp_files/104421.got.cif
#   From: 2010.05.17/outbox.cif.g08.bks.cpg/sg12_53_cif.got.tgz:104421.got - 2010.06.03 13:09:07.
