data_PCOD9178401
_publ_section_title
;
Structure prediction by ZEFSAII (Michael W. Deem and Ramdas Pophale) SiO2 
 PCOD9178401
Probable space group: C 2/M
;
_chemical_formula_sum "Si O2"
_cell_formula_units_Z 56
_cell_length_a 26.836194
_cell_length_b 7.568185
_cell_length_c 13.401429
_cell_angle_alpha 90.000000
_cell_angle_beta 69.231629
_cell_angle_gamma 90.000000
_cell_volume 2544.986008
_symmetry_space_group_name_H-M "C 2/M"
_symmetry_group_IT_number 12
_symmetry_cell_setting 'monoclinic'
loop_
_space_group_symop_operation_xyz
x,y,z
-x,y,-z
-x,-y,-z
x,-y,z
1/2+x,1/2+y,z
1/2-x,1/2+y,-z
1/2-x,1/2-y,-z
1/2+x,1/2-y,z
loop_
_atom_site_type_symbol
_atom_site_label
_atom_site_fract_x
_atom_site_fract_y
_atom_site_fract_z
Si Si1 0.383399 0.292279 0.959963
Si Si2 0.517756 0.297175 0.227596
Si Si3 0.301131 0.282779 0.174772
Si Si4 0.313089 0.212954 0.818470
Si Si5 0.414877 0.208730 0.631018
Si Si6 0.303199 0.288301 0.401416
Si Si7 0.415507 0.713398 0.402098
O O1 0.392787 0.500000 0.970649
O O2 0.439326 0.216210 0.879639
O O3 0.341005 0.277450 0.899474
O O4 0.353210 0.220968 0.078002
O O5 0.508856 0.500000 0.202258
O O6 0.548059 0.298506 0.312927
O O7 0.460392 0.217744 0.293900
O O8 0.301242 0.500000 0.172826
O O9 0.246635 0.225064 0.159216
O O10 0.300026 0.224970 0.289903
O O11 0.353915 0.261492 0.700219
O O12 0.311600 0.000000 0.824673
O O13 0.428584 0.243329 0.507216
O O14 0.419705 0.000000 0.646244
O O15 0.307983 0.500000 0.392924
O O16 0.250000 0.250000 0.500000
O O17 0.356627 0.221321 0.416889
O O18 0.416121 0.500000 0.394735
#
# Coordination Sequence:
#
# PCOD9178401 Si02
#       7
#     8   8   8   8   8   8   8
#     4   9  17  30  49  71  95 124 157 192 233 283
#     4   9  18  32  48  70 100 128 157 196 240 286
#     4   9  17  31  50  70  94 125 158 195 238 280
#     4   9  17  29  46  70  99 125 151 191 241 285
#     4  10  19  30  48  74 100 128 162 198 238 285
#     4  10  21  37  54  72  96 126 161 199 239 284
#     4  10  20  33  49  69  96 130 162 196 241 286
#
# _framework density 22.004048999999998
#
# number of rings (size 3 to 8) (size 9 to 14) (size 15 to 20)
#    0.000    2.571    0.000    2.143    0.000    4.571 
#    0.000    2.143    0.000    4.286    0.000    0.000 
#    0.000    6.857    0.000    0.000    0.000    0.000 
#
# Total GULP energy -156307.987515 kJ/mol
# GULP energy per Si atom -5582.428126 kJ/mol
# Density = 2.195397 g / cm^3
# Si number density = 22.004049 Si / 1000 Ang^3
#
#
#
# Elastic Constant Matrix: (Units=GPa)
#
#
# Indices 1 2 3 4 5 6 
#
# 1 60.5055 -2.0660 39.2260 0.0000 -31.2942 0.0000
# 2 -2.0660 54.1414 -1.1629 0.0000 -5.0925 0.0000
# 3 39.2260 -1.1629 170.5953 0.0000 -32.0133 0.0000
# 4 0.0000 0.0000 0.0000 8.0390 0.0000 -4.2351
# 5 -31.2942 -5.0925 -32.0133 0.0000 32.8189 0.0000
# 6 0.0000 0.0000 0.0000 -4.2351 0.0000 10.5330
#
#
#
# Elastic Compliance Matrix: (Units=1/GPa)
#
#
# Indices 1 2 3 4 5 6 
#
# 1 0.034111 0.004202 -0.001944 0.000000 0.031281 0.000000
# 2 0.004202 0.019357 0.000589 0.000000 0.007585 0.000000
# 3 -0.001944 0.000589 0.007323 0.000000 0.005380 0.000000
# 4 0.000000 0.000000 0.000000 0.157825 0.000000 0.063458
# 5 0.031281 0.007585 0.005380 0.000000 0.066723 0.000000
# 6 0.000000 0.000000 0.000000 0.063458 0.000000 0.120455
#
#
# Mechanical properties :
#
#
# Convention : Reuss Voigt Hill
#
# Bulk Modulus (GPa) = 15.04137 39.69294 27.36716
# Shear Modulus (GPa) = 11.84104 26.89452 19.36778
#
# Velocity S-wave (km/s) = 2.32228 3.49987 2.97002
# Velocity P-wave (km/s) = 3.74716 5.86602 4.92196
#
# Compressibility (1/GPa) = 0.06648329
#
# Stress axis : x y z
#
# Youngs Moduli (GPa) = 29.31647 51.66194 136.56442
#
# Poissons Ratio (x) = -0.21709 0.26555
# Poissons Ratio (y) = -0.12319 -0.08045
# Poissons Ratio (z) = 0.05701 -0.03044
#
# Static dielectric constant tensor:
#      x y z
#    x 1.787880 0.000000 -0.045570 
#    y 0.000000 1.609130 0.000000 
#    z -0.045570 0.000000 1.809800 
# 
# From -- ./inp_files/180998.got.cif
#   From: 2010.05.17/outbox.cif.g08.bks.cpg/sg12_91_cif.got.tgz:180998.got - 2010.06.03 13:09:07.
