data_PCOD9178333
_publ_section_title
;
Structure prediction by ZEFSAII (Michael W. Deem and Ramdas Pophale) SiO2 
 PCOD9178333
Probable space group: C 2/M
;
_chemical_formula_sum "Si O2"
_cell_formula_units_Z 64
_cell_length_a 34.102739
_cell_length_b 9.378413
_cell_length_c 26.438119
_cell_angle_alpha 90.000000
_cell_angle_beta 156.112085
_cell_angle_gamma 90.000000
_cell_volume 3424.121928
_symmetry_space_group_name_H-M "C 2/M"
_symmetry_group_IT_number 12
_symmetry_cell_setting 'monoclinic'
loop_
_space_group_symop_operation_xyz
x,y,z
-x,y,-z
-x,-y,-z
x,-y,z
1/2+x,1/2+y,z
1/2-x,1/2+y,-z
1/2-x,1/2-y,-z
1/2+x,1/2-y,z
loop_
_atom_site_type_symbol
_atom_site_label
_atom_site_fract_x
_atom_site_fract_y
_atom_site_fract_z
Si Si1 0.480117 0.165586 0.034920
Si Si2 0.250638 0.838818 0.768484
Si Si3 0.753341 0.165523 0.426975
Si Si4 0.575675 0.667100 0.633859
Si Si5 0.928291 0.170801 0.763836
Si Si6 0.482776 0.333546 0.720443
Si Si7 0.976626 0.662179 0.328217
Si Si8 0.293554 0.839207 0.379384
O O1 0.365352 0.169440 0.910462
O O2 0.512630 0.000000 0.077983
O O3 0.500000 0.208684 0.000000
O O4 0.530543 0.263005 0.136179
O O5 0.183185 0.820691 0.737714
O O6 0.221378 0.719723 0.693921
O O7 0.228303 0.000000 0.722478
O O8 0.678244 0.262074 0.368902
O O9 0.866451 0.177839 0.574191
O O10 0.746168 0.227002 0.361678
O O11 0.726519 0.000000 0.399057
O O12 0.500000 0.711927 0.500000
O O13 0.554591 0.500000 0.619137
O O14 0.564498 0.754320 0.672053
O O15 0.993615 0.208644 0.791926
O O16 0.921597 0.000000 0.758078
O O17 0.508242 0.500000 0.744317
O O18 0.534949 0.241261 0.739135
O O19 0.940970 0.500000 0.284143
O O20 0.092436 0.658070 0.474386
O O21 0.255489 0.000000 0.341577
#
# Coordination Sequence:
#
# PCOD9178333 Si02
#       8
#     8   8   8   8   8   8   8   8
#     4  10  22  39  57  78 106 143 185 225 265 313
#     4  10  20  34  53  77 106 144 187 222 263 323
#     4  10  19  32  52  76 106 143 179 216 264 321
#     4  10  19  32  53  79 110 147 181 218 269 327
#     4  11  22  36  55  79 106 137 179 228 274 318
#     4   9  20  36  54  77 107 143 179 218 268 328
#     4  10  20  32  50  79 112 143 174 216 268 323
#     4  10  19  30  47  75 110 142 174 217 267 317
#
# _framework density 18.690923000000002
#
# number of rings (size 3 to 8) (size 9 to 14) (size 15 to 20)
#    0.000    2.000    1.250    2.625    0.000    5.000 
#    0.000    0.000    0.000    0.750    0.000    0.000 
#    0.000    0.000    0.000    0.000    0.000    0.000 
#
# Total GULP energy -178543.466104 kJ/mol
# GULP energy per Si atom -5579.483316 kJ/mol
# Density = 1.864838 g / cm^3
# Si number density = 18.690923 Si / 1000 Ang^3
#
#
#
# Elastic Constant Matrix: (Units=GPa)
#
#
# Indices 1 2 3 4 5 6 
#
# 1 141.8617 64.4361 26.6614 0.0000 -10.8468 0.0000
# 2 64.4361 84.4713 20.0011 0.0000 -15.0445 0.0000
# 3 26.6614 20.0011 34.2902 0.0000 -2.8358 0.0000
# 4 0.0000 0.0000 0.0000 15.9528 0.0000 0.5491
# 5 -10.8468 -15.0445 -2.8358 0.0000 28.7571 0.0000
# 6 0.0000 0.0000 0.0000 0.5491 0.0000 27.0909
#
#
#
# Elastic Compliance Matrix: (Units=1/GPa)
#
#
# Indices 1 2 3 4 5 6 
#
# 1 0.011325 -0.007632 -0.004366 0.000000 -0.000152 0.000000
# 2 -0.007632 0.020177 -0.005243 0.000000 0.007160 0.000000
# 3 -0.004366 -0.005243 0.035543 0.000000 -0.000885 0.000000
# 4 0.000000 0.000000 0.000000 0.062729 0.000000 -0.001272
# 5 -0.000152 0.007160 -0.000885 0.000000 0.038375 0.000000
# 6 0.000000 0.000000 0.000000 -0.001272 0.000000 0.036939
#
#
# Mechanical properties :
#
#
# Convention : Reuss Voigt Hill
#
# Bulk Modulus (GPa) = 30.71036 53.64671 42.17853
# Shear Modulus (GPa) = 19.96632 24.32846 22.14739
#
# Velocity S-wave (km/s) = 3.27193 3.61171 3.44601
# Velocity P-wave (km/s) = 5.54440 6.79389 6.20070
#
# Compressibility (1/GPa) = 0.03256231
#
# Stress axis : x y z
#
# Youngs Moduli (GPa) = 88.30354 49.56247 28.13528
#
# Poissons Ratio (x) = 0.37825 0.12284
# Poissons Ratio (y) = 0.67391 0.14751
# Poissons Ratio (z) = 0.38554 0.25985
#
# Static dielectric constant tensor:
#      x y z
#    x 1.657320 0.000000 0.001940 
#    y 0.000000 1.638190 0.000000 
#    z 0.001940 0.000000 1.651890 
# 
# From -- ./inp_files/353513.got.cif
#   From: 2010.05.17/outbox.cif.g08.bks.cpg/sg12_177_cif.got.tgz:353513.got - 2010.06.03 13:09:07.
