data_PCOD9178692
_publ_section_title
;
Structure prediction by ZEFSAII (Michael W. Deem and Ramdas Pophale) SiO2 
 PCOD9178692
Probable space group: C 2/M
;
_chemical_formula_sum "Si O2"
_cell_formula_units_Z 48
_cell_length_a 28.308723
_cell_length_b 20.726825
_cell_length_c 11.451641
_cell_angle_alpha 90.000000
_cell_angle_beta 157.086016
_cell_angle_gamma 90.000000
_cell_volume 2616.131624
_symmetry_space_group_name_H-M "C 2/M"
_symmetry_group_IT_number 12
_symmetry_cell_setting 'monoclinic'
loop_
_space_group_symop_operation_xyz
x,y,z
-x,y,-z
-x,-y,-z
x,-y,z
1/2+x,1/2+y,z
1/2-x,1/2+y,-z
1/2-x,1/2-y,-z
1/2+x,1/2-y,z
loop_
_atom_site_type_symbol
_atom_site_label
_atom_site_fract_x
_atom_site_fract_y
_atom_site_fract_z
Si Si1 0.287493 0.363860 0.292825
Si Si2 0.033262 0.315247 0.778712
Si Si3 0.900515 0.260752 0.680437
Si Si4 0.224405 0.323811 0.903015
Si Si5 0.337287 0.320749 0.907546
Si Si6 0.510557 0.427006 0.886825
O O1 0.353619 0.298698 0.493473
O O2 0.373075 0.420657 0.528565
O O3 0.150509 0.359248 0.028430
O O4 0.278802 0.363310 0.133615
O O5 0.974231 0.313121 0.772279
O O6 0.920715 0.330192 0.438547
O O7 0.079964 0.241342 0.873188
O O8 0.773970 0.294698 0.426691
O O9 0.000000 0.238307 0.000000
O O10 0.281837 0.339138 0.907707
O O11 0.250000 0.250000 0.000000
O O12 0.408943 0.376345 0.003341
O O13 0.556528 0.500000 0.978457
O O14 0.500000 0.411712 0.000000
#
# Coordination Sequence:
#
# PCOD9178692 Si02
#       6
#     8   8   8   8   8   8
#     4  11  21  32  55  84 118 151 190 231 287 347
#     4  10  19  30  53  86 121 150 175 231 297 358
#     4  10  20  31  51  88 119 146 182 237 303 351
#     4  11  18  33  53  89 124 152 180 221 298 363
#     4  10  21  35  57  83 118 154 190 235 288 348
#     4  11  25  44  60  78 111 159 208 243 279 331
#
# _framework density 18.347702000000002
#
# number of rings (size 3 to 8) (size 9 to 14) (size 15 to 20)
#    0.000    1.500    6.667    1.000    2.333    3.333 
#    0.000    1.667    0.000    6.500    0.000    0.000 
#    0.000    0.000    0.000    0.000    0.000    0.000 
#
# Total GULP energy -133758.090534 kJ/mol
# GULP energy per Si atom -5573.253772 kJ/mol
# Density = 1.830594 g / cm^3
# Si number density = 18.347702 Si / 1000 Ang^3
#
#
#
# Elastic Constant Matrix: (Units=GPa)
#
#
# Indices 1 2 3 4 5 6 
#
# 1 89.6576 36.5265 52.6081 0.0000 3.9738 0.0000
# 2 36.5265 57.0459 23.0966 0.0000 3.3780 0.0000
# 3 52.6081 23.0966 143.7312 0.0000 -10.0689 0.0000
# 4 0.0000 0.0000 0.0000 13.6146 0.0000 6.6521
# 5 3.9738 3.3780 -10.0689 0.0000 35.9804 0.0000
# 6 0.0000 0.0000 0.0000 6.6521 0.0000 12.1853
#
#
#
# Elastic Compliance Matrix: (Units=1/GPa)
#
#
# Indices 1 2 3 4 5 6 
#
# 1 0.018215 -0.009341 -0.005350 0.000000 -0.002632 0.000000
# 2 -0.009341 0.023792 -0.000498 0.000000 -0.001341 0.000000
# 3 -0.005350 -0.000498 0.009221 0.000000 0.003218 0.000000
# 4 0.000000 0.000000 0.000000 0.100169 0.000000 -0.054683
# 5 -0.002632 -0.001341 0.003218 0.000000 0.029110 0.000000
# 6 0.000000 0.000000 0.000000 -0.054683 0.000000 0.111918
#
#
# Mechanical properties :
#
#
# Convention : Reuss Voigt Hill
#
# Bulk Modulus (GPa) = 47.96369 57.21077 52.58723
# Shear Modulus (GPa) = 15.16279 24.23630 19.69954
#
# Velocity S-wave (km/s) = 2.87786 3.63842 3.28026
# Velocity P-wave (km/s) = 6.10254 6.99285 6.56281
#
# Compressibility (1/GPa) = 0.02084910
#
# Stress axis : x y z
#
# Youngs Moduli (GPa) = 54.89923 42.03102 108.44485
#
# Poissons Ratio (x) = 0.39261 0.58022
# Poissons Ratio (y) = 0.51282 0.05403
# Poissons Ratio (z) = 0.29373 0.02094
#
# Static dielectric constant tensor:
#      x y z
#    x 1.706570 0.000000 0.008260 
#    y 0.000000 1.621740 0.000000 
#    z 0.008260 0.000000 1.682090 
# 
# From -- ./inp_files/134495.got.cif
#   From: 2010.05.17/outbox.cif.g08.bks.cpg/sg12_68_cif.got.tgz:134495.got - 2010.06.03 13:09:07.
