data_PCOD9178004
_publ_section_title
;
Structure prediction by ZEFSAII (Michael W. Deem and Ramdas Pophale) SiO2 
 PCOD9178004
Probable space group: C 2/M
;
_chemical_formula_sum "Si O2"
_cell_formula_units_Z 64
_cell_length_a 19.872044
_cell_length_b 8.733077
_cell_length_c 24.064006
_cell_angle_alpha 90.000000
_cell_angle_beta 61.166058
_cell_angle_gamma 90.000000
_cell_volume 3658.409710
_symmetry_space_group_name_H-M "C 2/M"
_symmetry_group_IT_number 12
_symmetry_cell_setting 'monoclinic'
loop_
_space_group_symop_operation_xyz
x,y,z
-x,y,-z
-x,-y,-z
x,-y,z
1/2+x,1/2+y,z
1/2-x,1/2+y,-z
1/2-x,1/2-y,-z
1/2+x,1/2-y,z
loop_
_atom_site_type_symbol
_atom_site_label
_atom_site_fract_x
_atom_site_fract_y
_atom_site_fract_z
Si Si1 0.694182 0.183610 0.150131
Si Si2 0.427417 0.684174 0.223165
Si Si3 0.758703 0.815412 0.321168
Si Si4 0.199703 0.184486 0.569527
Si Si5 0.636902 0.683602 0.288822
Si Si6 0.307559 0.184137 0.023878
Si Si7 0.433249 0.183573 0.892227
Si Si8 0.466835 0.313805 0.332963
O O1 0.674145 0.250270 0.217845
O O2 0.774170 0.247234 0.093736
O O3 0.626077 0.228794 0.133838
O O4 0.697023 0.000000 0.150601
O O5 0.429681 0.500000 0.220630
O O6 0.338054 0.730381 0.258447
O O7 0.484131 0.747821 0.154148
O O8 0.459242 0.732913 0.271328
O O9 0.768320 0.773901 0.382096
O O10 0.686207 0.741290 0.320793
O O11 0.753494 0.000000 0.320064
O O12 0.250000 0.250000 0.500000
O O13 0.110462 0.235867 0.604889
O O14 0.200427 0.000000 0.566039
O O15 0.638134 0.500000 0.285841
O O16 0.548012 0.735751 0.325189
O O17 0.302165 0.000000 0.027172
O O18 0.250000 0.250000 0.000000
O O19 0.391581 0.226444 0.966718
O O20 0.438600 0.000000 0.888761
O O21 0.465857 0.500000 0.333228
#
# Coordination Sequence:
#
# PCOD9178004 Si02
#       8
#     8   8   8   8   8   8   8   8
#     4  10  19  30  45  69 101 135 168 209 261 308
#     4   9  16  30  51  70  94 132 171 207 250 303
#     4   9  20  36  52  74 106 138 165 203 254 301
#     4   9  18  36  59  79 104 135 169 206 244 292
#     4  11  20  32  53  77 102 134 171 211 253 302
#     4   9  17  28  41  64  98 133 169 212 261 308
#     4   9  17  27  43  70 100 126 162 215 261 294
#     4   8  16  31  51  76 101 130 168 207 246 292
#
# _framework density 17.493939999999998
#
# number of rings (size 3 to 8) (size 9 to 14) (size 15 to 20)
#    0.000    2.750    1.250    3.375    0.000    3.500 
#    0.000    3.750    0.000    4.500    0.000    5.250 
#    0.000    0.000    0.000    0.000    0.000    0.000 
#
# Total GULP energy -178311.180759 kJ/mol
# GULP energy per Si atom -5572.224399 kJ/mol
# Density = 1.745412 g / cm^3
# Si number density = 17.493940 Si / 1000 Ang^3
#
#
#
# Elastic Constant Matrix: (Units=GPa)
#
#
# Indices 1 2 3 4 5 6 
#
# 1 107.0475 26.9959 60.7737 0.0000 -17.5121 0.0003
# 2 26.9959 24.5092 29.7906 0.0001 -3.2677 0.0007
# 3 60.7737 29.7906 137.8033 0.0000 -29.8968 0.0000
# 4 0.0000 0.0001 0.0000 31.8286 0.0000 -2.2112
# 5 -17.5121 -3.2677 -29.8968 0.0000 21.2688 0.0000
# 6 0.0003 0.0007 0.0000 -2.2112 0.0000 23.4212
#
#
#
# Elastic Compliance Matrix: (Units=1/GPa)
#
#
# Indices 1 2 3 4 5 6 
#
# 1 0.015063 -0.012823 -0.002313 0.000000 0.007181 0.000000
# 2 -0.012823 0.068458 -0.013169 0.000000 -0.018552 -0.000002
# 3 -0.002313 -0.013169 0.014779 0.000000 0.016846 0.000000
# 4 0.000000 0.000000 0.000000 0.031626 0.000000 0.002986
# 5 0.007181 -0.018552 0.016846 0.000000 0.073759 0.000000
# 6 0.000000 -0.000002 0.000000 0.002986 0.000000 0.042978
#
#
# Mechanical properties :
#
#
# Convention : Reuss Voigt Hill
#
# Bulk Modulus (GPa) = 23.98650 56.05335 40.01992
# Shear Modulus (GPa) = 15.76438 25.42369 20.59404
#
# Velocity S-wave (km/s) = 3.00515 3.81633 3.43477
# Velocity P-wave (km/s) = 5.07763 7.17846 6.21742
#
# Compressibility (1/GPa) = 0.04169012
#
# Stress axis : x y z
#
# Youngs Moduli (GPa) = 66.38617 14.60743 67.66531
#
# Poissons Ratio (x) = 0.18730 0.15653
# Poissons Ratio (y) = 0.85124 0.89110
# Poissons Ratio (z) = 0.15357 0.19237
#
# Static dielectric constant tensor:
#      x y z
#    x 1.602900 0.000000 -0.014520 
#    y 0.000000 1.822920 0.000010 
#    z -0.014520 0.000010 1.606240 
# 
# From -- ./inp_files/345548.got.cif
#   From: 2010.05.17/outbox.cif.g08.bks.cpg/sg12_173_cif.got.tgz:345548.got - 2010.06.03 13:09:07.
