data_PCOD9178202
_publ_section_title
;
Structure prediction by ZEFSAII (Michael W. Deem and Ramdas Pophale) SiO2 
 PCOD9178202
Probable space group: C 2/M
;
_chemical_formula_sum "Si O2"
_cell_formula_units_Z 64
_cell_length_a 26.185022
_cell_length_b 8.864596
_cell_length_c 17.514267
_cell_angle_alpha 90.000000
_cell_angle_beta 89.632495
_cell_angle_gamma 90.000000
_cell_volume 4065.321745
_symmetry_space_group_name_H-M "C 2/M"
_symmetry_group_IT_number 12
_symmetry_cell_setting 'monoclinic'
loop_
_space_group_symop_operation_xyz
x,y,z
-x,y,-z
-x,-y,-z
x,-y,z
1/2+x,1/2+y,z
1/2-x,1/2+y,-z
1/2-x,1/2-y,-z
1/2+x,1/2-y,z
loop_
_atom_site_type_symbol
_atom_site_label
_atom_site_fract_x
_atom_site_fract_y
_atom_site_fract_z
Si Si1 0.442373 0.318758 0.338193
Si Si2 0.061956 0.826014 0.493453
Si Si3 0.003495 0.318773 0.089244
Si Si4 0.596075 0.319078 0.184706
Si Si5 0.598336 0.818550 0.812685
Si Si6 0.691797 0.681555 0.082901
Si Si7 0.191639 0.681786 0.917433
Si Si8 0.444187 0.178990 0.663236
O O1 0.447633 0.500000 0.337320
O O2 0.420945 0.276403 0.422305
O O3 0.409321 0.261209 0.268085
O O4 0.498677 0.246982 0.329193
O O5 0.075692 0.727800 0.420061
O O6 0.000000 0.823552 0.500000
O O7 0.076952 0.000000 0.480123
O O8 0.011429 0.500000 0.093499
O O9 0.950730 0.284264 0.133591
O O10 0.049878 0.237830 0.131603
O O11 0.000000 0.277522 0.000000
O O12 0.593881 0.500000 0.190713
O O13 0.649312 0.274270 0.144610
O O14 0.588470 0.247090 0.267689
O O15 0.649569 0.771694 0.856257
O O16 0.599217 0.000000 0.801821
O O17 0.690581 0.500000 0.076172
O O18 0.750022 0.725676 0.102321
O O19 0.679490 0.751312 0.000594
O O20 0.189578 0.500000 0.922836
O O21 0.447111 0.000000 0.669553
#
# Coordination Sequence:
#
# PCOD9178202 Si02
#       8
#     8   8   8   8   8   8   8   8
#     4  10  19  31  47  68  97 129 157 191 232 282
#     4   8  16  30  46  65  92 126 158 187 230 281
#     4  10  20  32  45  65  94 127 160 192 232 286
#     4  11  21  32  47  68  96 129 161 197 237 280
#     4  10  19  30  47  70  96 127 159 195 237 283
#     4   9  19  34  51  71  93 122 164 205 242 283
#     4   9  18  34  53  71  93 123 160 204 247 282
#     4  11  20  30  46  69  96 126 160 196 234 279
#
# _framework density 15.742912
#
# number of rings (size 3 to 8) (size 9 to 14) (size 15 to 20)
#    0.000    2.250    1.250    3.375    0.000    5.500 
#    0.000    0.000    0.000    0.000    0.000    0.875 
#    0.000    0.000    0.000    0.000    0.000    0.000 
#
# Total GULP energy -178479.353317 kJ/mol
# GULP energy per Si atom -5577.479791 kJ/mol
# Density = 1.570708 g / cm^3
# Si number density = 15.742912 Si / 1000 Ang^3
#
#
#
# Elastic Constant Matrix: (Units=GPa)
#
#
# Indices 1 2 3 4 5 6 
#
# 1 81.2115 36.1676 77.3535 0.0000 2.0143 0.0000
# 2 36.1676 43.4008 55.6651 0.0000 -1.5235 0.0000
# 3 77.3535 55.6651 164.5679 0.0000 4.9215 0.0000
# 4 0.0000 0.0000 0.0000 28.3880 0.0000 3.8295
# 5 2.0143 -1.5235 4.9215 0.0000 18.3441 0.0000
# 6 0.0000 0.0000 0.0000 3.8295 0.0000 16.6271
#
#
#
# Elastic Compliance Matrix: (Units=1/GPa)
#
#
# Indices 1 2 3 4 5 6 
#
# 1 0.024555 -0.010175 -0.008059 0.000000 -0.001379 0.000000
# 2 -0.010175 0.045859 -0.010965 0.000000 0.007868 0.000000
# 3 -0.008059 -0.010965 0.013684 0.000000 -0.003697 0.000000
# 4 0.000000 0.000000 0.000000 0.036356 0.000000 -0.008373
# 5 -0.001379 0.007868 -0.003697 0.000000 0.056310 0.000000
# 6 0.000000 0.000000 0.000000 -0.008373 0.000000 0.062071
#
#
# Mechanical properties :
#
#
# Convention : Reuss Voigt Hill
#
# Bulk Modulus (GPa) = 38.90822 69.72807 54.31815
# Shear Modulus (GPa) = 16.35052 20.67142 18.51097
#
# Velocity S-wave (km/s) = 3.22622 3.62755 3.43276
# Velocity P-wave (km/s) = 6.21662 7.86978 7.09154
#
# Compressibility (1/GPa) = 0.02570151
#
# Stress axis : x y z
#
# Youngs Moduli (GPa) = 40.72423 21.80578 73.07810
#
# Poissons Ratio (x) = 0.22187 0.58895
# Poissons Ratio (y) = 0.41436 0.80128
# Poissons Ratio (z) = 0.32820 0.23909
#
# Static dielectric constant tensor:
#      x y z
#    x 1.510740 0.000000 0.003950 
#    y 0.000000 1.528280 0.000000 
#    z 0.003950 0.000000 1.530760 
# 
# From -- ./inp_files/287547.got.cif
#   From: 2010.05.17/outbox.cif.g08.bks.cpg/sg12_144_cif.got.tgz:287547.got - 2010.06.03 13:09:07.
