data_PCOD9178784
_publ_section_title
;
Structure prediction by ZEFSAII (Michael W. Deem and Ramdas Pophale) SiO2 
 PCOD9178784
Probable space group: C 2/M
;
_chemical_formula_sum "Si O2"
_cell_formula_units_Z 64
_cell_length_a 24.995799
_cell_length_b 8.694807
_cell_length_c 22.300673
_cell_angle_alpha 90.000000
_cell_angle_beta 132.784972
_cell_angle_gamma 90.000000
_cell_volume 3557.022318
_symmetry_space_group_name_H-M "C 2/M"
_symmetry_group_IT_number 12
_symmetry_cell_setting 'monoclinic'
loop_
_space_group_symop_operation_xyz
x,y,z
-x,y,-z
-x,-y,-z
x,-y,z
1/2+x,1/2+y,z
1/2-x,1/2+y,-z
1/2-x,1/2-y,-z
1/2+x,1/2-y,z
loop_
_atom_site_type_symbol
_atom_site_label
_atom_site_fract_x
_atom_site_fract_y
_atom_site_fract_z
Si Si1 0.558027 0.812866 0.092714
Si Si2 0.503098 0.184804 0.310236
Si Si3 0.436155 0.815085 0.766904
Si Si4 0.723222 0.682388 0.356145
Si Si5 0.361920 0.178046 0.275232
Si Si6 0.085947 0.831543 0.572381
Si Si7 0.223869 0.316151 0.223056
Si Si8 0.355017 0.676229 0.517453
O O1 0.540901 0.769429 0.148502
O O2 0.641628 0.764703 0.144764
O O3 0.556952 0.000000 0.089662
O O4 0.500000 0.756134 0.000000
O O5 0.507336 0.219623 0.242825
O O6 0.428360 0.240455 0.284748
O O7 0.578088 0.249485 0.395460
O O8 0.504731 0.000000 0.319772
O O9 0.358972 0.736676 0.693627
O O10 0.423972 0.000000 0.757980
O O11 0.727972 0.500000 0.354961
O O12 0.740058 0.753716 0.302770
O O13 0.777904 0.739213 0.449848
O O14 0.391341 0.199154 0.365323
O O15 0.284115 0.261428 0.221358
O O16 0.350507 0.000000 0.251643
O O17 0.117432 0.822844 0.530340
O O18 0.000000 0.828599 0.500000
O O19 0.107149 0.000000 0.614596
O O20 0.223567 0.500000 0.226644
O O21 0.344291 0.500000 0.529116
#
# Coordination Sequence:
#
# PCOD9178784 Si02
#       8
#     8   8   8   8   8   8   8   8
#     4   8  15  31  59  88 103 119 158 208 253 301
#     4  10  22  36  49  70 101 140 180 213 252 300
#     4   9  19  37  56  74 102 135 167 208 256 308
#     4  11  21  33  51  74 101 133 173 221 263 302
#     4  11  21  31  48  72 101 136 174 213 252 296
#     4  10  19  31  46  66  94 130 175 222 262 293
#     4  10  19  32  52  78 107 134 163 206 258 305
#     4  11  21  32  49  71  98 136 180 222 261 297
#
# _framework density 17.992577000000001
#
# number of rings (size 3 to 8) (size 9 to 14) (size 15 to 20)
#    0.000    2.000    2.500    3.000    0.000    2.250 
#    0.000    0.000    0.000   10.125    0.000    0.000 
#    0.000    0.000    0.000    0.000    0.000    0.625 
#
# Total GULP energy -178396.228258 kJ/mol
# GULP energy per Si atom -5574.882133 kJ/mol
# Density = 1.795162 g / cm^3
# Si number density = 17.992577 Si / 1000 Ang^3
#
#
#
# Elastic Constant Matrix: (Units=GPa)
#
#
# Indices 1 2 3 4 5 6 
#
# 1 102.2357 27.8038 64.4634 0.0000 -4.0123 0.0000
# 2 27.8038 48.1944 22.3257 0.0000 -2.2640 0.0000
# 3 64.4634 22.3257 106.8160 0.0000 12.8590 0.0000
# 4 0.0000 0.0000 0.0000 9.1691 0.0000 -0.0272
# 5 -4.0123 -2.2640 12.8590 0.0000 14.6187 0.0000
# 6 0.0000 0.0000 0.0000 -0.0272 0.0000 15.2033
#
#
#
# Elastic Compliance Matrix: (Units=1/GPa)
#
#
# Indices 1 2 3 4 5 6 
#
# 1 0.019845 -0.004703 -0.012931 0.000000 0.016093 0.000000
# 2 -0.004703 0.025123 -0.003049 0.000000 0.005282 0.000000
# 3 -0.012931 -0.003049 0.020453 0.000000 -0.022012 0.000000
# 4 0.000000 0.000000 0.000000 0.109063 0.000000 0.000195
# 5 0.016093 0.005282 -0.022012 0.000000 0.093003 0.000000
# 6 0.000000 0.000000 0.000000 0.000195 0.000000 0.065776
#
#
# Mechanical properties :
#
#
# Convention : Reuss Voigt Hill
#
# Bulk Modulus (GPa) = 41.56959 54.04798 47.80879
# Shear Modulus (GPa) = 13.06691 17.30843 15.18767
#
# Velocity S-wave (km/s) = 2.69781 3.10494 2.90850
# Velocity P-wave (km/s) = 5.73220 6.55427 6.15697
#
# Compressibility (1/GPa) = 0.02405605
#
# Stress axis : x y z
#
# Youngs Moduli (GPa) = 50.38962 39.80455 48.89284
#
# Poissons Ratio (x) = 0.18719 0.63224
# Poissons Ratio (y) = 0.23697 0.14906
# Poissons Ratio (z) = 0.65159 0.12135
#
# Static dielectric constant tensor:
#      x y z
#    x 1.670800 0.000000 0.012630 
#    y 0.000000 1.646720 0.000000 
#    z 0.012630 0.000000 1.603720 
# 
# From -- ./inp_files/324293.got.cif
#   From: 2010.05.17/outbox.cif.g08.bks.cpg/sg12_163_cif.got.tgz:324293.got - 2010.06.03 13:09:07.
