data_PCOD9178714
_publ_section_title
;
Structure prediction by ZEFSAII (Michael W. Deem and Ramdas Pophale) SiO2 
 PCOD9178714
Probable space group: C 2/M
;
_chemical_formula_sum "Si O2"
_cell_formula_units_Z 42
_cell_length_a 20.939161
_cell_length_b 21.392784
_cell_length_c 12.825766
_cell_angle_alpha 90.000000
_cell_angle_beta 156.960043
_cell_angle_gamma 90.000000
_cell_volume 2248.540578
_symmetry_space_group_name_H-M "C 2/M"
_symmetry_group_IT_number 12
_symmetry_cell_setting 'monoclinic'
loop_
_space_group_symop_operation_xyz
x,y,z
-x,y,-z
-x,-y,-z
x,-y,z
1/2+x,1/2+y,z
1/2-x,1/2+y,-z
1/2-x,1/2-y,-z
1/2+x,1/2-y,z
loop_
_atom_site_type_symbol
_atom_site_label
_atom_site_fract_x
_atom_site_fract_y
_atom_site_fract_z
Si Si1 0.000000 0.500000 0.000000
Si Si2 0.567853 0.928845 0.485475
Si Si3 0.269490 0.120388 0.612135
Si Si4 0.426428 0.183191 0.642143
Si Si5 0.045320 0.926366 0.949425
Si Si6 0.637472 0.238481 0.121897
O O1 0.135668 0.555608 0.230177
O O2 0.500000 0.925070 0.500000
O O3 0.497719 0.874811 0.306606
O O4 0.539238 0.000000 0.402705
O O5 0.762964 0.918454 0.779914
O O6 0.333859 0.153448 0.603000
O O7 0.311236 0.168562 0.766302
O O8 0.077198 0.109715 0.309603
O O9 0.293616 0.218151 0.371588
O O10 0.553984 0.231647 0.884241
O O11 0.010496 0.000000 0.885786
O O12 0.000000 0.909529 0.000000
O O13 0.500000 0.258499 0.000000
#
# Coordination Sequence:
#
# PCOD9178714 Si02
#       6
#     2   8   8   8   8   8
#     4  12  20  32  50  96 134 148 190 246 308 354
#     4  10  23  40  60  87 121 155 192 244 305 358
#     4  11  20  32  55  88 128 152 188 247 296 350
#     4  11  22  36  59  83 116 162 197 239 293 358
#     4  10  19  30  55  89 113 146 190 238 291 344
#     4  10  22  35  53  88 122 160 191 238 305 342
#
# _framework density 18.678782999999999
#
# number of rings (size 3 to 8) (size 9 to 14) (size 15 to 20)
#    0.000    1.524    5.714    2.286    6.667    0.000 
#    0.000    0.952    0.000    0.000    0.000    5.333 
#    0.000    0.000    0.000    0.000    0.000    0.000 
#
# Total GULP energy -116981.505414 kJ/mol
# GULP energy per Si atom -5570.547877 kJ/mol
# Density = 1.863627 g / cm^3
# Si number density = 18.678783 Si / 1000 Ang^3
#
#
#
# Elastic Constant Matrix: (Units=GPa)
#
#
# Indices 1 2 3 4 5 6 
#
# 1 45.6135 15.4550 26.0760 0.0000 5.8503 0.0000
# 2 15.4550 119.3740 34.8492 0.0000 -13.2656 0.0000
# 3 26.0760 34.8492 79.6115 0.0000 -10.6269 0.0000
# 4 0.0000 0.0000 0.0000 25.6085 0.0000 -7.8338
# 5 5.8503 -13.2656 -10.6269 0.0000 20.0100 0.0000
# 6 0.0000 0.0000 0.0000 -7.8338 0.0000 5.8870
#
#
#
# Elastic Compliance Matrix: (Units=1/GPa)
#
#
# Indices 1 2 3 4 5 6 
#
# 1 0.031555 -0.002636 -0.011459 0.000000 -0.017059 0.000000
# 2 -0.002636 0.010207 -0.002797 0.000000 0.006052 0.000000
# 3 -0.011459 -0.002797 0.019092 0.000000 0.011635 0.000000
# 4 0.000000 0.000000 0.000000 0.065858 0.000000 0.087637
# 5 -0.017059 0.006052 0.011635 0.000000 0.065154 0.000000
# 6 0.000000 0.000000 0.000000 0.087637 0.000000 0.286484
#
#
# Mechanical properties :
#
#
# Convention : Reuss Voigt Hill
#
# Bulk Modulus (GPa) = 36.94007 44.15104 40.54555
# Shear Modulus (GPa) = 9.59404 21.51568 15.55486
#
# Velocity S-wave (km/s) = 2.26881 3.39761 2.88888
# Velocity P-wave (km/s) = 5.16553 6.25140 5.73423
#
# Compressibility (1/GPa) = 0.02707088
#
# Stress axis : x y z
#
# Youngs Moduli (GPa) = 31.69069 97.96846 52.37873
#
# Poissons Ratio (x) = 0.25823 0.60020
# Poissons Ratio (y) = 0.08353 0.14650
# Poissons Ratio (z) = 0.36314 0.27402
#
# Static dielectric constant tensor:
#      x y z
#    x 1.618860 0.000000 -0.027660 
#    y 0.000000 1.696460 0.000000 
#    z -0.027660 0.000000 1.689230 
# 
# From -- ./inp_files/190247.got.cif
#   From: 2010.05.17/outbox.cif.g08.bks.cpg/sg12_96_cif.got.tgz:190247.got - 2010.06.03 13:09:07.
