data_PCOD9178577
_publ_section_title
;
Structure prediction by ZEFSAII (Michael W. Deem and Ramdas Pophale) SiO2 
 PCOD9178577
Probable space group: C 2/M
;
_chemical_formula_sum "Si O2"
_cell_formula_units_Z 56
_cell_length_a 19.815148
_cell_length_b 8.464418
_cell_length_c 33.586533
_cell_angle_alpha 90.000000
_cell_angle_beta 33.797240
_cell_angle_gamma 90.000000
_cell_volume 3133.530910
_symmetry_space_group_name_H-M "C 2/M"
_symmetry_group_IT_number 12
_symmetry_cell_setting 'monoclinic'
loop_
_space_group_symop_operation_xyz
x,y,z
-x,y,-z
-x,-y,-z
x,-y,z
1/2+x,1/2+y,z
1/2-x,1/2+y,-z
1/2-x,1/2-y,-z
1/2+x,1/2-y,z
loop_
_atom_site_type_symbol
_atom_site_label
_atom_site_fract_x
_atom_site_fract_y
_atom_site_fract_z
Si Si1 0.440178 0.690215 0.903962
Si Si2 0.872384 0.188210 0.079702
Si Si3 0.736239 0.187816 0.942652
Si Si4 0.069857 0.807388 0.505768
Si Si5 0.692275 0.810956 0.569651
Si Si6 0.537272 0.311915 0.356010
Si Si7 0.797997 0.809076 0.203857
O O1 0.433155 0.500000 0.912448
O O2 0.356181 0.734860 0.908132
O O3 0.580546 0.732800 0.831295
O O4 0.376809 0.764016 0.973834
O O5 0.775873 0.226527 0.093161
O O6 0.829621 0.246226 0.143516
O O7 0.888042 0.000000 0.076352
O O8 0.000000 0.253214 0.000000
O O9 0.736102 0.000000 0.937189
O O10 0.211809 0.760619 0.442982
O O11 0.000000 0.753017 0.500000
O O12 0.003450 0.757695 0.579544
O O13 0.067761 0.000000 0.505703
O O14 0.750000 0.750000 0.500000
O O15 0.554495 0.752227 0.632976
O O16 0.691101 0.000000 0.570174
O O17 0.525617 0.500000 0.361620
O O18 0.674069 0.262181 0.280279
O O19 0.785984 0.000000 0.209692
#
# Coordination Sequence:
#
# PCOD9178577 Si02
#       7
#     8   8   8   8   8   8   8
#     4   9  18  34  51  69  97 134 169 204 255 316
#     4  10  19  34  53  71  95 131 173 214 256 310
#     4  10  19  30  50  76  99 124 163 217 265 305
#     4   8  15  30  53  79 103 130 165 204 242 286
#     4   9  16  29  52  77 103 135 169 203 241 293
#     4  10  20  33  51  76 105 134 167 212 257 299
#     4  10  20  35  54  71  96 137 175 209 255 311
#
# _framework density 17.871213999999998
#
# number of rings (size 3 to 8) (size 9 to 14) (size 15 to 20)
#    0.000    2.571    1.429    2.143    0.000    2.000 
#    0.000    1.429    0.000   20.571    0.000    0.000 
#    0.000    0.000    0.000    0.000    0.000    0.000 
#
# Total GULP energy -155967.804459 kJ/mol
# GULP energy per Si atom -5570.278731 kJ/mol
# Density = 1.783054 g / cm^3
# Si number density = 17.871214 Si / 1000 Ang^3
#
#
#
# Elastic Constant Matrix: (Units=GPa)
#
#
# Indices 1 2 3 4 5 6 
#
# 1 133.3958 11.5842 55.9609 0.0017 -18.1333 0.0226
# 2 11.5842 9.1722 14.8564 -0.0049 -4.6073 -0.0056
# 3 55.9609 14.8564 87.2213 -0.0002 -23.6991 0.0002
# 4 0.0017 -0.0049 -0.0002 24.8669 -0.0001 -3.9929
# 5 -18.1333 -4.6073 -23.6991 -0.0001 29.2858 0.0022
# 6 0.0226 -0.0056 0.0002 -3.9929 0.0022 23.9355
#
#
#
# Elastic Compliance Matrix: (Units=1/GPa)
#
#
# Indices 1 2 3 4 5 6 
#
# 1 0.010360 -0.003094 -0.005780 -0.000003 0.001250 -0.000011
# 2 -0.003094 0.151812 -0.022951 0.000037 0.003395 0.000044
# 3 -0.005780 -0.022951 0.021957 -0.000004 0.010579 -0.000002
# 4 -0.000003 0.000037 -0.000004 0.041321 0.000000 0.006893
# 5 0.001250 0.003395 0.010579 0.000000 0.044015 -0.000005
# 6 -0.000011 0.000044 -0.000002 0.006893 -0.000005 0.042929
#
#
# Mechanical properties :
#
#
# Convention : Reuss Voigt Hill
#
# Bulk Modulus (GPa) = 8.30012 43.84358 26.07185
# Shear Modulus (GPa) = 12.01332 25.44349 18.72841
#
# Velocity S-wave (km/s) = 2.59553 3.77731 3.24074
# Velocity P-wave (km/s) = 3.69281 6.60382 5.35010
#
# Compressibility (1/GPa) = 0.12048015
#
# Stress axis : x y z
#
# Youngs Moduli (GPa) = 96.52519 6.58707 45.54308
#
# Poissons Ratio (x) = 0.02038 0.26325
# Poissons Ratio (y) = 0.29864 1.04525
# Poissons Ratio (z) = 0.55793 0.15118
#
# Static dielectric constant tensor:
#      x y z
#    x 1.652190 0.000000 -0.020350 
#    y 0.000000 1.616410 0.000000 
#    z -0.020350 0.000000 1.590560 
# 
# From -- ./inp_files/377669.got.cif
#   From: 2010.05.17/outbox.cif.g08.bks.cpg/sg12_189_cif.got.tgz:377669.got - 2010.06.03 13:09:07.
