data_PCOD9178557
_publ_section_title
;
Structure prediction by ZEFSAII (Michael W. Deem and Ramdas Pophale) SiO2 
 PCOD9178557
Probable space group: C 2/M
;
_chemical_formula_sum "Si O2"
_cell_formula_units_Z 48
_cell_length_a 5.837545
_cell_length_b 30.107946
_cell_length_c 13.679202
_cell_angle_alpha 90.000000
_cell_angle_beta 71.889964
_cell_angle_gamma 90.000000
_cell_volume 2285.107156
_symmetry_space_group_name_H-M "C 2/M"
_symmetry_group_IT_number 12
_symmetry_cell_setting 'monoclinic'
loop_
_space_group_symop_operation_xyz
x,y,z
-x,y,-z
-x,-y,-z
x,-y,z
1/2+x,1/2+y,z
1/2-x,1/2+y,-z
1/2-x,1/2-y,-z
1/2+x,1/2-y,z
loop_
_atom_site_type_symbol
_atom_site_label
_atom_site_fract_x
_atom_site_fract_y
_atom_site_fract_z
Si Si1 0.284410 0.949747 0.606937
Si Si2 0.016936 0.137927 0.327383
Si Si3 0.749947 0.452214 0.091526
Si Si4 0.467529 0.090627 0.242399
Si Si5 0.431411 0.632319 0.108768
Si Si6 0.642559 0.734149 0.616806
O O1 0.500000 0.947616 0.500000
O O2 0.111345 0.907286 0.619408
O O3 0.395435 0.939583 0.698558
O O4 0.181156 0.000000 0.615479
O O5 0.992470 0.146607 0.212402
O O6 0.900977 0.181587 0.386113
O O7 0.295320 0.127603 0.313072
O O8 0.630174 0.500000 0.096779
O O9 0.810716 0.441338 0.195378
O O10 0.587445 0.412299 0.079945
O O11 0.000000 0.452720 0.000000
O O12 0.654283 0.117728 0.150791
O O13 0.500000 0.658497 0.000000
O O14 0.750000 0.750000 0.500000
O O15 0.366609 0.754421 0.662156
#
# Coordination Sequence:
#
# PCOD9178557 Si02
#       6
#     8   8   8   8   8   8
#     4  10  23  39  58  85 127 176 222 263 316 390
#     4  10  24  39  65  95 127 167 217 272 334 400
#     4  10  19  30  49  81 118 164 220 270 319 369
#     4  10  21  36  57  82 124 165 222 263 323 375
#     4  10  20  36  56  83 122 164 211 256 321 390
#     4  10  24  43  72 104 134 163 211 281 351 411
#
# _framework density 21.005578
#
# number of rings (size 3 to 8) (size 9 to 14) (size 15 to 20)
#    0.000    2.000    1.667    0.500    7.000    9.667 
#    0.000    1.667    0.000    1.000    0.000    0.000 
#    0.000    0.000    0.000    0.000    0.000    0.000 
#
# Total GULP energy -133729.517311 kJ/mol
# GULP energy per Si atom -5572.063221 kJ/mol
# Density = 2.095777 g / cm^3
# Si number density = 21.005578 Si / 1000 Ang^3
#
#
#
# Elastic Constant Matrix: (Units=GPa)
#
#
# Indices 1 2 3 4 5 6 
#
# 1 66.7741 28.1023 -5.2304 0.0000 -26.3358 0.0000
# 2 28.1023 117.6562 30.8776 0.0000 -24.7669 0.0000
# 3 -5.2304 30.8776 77.8415 0.0000 -15.5382 0.0000
# 4 0.0000 0.0000 0.0000 -4.4721 0.0000 -0.5840
# 5 -26.3358 -24.7669 -15.5382 0.0000 30.3494 0.0000
# 6 0.0000 0.0000 0.0000 -0.5840 0.0000 13.3667
#
#
#
# Elastic Compliance Matrix: (Units=1/GPa)
#
#
# Indices 1 2 3 4 5 6 
#
# 1 0.026676 -0.003304 0.008003 0.000000 0.024549 0.000000
# 2 -0.003304 0.011196 -0.003800 0.000000 0.004324 0.000000
# 3 0.008003 -0.003800 0.017442 0.000000 0.012774 0.000000
# 4 0.000000 0.000000 0.000000 -0.222339 0.000000 -0.009715
# 5 0.024549 0.004324 0.012774 0.000000 0.064320 0.000000
# 6 0.000000 0.000000 0.000000 -0.009715 0.000000 0.074389
#
#
# Mechanical properties :
#
#
# Convention : Reuss Voigt Hill
#
# Bulk Modulus (GPa) = 17.50966 41.08564 29.29765
# Shear Modulus (GPa) = -451.34710 21.75026 -214.79842
#
# Velocity S-wave (km/s) = -14.67435 3.22133 -10.12323
# Velocity P-wave (km/s) = 16.69616 5.78255 11.07528
#
# Compressibility (1/GPa) = 0.05711134
#
# Stress axis : x y z
#
# Youngs Moduli (GPa) = 37.48749 89.31736 57.33417
#
# Poissons Ratio (x) = 0.29513 -0.45887
# Poissons Ratio (y) = 0.12387 0.21788
# Poissons Ratio (z) = -0.30003 0.33942
#
# Static dielectric constant tensor:
#      x y z
#    x 1.835820 0.000000 0.001160 
#    y 0.000000 1.729830 0.000000 
#    z 0.001160 0.000000 1.822640 
# 
# From -- ./inp_files/192531.got.cif
#   From: 2010.05.17/outbox.cif.g08.bks.cpg/sg12_97_cif.got.tgz:192531.got - 2010.06.03 13:09:07.
