data_PCOD9178466
_publ_section_title
;
Structure prediction by ZEFSAII (Michael W. Deem and Ramdas Pophale) SiO2 
 PCOD9178466
Probable space group: C 2/M
;
_chemical_formula_sum "Si O2"
_cell_formula_units_Z 56
_cell_length_a 13.552421
_cell_length_b 27.367548
_cell_length_c 9.578825
_cell_angle_alpha 90.000000
_cell_angle_beta 57.210207
_cell_angle_gamma 90.000000
_cell_volume 2986.668306
_symmetry_space_group_name_H-M "C 2/M"
_symmetry_group_IT_number 12
_symmetry_cell_setting 'monoclinic'
loop_
_space_group_symop_operation_xyz
x,y,z
-x,y,-z
-x,-y,-z
x,-y,z
1/2+x,1/2+y,z
1/2-x,1/2+y,-z
1/2-x,1/2-y,-z
1/2+x,1/2-y,z
loop_
_atom_site_type_symbol
_atom_site_label
_atom_site_fract_x
_atom_site_fract_y
_atom_site_fract_z
Si Si1 0.868603 0.943784 0.303175
Si Si2 0.878846 0.361741 0.174712
Si Si3 0.974692 0.354020 0.679034
Si Si4 0.691155 0.443023 0.326366
Si Si5 0.396500 0.604610 0.873043
Si Si6 0.687614 0.056914 0.210249
Si Si7 0.264299 0.806954 0.014695
O O1 0.848467 0.940462 0.483314
O O2 0.747291 0.934238 0.315566
O O3 0.973358 0.908273 0.176735
O O4 0.903239 0.000000 0.242856
O O5 0.811107 0.412820 0.223259
O O6 0.806324 0.322418 0.138710
O O7 0.913761 0.347784 0.305172
O O8 0.000000 0.367568 0.000000
O O9 0.926129 0.409693 0.721279
O O10 0.000000 0.340847 0.500000
O O11 0.866330 0.324862 0.831072
O O12 0.699163 0.500000 0.281282
O O13 0.607528 0.414637 0.283199
O O14 0.352027 0.660137 0.920696
O O15 0.292898 0.573532 0.026745
O O16 0.662066 0.000000 0.212355
O O17 0.250000 0.750000 0.000000
#
# Coordination Sequence:
#
# PCOD9178466 Si02
#       7
#     8   8   8   8   8   8   8
#     4  10  19  31  47  73 111 145 173 210 255 303
#     4   9  19  35  55  76 104 141 173 213 262 310
#     4  10  20  36  56  79 108 137 171 216 261 303
#     4  10  19  30  48  77 109 140 175 212 252 304
#     4  10  19  32  52  73  99 137 176 218 265 310
#     4  10  20  32  49  75 108 145 179 208 245 305
#     4   9  20  40  58  75 101 132 173 222 274 329
#
# _framework density 18.74999
#
# number of rings (size 3 to 8) (size 9 to 14) (size 15 to 20)
#    0.000    2.286    0.000    3.857    0.000    3.429 
#    0.000   12.143    0.000    0.000    0.000    0.000 
#    0.000    0.000    0.000    0.000    0.000    0.000 
#
# Total GULP energy -156185.441375 kJ/mol
# GULP energy per Si atom -5578.051478 kJ/mol
# Density = 1.870731 g / cm^3
# Si number density = 18.749990 Si / 1000 Ang^3
#
#
#
# Elastic Constant Matrix: (Units=GPa)
#
#
# Indices 1 2 3 4 5 6 
#
# 1 45.1693 34.9978 6.9485 0.0000 2.6816 0.0000
# 2 34.9978 138.2264 23.7119 0.0000 0.9069 0.0000
# 3 6.9485 23.7119 58.3463 0.0000 26.3757 0.0000
# 4 0.0000 0.0000 0.0000 13.1183 0.0000 1.3951
# 5 2.6816 0.9069 26.3757 0.0000 22.2700 0.0000
# 6 0.0000 0.0000 0.0000 1.3951 0.0000 13.0776
#
#
#
# Elastic Compliance Matrix: (Units=1/GPa)
#
#
# Indices 1 2 3 4 5 6 
#
# 1 0.027873 -0.007416 0.002314 0.000000 -0.005795 0.000000
# 2 -0.007416 0.010357 -0.007617 0.000000 0.009492 0.000000
# 3 0.002314 -0.007617 0.042928 0.000000 -0.050811 0.000000
# 4 0.000000 0.000000 0.000000 0.077104 0.000000 -0.008226
# 5 -0.005795 0.009492 -0.050811 0.000000 0.105393 0.000000
# 6 0.000000 0.000000 0.000000 -0.008226 0.000000 0.077344
#
#
# Mechanical properties :
#
#
# Convention : Reuss Voigt Hill
#
# Bulk Modulus (GPa) = 17.94672 41.45094 29.69883
# Shear Modulus (GPa) = 12.98669 21.43211 17.20940
#
# Velocity S-wave (km/s) = 2.63463 3.38456 3.03287
# Velocity P-wave (km/s) = 4.34136 6.11791 5.30454
#
# Compressibility (1/GPa) = 0.05572049
#
# Stress axis : x y z
#
# Youngs Moduli (GPa) = 35.87685 96.55745 23.29477
#
# Poissons Ratio (x) = 0.71609 -0.05391
# Poissons Ratio (y) = 0.26607 0.17743
# Poissons Ratio (z) = -0.08303 0.73544
#
# Static dielectric constant tensor:
#      x y z
#    x 1.698290 0.000000 0.043370 
#    y 0.000000 1.612090 0.000000 
#    z 0.043370 0.000000 1.678800 
# 
# From -- ./inp_files/65792.got.cif
#   From: 2010.05.17/outbox.cif.g08.bks.cpg/sg12_33_cif.got.tgz:65792.got - 2010.06.03 13:09:07.
