data_PCOD9178697
_publ_section_title
;
Structure prediction by ZEFSAII (Michael W. Deem and Ramdas Pophale) SiO2 
 PCOD9178697
Probable space group: C 2/M
;
_chemical_formula_sum "Si O2"
_cell_formula_units_Z 50
_cell_length_a 25.606675
_cell_length_b 7.413914
_cell_length_c 15.665968
_cell_angle_alpha 90.000000
_cell_angle_beta 128.530803
_cell_angle_gamma 90.000000
_cell_volume 2326.572099
_symmetry_space_group_name_H-M "C 2/M"
_symmetry_group_IT_number 12
_symmetry_cell_setting 'monoclinic'
loop_
_space_group_symop_operation_xyz
x,y,z
-x,y,-z
-x,-y,-z
x,-y,z
1/2+x,1/2+y,z
1/2-x,1/2+y,-z
1/2-x,1/2-y,-z
1/2+x,1/2-y,z
loop_
_atom_site_type_symbol
_atom_site_label
_atom_site_fract_x
_atom_site_fract_y
_atom_site_fract_z
Si Si1 0.500000 0.500000 0.000000
Si Si2 0.898992 0.217767 0.662063
Si Si3 0.428382 0.719959 0.389168
Si Si4 0.572057 0.791661 0.984056
Si Si5 0.318422 0.279306 0.414123
Si Si6 0.669785 0.209656 0.229541
Si Si7 0.050661 0.217607 0.779683
O O1 0.510662 0.658714 0.938433
O O2 0.848764 0.277195 0.535842
O O3 0.871724 0.277213 0.725656
O O4 0.973882 0.278156 0.715383
O O5 0.899490 0.000000 0.662479
O O6 0.500000 0.775250 0.500000
O O7 0.428281 0.500000 0.389674
O O8 0.368872 0.776491 0.390622
O O9 0.423503 0.778569 0.286063
O O10 0.590716 0.778087 0.904023
O O11 0.557300 0.000000 0.988484
O O12 0.626992 0.716194 0.106726
O O13 0.317393 0.500000 0.414582
O O14 0.243385 0.214789 0.320800
O O15 0.679008 0.000000 0.217042
O O16 0.050691 0.000000 0.778233
#
# Coordination Sequence:
#
# PCOD9178697 Si02
#       7
#     2   8   8   8   8   8   8
#     4  12  22  40  64  86 118 160 208 244 292 346
#     4  10  19  30  54  83 112 147 187 240 294 353
#     4   9  15  29  56  88 114 144 195 253 300 348
#     4  11  24  39  57  87 124 161 199 246 293 349
#     4   9  17  33  53  81 116 151 193 244 294 355
#     4  10  22  36  52  77 117 160 194 230 294 361
#     4  10  19  33  57  89 118 149 197 248 299 353
#
# _framework density 21.490846000000001
#
# number of rings (size 3 to 8) (size 9 to 14) (size 15 to 20)
#    0.000    2.080    2.400    1.680    3.360    1.920 
#    0.000    0.800    0.000    2.400    0.000    0.000 
#    0.000    0.000    0.000    0.000    0.000    0.000 
#
# Total GULP energy -139456.877467 kJ/mol
# GULP energy per Si atom -5578.275099 kJ/mol
# Density = 2.144193 g / cm^3
# Si number density = 21.490846 Si / 1000 Ang^3
#
#
#
# Elastic Constant Matrix: (Units=GPa)
#
#
# Indices 1 2 3 4 5 6 
#
# 1 88.9810 -3.9975 77.4524 0.0000 -7.0008 0.0000
# 2 -3.9975 95.6946 3.1193 0.0000 1.1358 0.0000
# 3 77.4524 3.1193 183.9311 0.0000 -22.7115 0.0000
# 4 0.0000 0.0000 0.0000 61.7575 0.0000 -25.9952
# 5 -7.0008 1.1358 -22.7115 0.0000 40.9677 0.0000
# 6 0.0000 0.0000 0.0000 -25.9952 0.0000 12.5080
#
#
#
# Elastic Compliance Matrix: (Units=1/GPa)
#
#
# Indices 1 2 3 4 5 6 
#
# 1 0.017893 0.001013 -0.007705 0.000000 -0.001242 0.000000
# 2 0.001013 0.010520 -0.000665 0.000000 -0.000487 0.000000
# 3 -0.007705 -0.000665 0.009159 0.000000 0.003779 0.000000
# 4 0.000000 0.000000 0.000000 0.129332 0.000000 0.268789
# 5 -0.001242 -0.000487 0.003779 0.000000 0.026306 0.000000
# 6 0.000000 0.000000 0.000000 0.268789 0.000000 0.638570
#
#
# Mechanical properties :
#
#
# Convention : Reuss Voigt Hill
#
# Bulk Modulus (GPa) = 43.74861 57.97279 50.86070
# Shear Modulus (GPa) = 5.85402 42.51547 24.18474
#
# Velocity S-wave (km/s) = 1.65223 4.45264 3.35826
# Velocity P-wave (km/s) = 4.90315 7.31224 6.22534
#
# Compressibility (1/GPa) = 0.02285787
#
# Stress axis : x y z
#
# Youngs Moduli (GPa) = 55.88757 95.05965 109.17732
#
# Poissons Ratio (x) = -0.09633 0.84124
# Poissons Ratio (y) = -0.05663 0.07264
# Poissons Ratio (z) = 0.43063 0.06324
#
# Static dielectric constant tensor:
#      x y z
#    x 1.766910 0.000000 0.020030 
#    y 0.000000 1.876060 0.000000 
#    z 0.020030 0.000000 1.836630 
# 
# From -- ./inp_files/237251.got.cif
#   From: 2010.05.17/outbox.cif.g08.bks.cpg/sg12_119_cif.got.tgz:237251.got - 2010.06.03 13:09:07.
