data_PCOD9178429
_publ_section_title
;
Structure prediction by ZEFSAII (Michael W. Deem and Ramdas Pophale) SiO2 
 PCOD9178429
Probable space group: C 2/M
;
_chemical_formula_sum "Si O2"
_cell_formula_units_Z 48
_cell_length_a 22.965953
_cell_length_b 9.149896
_cell_length_c 19.975238
_cell_angle_alpha 90.000000
_cell_angle_beta 136.050736
_cell_angle_gamma 90.000000
_cell_volume 2913.166291
_symmetry_space_group_name_H-M "C 2/M"
_symmetry_group_IT_number 12
_symmetry_cell_setting 'monoclinic'
loop_
_space_group_symop_operation_xyz
x,y,z
-x,y,-z
-x,-y,-z
x,-y,z
1/2+x,1/2+y,z
1/2-x,1/2+y,-z
1/2-x,1/2-y,-z
1/2+x,1/2-y,z
loop_
_atom_site_type_symbol
_atom_site_label
_atom_site_fract_x
_atom_site_fract_y
_atom_site_fract_z
Si Si1 0.839627 0.174166 0.583846
Si Si2 0.625566 0.825910 0.651915
Si Si3 0.059706 0.325797 0.449525
Si Si4 0.050762 0.667504 0.971436
Si Si5 0.202169 0.324468 0.183175
Si Si6 0.902875 0.826392 0.785910
O O1 0.750000 0.250000 0.500000
O O2 0.901873 0.236882 0.579429
O O3 0.874084 0.204815 0.686741
O O4 0.830906 0.000000 0.569607
O O5 0.608535 0.793456 0.559337
O O6 0.538238 0.795240 0.617460
O O7 0.704302 0.736336 0.743425
O O8 0.641744 0.000000 0.670310
O O9 0.068311 0.500000 0.444732
O O10 0.051849 0.500000 0.947865
O O11 0.996623 0.768389 0.878181
O O12 0.143721 0.713949 0.070848
O O13 0.000000 0.667218 0.000000
O O14 0.200329 0.500000 0.187853
O O15 0.158247 0.253733 0.212012
O O16 0.898521 0.000000 0.793857
#
# Coordination Sequence:
#
# PCOD9178429 Si02
#       6
#     8   8   8   8   8   8
#     4  11  23  35  49  72 100 129 162 197 234 282
#     4   9  18  33  52  73  97 125 159 199 239 282
#     4   9  19  35  52  71  97 128 161 197 238 283
#     4   8  16  30  46  68  97 125 156 196 241 285
#     4  10  19  30  48  75 101 125 158 198 239 285
#     4  10  20  32  47  70  99 129 161 198 238 281
#
# _framework density 16.476918000000001
#
# number of rings (size 3 to 8) (size 9 to 14) (size 15 to 20)
#    0.000    2.500    0.000    4.500    0.000   11.667 
#    0.000    1.667    0.000    1.000    0.000    0.000 
#    0.000    0.000    0.000    0.000    0.000    0.000 
#
# Total GULP energy -133851.666093 kJ/mol
# GULP energy per Si atom -5577.152754 kJ/mol
# Density = 1.643942 g / cm^3
# Si number density = 16.476918 Si / 1000 Ang^3
#
#
#
# Elastic Constant Matrix: (Units=GPa)
#
#
# Indices 1 2 3 4 5 6 
#
# 1 59.2263 44.3831 57.1868 0.0000 1.6744 0.0000
# 2 44.3831 65.4843 78.0457 0.0000 2.7325 0.0000
# 3 57.1868 78.0457 143.7446 0.0000 20.3004 0.0000
# 4 0.0000 0.0000 0.0000 32.1334 0.0000 3.9392
# 5 1.6744 2.7325 20.3004 0.0000 25.6455 0.0000
# 6 0.0000 0.0000 0.0000 3.9392 0.0000 29.8423
#
#
#
# Elastic Compliance Matrix: (Units=1/GPa)
#
#
# Indices 1 2 3 4 5 6 
#
# 1 0.034904 -0.019115 -0.003910 0.000000 0.002853 0.000000
# 2 -0.019115 0.060237 -0.027438 0.000000 0.016549 0.000000
# 3 -0.003910 -0.027438 0.025851 0.000000 -0.017284 0.000000
# 4 0.000000 0.000000 0.000000 0.031632 0.000000 -0.004175
# 5 0.002853 0.016549 -0.017284 0.000000 0.050725 0.000000
# 6 0.000000 0.000000 0.000000 -0.004175 0.000000 0.034061
#
#
# Mechanical properties :
#
#
# Convention : Reuss Voigt Hill
#
# Bulk Modulus (GPa) = 49.83894 69.74294 59.79094
# Shear Modulus (GPa) = 14.49163 23.44689 18.96926
#
# Velocity S-wave (km/s) = 2.96887 3.77638 3.39671
# Velocity P-wave (km/s) = 6.48580 7.83800 7.19374
#
# Compressibility (1/GPa) = 0.02006463
#
# Stress axis : x y z
#
# Youngs Moduli (GPa) = 28.64979 16.60099 38.68335
#
# Poissons Ratio (x) = 0.31733 0.15127
# Poissons Ratio (y) = 0.54765 1.06140
# Poissons Ratio (z) = 0.11203 0.45550
#
# Static dielectric constant tensor:
#      x y z
#    x 1.535250 0.000000 0.018800 
#    y 0.000000 1.547510 0.000000 
#    z 0.018800 0.000000 1.560670 
# 
# From -- ./inp_files/280776.got.cif
#   From: 2010.05.17/outbox.cif.g08.bks.cpg/sg12_141_cif.got.tgz:280776.got - 2010.06.03 13:09:07.
