data_PCOD9178906
_publ_section_title
;
Structure prediction by ZEFSAII (Michael W. Deem and Ramdas Pophale) SiO2 
 PCOD9178906
Probable space group: C 2/M
;
_chemical_formula_sum "Si O2"
_cell_formula_units_Z 48
_cell_length_a 27.881921
_cell_length_b 7.290894
_cell_length_c 12.697993
_cell_angle_alpha 90.000000
_cell_angle_beta 127.180264
_cell_angle_gamma 90.000000
_cell_volume 2056.620506
_symmetry_space_group_name_H-M "C 2/M"
_symmetry_group_IT_number 12
_symmetry_cell_setting 'monoclinic'
loop_
_space_group_symop_operation_xyz
x,y,z
-x,y,-z
-x,-y,-z
x,-y,z
1/2+x,1/2+y,z
1/2-x,1/2+y,-z
1/2-x,1/2-y,-z
1/2+x,1/2-y,z
loop_
_atom_site_type_symbol
_atom_site_label
_atom_site_fract_x
_atom_site_fract_y
_atom_site_fract_z
Si Si1 0.847579 0.723271 0.160471
Si Si2 0.485244 0.777311 0.361546
Si Si3 0.598656 0.776303 0.373676
Si Si4 0.569251 0.776079 0.101280
Si Si5 0.175617 0.719470 0.097092
Si Si6 0.195219 0.283841 0.668780
O O1 0.844334 0.500000 0.158687
O O2 0.917676 0.775078 0.243126
O O3 0.823734 0.790183 0.241354
O O4 0.815430 0.786539 0.010840
O O5 0.500000 0.718821 0.500000
O O6 0.537343 0.719401 0.351279
O O7 0.486232 0.000000 0.362929
O O8 0.596264 0.719180 0.249589
O O9 0.654779 0.713451 0.519210
O O10 0.599160 0.000000 0.372740
O O11 0.613845 0.715531 0.067853
O O12 0.568423 0.000000 0.097479
O O13 0.500000 0.717552 0.000000
O O14 0.171245 0.500000 0.085019
O O15 0.233495 0.760967 0.244610
O O16 0.182024 0.500000 0.655330
#
# Coordination Sequence:
#
# PCOD9178906 Si02
#       6
#     8   8   8   8   8   8
#     4   9  16  27  44  68  96 122 152 193 234 271
#     4   9  13  21  40  67  94 115 143 190 239 269
#     4   9  16  26  43  68  95 121 152 192 233 272
#     4   9  17  30  47  68  94 120 149 191 239 279
#     4  10  20  32  47  68  95 126 156 186 228 279
#     4  10  19  31  47  69  96 124 156 191 227 269
#
# _framework density 23.339259999999999
#
# number of rings (size 3 to 8) (size 9 to 14) (size 15 to 20)
#    0.000    2.667    1.667    1.500    0.000    4.667 
#    0.000    0.000    0.000    0.500    0.000    5.833 
#    0.000    0.000    0.000    0.000    0.000    0.000 
#
# Total GULP energy -134135.997467 kJ/mol
# GULP energy per Si atom -5588.999894 kJ/mol
# Density = 2.328614 g / cm^3
# Si number density = 23.339260 Si / 1000 Ang^3
#
#
#
# Elastic Constant Matrix: (Units=GPa)
#
#
# Indices 1 2 3 4 5 6 
#
# 1 88.5665 -1.7950 56.5312 0.0000 -2.0160 0.0000
# 2 -1.7950 98.1817 2.1489 0.0000 -6.6463 0.0000
# 3 56.5312 2.1489 150.8820 0.0000 2.8897 0.0000
# 4 0.0000 0.0000 0.0000 1.2505 0.0000 8.8534
# 5 -2.0160 -6.6463 2.8897 0.0000 42.7923 0.0000
# 6 0.0000 0.0000 0.0000 8.8534 0.0000 -13.8289
#
#
#
# Elastic Compliance Matrix: (Units=1/GPa)
#
#
# Indices 1 2 3 4 5 6 
#
# 1 0.014911 0.000474 -0.005616 0.000000 0.001155 0.000000
# 2 0.000474 0.010313 -0.000356 0.000000 0.001648 0.000000
# 3 -0.005616 -0.000356 0.008754 0.000000 -0.000911 0.000000
# 4 0.000000 0.000000 0.000000 0.144540 0.000000 0.092536
# 5 0.001155 0.001648 -0.000911 0.000000 0.023741 0.000000
# 6 0.000000 0.000000 0.000000 0.092536 0.000000 -0.013070
#
#
# Mechanical properties :
#
#
# Convention : Reuss Voigt Hill
#
# Bulk Modulus (GPa) = 43.51054 50.15559 46.83306
# Shear Modulus (GPa) = 24.05629 24.75912 24.40770
#
# Velocity S-wave (km/s) = 3.21397 3.26058 3.23736
# Velocity P-wave (km/s) = 5.69701 5.97592 5.83813
#
# Compressibility (1/GPa) = 0.02298294
#
# Stress axis : x y z
#
# Youngs Moduli (GPa) = 67.06317 96.96298 114.23002
#
# Poissons Ratio (x) = -0.04593 0.64148
# Poissons Ratio (y) = -0.03177 0.04066
# Poissons Ratio (z) = 0.37661 0.03451
#
# Static dielectric constant tensor:
#      x y z
#    x 1.830900 0.000000 -0.007430 
#    y 0.000000 1.940830 0.000000 
#    z -0.007430 0.000000 1.848950 
# 
# From -- ./inp_files/164007.got.cif
#   From: 2010.05.17/outbox.cif.g08.bks.cpg/sg12_83_cif.got.tgz:164007.got - 2010.06.03 13:09:07.
