data_PCOD9178805
_publ_section_title
;
Structure prediction by ZEFSAII (Michael W. Deem and Ramdas Pophale) SiO2 
 PCOD9178805
Probable space group: C 2/M
;
_chemical_formula_sum "Si O2"
_cell_formula_units_Z 64
_cell_length_a 31.093100
_cell_length_b 8.580519
_cell_length_c 31.986328
_cell_angle_alpha 90.000000
_cell_angle_beta 151.570716
_cell_angle_gamma 90.000000
_cell_volume 4062.713446
_symmetry_space_group_name_H-M "C 2/M"
_symmetry_group_IT_number 12
_symmetry_cell_setting 'monoclinic'
loop_
_space_group_symop_operation_xyz
x,y,z
-x,y,-z
-x,-y,-z
x,-y,z
1/2+x,1/2+y,z
1/2-x,1/2+y,-z
1/2-x,1/2-y,-z
1/2+x,1/2-y,z
loop_
_atom_site_type_symbol
_atom_site_label
_atom_site_fract_x
_atom_site_fract_y
_atom_site_fract_z
Si Si1 0.872938 0.685898 0.068627
Si Si2 0.340629 0.311366 0.803859
Si Si3 0.127204 0.187781 0.749999
Si Si4 0.677210 0.187104 0.117966
Si Si5 0.643013 0.810480 0.612105
Si Si6 0.030006 0.813428 0.927051
Si Si7 0.483752 0.187923 0.418598
Si Si8 0.836082 0.811962 0.125663
O O1 0.879156 0.500000 0.071296
O O2 0.941998 0.760658 0.095224
O O3 0.882353 0.740586 0.124400
O O4 0.770439 0.730963 0.967353
O O5 0.339585 0.500000 0.804000
O O6 0.342817 0.252176 0.853247
O O7 0.246205 0.257772 0.702600
O O8 0.430007 0.261996 0.855496
O O9 0.223342 0.238939 0.812449
O O10 0.047741 0.247368 0.652506
O O11 0.124695 0.238356 0.796163
O O12 0.127037 0.000000 0.749617
O O13 0.676543 0.000000 0.118457
O O14 0.602756 0.243881 0.021467
O O15 0.590130 0.764866 0.609322
O O16 0.580525 0.760805 0.519845
O O17 0.643128 0.000000 0.611694
O O18 0.033959 0.000000 0.933070
O O19 0.483313 0.000000 0.416508
O O20 0.840634 0.000000 0.126830
#
# Coordination Sequence:
#
# PCOD9178805 Si02
#       8
#     8   8   8   8   8   8   8   8
#     4  10  19  33  50  70  94 121 156 197 237 277
#     4  10  20  34  49  67  93 128 167 200 231 274
#     4  10  19  31  46  69  99 127 153 188 235 283
#     4  11  21  33  46  66  97 131 164 197 232 269
#     4   8  15  29  47  68  92 120 157 199 235 272
#     4  11  22  33  48  68  93 129 167 197 231 276
#     4   9  16  28  49  70  90 121 158 194 235 279
#     4   9  18  33  49  67  94 124 155 190 234 285
#
# _framework density 15.753018000000001
#
# number of rings (size 3 to 8) (size 9 to 14) (size 15 to 20)
#    0.000    2.250    2.500    2.250    0.000    4.000 
#    0.000    1.875    0.000    0.000    0.000    0.875 
#    0.000    0.000    0.000    0.000    0.000    0.000 
#
# Total GULP energy -178475.572588 kJ/mol
# GULP energy per Si atom -5577.361643 kJ/mol
# Density = 1.571716 g / cm^3
# Si number density = 15.753018 Si / 1000 Ang^3
#
#
#
# Elastic Constant Matrix: (Units=GPa)
#
#
# Indices 1 2 3 4 5 6 
#
# 1 113.0141 16.8386 66.7432 0.0000 -11.8947 0.0000
# 2 16.8386 8.4821 14.4694 0.0000 -1.4079 -0.0001
# 3 66.7432 14.4694 99.5136 0.0000 -16.3564 0.0000
# 4 0.0000 0.0000 0.0000 18.0631 0.0000 -5.6086
# 5 -11.8947 -1.4079 -16.3564 0.0000 25.1246 0.0000
# 6 0.0000 -0.0001 0.0000 -5.6086 0.0000 20.7175
#
#
#
# Elastic Compliance Matrix: (Units=1/GPa)
#
#
# Indices 1 2 3 4 5 6 
#
# 1 0.016642 -0.018842 -0.008175 0.000000 0.001501 0.000000
# 2 -0.018842 0.179154 -0.014813 0.000000 -0.008524 0.000001
# 3 -0.008175 -0.014813 0.018940 0.000000 0.007630 0.000000
# 4 0.000000 0.000000 0.000000 0.060442 0.000000 0.016363
# 5 0.001501 -0.008524 0.007630 0.000000 0.045001 0.000000
# 6 0.000000 0.000001 0.000000 0.016363 0.000000 0.052698
#
#
# Mechanical properties :
#
#
# Convention : Reuss Voigt Hill
#
# Bulk Modulus (GPa) = 7.62921 46.34579 26.98750
# Shear Modulus (GPa) = 9.99540 20.97830 15.48685
#
# Velocity S-wave (km/s) = 2.52167 3.65321 3.13885
# Velocity P-wave (km/s) = 3.65130 6.87595 5.50503
#
# Compressibility (1/GPa) = 0.13107509
#
# Stress axis : x y z
#
# Youngs Moduli (GPa) = 60.08929 5.58178 52.79874
#
# Poissons Ratio (x) = 0.10517 0.43165
# Poissons Ratio (y) = 1.13221 0.78211
# Poissons Ratio (z) = 0.49125 0.08268
#
# Static dielectric constant tensor:
#      x y z
#    x 1.510310 0.000000 0.001230 
#    y 0.000000 1.534910 0.000000 
#    z 0.001230 0.000000 1.527230 
# 
# From -- ./inp_files/248256.got.cif
#   From: 2010.05.17/outbox.cif.g08.bks.cpg/sg12_125_cif.got.tgz:248256.got - 2010.06.03 13:09:07.
