data_PCOD9178843
_publ_section_title
;
Structure prediction by ZEFSAII (Michael W. Deem and Ramdas Pophale) SiO2 
 PCOD9178843
Probable space group: C 2/M
;
_chemical_formula_sum "Si O2"
_cell_formula_units_Z 64
_cell_length_a 27.953595
_cell_length_b 9.529541
_cell_length_c 13.618500
_cell_angle_alpha 90.000000
_cell_angle_beta 101.137432
_cell_angle_gamma 90.000000
_cell_volume 3559.440332
_symmetry_space_group_name_H-M "C 2/M"
_symmetry_group_IT_number 12
_symmetry_cell_setting 'monoclinic'
loop_
_space_group_symop_operation_xyz
x,y,z
-x,y,-z
-x,-y,-z
x,-y,z
1/2+x,1/2+y,z
1/2-x,1/2+y,-z
1/2-x,1/2-y,-z
1/2+x,1/2-y,z
loop_
_atom_site_type_symbol
_atom_site_label
_atom_site_fract_x
_atom_site_fract_y
_atom_site_fract_z
Si Si1 0.135670 0.169498 0.990319
Si Si2 0.081723 0.332276 0.648254
Si Si3 0.500546 0.163377 0.241201
Si Si4 0.938719 0.161318 0.878117
Si Si5 0.330466 0.832681 0.184576
Si Si6 0.150668 0.838035 0.315321
Si Si7 0.089046 0.336362 0.432522
Si Si8 0.779818 0.829755 0.821498
O O1 0.143925 0.249507 0.892942
O O2 0.135295 0.000000 0.978691
O O3 0.086662 0.208498 0.030726
O O4 0.182051 0.207128 0.077775
O O5 0.071052 0.500000 0.641550
O O6 0.136866 0.312964 0.705722
O O7 0.074803 0.280975 0.534663
O O8 0.045984 0.276727 0.718990
O O9 0.519242 0.246626 0.153858
O O10 0.543559 0.169682 0.339959
O O11 0.492564 0.000000 0.212187
O O12 0.893614 0.162702 0.782094
O O13 0.954554 0.000000 0.894523
O O14 0.274940 0.784224 0.177869
O O15 0.330278 0.000000 0.162603
O O16 0.132643 0.747991 0.399326
O O17 0.197084 0.782740 0.272829
O O18 0.158500 0.000000 0.346521
O O19 0.102569 0.500000 0.448361
O O20 0.779598 0.000000 0.816863
#
# Coordination Sequence:
#
# PCOD9178843 Si02
#       8
#     8   8   8   8   8   8   8   8
#     4   9  17  31  49  68  91 116 144 181 224 263
#     4   9  18  31  45  64  92 121 147 181 223 262
#     4   9  16  28  48  69  87 113 150 186 218 256
#     4   8  15  28  46  67  90 114 140 178 226 267
#     4  10  19  31  47  66  89 119 153 182 214 261
#     4   8  14  27  46  67  90 113 142 180 220 262
#     4   9  16  28  47  68  89 115 148 183 220 261
#     4   8  15  29  49  69  89 117 147 177 219 267
#
# _framework density 17.980353000000001
#
# number of rings (size 3 to 8) (size 9 to 14) (size 15 to 20)
#    0.000    3.250    0.000    2.250    0.000    2.000 
#    0.000    5.625    0.000    6.750    0.000    0.000 
#    0.000    0.000    0.000    0.000    0.000    0.000 
#
# Total GULP energy -178215.185692 kJ/mol
# GULP energy per Si atom -5569.224553 kJ/mol
# Density = 1.793943 g / cm^3
# Si number density = 17.980353 Si / 1000 Ang^3
#
#
#
# Elastic Constant Matrix: (Units=GPa)
#
#
# Indices 1 2 3 4 5 6 
#
# 1 49.5126 28.3953 56.6589 0.0000 -24.7808 0.0000
# 2 28.3953 23.5534 17.0578 0.0000 -8.8070 0.0000
# 3 56.6589 17.0578 22.5661 0.0000 -22.1389 0.0000
# 4 0.0000 0.0000 0.0000 23.1181 0.0000 -11.6017
# 5 -24.7808 -8.8070 -22.1389 0.0000 21.0316 0.0000
# 6 0.0000 0.0000 0.0000 -11.6017 0.0000 18.2298
#
#
#
# Elastic Compliance Matrix: (Units=1/GPa)
#
#
# Indices 1 2 3 4 5 6 
#
# 1 0.006676 -0.022287 0.041407 0.000000 0.042121 0.000000
# 2 -0.022287 0.084200 -0.034815 0.000000 -0.027648 0.000000
# 3 0.041407 -0.034815 -0.006994 0.000000 0.026847 0.000000
# 4 0.000000 0.000000 0.000000 0.063554 0.000000 0.040447
# 5 0.042121 -0.027648 0.026847 0.000000 0.113860 0.000000
# 6 0.000000 0.000000 0.000000 0.040447 0.000000 0.080596
#
#
# Mechanical properties :
#
#
# Convention : Reuss Voigt Hill
#
# Bulk Modulus (GPa) = 19.05029 33.31733 26.18381
# Shear Modulus (GPa) = 12.79496 12.04390 12.41943
#
# Velocity S-wave (km/s) = 2.67049 2.59093 2.63101
# Velocity P-wave (km/s) = 4.48629 5.24601 4.88095
#
# Compressibility (1/GPa) = 0.05249265
#
# Stress axis : x y z
#
# Youngs Moduli (GPa) = 149.77926 11.87650 -142.97247
#
# Poissons Ratio (x) = 0.26469 5.92000
# Poissons Ratio (y) = 3.33806 -4.97755
# Poissons Ratio (z) = -6.20185 0.41348
#
# Static dielectric constant tensor:
#      x y z
#    x 1.637020 0.000000 -0.008490 
#    y 0.000000 1.602020 0.000000 
#    z -0.008490 0.000000 1.613020 
# 
# From -- ./inp_files/182110.got.cif
#   From: 2010.05.17/outbox.cif.g08.bks.cpg/sg12_92_cif.got.tgz:182110.got - 2010.06.03 13:09:07.
