data_PCOD9178000
_publ_section_title
;
Structure prediction by ZEFSAII (Michael W. Deem and Ramdas Pophale) SiO2 
 PCOD9178000
Probable space group: C 2/M
;
_chemical_formula_sum "Si O2"
_cell_formula_units_Z 56
_cell_length_a 33.820760
_cell_length_b 8.965581
_cell_length_c 18.799949
_cell_angle_alpha 90.000000
_cell_angle_beta 143.497218
_cell_angle_gamma 90.000000
_cell_volume 3391.052908
_symmetry_space_group_name_H-M "C 2/M"
_symmetry_group_IT_number 12
_symmetry_cell_setting 'monoclinic'
loop_
_space_group_symop_operation_xyz
x,y,z
-x,y,-z
-x,-y,-z
x,-y,z
1/2+x,1/2+y,z
1/2-x,1/2+y,-z
1/2-x,1/2-y,-z
1/2+x,1/2-y,z
loop_
_atom_site_type_symbol
_atom_site_label
_atom_site_fract_x
_atom_site_fract_y
_atom_site_fract_z
Si Si1 0.445886 0.174544 0.320079
Si Si2 0.485781 0.178633 0.088074
Si Si3 0.747784 0.322846 0.419248
Si Si4 0.902356 0.821315 0.842439
Si Si5 0.511348 0.323617 0.756823
Si Si6 0.900834 0.325790 0.404732
Si Si7 0.360108 0.323872 0.485277
O O1 0.445080 0.269205 0.247191
O O2 0.522242 0.181365 0.458258
O O3 0.401737 0.224456 0.323741
O O4 0.431791 0.000000 0.285450
O O5 0.554965 0.249604 0.159935
O O6 0.473483 0.232572 0.150184
O O7 0.487935 0.000000 0.085850
O O8 0.431282 0.246040 0.955304
O O9 0.755734 0.500000 0.437666
O O10 0.750000 0.250000 0.500000
O O11 0.675283 0.293495 0.280977
O O12 0.805604 0.258391 0.453497
O O13 0.913739 0.000000 0.860406
O O14 0.519456 0.500000 0.780484
O O15 0.433993 0.296231 0.623892
O O16 0.881510 0.500000 0.379010
O O17 0.860645 0.233751 0.404828
O O18 0.348509 0.500000 0.470612
#
# Coordination Sequence:
#
# PCOD9178000 Si02
#       7
#     8   8   8   8   8   8   8
#     4   8  14  25  42  65  92 124 159 196 236 279
#     4  11  21  33  52  74  94 122 158 197 238 281
#     4  11  23  36  52  72  96 127 160 195 236 279
#     4  10  21  37  53  70  94 124 157 195 239 283
#     4  10  19  30  45  69 100 131 160 195 238 281
#     4   8  14  26  43  63  92 126 159 195 236 280
#     4  10  20  31  46  69  98 131 164 196 234 280
#
# _framework density 16.514044999999999
#
# number of rings (size 3 to 8) (size 9 to 14) (size 15 to 20)
#    0.000    2.286    0.000    5.571    0.000    8.000 
#    0.000    2.857    0.000    0.000    0.000    1.000 
#    0.000    0.000    0.000    0.000    0.000    0.000 
#
# Total GULP energy -156158.457545 kJ/mol
# GULP energy per Si atom -5577.087769 kJ/mol
# Density = 1.647646 g / cm^3
# Si number density = 16.514045 Si / 1000 Ang^3
#
#
#
# Elastic Constant Matrix: (Units=GPa)
#
#
# Indices 1 2 3 4 5 6 
#
# 1 132.2992 60.8534 38.1666 0.0000 -18.3198 0.0000
# 2 60.8534 83.3792 36.8112 0.0000 -8.1685 0.0000
# 3 38.1666 36.8112 29.8889 0.0000 -6.6106 0.0000
# 4 0.0000 0.0000 0.0000 20.3158 0.0000 -5.1813
# 5 -18.3198 -8.1685 -6.6106 0.0000 23.1819 0.0000
# 6 0.0000 0.0000 0.0000 -5.1813 0.0000 32.3621
#
#
#
# Elastic Compliance Matrix: (Units=1/GPa)
#
#
# Indices 1 2 3 4 5 6 
#
# 1 0.013507 -0.004912 -0.009840 0.000000 0.006137 0.000000
# 2 -0.004912 0.028073 -0.028789 0.000000 -0.002199 0.000000
# 3 -0.009840 -0.028789 0.082733 0.000000 0.005672 0.000000
# 4 0.000000 0.000000 0.000000 0.051318 0.000000 0.008216
# 5 0.006137 -0.002199 0.005672 0.000000 0.048829 0.000000
# 6 0.000000 0.000000 0.000000 0.008216 0.000000 0.032216
#
#
# Mechanical properties :
#
#
# Convention : Reuss Voigt Hill
#
# Bulk Modulus (GPa) = 26.85934 57.46997 42.16465
# Shear Modulus (GPa) = 14.03831 22.48770 18.26300
#
# Velocity S-wave (km/s) = 2.91878 3.69417 3.32913
# Velocity P-wave (km/s) = 5.25917 7.28506 6.35338
#
# Compressibility (1/GPa) = 0.03723100
#
# Stress axis : x y z
#
# Youngs Moduli (GPa) = 74.03808 35.62160 12.08701
#
# Poissons Ratio (x) = 0.17497 0.11894
# Poissons Ratio (y) = 0.36368 0.34797
# Poissons Ratio (z) = 0.72855 1.02550
#
# Static dielectric constant tensor:
#      x y z
#    x 1.558740 0.000000 -0.009950 
#    y 0.000000 1.549970 0.000000 
#    z -0.009950 0.000000 1.541850 
# 
# From -- ./inp_files/295182.got.cif
#   From: 2010.05.17/outbox.cif.g08.bks.cpg/sg12_148_cif.got.tgz:295182.got - 2010.06.03 13:09:07.
