data_PCOD9178711
_publ_section_title
;
Structure prediction by ZEFSAII (Michael W. Deem and Ramdas Pophale) SiO2 
 PCOD9178711
Probable space group: C 2/M
;
_chemical_formula_sum "Si O2"
_cell_formula_units_Z 56
_cell_length_a 28.926874
_cell_length_b 7.892519
_cell_length_c 12.237924
_cell_angle_alpha 90.000000
_cell_angle_beta 105.758999
_cell_angle_gamma 90.000000
_cell_volume 2688.971431
_symmetry_space_group_name_H-M "C 2/M"
_symmetry_group_IT_number 12
_symmetry_cell_setting 'monoclinic'
loop_
_space_group_symop_operation_xyz
x,y,z
-x,y,-z
-x,-y,-z
x,-y,z
1/2+x,1/2+y,z
1/2-x,1/2+y,-z
1/2-x,1/2-y,-z
1/2+x,1/2-y,z
loop_
_atom_site_type_symbol
_atom_site_label
_atom_site_fract_x
_atom_site_fract_y
_atom_site_fract_z
Si Si1 0.576504 0.204597 0.284045
Si Si2 0.761023 0.801914 0.328093
Si Si3 0.821416 0.799284 0.572159
Si Si4 0.014357 0.707015 0.630984
Si Si5 0.210490 0.693748 0.888101
Si Si6 0.555732 0.793428 0.030755
Si Si7 0.397471 0.208108 0.168352
O O1 0.622840 0.262526 0.380032
O O2 0.527295 0.258596 0.310797
O O3 0.576185 0.000000 0.282934
O O4 0.579176 0.262582 0.159921
O O5 0.798075 0.736341 0.444067
O O6 0.708735 0.780791 0.348196
O O7 0.767928 0.711419 0.218493
O O8 0.770220 0.000000 0.315098
O O9 0.812763 0.000000 0.570725
O O10 0.014802 0.500000 0.629047
O O11 0.065789 0.761892 0.712222
O O12 0.000000 0.763674 0.500000
O O13 0.201659 0.500000 0.909573
O O14 0.157027 0.772594 0.855241
O O15 0.250000 0.750000 0.000000
O O16 0.581175 0.739336 0.935589
O O17 0.556447 0.000000 0.029924
O O18 0.500000 0.742615 0.000000
O O19 0.398110 0.000000 0.171586
#
# Coordination Sequence:
#
# PCOD9178711 Si02
#       7
#     8   8   8   8   8   8   8
#     4  10  19  30  55  86 111 146 188 234 285 341
#     4  10  22  42  63  82 110 149 197 245 292 349
#     4  10  22  39  60  86 116 148 185 239 301 359
#     4   9  17  29  48  81 118 148 189 240 284 334
#     4  11  24  39  59  86 120 158 199 245 295 350
#     4   9  15  28  49  77 110 141 185 234 274 322
#     4   9  18  32  50  77 113 152 190 237 287 333
#
# _framework density 20.825806
#
# number of rings (size 3 to 8) (size 9 to 14) (size 15 to 20)
#    0.000    2.286    1.429    1.286    4.000    1.714 
#    0.000    0.000    0.000    2.571    0.000    0.000 
#    0.000    0.000    0.000    0.000    0.000    0.000 
#
# Total GULP energy -156313.825803 kJ/mol
# GULP energy per Si atom -5582.636636 kJ/mol
# Density = 2.077841 g / cm^3
# Si number density = 20.825806 Si / 1000 Ang^3
#
#
#
# Elastic Constant Matrix: (Units=GPa)
#
#
# Indices 1 2 3 4 5 6 
#
# 1 113.4893 4.7649 78.7547 0.0000 27.2308 0.0000
# 2 4.7649 16.0471 8.5914 0.0000 5.3315 0.0000
# 3 78.7547 8.5914 147.8696 0.0000 4.9237 0.0000
# 4 0.0000 0.0000 0.0000 9.7346 0.0000 7.0512
# 5 27.2308 5.3315 4.9237 0.0000 30.0607 0.0000
# 6 0.0000 0.0000 0.0000 7.0512 0.0000 7.4248
#
#
#
# Elastic Compliance Matrix: (Units=1/GPa)
#
#
# Indices 1 2 3 4 5 6 
#
# 1 0.019912 0.005371 -0.010341 0.000000 -0.017296 0.000000
# 2 0.005371 0.069492 -0.006360 0.000000 -0.016148 0.000000
# 3 -0.010341 -0.006360 0.012358 0.000000 0.008472 0.000000
# 4 0.000000 0.000000 0.000000 0.329143 0.000000 -0.312580
# 5 -0.017296 -0.016148 0.008472 0.000000 0.050411 0.000000
# 6 0.000000 0.000000 0.000000 -0.312580 0.000000 0.431535
#
#
# Mechanical properties :
#
#
# Convention : Reuss Voigt Hill
#
# Bulk Modulus (GPa) = 12.64213 51.29200 31.96706
# Shear Modulus (GPa) = 5.19816 21.79702 13.49759
#
# Velocity S-wave (km/s) = 1.58159 3.23868 2.54858
# Velocity P-wave (km/s) = 3.06901 6.21836 4.90341
#
# Compressibility (1/GPa) = 0.07910060
#
# Stress axis : x y z
#
# Youngs Moduli (GPa) = 50.22024 14.39008 80.91982
#
# Poissons Ratio (x) = -0.07728 0.83682
# Poissons Ratio (y) = -0.26971 0.51467
# Poissons Ratio (z) = 0.51934 0.09152
#
# Static dielectric constant tensor:
#      x y z
#    x 1.735930 0.000000 0.021410 
#    y 0.000000 1.763440 0.000000 
#    z 0.021410 0.000000 1.733980 
# 
# From -- ./inp_files/186832.got.cif
#   From: 2010.05.17/outbox.cif.g08.bks.cpg/sg12_94_cif.got.tgz:186832.got - 2010.06.03 13:09:07.
