data_PCOD9178418
_publ_section_title
;
Structure prediction by ZEFSAII (Michael W. Deem and Ramdas Pophale) SiO2 
 PCOD9178418
Probable space group: C 2/M
;
_chemical_formula_sum "Si O2"
_cell_formula_units_Z 64
_cell_length_a 5.339277
_cell_length_b 26.972803
_cell_length_c 22.958895
_cell_angle_alpha 90.000000
_cell_angle_beta 103.719555
_cell_angle_gamma 90.000000
_cell_volume 3212.093049
_symmetry_space_group_name_H-M "C 2/M"
_symmetry_group_IT_number 12
_symmetry_cell_setting 'monoclinic'
loop_
_space_group_symop_operation_xyz
x,y,z
-x,y,-z
-x,-y,-z
x,-y,z
1/2+x,1/2+y,z
1/2-x,1/2+y,-z
1/2-x,1/2-y,-z
1/2+x,1/2-y,z
loop_
_atom_site_type_symbol
_atom_site_label
_atom_site_fract_x
_atom_site_fract_y
_atom_site_fract_z
Si Si1 0.492690 0.197451 0.562610
Si Si2 0.611462 0.893290 0.071385
Si Si3 0.921570 0.721652 0.926845
Si Si4 0.218826 0.940685 0.669766
Si Si5 0.121337 0.233548 0.682684
Si Si6 0.336365 0.559796 0.875871
Si Si7 0.216726 0.940223 0.260864
Si Si8 0.030358 0.853087 0.597170
O O1 0.500000 0.223180 0.500000
O O2 0.549302 0.234032 0.619876
O O3 0.225729 0.170138 0.561122
O O4 0.731456 0.159288 0.572579
O O5 0.622385 0.835718 0.090733
O O6 0.410120 0.921942 0.101487
O O7 0.894976 0.917180 0.087520
O O8 0.500000 0.895246 0.000000
O O9 0.661507 0.753494 0.907244
O O10 0.000000 0.722303 0.000000
O O11 0.513021 0.923314 0.696173
O O12 0.095081 0.910044 0.610393
O O13 0.035059 0.929142 0.714890
O O14 0.216163 0.000000 0.661038
O O15 0.401928 0.251416 0.715125
O O16 0.105828 0.177285 0.660582
O O17 0.350606 0.500000 0.879268
O O18 0.305708 0.575920 0.806898
O O19 0.235023 0.000000 0.260369
#
# Coordination Sequence:
#
# PCOD9178418 Si02
#       8
#     8   8   8   8   8   8   8   8
#     4  10  19  31  48  72 103 135 166 199 238 289
#     4  11  22  34  52  81 113 147 182 212 256 318
#     4   9  17  31  50  72  97 129 174 225 261 282
#     4  10  19  34  55  76  97 121 163 221 267 300
#     4   8  16  27  42  67  96 124 157 194 236 279
#     4  11  22  36  53  77 112 146 177 213 259 326
#     4   9  19  35  55  76  96 126 170 220 264 297
#     4  10  19  30  48  74  97 124 161 202 250 294
#
# _framework density 19.924700999999999
#
# number of rings (size 3 to 8) (size 9 to 14) (size 15 to 20)
#    0.000    2.250    0.000    3.375    0.000   10.000 
#    0.000    0.000    0.000    2.250    0.000   52.500 
#    0.000    0.000    0.000    0.000    0.000    0.000 
#
# Total GULP energy -178558.958937 kJ/mol
# GULP energy per Si atom -5579.967467 kJ/mol
# Density = 1.987935 g / cm^3
# Si number density = 19.924701 Si / 1000 Ang^3
#
#
#
# Elastic Constant Matrix: (Units=GPa)
#
#
# Indices 1 2 3 4 5 6 
#
# 1 104.4440 7.7278 -13.9192 0.0000 7.1008 0.0000
# 2 7.7278 74.5598 4.4549 0.0000 2.5973 0.0000
# 3 -13.9192 4.4549 15.2170 0.0000 0.8227 0.0000
# 4 0.0000 0.0000 0.0000 -19.8622 0.0000 -4.5141
# 5 7.1008 2.5973 0.8227 0.0000 20.2847 0.0000
# 6 0.0000 0.0000 0.0000 -4.5141 0.0000 26.4836
#
#
#
# Elastic Compliance Matrix: (Units=1/GPa)
#
#
# Indices 1 2 3 4 5 6 
#
# 1 0.011489 -0.001714 0.011241 0.000000 -0.004258 0.000000
# 2 -0.001714 0.013958 -0.005602 0.000000 -0.000960 0.000000
# 3 0.011241 -0.005602 0.077983 0.000000 -0.006380 0.000000
# 4 0.000000 0.000000 0.000000 -0.048469 0.000000 -0.008261
# 5 -0.004258 -0.000960 -0.006380 0.000000 0.051170 0.000000
# 6 0.000000 0.000000 0.000000 -0.008261 0.000000 0.036351
#
#
# Mechanical properties :
#
#
# Convention : Reuss Voigt Hill
#
# Bulk Modulus (GPa) = 8.98637 21.19420 15.09028
# Shear Modulus (GPa) = 29.11615 18.44507 23.78061
#
# Velocity S-wave (km/s) = 3.82685 3.04590 3.45849
# Velocity P-wave (km/s) = 4.90371 4.79898 4.85163
#
# Compressibility (1/GPa) = 0.11127965
#
# Stress axis : x y z
#
# Youngs Moduli (GPa) = 87.04032 71.64412 12.82325
#
# Poissons Ratio (x) = 0.12280 -0.14415
# Poissons Ratio (y) = 0.14919 0.07184
# Poissons Ratio (z) = -0.97843 0.40137
#
# Static dielectric constant tensor:
#      x y z
#    x 1.744050 0.000000 0.009930 
#    y 0.000000 1.705770 0.000000 
#    z 0.009930 0.000000 1.715770 
# 
# From -- ./inp_files/331451.got.cif
#   From: 2010.05.17/outbox.cif.g08.bks.cpg/sg12_166_cif.got.tgz:331451.got - 2010.06.03 13:09:07.
