data_PCOD9178108
_publ_section_title
;
Structure prediction by ZEFSAII (Michael W. Deem and Ramdas Pophale) SiO2 
 PCOD9178108
Probable space group: C 2/M
;
_chemical_formula_sum "Si O2"
_cell_formula_units_Z 28
_cell_length_a 5.279625
_cell_length_b 25.286653
_cell_length_c 10.347454
_cell_angle_alpha 90.000000
_cell_angle_beta 73.452066
_cell_angle_gamma 90.000000
_cell_volume 1324.210736
_symmetry_space_group_name_H-M "C 2/M"
_symmetry_group_IT_number 12
_symmetry_cell_setting 'monoclinic'
loop_
_space_group_symop_operation_xyz
x,y,z
-x,y,-z
-x,-y,-z
x,-y,z
1/2+x,1/2+y,z
1/2-x,1/2+y,-z
1/2-x,1/2-y,-z
1/2+x,1/2-y,z
loop_
_atom_site_type_symbol
_atom_site_label
_atom_site_fract_x
_atom_site_fract_y
_atom_site_fract_z
Si Si1 0.611902 0.563503 0.349038
Si Si2 0.000000 0.368200 0.000000
Si Si3 0.782709 0.228264 0.847822
Si Si4 0.215656 0.562754 0.183542
O O1 0.500000 0.585317 0.500000
O O2 0.569378 0.500000 0.357432
O O3 0.438288 0.580838 0.251553
O O4 0.924779 0.570475 0.288759
O O5 0.806009 0.404436 0.944808
O O6 0.164399 0.330140 0.879327
O O7 0.593041 0.262596 0.783096
O O8 0.750000 0.250000 0.000000
O O9 0.247510 0.500000 0.151355
#
# Coordination Sequence:
#
# PCOD9178108 Si02
#       4
#     8   4   8   8
#     4   9  18  33  48  61  84 123 168 200 214 240
#     4  10  19  30  46  70 104 122 139 180 238 286
#     4   8  16  29  44  62  88 117 152 184 211 266
#     4  10  20  30  45  69  96 126 151 179 226 278
#
# _framework density 21.144672
#
# number of rings (size 3 to 8) (size 9 to 14) (size 15 to 20)
#    0.000    3.143    0.000    1.286    0.000   13.714 
#    0.000    4.286    0.000    0.000    0.000    0.000 
#    0.000  205.714    0.000    0.000    0.000    0.000 
#
# Total GULP energy -78060.976838 kJ/mol
# GULP energy per Si atom -5575.784060 kJ/mol
# Density = 2.109655 g / cm^3
# Si number density = 21.144672 Si / 1000 Ang^3
#
#
#
# Elastic Constant Matrix: (Units=GPa)
#
#
# Indices 1 2 3 4 5 6 
#
# 1 152.1901 24.4536 27.8291 0.0000 11.8091 0.0000
# 2 24.4536 74.1016 17.1087 0.0000 2.6855 0.0000
# 3 27.8291 17.1087 57.1978 0.0000 2.8512 0.0000
# 4 0.0000 0.0000 0.0000 -5.6640 0.0000 -16.4982
# 5 11.8091 2.6855 2.8512 0.0000 14.2473 0.0000
# 6 0.0000 0.0000 0.0000 -16.4982 0.0000 -20.5757
#
#
#
# Elastic Compliance Matrix: (Units=1/GPa)
#
#
# Indices 1 2 3 4 5 6 
#
# 1 0.007826 -0.001682 -0.003027 0.000000 -0.005564 0.000000
# 2 -0.001682 0.014908 -0.003606 0.000000 -0.000694 0.000000
# 3 -0.003027 -0.003606 0.020076 0.000000 -0.000829 0.000000
# 4 0.000000 0.000000 0.000000 0.132194 0.000000 -0.105997
# 5 -0.005564 -0.000694 -0.000829 0.000000 0.075097 0.000000
# 6 0.000000 0.000000 0.000000 -0.105997 0.000000 0.036390
#
#
# Mechanical properties :
#
#
# Convention : Reuss Voigt Hill
#
# Bulk Modulus (GPa) = 38.19845 46.91916 42.55881
# Shear Modulus (GPa) = 16.03343 11.87472 13.95407
#
# Velocity S-wave (km/s) = 2.75666 2.37237 2.57170
# Velocity P-wave (km/s) = 5.31383 5.45362 5.38418
#
# Compressibility (1/GPa) = 0.02617907
#
# Stress axis : x y z
#
# Youngs Moduli (GPa) = 127.77396 67.07885 49.81054
#
# Poissons Ratio (x) = 0.11283 0.15079
# Poissons Ratio (y) = 0.21493 0.17962
# Poissons Ratio (z) = 0.38681 0.24190
#
# Static dielectric constant tensor:
#      x y z
#    x 2.239500 0.000000 -0.316830 
#    y 0.000000 1.799290 0.000000 
#    z -0.316830 0.000000 1.954300 
# 
# From -- ./inp_files/33874.got.cif
#   From: 2010.05.17/outbox.cif.g08.bks.cpg/sg12_17_cif.got.tgz:33874.got - 2010.06.03 13:09:07.
