data_PCOD9178510
_publ_section_title
;
Structure prediction by ZEFSAII (Michael W. Deem and Ramdas Pophale) SiO2 
 PCOD9178510
Probable space group: C 2/M
;
_chemical_formula_sum "Si O2"
_cell_formula_units_Z 56
_cell_length_a 34.139606
_cell_length_b 7.379149
_cell_length_c 16.368452
_cell_angle_alpha 90.000000
_cell_angle_beta 142.925953
_cell_angle_gamma 90.000000
_cell_volume 2485.874756
_symmetry_space_group_name_H-M "C 2/M"
_symmetry_group_IT_number 12
_symmetry_cell_setting 'monoclinic'
loop_
_space_group_symop_operation_xyz
x,y,z
-x,y,-z
-x,-y,-z
x,-y,z
1/2+x,1/2+y,z
1/2-x,1/2+y,-z
1/2-x,1/2-y,-z
1/2+x,1/2-y,z
loop_
_atom_site_type_symbol
_atom_site_label
_atom_site_fract_x
_atom_site_fract_y
_atom_site_fract_z
Si Si1 0.707544 0.716344 0.009572
Si Si2 0.071295 0.779181 0.521888
Si Si3 0.215251 0.782338 0.201057
Si Si4 0.923503 0.779245 0.283790
Si Si5 0.934386 0.779051 0.788984
Si Si6 0.579203 0.720761 0.045606
Si Si7 0.652307 0.714530 0.503241
O O1 0.703896 0.500000 0.010696
O O2 0.732890 0.784560 0.139065
O O3 0.750000 0.750000 0.000000
O O4 0.634602 0.783090 0.870221
O O5 0.089497 0.722877 0.644052
O O6 0.117893 0.713300 0.528007
O O7 0.996470 0.724773 0.382553
O O8 0.072636 0.000000 0.524886
O O9 0.143680 0.717368 0.106896
O O10 0.271074 0.738145 0.358678
O O11 0.212524 0.000000 0.194461
O O12 0.923340 0.000000 0.282561
O O13 0.918948 0.724345 0.856105
O O14 0.882828 0.714936 0.636313
O O15 0.933653 0.000000 0.788489
O O16 0.008798 0.724490 0.893803
O O17 0.579670 0.500000 0.044370
O O18 0.639951 0.500000 0.482341
#
# Coordination Sequence:
#
# PCOD9178510 Si02
#       7
#     8   8   8   8   8   8   8
#     4  10  20  32  48  69  96 130 165 200 242 291
#     4   8  14  24  41  66  92 113 146 200 247 275
#     4  10  21  33  48  72 103 136 164 196 245 303
#     4   8  14  25  41  63  88 116 151 196 243 278
#     4   8  15  28  50  76  99 126 163 209 253 287
#     4   8  15  30  49  73 103 129 160 205 252 296
#     4  10  19  30  49  75  99 127 164 208 248 287
#
# _framework density 22.527280999999999
#
# number of rings (size 3 to 8) (size 9 to 14) (size 15 to 20)
#    0.000    3.143    0.000    2.571    2.000    2.286 
#    0.000    0.000    0.000    1.714    0.000    6.000 
#    0.000    0.000    0.000    0.000    0.000    0.000 
#
# Total GULP energy -156316.765495 kJ/mol
# GULP energy per Si atom -5582.741625 kJ/mol
# Density = 2.247601 g / cm^3
# Si number density = 22.527281 Si / 1000 Ang^3
#
#
#
# Elastic Constant Matrix: (Units=GPa)
#
#
# Indices 1 2 3 4 5 6 
#
# 1 80.8864 -3.1530 43.8244 0.0000 4.7237 0.0000
# 2 -3.1530 77.2628 -1.3810 0.0000 -4.3162 0.0000
# 3 43.8244 -1.3810 167.2533 0.0000 -7.4484 0.0000
# 4 0.0000 0.0000 0.0000 5.6694 0.0000 1.4943
# 5 4.7237 -4.3162 -7.4484 0.0000 16.7437 0.0000
# 6 0.0000 0.0000 0.0000 1.4943 0.0000 -1.5295
#
#
#
# Elastic Compliance Matrix: (Units=1/GPa)
#
#
# Indices 1 2 3 4 5 6 
#
# 1 0.014998 0.000199 -0.004198 0.000000 -0.006047 0.000000
# 2 0.000199 0.013146 0.000209 0.000000 0.003426 0.000000
# 3 -0.004198 0.000209 0.007280 0.000000 0.004477 0.000000
# 4 0.000000 0.000000 0.000000 0.140266 0.000000 0.137040
# 5 -0.006047 0.003426 0.004477 0.000000 0.064304 0.000000
# 6 0.000000 0.000000 0.000000 0.137040 0.000000 -0.519940
#
#
# Mechanical properties :
#
#
# Convention : Reuss Voigt Hill
#
# Bulk Modulus (GPa) = 35.91273 44.88702 40.39987
# Shear Modulus (GPa) = -19.00528 23.25088 2.12280
#
# Velocity S-wave (km/s) = -2.90773 3.21615 0.97179
# Velocity P-wave (km/s) = 2.16871 5.81037 4.38541
#
# Compressibility (1/GPa) = 0.02784528
#
# Stress axis : x y z
#
# Youngs Moduli (GPa) = 66.67479 76.06835 137.36472
#
# Poissons Ratio (x) = -0.01515 0.57659
# Poissons Ratio (y) = -0.01328 -0.02870
# Poissons Ratio (z) = 0.27987 -0.01589
#
# Static dielectric constant tensor:
#      x y z
#    x 1.819730 0.000000 -0.016710 
#    y 0.000000 1.908050 0.000000 
#    z -0.016710 0.000000 1.832790 
# 
# From -- ./inp_files/250589.got.cif
#   From: 2010.05.17/outbox.cif.g08.bks.cpg/sg12_126_cif.got.tgz:250589.got - 2010.06.03 13:09:07.
