data_PCOD9178283
_publ_section_title
;
Structure prediction by ZEFSAII (Michael W. Deem and Ramdas Pophale) SiO2 
 PCOD9178283
Probable space group: C 2/M
;
_chemical_formula_sum "Si O2"
_cell_formula_units_Z 64
_cell_length_a 20.157447
_cell_length_b 8.046699
_cell_length_c 22.110772
_cell_angle_alpha 90.000000
_cell_angle_beta 102.355019
_cell_angle_gamma 90.000000
_cell_volume 3503.328583
_symmetry_space_group_name_H-M "C 2/M"
_symmetry_group_IT_number 12
_symmetry_cell_setting 'monoclinic'
loop_
_space_group_symop_operation_xyz
x,y,z
-x,y,-z
-x,-y,-z
x,-y,z
1/2+x,1/2+y,z
1/2-x,1/2+y,-z
1/2-x,1/2-y,-z
1/2+x,1/2-y,z
loop_
_atom_site_type_symbol
_atom_site_label
_atom_site_fract_x
_atom_site_fract_y
_atom_site_fract_z
Si Si1 0.731357 0.301541 0.204348
Si Si2 0.496122 0.698813 0.692774
Si Si3 0.653725 0.197756 0.308956
Si Si4 0.185488 0.698591 0.448634
Si Si5 0.883430 0.799011 0.198693
Si Si6 0.850852 0.804259 0.063678
Si Si7 0.035390 0.199086 0.446578
Si Si8 0.301809 0.702781 0.932108
O O1 0.732903 0.500000 0.205743
O O2 0.697695 0.241321 0.259288
O O3 0.808642 0.241875 0.209471
O O4 0.688366 0.251219 0.135974
O O5 0.504947 0.500000 0.690464
O O6 0.422467 0.731185 0.707323
O O7 0.557350 0.764161 0.745878
O O8 0.493048 0.764858 0.623194
O O9 0.687146 0.256262 0.378840
O O10 0.647547 0.000000 0.311063
O O11 0.181588 0.500000 0.447838
O O12 0.250000 0.750000 0.500000
O O13 0.115513 0.766886 0.462305
O O14 0.888688 0.734609 0.130244
O O15 0.888097 0.000000 0.196877
O O16 0.771597 0.778284 0.065431
O O17 0.866546 0.000000 0.064191
O O18 0.853792 0.741600 0.994942
O O19 0.000000 0.266078 0.500000
O O20 0.025387 0.000000 0.443924
O O21 0.296730 0.500000 0.934496
#
# Coordination Sequence:
#
# PCOD9178283 Si02
#       8
#     8   8   8   8   8   8   8   8
#     4  10  19  30  47  72  99 126 160 201 241 282
#     4   9  18  33  51  70  95 127 161 195 234 283
#     4  10  21  36  52  70  95 128 163 196 234 282
#     4  10  21  36  54  75  98 125 158 196 236 280
#     4   9  17  29  47  72  99 126 159 200 243 286
#     4   8  13  23  40  62  90 122 154 191 237 284
#     4   9  18  33  52  73  98 128 159 192 234 282
#     4   8  14  24  39  62  91 121 154 193 236 281
#
# _framework density 18.268339999999998
#
# number of rings (size 3 to 8) (size 9 to 14) (size 15 to 20)
#    0.000    2.875    0.000    1.125    0.000    3.750 
#    0.000    2.500    0.000    0.750    0.000    5.250 
#    0.000    0.000    0.000    0.000    0.000    0.000 
#
# Total GULP energy -178161.844523 kJ/mol
# GULP energy per Si atom -5567.557641 kJ/mol
# Density = 1.822676 g / cm^3
# Si number density = 18.268340 Si / 1000 Ang^3
#
#
#
# Elastic Constant Matrix: (Units=GPa)
#
#
# Indices 1 2 3 4 5 6 
#
# 1 66.3082 -3.1296 93.9965 0.0000 12.1566 0.0000
# 2 -3.1296 11.3298 4.9505 0.0000 3.5409 0.0000
# 3 93.9965 4.9505 176.9083 0.0000 15.1213 0.0000
# 4 0.0000 0.0000 0.0000 14.0677 0.0000 -1.5055
# 5 12.1566 3.5409 15.1213 0.0000 26.8295 0.0000
# 6 0.0000 0.0000 0.0000 -1.5055 0.0000 21.1991
#
#
#
# Elastic Compliance Matrix: (Units=1/GPa)
#
#
# Indices 1 2 3 4 5 6 
#
# 1 0.082843 0.047996 -0.043716 0.000000 -0.019232 0.000000
# 2 0.047996 0.120308 -0.026950 0.000000 -0.022436 0.000000
# 3 -0.043716 -0.026950 0.029036 0.000000 0.007000 0.000000
# 4 0.000000 0.000000 0.000000 0.071629 0.000000 0.005087
# 5 -0.019232 -0.022436 0.007000 0.000000 0.045002 0.000000
# 6 0.000000 0.000000 0.000000 0.005087 0.000000 0.047533
#
#
# Mechanical properties :
#
#
# Convention : Reuss Voigt Hill
#
# Bulk Modulus (GPa) = 5.35201 49.57568 27.46384
# Shear Modulus (GPa) = 9.92112 23.00119 16.46116
#
# Velocity S-wave (km/s) = 2.33293 3.55219 3.00505
# Velocity P-wave (km/s) = 3.19261 6.63479 5.20640
#
# Compressibility (1/GPa) = 0.18684565
#
# Stress axis : x y z
#
# Youngs Moduli (GPa) = 12.07105 8.31199 34.43991
#
# Poissons Ratio (x) = -0.39894 1.50558
# Poissons Ratio (y) = -0.57936 0.92817
# Poissons Ratio (z) = 0.52770 0.22401
#
# Static dielectric constant tensor:
#      x y z
#    x 1.581820 0.000000 0.010750 
#    y 0.000000 1.647750 0.000000 
#    z 0.010750 0.000000 1.699040 
# 
# From -- ./inp_files/319219.got.cif
#   From: 2010.05.17/outbox.cif.g08.bks.cpg/sg12_160_cif.got.tgz:319219.got - 2010.06.03 13:09:07.
