data_PCOD9178384
_publ_section_title
;
Structure prediction by ZEFSAII (Michael W. Deem and Ramdas Pophale) SiO2 
 PCOD9178384
Probable space group: C 2/M
;
_chemical_formula_sum "Si O2"
_cell_formula_units_Z 64
_cell_length_a 23.925752
_cell_length_b 8.588738
_cell_length_c 20.450834
_cell_angle_alpha 90.000000
_cell_angle_beta 58.803391
_cell_angle_gamma 90.000000
_cell_volume 3594.782681
_symmetry_space_group_name_H-M "C 2/M"
_symmetry_group_IT_number 12
_symmetry_cell_setting 'monoclinic'
loop_
_space_group_symop_operation_xyz
x,y,z
-x,y,-z
-x,-y,-z
x,-y,z
1/2+x,1/2+y,z
1/2-x,1/2+y,-z
1/2-x,1/2-y,-z
1/2+x,1/2-y,z
loop_
_atom_site_type_symbol
_atom_site_label
_atom_site_fract_x
_atom_site_fract_y
_atom_site_fract_z
Si Si1 0.628504 0.686405 0.968243
Si Si2 0.383969 0.186403 0.163672
Si Si3 0.400403 0.188261 0.875581
Si Si4 0.540673 0.187584 0.751926
Si Si5 0.237841 0.311652 0.270296
Si Si6 0.720496 0.810980 0.136346
Si Si7 0.289081 0.812339 0.570713
Si Si8 0.650272 0.314399 0.592185
O O1 0.627253 0.500000 0.968804
O O2 0.599315 0.746500 0.917706
O O3 0.705159 0.738328 0.923512
O O4 0.595602 0.751141 0.053105
O O5 0.430030 0.236519 0.195400
O O6 0.311043 0.244862 0.224516
O O7 0.384584 0.000000 0.159658
O O8 0.465012 0.234761 0.796562
O O9 0.334218 0.245418 0.880660
O O10 0.398682 0.000000 0.878705
O O11 0.586916 0.251707 0.667316
O O12 0.543718 0.000000 0.747470
O O13 0.243245 0.500000 0.267718
O O14 0.205923 0.266842 0.220462
O O15 0.203227 0.264205 0.358528
O O16 0.720237 0.000000 0.133650
O O17 0.339187 0.744245 0.487935
O O18 0.216054 0.763770 0.591548
O O19 0.292101 0.000000 0.565321
O O20 0.649090 0.500000 0.593694
#
# Coordination Sequence:
#
# PCOD9178384 Si02
#       8
#     8   8   8   8   8   8   8   8
#     4  10  20  34  52  74  97 123 159 208 251 288
#     4  10  19  31  48  71  98 130 161 196 241 290
#     4  10  20  35  52  71  95 129 166 201 242 289
#     4  10  21  34  49  69 100 134 164 197 237 290
#     4   9  16  30  51  76 101 125 156 200 248 288
#     4   8  16  31  53  75  96 122 159 205 247 285
#     4   9  17  29  48  74 103 129 155 195 243 288
#     4  10  19  30  48  73 101 132 162 196 237 286
#
# _framework density 17.80358
#
# number of rings (size 3 to 8) (size 9 to 14) (size 15 to 20)
#    0.000    2.500    1.250    2.250    0.000    2.500 
#    0.000    5.000    0.000    0.750    0.000    5.250 
#    0.000    0.000    0.000    0.000    0.000    0.000 
#
# Total GULP energy -178453.478168 kJ/mol
# GULP energy per Si atom -5576.671193 kJ/mol
# Density = 1.776306 g / cm^3
# Si number density = 17.803580 Si / 1000 Ang^3
#
#
#
# Elastic Constant Matrix: (Units=GPa)
#
#
# Indices 1 2 3 4 5 6 
#
# 1 5.5577 3.8400 5.1874 0.0003 -0.8421 0.0003
# 2 3.8400 10.2329 16.6772 0.0003 -0.5909 0.0002
# 3 5.1874 16.6772 119.7999 0.0005 1.7469 -0.0001
# 4 0.0003 0.0003 0.0005 27.2075 0.0000 0.8964
# 5 -0.8421 -0.5909 1.7469 0.0000 19.6891 0.0000
# 6 0.0003 0.0002 -0.0001 0.8964 0.0000 13.2729
#
#
#
# Elastic Compliance Matrix: (Units=1/GPa)
#
#
# Indices 1 2 3 4 5 6 
#
# 1 0.244703 -0.095661 0.002614 -0.000002 0.007363 -0.000004
# 2 -0.095661 0.164366 -0.018776 0.000000 0.002507 0.000000
# 3 0.002614 -0.018776 0.010868 0.000000 -0.001416 0.000000
# 4 -0.000002 0.000000 0.000000 0.036837 0.000000 -0.002488
# 5 0.007363 0.002507 -0.001416 0.000000 0.051305 0.000000
# 6 -0.000004 0.000000 0.000000 -0.002488 0.000000 0.075510
#
#
# Mechanical properties :
#
#
# Convention : Reuss Voigt Hill
#
# Bulk Modulus (GPa) = 5.09449 20.77775 12.93612
# Shear Modulus (GPa) = 5.72958 19.35961 12.54459
#
# Velocity S-wave (km/s) = 1.79588 3.30115 2.65733
# Velocity P-wave (km/s) = 2.67731 5.12113 4.08620
#
# Compressibility (1/GPa) = 0.19629046
#
# Stress axis : x y z
#
# Youngs Moduli (GPa) = 4.08659 6.08399 92.00946
#
# Poissons Ratio (x) = 0.58200 -0.24050
# Poissons Ratio (y) = 0.39093 1.72753
# Poissons Ratio (z) = -0.01068 0.11423
#
# Static dielectric constant tensor:
#      x y z
#    x 1.609020 0.000000 0.011950 
#    y 0.000000 1.596790 0.000000 
#    z 0.011950 0.000000 1.606300 
# 
# From -- ./inp_files/324270.got.cif
#   From: 2010.05.17/outbox.cif.g08.bks.cpg/sg12_163_cif.got.tgz:324270.got - 2010.06.03 13:09:07.
