data_PCOD9178850
_publ_section_title
;
Structure prediction by ZEFSAII (Michael W. Deem and Ramdas Pophale) SiO2 
 PCOD9178850
Probable space group: C 2/M
;
_chemical_formula_sum "Si O2"
_cell_formula_units_Z 48
_cell_length_a 24.996708
_cell_length_b 9.017965
_cell_length_c 14.538360
_cell_angle_alpha 90.000000
_cell_angle_beta 110.659353
_cell_angle_gamma 90.000000
_cell_volume 3066.485286
_symmetry_space_group_name_H-M "C 2/M"
_symmetry_group_IT_number 12
_symmetry_cell_setting 'monoclinic'
loop_
_space_group_symop_operation_xyz
x,y,z
-x,y,-z
-x,-y,-z
x,-y,z
1/2+x,1/2+y,z
1/2-x,1/2+y,-z
1/2-x,1/2-y,-z
1/2+x,1/2-y,z
loop_
_atom_site_type_symbol
_atom_site_label
_atom_site_fract_x
_atom_site_fract_y
_atom_site_fract_z
Si Si1 0.211574 0.676039 0.342750
Si Si2 0.558023 0.829022 0.973444
Si Si3 0.475516 0.178081 0.771296
Si Si4 0.833319 0.823908 0.497356
Si Si5 0.547529 0.177670 0.454334
Si Si6 0.875968 0.823931 0.832997
O O1 0.201161 0.500000 0.333595
O O2 0.181593 0.742843 0.415737
O O3 0.279045 0.702229 0.398009
O O4 0.182924 0.753266 0.238059
O O5 0.534660 0.783542 0.859195
O O6 0.577295 0.000000 0.983188
O O7 0.500000 0.824358 0.000000
O O8 0.603802 0.730501 0.054375
O O9 0.473748 0.209510 0.662343
O O10 0.424177 0.261557 0.791798
O O11 0.467261 0.000000 0.779490
O O12 0.892499 0.760057 0.496196
O O13 0.837392 0.000000 0.516432
O O14 0.500000 0.219730 0.500000
O O15 0.556746 0.000000 0.466252
O O16 0.874132 0.000000 0.827191
#
# Coordination Sequence:
#
# PCOD9178850 Si02
#       6
#     8   8   8   8   8   8
#     4  10  19  31  47  66  94 126 154 187 233 288
#     4   8  15  27  42  60  87 123 155 183 226 280
#     4   9  17  30  45  62  90 126 158 189 227 275
#     4  10  20  32  47  69  92 121 158 195 235 273
#     4  10  20  33  50  70  94 128 163 192 227 273
#     4  11  19  26  42  69  95 120 152 188 233 279
#
# _framework density 15.653098999999999
#
# number of rings (size 3 to 8) (size 9 to 14) (size 15 to 20)
#    0.000    2.333    1.667    3.500    0.000    5.333 
#    0.000    0.000    0.000    0.000    0.000    1.167 
#    0.000    0.000    0.000    0.000    0.000    0.000 
#
# Total GULP energy -133789.642797 kJ/mol
# GULP energy per Si atom -5574.568450 kJ/mol
# Density = 1.561747 g / cm^3
# Si number density = 15.653099 Si / 1000 Ang^3
#
#
#
# Elastic Constant Matrix: (Units=GPa)
#
#
# Indices 1 2 3 4 5 6 
#
# 1 82.1944 45.1413 52.0027 0.0000 13.6703 0.0000
# 2 45.1413 75.4435 61.5502 0.0000 20.4105 0.0000
# 3 52.0027 61.5502 108.8061 0.0000 29.9292 0.0000
# 4 0.0000 0.0000 0.0000 19.4969 0.0000 8.0450
# 5 13.6703 20.4105 29.9292 0.0000 23.6442 0.0000
# 6 0.0000 0.0000 0.0000 8.0450 0.0000 18.7782
#
#
#
# Elastic Compliance Matrix: (Units=1/GPa)
#
#
# Indices 1 2 3 4 5 6 
#
# 1 0.019610 -0.007810 -0.005661 0.000000 0.002570 0.000000
# 2 -0.007810 0.028211 -0.010385 0.000000 -0.006691 0.000000
# 3 -0.005661 -0.010385 0.022100 0.000000 -0.015736 0.000000
# 4 0.000000 0.000000 0.000000 0.062304 0.000000 -0.026693
# 5 0.002570 -0.006691 -0.015736 0.000000 0.066503 0.000000
# 6 0.000000 0.000000 0.000000 -0.026693 0.000000 0.064689
#
#
# Mechanical properties :
#
#
# Convention : Reuss Voigt Hill
#
# Bulk Modulus (GPa) = 45.02998 64.87025 54.95011
# Shear Modulus (GPa) = 15.69695 19.56719 17.63207
#
# Velocity S-wave (km/s) = 3.17014 3.53944 3.35987
# Velocity P-wave (km/s) = 6.49843 7.63125 7.08751
#
# Compressibility (1/GPa) = 0.02220743
#
# Stress axis : x y z
#
# Youngs Moduli (GPa) = 50.99462 35.44679 45.24940
#
# Poissons Ratio (x) = 0.27685 0.25617
# Poissons Ratio (y) = 0.39828 0.46993
# Poissons Ratio (z) = 0.28869 0.36813
#
# Static dielectric constant tensor:
#      x y z
#    x 1.494300 0.000000 0.027670 
#    y 0.000000 1.521240 0.000000 
#    z 0.027670 0.000000 1.556580 
# 
# From -- ./inp_files/236856.got.cif
#   From: 2010.05.17/outbox.cif.g08.bks.cpg/sg12_119_cif.got.tgz:236856.got - 2010.06.03 13:09:07.
