data_PCOD9178672
_publ_section_title
;
Structure prediction by ZEFSAII (Michael W. Deem and Ramdas Pophale) SiO2 
 PCOD9178672
Probable space group: C 2/M
;
_chemical_formula_sum "Si O2"
_cell_formula_units_Z 56
_cell_length_a 22.874741
_cell_length_b 7.473253
_cell_length_c 14.130227
_cell_angle_alpha 90.000000
_cell_angle_beta 90.315204
_cell_angle_gamma 90.000000
_cell_volume 2415.507762
_symmetry_space_group_name_H-M "C 2/M"
_symmetry_group_IT_number 12
_symmetry_cell_setting 'monoclinic'
loop_
_space_group_symop_operation_xyz
x,y,z
-x,y,-z
-x,-y,-z
x,-y,z
1/2+x,1/2+y,z
1/2-x,1/2+y,-z
1/2-x,1/2-y,-z
1/2+x,1/2-y,z
loop_
_atom_site_type_symbol
_atom_site_label
_atom_site_fract_x
_atom_site_fract_y
_atom_site_fract_z
Si Si1 0.440389 0.712338 0.550852
Si Si2 0.460381 0.282091 0.086878
Si Si3 0.451208 0.281725 0.764083
Si Si4 0.769409 0.293640 0.260243
Si Si5 0.326915 0.283458 0.062323
Si Si6 0.332540 0.280906 0.853664
Si Si7 0.814419 0.287777 0.454556
O O1 0.500000 0.781236 0.500000
O O2 0.449186 0.500000 0.558171
O O3 0.440259 0.783061 0.658277
O O4 0.375858 0.729772 0.502763
O O5 0.460916 0.500000 0.085233
O O6 0.488730 0.225621 0.186171
O O7 0.394343 0.229388 0.071740
O O8 0.500000 0.222281 0.000000
O O9 0.450624 0.500000 0.762049
O O10 0.398728 0.229857 0.833665
O O11 0.759462 0.500000 0.286951
O O12 0.798038 0.287603 0.157188
O O13 0.706043 0.215508 0.234989
O O14 0.806826 0.216758 0.346476
O O15 0.322274 0.500000 0.064899
O O16 0.309417 0.222182 0.956365
O O17 0.330451 0.500000 0.855189
O O18 0.820547 0.500000 0.454503
O O19 0.750000 0.250000 0.500000
#
# Coordination Sequence:
#
# PCOD9178672 Si02
#       7
#     8   8   8   8   8   8   8
#     4  10  22  38  60  91 123 157 199 249 300 350
#     4   9  15  26  47  80 111 137 178 227 273 322
#     4   9  16  29  51  78 112 148 182 227 281 333
#     4  10  22  37  54  77 110 150 181 219 286 349
#     4  10  19  30  52  83 109 137 180 231 272 322
#     4   9  16  30  51  77 108 144 185 224 270 332
#     4  11  24  43  65  87 115 155 202 250 300 355
#
# _framework density 23.183532
#
# number of rings (size 3 to 8) (size 9 to 14) (size 15 to 20)
#    0.000    2.286    1.429    1.714    2.000    3.714 
#    0.000    0.000    0.000    1.286    0.000    0.000 
#    0.000    0.000    0.000    0.000    0.000    0.000 
#
# Total GULP energy -156190.651271 kJ/mol
# GULP energy per Si atom -5578.237545 kJ/mol
# Density = 2.313077 g / cm^3
# Si number density = 23.183532 Si / 1000 Ang^3
#
#
#
# Elastic Constant Matrix: (Units=GPa)
#
#
# Indices 1 2 3 4 5 6 
#
# 1 106.5729 -8.4424 53.7191 0.0000 19.3556 0.0000
# 2 -8.4424 66.5744 -4.6633 0.0000 0.9204 0.0000
# 3 53.7191 -4.6633 156.4093 0.0000 29.8414 0.0000
# 4 0.0000 0.0000 0.0000 9.1002 0.0000 1.9080
# 5 19.3556 0.9204 29.8414 0.0000 45.6067 0.0000
# 6 0.0000 0.0000 0.0000 1.9080 0.0000 12.6210
#
#
#
# Elastic Compliance Matrix: (Units=1/GPa)
#
#
# Indices 1 2 3 4 5 6 
#
# 1 0.011730 0.001282 -0.003469 0.000000 -0.002734 0.000000
# 2 0.001282 0.015211 0.000201 0.000000 -0.000982 0.000000
# 3 -0.003469 0.000201 0.008354 0.000000 -0.003998 0.000000
# 4 0.000000 0.000000 0.000000 0.113485 0.000000 -0.017156
# 5 -0.002734 -0.000982 -0.003998 0.000000 0.025723 0.000000
# 6 0.000000 0.000000 0.000000 -0.017156 0.000000 0.081826
#
#
# Mechanical properties :
#
#
# Convention : Reuss Voigt Hill
#
# Bulk Modulus (GPa) = 31.92572 45.64261 38.78417
# Shear Modulus (GPa) = 18.46781 32.72845 25.59813
#
# Velocity S-wave (km/s) = 2.82546 3.76135 3.32648
# Velocity P-wave (km/s) = 4.94419 6.21240 5.61422
#
# Compressibility (1/GPa) = 0.03132271
#
# Stress axis : x y z
#
# Youngs Moduli (GPa) = 85.25229 65.74176 119.70965
#
# Poissons Ratio (x) = -0.08430 0.41524
# Poissons Ratio (y) = -0.10932 -0.02401
# Poissons Ratio (z) = 0.29572 -0.01318
#
# Static dielectric constant tensor:
#      x y z
#    x 1.893260 0.000000 0.009210 
#    y 0.000000 1.872900 0.000000 
#    z 0.009210 0.000000 1.878750 
# 
# From -- ./inp_files/230964.got.cif
#   From: 2010.05.17/outbox.cif.g08.bks.cpg/sg12_116_cif.got.tgz:230964.got - 2010.06.03 13:09:07.
