data_PCOD9178221
_publ_section_title
;
Structure prediction by ZEFSAII (Michael W. Deem and Ramdas Pophale) SiO2 
 PCOD9178221
Probable space group: C 2/M
;
_chemical_formula_sum "Si O2"
_cell_formula_units_Z 40
_cell_length_a 26.224374
_cell_length_b 7.471163
_cell_length_c 7.882376
_cell_angle_alpha 90.000000
_cell_angle_beta 113.206951
_cell_angle_gamma 90.000000
_cell_volume 1419.408389
_symmetry_space_group_name_H-M "C 2/M"
_symmetry_group_IT_number 12
_symmetry_cell_setting 'monoclinic'
loop_
_space_group_symop_operation_xyz
x,y,z
-x,y,-z
-x,-y,-z
x,-y,z
1/2+x,1/2+y,z
1/2-x,1/2+y,-z
1/2-x,1/2-y,-z
1/2+x,1/2-y,z
loop_
_atom_site_type_symbol
_atom_site_label
_atom_site_fract_x
_atom_site_fract_y
_atom_site_fract_z
Si Si1 0.263355 0.715177 0.243371
Si Si2 0.164340 0.712299 0.322302
Si Si3 0.537067 0.288686 0.898381
Si Si4 0.568787 0.215248 0.422476
Si Si5 0.860166 0.790896 0.151321
O O1 0.261640 0.500000 0.226667
O O2 0.201788 0.782054 0.214701
O O3 0.298811 0.756372 0.459744
O O4 0.301362 0.788583 0.138983
O O5 0.160485 0.500000 0.295257
O O6 0.104610 0.781307 0.305124
O O7 0.544416 0.500000 0.937592
O O8 0.494421 0.269704 0.685835
O O9 0.597455 0.211065 0.932202
O O10 0.500000 0.206833 0.000000
O O11 0.601217 0.282505 0.628801
O O12 0.571230 0.000000 0.431232
O O13 0.852212 0.000000 0.107934
#
# Coordination Sequence:
#
# PCOD9178221 Si02
#       5
#     8   8   8   8   8
#     4   8  13  23  41  64  88 113 141 175 215 257
#     4   8  14  24  39  63  92 115 137 171 216 263
#     4  10  21  35  48  63  87 120 156 191 224 260
#     4  10  19  30  47  71  95 118 145 180 224 271
#     4   9  17  30  49  70  90 116 151 187 221 259
#
# _framework density 28.180755000000001
#
# number of rings (size 3 to 8) (size 9 to 14) (size 15 to 20)
#    0.000    3.000    0.000    1.200    0.000    4.400 
#    0.000    0.000    0.000    1.200    0.000    0.000 
#    0.000    0.000    0.000    0.000    0.000    1.400 
#
# Total GULP energy -111921.763211 kJ/mol
# GULP energy per Si atom -5596.088161 kJ/mol
# Density = 2.811661 g / cm^3
# Si number density = 28.180755 Si / 1000 Ang^3
#
#
#
# Elastic Constant Matrix: (Units=GPa)
#
#
# Indices 1 2 3 4 5 6 
#
# 1 293.4794 15.1062 46.6204 0.0000 -24.5507 0.0000
# 2 15.1062 150.6590 32.8548 0.0000 7.2509 0.0000
# 3 46.6204 32.8548 107.5831 0.0000 -30.2691 0.0000
# 4 0.0000 0.0000 0.0000 32.4899 0.0000 8.1948
# 5 -24.5507 7.2509 -30.2691 0.0000 74.0576 0.0000
# 6 0.0000 0.0000 0.0000 8.1948 0.0000 12.3720
#
#
#
# Elastic Compliance Matrix: (Units=1/GPa)
#
#
# Indices 1 2 3 4 5 6 
#
# 1 0.003688 -0.000101 -0.001379 0.000000 0.000669 0.000000
# 2 -0.000101 0.007330 -0.002719 0.000000 -0.001862 0.000000
# 3 -0.001379 -0.002719 0.012056 0.000000 0.004736 0.000000
# 4 0.000000 0.000000 0.000000 0.036952 0.000000 -0.024476
# 5 0.000669 -0.001862 0.004736 0.000000 0.015843 0.000000
# 6 0.000000 0.000000 0.000000 -0.024476 0.000000 0.097040
#
#
# Mechanical properties :
#
#
# Convention : Reuss Voigt Hill
#
# Bulk Modulus (GPa) = 68.14006 82.32050 75.23028
# Shear Modulus (GPa) = 26.85310 54.25990 40.55650
#
# Velocity S-wave (km/s) = 3.09024 4.39273 3.79774
# Velocity P-wave (km/s) = 6.07988 7.41641 6.78115
#
# Compressibility (1/GPa) = 0.01467566
#
# Stress axis : x y z
#
# Youngs Moduli (GPa) = 271.17930 136.42249 82.94913
#
# Poissons Ratio (x) = 0.01381 0.11438
# Poissons Ratio (y) = 0.02745 0.22551
# Poissons Ratio (z) = 0.37393 0.37089
#
# Static dielectric constant tensor:
#      x y z
#    x 2.233190 0.000000 -0.040380 
#    y 0.000000 1.986080 0.000000 
#    z -0.040380 0.000000 2.357630 
# 
# From -- ./inp_files/93662.got.cif
#   From: 2010.05.17/outbox.cif.g08.bks.cpg/sg12_47_cif.got.tgz:93662.got - 2010.06.03 13:09:07.
