data_PCOD9178787
_publ_section_title
;
Structure prediction by ZEFSAII (Michael W. Deem and Ramdas Pophale) SiO2 
 PCOD9178787
Probable space group: C 2/M
;
_chemical_formula_sum "Si O2"
_cell_formula_units_Z 64
_cell_length_a 21.633428
_cell_length_b 17.541687
_cell_length_c 20.635364
_cell_angle_alpha 90.000000
_cell_angle_beta 28.597625
_cell_angle_gamma 90.000000
_cell_volume 3748.278526
_symmetry_space_group_name_H-M "C 2/M"
_symmetry_group_IT_number 12
_symmetry_cell_setting 'monoclinic'
loop_
_space_group_symop_operation_xyz
x,y,z
-x,y,-z
-x,-y,-z
x,-y,z
1/2+x,1/2+y,z
1/2-x,1/2+y,-z
1/2-x,1/2-y,-z
1/2+x,1/2-y,z
loop_
_atom_site_type_symbol
_atom_site_label
_atom_site_fract_x
_atom_site_fract_y
_atom_site_fract_z
Si Si1 0.811634 0.588627 0.953549
Si Si2 0.242123 0.087170 0.397064
Si Si3 0.564007 0.827567 0.695907
Si Si4 0.493296 0.725425 0.124323
Si Si5 0.130986 0.650327 0.845368
Si Si6 0.751184 0.688611 0.133588
Si Si7 0.958569 0.809609 0.364132
Si Si8 0.483516 0.410895 0.814732
O O1 0.843230 0.500000 0.931352
O O2 0.927342 0.631245 0.810549
O O3 0.796445 0.626692 0.038389
O O4 0.672520 0.595827 0.047665
O O5 0.330888 0.112392 0.376266
O O6 0.323620 0.100142 0.256648
O O7 0.124560 0.146757 0.506071
O O8 0.200635 0.000000 0.440752
O O9 0.538846 0.772617 0.780772
O O10 0.602041 0.770250 0.603655
O O11 0.407625 0.766548 0.148560
O O12 0.473856 0.638167 0.162177
O O13 0.642939 0.744255 0.970531
O O14 0.234478 0.657253 0.807097
O O15 0.000000 0.621030 0.000000
O O16 0.604687 0.707304 0.251012
O O17 0.965401 0.868419 0.296975
O O18 0.517590 0.500000 0.784488
#
# Coordination Sequence:
#
# PCOD9178787 Si02
#       8
#     8   8   8   8   8   8   8   8
#     4   9  16  26  45  74  99 119 149 186 223 264
#     4  11  22  33  46  67  94 121 152 189 228 272
#     4   9  17  30  47  65  90 122 154 188 223 264
#     4   8  15  29  48  68  89 118 157 192 220 259
#     4   9  19  34  50  66  86 120 160 193 221 259
#     4   9  17  30  48  67  92 126 156 185 221 262
#     4  10  19  31  46  67  95 124 152 181 225 279
#     4   9  16  27  46  72  99 121 144 183 233 275
#
# _framework density 17.074504000000001
#
# number of rings (size 3 to 8) (size 9 to 14) (size 15 to 20)
#    0.000    2.750    0.000    2.625    0.000    4.750 
#    0.000    0.625    0.000    3.375    0.000    0.000 
#    0.000    0.000    0.000   31.625    0.000    0.000 
#
# Total GULP energy -178262.391623 kJ/mol
# GULP energy per Si atom -5570.699738 kJ/mol
# Density = 1.703564 g / cm^3
# Si number density = 17.074504 Si / 1000 Ang^3
#
#
#
# Elastic Constant Matrix: (Units=GPa)
#
#
# Indices 1 2 3 4 5 6 
#
# 1 43.5132 22.7190 9.0598 -0.0002 1.8658 0.0001
# 2 22.7190 59.1531 2.7030 -0.0003 8.6340 0.0002
# 3 9.0598 2.7030 37.3100 0.0001 0.6090 0.0000
# 4 -0.0002 -0.0003 0.0001 19.9484 0.0001 -0.0716
# 5 1.8658 8.6340 0.6090 0.0001 11.3046 -0.0001
# 6 0.0001 0.0002 0.0000 -0.0716 -0.0001 12.0442
#
#
#
# Elastic Compliance Matrix: (Units=1/GPa)
#
#
# Indices 1 2 3 4 5 6 
#
# 1 0.030456 -0.012058 -0.006596 0.000000 0.004538 0.000000
# 2 -0.012058 0.023849 0.001466 0.000000 -0.016304 0.000000
# 3 -0.006596 0.001466 0.028323 0.000000 -0.001557 0.000000
# 4 0.000000 0.000000 0.000000 0.050130 -0.000001 0.000298
# 5 0.004538 -0.016304 -0.001557 -0.000001 0.100247 0.000001
# 6 0.000000 0.000000 0.000000 0.000298 0.000001 0.083029
#
#
# Mechanical properties :
#
#
# Convention : Reuss Voigt Hill
#
# Bulk Modulus (GPa) = 20.72418 23.21554 21.96986
# Shear Modulus (GPa) = 13.64274 15.69242 14.66758
#
# Velocity S-wave (km/s) = 2.82975 3.03488 2.93411
# Velocity P-wave (km/s) = 4.77917 5.08987 4.93697
#
# Compressibility (1/GPa) = 0.04825280
#
# Stress axis : x y z
#
# Youngs Moduli (GPa) = 32.83403 41.92993 35.30663
#
# Poissons Ratio (x) = 0.50561 0.23288
# Poissons Ratio (y) = 0.39593 -0.05177
# Poissons Ratio (z) = 0.21657 -0.06149
#
# Static dielectric constant tensor:
#      x y z
#    x 1.582360 0.000000 -0.006450 
#    y 0.000000 1.581960 0.000000 
#    z -0.006450 0.000000 1.610410 
# 
# From -- ./inp_files/322416.got.cif
#   From: 2010.05.17/outbox.cif.g08.bks.cpg/sg12_162_cif.got.tgz:322416.got - 2010.06.03 13:09:07.
