data_PCOD9178473
_publ_section_title
;
Structure prediction by ZEFSAII (Michael W. Deem and Ramdas Pophale) SiO2 
 PCOD9178473
Probable space group: C 2/M
;
_chemical_formula_sum "Si O2"
_cell_formula_units_Z 64
_cell_length_a 24.861383
_cell_length_b 8.766339
_cell_length_c 21.902266
_cell_angle_alpha 90.000000
_cell_angle_beta 127.679037
_cell_angle_gamma 90.000000
_cell_volume 3777.935622
_symmetry_space_group_name_H-M "C 2/M"
_symmetry_group_IT_number 12
_symmetry_cell_setting 'monoclinic'
loop_
_space_group_symop_operation_xyz
x,y,z
-x,y,-z
-x,-y,-z
x,-y,z
1/2+x,1/2+y,z
1/2-x,1/2+y,-z
1/2-x,1/2-y,-z
1/2+x,1/2-y,z
loop_
_atom_site_type_symbol
_atom_site_label
_atom_site_fract_x
_atom_site_fract_y
_atom_site_fract_z
Si Si1 0.106951 0.184001 0.454126
Si Si2 0.225270 0.183729 0.628646
Si Si3 0.741062 0.817886 0.894554
Si Si4 0.353044 0.316813 0.064556
Si Si5 0.010576 0.183654 0.783712
Si Si6 0.036267 0.681753 0.667822
Si Si7 0.820432 0.182971 0.269210
Si Si8 0.140186 0.817164 0.337296
O O1 0.162158 0.232208 0.542217
O O2 0.133892 0.223239 0.404793
O O3 0.033238 0.258603 0.410863
O O4 0.099059 0.000000 0.450675
O O5 0.212049 0.231470 0.689046
O O6 0.295373 0.243696 0.649790
O O7 0.226713 0.000000 0.628040
O O8 0.686743 0.763705 0.907697
O O9 0.723129 0.739944 0.818555
O O10 0.736659 0.000000 0.884533
O O11 0.814037 0.777531 0.975098
O O12 0.345542 0.500000 0.067461
O O13 0.432462 0.279787 0.126597
O O14 0.932705 0.227426 0.742276
O O15 0.032440 0.259466 0.735129
O O16 0.010997 0.000000 0.774482
O O17 0.038955 0.500000 0.668730
O O18 0.103903 0.750229 0.685152
O O19 0.824727 0.000000 0.270645
O O20 0.146692 0.000000 0.338186
#
# Coordination Sequence:
#
# PCOD9178473 Si02
#       8
#     8   8   8   8   8   8   8   8
#     4   9  19  37  56  75 100 131 166 210 260 312
#     4  10  22  37  54  73  96 135 181 211 248 306
#     4  10  19  30  48  78 106 132 170 210 248 297
#     4   9  17  30  51  76 106 137 165 202 251 305
#     4   9  17  32  53  77 105 137 165 199 254 311
#     4  11  21  32  50  78 104 131 167 210 255 302
#     4  11  22  36  51  69 102 144 174 205 251 307
#     4   9  18  32  54  79 102 127 162 211 263 302
#
# _framework density 16.940470000000001
#
# number of rings (size 3 to 8) (size 9 to 14) (size 15 to 20)
#    0.000    2.250    1.250    3.000    0.000    4.500 
#    0.000    2.500    0.000    0.750    0.000    5.250 
#    0.000    0.000    0.000    0.000    0.000    0.000 
#
# Total GULP energy -178504.872662 kJ/mol
# GULP energy per Si atom -5578.277271 kJ/mol
# Density = 1.690191 g / cm^3
# Si number density = 16.940470 Si / 1000 Ang^3
#
#
#
# Elastic Constant Matrix: (Units=GPa)
#
#
# Indices 1 2 3 4 5 6 
#
# 1 57.3644 29.7038 83.8752 0.0000 -3.5153 0.0000
# 2 29.7038 32.4718 42.7778 0.0000 2.2154 0.0000
# 3 83.8752 42.7778 154.8008 0.0000 18.2662 0.0000
# 4 0.0000 0.0000 0.0000 23.8494 0.0000 4.5228
# 5 -3.5153 2.2154 18.2662 0.0000 17.2928 0.0000
# 6 0.0000 0.0000 0.0000 4.5228 0.0000 25.8785
#
#
#
# Elastic Compliance Matrix: (Units=1/GPa)
#
#
# Indices 1 2 3 4 5 6 
#
# 1 -1.303868 0.260253 0.765126 0.000000 -1.106584 0.000000
# 2 0.260253 -0.002246 -0.167551 0.000000 0.230174 0.000000
# 3 0.765126 -0.167551 -0.437180 0.000000 0.638787 0.000000
# 4 0.000000 0.000000 0.000000 0.043367 0.000000 -0.007579
# 5 -1.106584 0.230174 0.638787 0.000000 -0.871349 0.000000
# 6 0.000000 0.000000 0.000000 -0.007579 0.000000 0.039967
#
#
# Mechanical properties :
#
#
# Convention : Reuss Voigt Hill
#
# Bulk Modulus (GPa) = -36.18132 61.92784 12.87326
# Shear Modulus (GPa) = -1.17476 19.28950 9.05737
#
# Velocity S-wave (km/s) = -0.83365 3.37807 2.31478
# Velocity P-wave (km/s) = 4.72556 7.20074 3.84186
#
# Compressibility (1/GPa) = -0.02763857
#
# Stress axis : x y z
#
# Youngs Moduli (GPa) = -0.76695 -445.20062 -2.28739
#
# Poissons Ratio (x) = 115.86467 1.75014
# Poissons Ratio (y) = 0.19960 -0.38325
# Poissons Ratio (z) = 0.58681 -74.59388
#
# Static dielectric constant tensor:
#      x y z
#    x 1.537820 0.000000 0.022920 
#    y 0.000000 1.570960 0.000000 
#    z 0.022920 0.000000 1.594700 
# 
# From -- ./inp_files/320131.got.cif
#   From: 2010.05.17/outbox.cif.g08.bks.cpg/sg12_161_cif.got.tgz:320131.got - 2010.06.03 13:09:07.
