data_PCOD9178933
_publ_section_title
;
Structure prediction by ZEFSAII (Michael W. Deem and Ramdas Pophale) SiO2 
 PCOD9178933
Probable space group: C 2/M
;
_chemical_formula_sum "Si O2"
_cell_formula_units_Z 56
_cell_length_a 14.871415
_cell_length_b 7.579364
_cell_length_c 28.306630
_cell_angle_alpha 90.000000
_cell_angle_beta 120.223127
_cell_angle_gamma 90.000000
_cell_volume 2756.912631
_symmetry_space_group_name_H-M "C 2/M"
_symmetry_group_IT_number 12
_symmetry_cell_setting 'monoclinic'
loop_
_space_group_symop_operation_xyz
x,y,z
-x,y,-z
-x,-y,-z
x,-y,z
1/2+x,1/2+y,z
1/2-x,1/2+y,-z
1/2-x,1/2-y,-z
1/2+x,1/2-y,z
loop_
_atom_site_type_symbol
_atom_site_label
_atom_site_fract_x
_atom_site_fract_y
_atom_site_fract_z
Si Si1 0.884569 0.794349 0.146771
Si Si2 0.955853 0.793804 0.350478
Si Si3 0.551333 0.786738 0.940914
Si Si4 0.839835 0.715541 0.937223
Si Si5 0.260418 0.291952 0.356332
Si Si6 0.031837 0.214615 0.268773
Si Si7 0.682303 0.789819 0.436296
O O1 0.929789 0.782550 0.106116
O O2 0.768548 0.717665 0.111997
O O3 0.963151 0.721693 0.206634
O O4 0.871579 0.000000 0.155949
O O5 0.858723 0.717041 0.353750
O O6 0.981492 0.721934 0.304980
O O7 0.064574 0.780532 0.407239
O O8 0.931769 0.000000 0.336492
O O9 0.439084 0.735320 0.932038
O O10 0.554389 0.000000 0.939676
O O11 0.635621 0.728629 0.002489
O O12 0.836756 0.500000 0.937356
O O13 0.281708 0.500000 0.368517
O O14 0.236530 0.219541 0.402547
O O15 0.151957 0.272052 0.299759
O O16 0.034003 0.000000 0.269800
O O17 0.750000 0.750000 0.500000
O O18 0.672862 0.000000 0.429025
#
# Coordination Sequence:
#
# PCOD9178933 Si02
#       7
#     8   8   8   8   8   8   8
#     4  10  19  31  47  70  98 126 155 196 247 294
#     4   9  18  35  55  73  96 131 168 201 240 286
#     4   9  17  31  50  70  91 123 163 200 238 290
#     4   8  16  31  49  68  94 125 159 197 242 294
#     4   9  19  35  55  75  97 128 167 206 241 277
#     4   9  19  33  49  70  97 127 161 199 243 292
#     4  10  20  34  52  78 108 134 162 201 242 283
#
# _framework density 20.312577000000001
#
# number of rings (size 3 to 8) (size 9 to 14) (size 15 to 20)
#    0.000    2.857    0.000    1.714    0.000    3.429 
#    0.000    7.857    0.000    0.000    0.000    0.000 
#    0.000    0.000    0.000    0.000    0.000    0.000 
#
# Total GULP energy -156181.927558 kJ/mol
# GULP energy per Si atom -5577.925984 kJ/mol
# Density = 2.026634 g / cm^3
# Si number density = 20.312577 Si / 1000 Ang^3
#
#
#
# Elastic Constant Matrix: (Units=GPa)
#
#
# Indices 1 2 3 4 5 6 
#
# 1 258.4281 -5.9645 271.6178 0.0000 -38.2044 0.0000
# 2 -5.9645 40.7299 -16.3161 0.0000 -6.0971 0.0000
# 3 271.6178 -16.3161 535.9352 0.0000 -83.5943 0.0000
# 4 0.0000 0.0000 0.0000 17.1511 0.0000 -6.1480
# 5 -38.2044 -6.0971 -83.5943 0.0000 38.8689 0.0000
# 6 0.0000 0.0000 0.0000 -6.1480 0.0000 -7.7748
#
#
#
# Elastic Compliance Matrix: (Units=1/GPa)
#
#
# Indices 1 2 3 4 5 6 
#
# 1 0.008352 -0.000827 -0.004511 0.000000 -0.001622 0.000000
# 2 -0.000827 0.026862 0.002659 0.000000 0.009120 0.000000
# 3 -0.004511 0.002659 0.005427 0.000000 0.007655 0.000000
# 4 0.000000 0.000000 0.000000 0.045428 0.000000 -0.035923
# 5 -0.001622 0.009120 0.007655 0.000000 0.042028 0.000000
# 6 0.000000 0.000000 0.000000 -0.035923 0.000000 -0.100214
#
#
# Mechanical properties :
#
#
# Convention : Reuss Voigt Hill
#
# Bulk Modulus (GPa) = 28.34182 148.19641 88.26912
# Shear Modulus (GPa) = 111.10914 48.69944 79.90429
#
# Velocity S-wave (km/s) = 7.40395 4.90174 6.27875
# Velocity P-wave (km/s) = 9.33136 10.25439 9.80374
#
# Compressibility (1/GPa) = 0.03528355
#
# Stress axis : x y z
#
# Youngs Moduli (GPa) = 119.73252 37.22796 184.25684
#
# Poissons Ratio (x) = 0.03079 0.83120
# Poissons Ratio (y) = 0.09901 -0.49003
# Poissons Ratio (z) = 0.54013 -0.09901
#
# Static dielectric constant tensor:
#      x y z
#    x 1.717270 0.000000 -0.003540 
#    y 0.000000 1.780580 0.000000 
#    z -0.003540 0.000000 1.703000 
# 
# From -- ./inp_files/338152.got.cif
#   From: 2010.05.17/outbox.cif.g08.bks.cpg/sg12_170_cif.got.tgz:338152.got - 2010.06.03 13:09:07.
