data_PCOD9178169
_publ_section_title
;
Structure prediction by ZEFSAII (Michael W. Deem and Ramdas Pophale) SiO2 
 PCOD9178169
Probable space group: C 2/M
;
_chemical_formula_sum "Si O2"
_cell_formula_units_Z 64
_cell_length_a 26.206392
_cell_length_b 7.288223
_cell_length_c 18.627466
_cell_angle_alpha 90.000000
_cell_angle_beta 132.929974
_cell_angle_gamma 90.000000
_cell_volume 2604.980582
_symmetry_space_group_name_H-M "C 2/M"
_symmetry_group_IT_number 12
_symmetry_cell_setting 'monoclinic'
loop_
_space_group_symop_operation_xyz
x,y,z
-x,y,-z
-x,-y,-z
x,-y,z
1/2+x,1/2+y,z
1/2-x,1/2+y,-z
1/2-x,1/2-y,-z
1/2+x,1/2-y,z
loop_
_atom_site_type_symbol
_atom_site_label
_atom_site_fract_x
_atom_site_fract_y
_atom_site_fract_z
Si Si1 0.168723 0.776980 0.001294
Si Si2 0.169878 0.209673 0.259001
Si Si3 0.061673 0.292581 0.515961
Si Si4 0.575426 0.275905 0.041144
Si Si5 0.321280 0.208517 0.158717
Si Si6 0.089165 0.277013 0.320365
Si Si7 0.683990 0.224336 0.545209
Si Si8 0.533499 0.790906 0.712824
O O1 0.169355 0.714399 0.919211
O O2 0.169594 0.000000 0.999592
O O3 0.104530 0.720992 0.990458
O O4 0.245088 0.715007 0.103195
O O5 0.135082 0.286495 0.154336
O O6 0.111321 0.213101 0.263879
O O7 0.238327 0.288054 0.363426
O O8 0.188770 0.000000 0.258999
O O9 0.071225 0.500000 0.555595
O O10 0.136473 0.217202 0.567565
O O11 0.000000 0.199166 0.500000
O O12 0.025372 0.305424 0.403756
O O13 0.573908 0.500000 0.039909
O O14 0.500000 0.217488 0.000000
O O15 0.395880 0.291855 0.251760
O O16 0.318796 0.000000 0.183956
O O17 0.087785 0.500000 0.319734
O O18 0.147365 0.217452 0.435462
O O19 0.011572 0.208692 0.266185
O O20 0.682238 0.000000 0.541240
O O21 0.551860 0.000000 0.750315
#
# Coordination Sequence:
#
# PCOD9178169 Si02
#       8
#     8   8   8   8   8   8   8   8
#     4   9  18  32  49  67  90 120 152 189 235 274
#     4  10  19  30  47  68  88 119 157 189 224 266
#     4   8  13  22  38  62  91 119 142 173 221 271
#     4   9  19  33  46  65  95 125 153 191 234 273
#     4   9  17  30  49  71  91 115 150 192 231 271
#     4   9  17  30  46  65  94 123 146 181 229 274
#     4   8  15  27  42  64  92 117 146 186 226 267
#     4   8  15  26  41  63  90 117 144 179 226 271
#
# _framework density 24.568321999999998
#
# number of rings (size 3 to 8) (size 9 to 14) (size 15 to 20)
#    0.000    3.250    0.000    1.875    1.750    1.000 
#    0.000    5.625    0.000    0.750    0.000    0.000 
#    0.000   17.000    0.000    0.000    0.000    0.000 
#
# Total GULP energy -178302.690027 kJ/mol
# GULP energy per Si atom -5571.959063 kJ/mol
# Density = 2.451240 g / cm^3
# Si number density = 24.568322 Si / 1000 Ang^3
#
#
#
# Elastic Constant Matrix: (Units=GPa)
#
#
# Indices 1 2 3 4 5 6 
#
# 1 118.3713 -6.3745 -3.3884 0.0000 5.8509 0.0000
# 2 -6.3745 107.3247 -0.7498 0.0000 3.3708 -0.0002
# 3 -3.3884 -0.7498 42.2330 0.0000 10.8319 0.0000
# 4 0.0000 0.0000 0.0000 -9.3609 0.0000 -5.4982
# 5 5.8509 3.3708 10.8319 0.0000 34.3307 0.0000
# 6 0.0000 -0.0002 0.0000 -5.4982 0.0000 1.3498
#
#
#
# Elastic Compliance Matrix: (Units=1/GPa)
#
#
# Indices 1 2 3 4 5 6 
#
# 1 0.008607 0.000579 0.001188 0.000000 -0.001899 0.000000
# 2 0.000579 0.009393 0.000517 0.000000 -0.001184 0.000000
# 3 0.001188 0.000517 0.025947 0.000000 -0.008440 0.000000
# 4 0.000000 0.000000 0.000000 -0.031490 0.000000 -0.128266
# 5 -0.001899 -0.001184 -0.008440 0.000000 0.032231 0.000000
# 6 0.000000 0.000000 0.000000 -0.128266 0.000000 0.218380
#
#
# Mechanical properties :
#
#
# Convention : Reuss Voigt Hill
#
# Bulk Modulus (GPa) = 20.61234 27.43375 24.02305
# Shear Modulus (GPa) = 18.20350 23.82669 21.01510
#
# Velocity S-wave (km/s) = 2.72496 3.11756 2.92785
# Velocity P-wave (km/s) = 4.27885 4.91421 4.60750
#
# Compressibility (1/GPa) = 0.04851463
#
# Stress axis : x y z
#
# Youngs Moduli (GPa) = 116.18421 106.46550 38.53962
#
# Poissons Ratio (x) = -0.06166 -0.04578
# Poissons Ratio (y) = -0.06729 -0.01992
# Poissons Ratio (z) = -0.13800 -0.05503
#
# Static dielectric constant tensor:
#      x y z
#    x 2.019900 0.000000 0.026960 
#    y 0.000000 2.160510 0.000000 
#    z 0.026960 0.000000 1.963150 
# 
# From -- ./inp_files/289129.got.cif
#   From: 2010.05.17/outbox.cif.g08.bks.cpg/sg12_145_cif.got.tgz:289129.got - 2010.06.03 13:09:07.
