data_PCOD9178164
_publ_section_title
;
Structure prediction by ZEFSAII (Michael W. Deem and Ramdas Pophale) SiO2 
 PCOD9178164
Probable space group: C 2/M
;
_chemical_formula_sum "Si O2"
_cell_formula_units_Z 56
_cell_length_a 9.400017
_cell_length_b 26.334399
_cell_length_c 16.866877
_cell_angle_alpha 90.000000
_cell_angle_beta 56.526122
_cell_angle_gamma 90.000000
_cell_volume 3482.766092
_symmetry_space_group_name_H-M "C 2/M"
_symmetry_group_IT_number 12
_symmetry_cell_setting 'monoclinic'
loop_
_space_group_symop_operation_xyz
x,y,z
-x,y,-z
-x,-y,-z
x,-y,z
1/2+x,1/2+y,z
1/2-x,1/2+y,-z
1/2-x,1/2-y,-z
1/2+x,1/2-y,z
loop_
_atom_site_type_symbol
_atom_site_label
_atom_site_fract_x
_atom_site_fract_y
_atom_site_fract_z
Si Si1 0.660622 0.185645 0.413424
Si Si2 0.144867 0.442428 0.886907
Si Si3 0.837808 0.141838 0.915734
Si Si4 0.005334 0.792423 0.587823
Si Si5 0.738261 0.788562 0.803795
Si Si6 0.939920 0.361235 0.860193
Si Si7 0.718443 0.667351 0.791572
O O1 0.500000 0.155941 0.500000
O O2 0.563184 0.235022 0.406557
O O3 0.754142 0.160385 0.310514
O O4 0.807214 0.202101 0.430908
O O5 0.190320 0.500000 0.852097
O O6 0.295391 0.408639 0.877886
O O7 0.057830 0.409382 0.844552
O O8 0.000000 0.444187 0.000000
O O9 0.789350 0.188791 0.873074
O O10 0.034944 0.147435 0.874458
O O11 0.714595 0.140919 0.029308
O O12 0.871495 0.809358 0.696572
O O13 0.000000 0.815448 0.500000
O O14 0.555725 0.811714 0.838090
O O15 0.731516 0.727776 0.805146
O O16 0.864148 0.360160 0.796414
#
# Coordination Sequence:
#
# PCOD9178164 Si02
#       7
#     8   8   8   8   8   8   8
#     4  10  20  31  46  64  91 128 168 208 245 274
#     4   8  16  34  55  69  88 121 159 202 250 288
#     4  10  19  34  45  71  98 129 167 196 233 278
#     4  10  19  30  47  64  88 125 170 214 238 276
#     4  10  20  31  45  66  98 140 170 192 228 274
#     4  10  21  30  49  69  98 132 164 198 228 284
#     4  11  21  30  45  69 104 132 163 198 232 277
#
# _framework density 16.079173999999998
#
# number of rings (size 3 to 8) (size 9 to 14) (size 15 to 20)
#    0.000    2.143    1.429    4.286    8.000    3.429 
#    0.000    0.714    0.000    3.429    0.000    0.000 
#    0.000   21.714    0.000    0.000    0.000    0.000 
#
# Total GULP energy -155921.160283 kJ/mol
# GULP energy per Si atom -5568.612867 kJ/mol
# Density = 1.604258 g / cm^3
# Si number density = 16.079174 Si / 1000 Ang^3
#
#
#
# Elastic Constant Matrix: (Units=GPa)
#
#
# Indices 1 2 3 4 5 6 
#
# 1 103.2332 21.8552 11.6489 0.0000 9.3642 0.0000
# 2 21.8552 66.6033 9.6265 0.0000 3.5921 0.0000
# 3 11.6489 9.6265 51.3866 0.0000 4.7842 0.0000
# 4 0.0000 0.0000 0.0000 0.0870 0.0000 0.4513
# 5 9.3642 3.5921 4.7842 0.0000 26.7583 0.0000
# 6 0.0000 0.0000 0.0000 0.4513 0.0000 -3.6739
#
#
#
# Elastic Compliance Matrix: (Units=1/GPa)
#
#
# Indices 1 2 3 4 5 6 
#
# 1 0.010811 -0.003154 -0.001573 0.000000 -0.003079 0.000000
# 2 -0.003154 0.016418 -0.002296 0.000000 -0.000690 0.000000
# 3 -0.001573 -0.002296 0.020509 0.000000 -0.002808 0.000000
# 4 0.000000 0.000000 0.000000 7.022690 0.000000 0.862596
# 5 -0.003079 -0.000690 -0.002808 0.000000 0.039044 0.000000
# 6 0.000000 0.000000 0.000000 0.862596 0.000000 -0.166234
#
#
# Mechanical properties :
#
#
# Convention : Reuss Voigt Hill
#
# Bulk Modulus (GPa) = 29.68207 34.16492 31.92349
# Shear Modulus (GPa) = 0.71751 16.50710 8.61231
#
# Velocity S-wave (km/s) = 0.66873 3.20756 2.31685
# Velocity P-wave (km/s) = 4.36993 5.91709 5.20136
#
# Compressibility (1/GPa) = 0.03369037
#
# Stress axis : x y z
#
# Youngs Moduli (GPa) = 92.49517 60.90722 48.76002
#
# Poissons Ratio (x) = 0.19211 0.07672
# Poissons Ratio (y) = 0.29175 0.11198
# Poissons Ratio (z) = 0.14552 0.13987
#
# Static dielectric constant tensor:
#      x y z
#    x 1.556640 0.000000 0.001940 
#    y 0.000000 1.525810 0.000000 
#    z 0.001940 0.000000 1.610000 
# 
# From -- ./inp_files/199672.got.cif
#   From: 2010.05.17/outbox.cif.g08.bks.cpg/sg12_100_cif.got.tgz:199672.got - 2010.06.03 13:09:07.
