data_PCOD9178814
_publ_section_title
;
Structure prediction by ZEFSAII (Michael W. Deem and Ramdas Pophale) SiO2 
 PCOD9178814
Probable space group: C 2/M
;
_chemical_formula_sum "Si O2"
_cell_formula_units_Z 64
_cell_length_a 23.051359
_cell_length_b 13.961946
_cell_length_c 12.515701
_cell_angle_alpha 90.000000
_cell_angle_beta 68.562898
_cell_angle_gamma 90.000000
_cell_volume 3749.411161
_symmetry_space_group_name_H-M "C 2/M"
_symmetry_group_IT_number 12
_symmetry_cell_setting 'monoclinic'
loop_
_space_group_symop_operation_xyz
x,y,z
-x,y,-z
-x,-y,-z
x,-y,z
1/2+x,1/2+y,z
1/2-x,1/2+y,-z
1/2-x,1/2-y,-z
1/2+x,1/2-y,z
loop_
_atom_site_type_symbol
_atom_site_label
_atom_site_fract_x
_atom_site_fract_y
_atom_site_fract_z
Si Si1 0.246547 0.114030 0.283068
Si Si2 0.687766 0.387039 0.861115
Si Si3 0.818204 0.229209 0.502255
Si Si4 0.630317 0.238475 0.751842
Si Si5 0.509587 0.888463 0.866317
Si Si6 0.674712 0.887798 0.334131
Si Si7 0.378984 0.116248 0.855797
Si Si8 0.248303 0.883997 0.041696
O O1 0.194354 0.146589 0.402662
O O2 0.311561 0.165571 0.268788
O O3 0.230314 0.146267 0.172882
O O4 0.254577 0.000000 0.279441
O O5 0.671505 0.500000 0.870759
O O6 0.638326 0.319238 0.837053
O O7 0.752810 0.377205 0.750719
O O8 0.704891 0.357922 0.970890
O O9 0.750000 0.250000 0.500000
O O10 0.861030 0.214070 0.370761
O O11 0.838209 0.322045 0.556149
O O12 0.567552 0.178221 0.800121
O O13 0.445429 0.853363 0.855606
O O14 0.520876 0.000000 0.827155
O O15 0.500000 0.887965 0.000000
O O16 0.634709 0.858441 0.257620
O O17 0.664347 0.000000 0.363043
O O18 0.378849 0.000000 0.860073
O O19 0.319027 0.145893 0.965844
O O20 0.248432 0.000000 0.041576
#
# Coordination Sequence:
#
# PCOD9178814 Si02
#       8
#     8   8   8   8   8   8   8   8
#     4  10  19  31  46  71 107 140 165 203 258 313
#     4   9  17  31  51  76 105 134 166 210 261 309
#     4  10  20  32  43  72 105 137 173 207 245 310
#     4  11  21  33  48  76 106 136 175 210 251 310
#     4  10  20  35  53  76 107 138 171 212 257 308
#     4   9  16  31  51  71 102 137 170 210 253 302
#     4   8  15  29  50  73  98 135 173 205 252 303
#     4   8  15  29  50  76 105 132 163 204 254 311
#
# _framework density 17.069347
#
# number of rings (size 3 to 8) (size 9 to 14) (size 15 to 20)
#    0.000    2.625    2.500    2.625    0.000    5.500 
#    2.250    0.625    0.000    2.625    0.000    0.875 
#    0.000    2.000    0.000    0.000    0.000    0.000 
#
# Total GULP energy -178411.640990 kJ/mol
# GULP energy per Si atom -5575.363781 kJ/mol
# Density = 1.703050 g / cm^3
# Si number density = 17.069347 Si / 1000 Ang^3
#
#
#
# Elastic Constant Matrix: (Units=GPa)
#
#
# Indices 1 2 3 4 5 6 
#
# 1 70.0493 39.1678 42.1950 0.0000 16.8183 0.0000
# 2 39.1678 76.2508 33.1005 0.0000 5.6911 0.0000
# 3 42.1950 33.1005 102.1774 0.0000 15.9980 0.0000
# 4 0.0000 0.0000 0.0000 27.3203 0.0000 9.3726
# 5 16.8183 5.6911 15.9980 0.0000 18.4411 0.0000
# 6 0.0000 0.0000 0.0000 9.3726 0.0000 -6.2156
#
#
#
# Elastic Compliance Matrix: (Units=1/GPa)
#
#
# Indices 1 2 3 4 5 6 
#
# 1 0.027466 -0.010554 -0.005221 0.000000 -0.017263 0.000000
# 2 -0.010554 0.019320 -0.002863 0.000000 0.006146 0.000000
# 3 -0.005221 -0.002863 0.013870 0.000000 -0.006388 0.000000
# 4 0.000000 0.000000 0.000000 0.024123 0.000000 0.036376
# 5 -0.017263 0.006146 -0.006388 0.000000 0.073616 0.000000
# 6 0.000000 0.000000 0.000000 0.036376 0.000000 -0.106034
#
#
# Mechanical properties :
#
#
# Convention : Reuss Voigt Hill
#
# Bulk Modulus (GPa) = 42.76765 53.04490 47.90627
# Shear Modulus (GPa) = 51.31875 16.84345 34.08110
#
# Velocity S-wave (km/s) = 5.48909 3.14469 4.47321
# Velocity P-wave (km/s) = 8.07980 6.65800 7.40311
#
# Compressibility (1/GPa) = 0.02338216
#
# Stress axis : x y z
#
# Youngs Moduli (GPa) = 36.40819 51.76038 72.09636
#
# Poissons Ratio (x) = 0.54628 0.37638
# Poissons Ratio (y) = 0.38425 0.20639
# Poissons Ratio (z) = 0.19007 0.14817
#
# Static dielectric constant tensor:
#      x y z
#    x 1.554810 0.000000 0.021850 
#    y 0.000000 1.610150 0.000000 
#    z 0.021850 0.000000 1.588990 
# 
# From -- ./inp_files/167240.got.cif
#   From: 2010.05.17/outbox.cif.g08.bks.cpg/sg12_84_cif.got.tgz:167240.got - 2010.06.03 13:09:07.
