data_PCOD9178832
_publ_section_title
;
Structure prediction by ZEFSAII (Michael W. Deem and Ramdas Pophale) SiO2 
 PCOD9178832
Probable space group: C 2/M
;
_chemical_formula_sum "Si O2"
_cell_formula_units_Z 64
_cell_length_a 31.109998
_cell_length_b 7.580925
_cell_length_c 31.962024
_cell_angle_alpha 90.000000
_cell_angle_beta 151.139758
_cell_angle_gamma 90.000000
_cell_volume 3638.405164
_symmetry_space_group_name_H-M "C 2/M"
_symmetry_group_IT_number 12
_symmetry_cell_setting 'monoclinic'
loop_
_space_group_symop_operation_xyz
x,y,z
-x,y,-z
-x,-y,-z
x,-y,z
1/2+x,1/2+y,z
1/2-x,1/2+y,-z
1/2-x,1/2-y,-z
1/2+x,1/2-y,z
loop_
_atom_site_type_symbol
_atom_site_label
_atom_site_fract_x
_atom_site_fract_y
_atom_site_fract_z
Si Si1 0.769747 0.707507 0.585373
Si Si2 0.613929 0.714575 0.397242
Si Si3 0.920319 0.788580 0.208977
Si Si4 0.420110 0.712872 0.875902
Si Si5 0.901635 0.293538 0.766296
Si Si6 0.730414 0.712161 0.083325
Si Si7 0.377658 0.715067 0.930215
Si Si8 0.094775 0.205266 0.898059
O O1 0.755391 0.500000 0.581087
O O2 0.675585 0.779071 0.488114
O O3 0.836886 0.729169 0.603500
O O4 0.821663 0.781017 0.669738
O O5 0.615659 0.500000 0.399512
O O6 0.512213 0.775568 0.307898
O O7 0.832102 0.752019 0.159936
O O8 0.908716 0.717829 0.151663
O O9 0.930280 0.000000 0.213989
O O10 0.418869 0.500000 0.874137
O O11 0.385669 0.774641 0.801923
O O12 0.370304 0.772358 0.875689
O O13 0.523698 0.765863 0.969713
O O14 0.910711 0.500000 0.763857
O O15 0.996794 0.212501 0.834890
O O16 0.720051 0.500000 0.075109
O O17 0.693861 0.776323 0.096867
O O18 0.666854 0.781720 0.991764
O O19 0.376442 0.500000 0.928447
O O20 0.119391 0.000000 0.913901
#
# Coordination Sequence:
#
# PCOD9178832 Si02
#       8
#     8   8   8   8   8   8   8   8
#     4   9  18  30  45  66  91 117 147 185 229 268
#     4   9  17  31  48  64  86 118 153 188 222 264
#     4  10  20  31  45  66  90 120 157 189 221 259
#     4   9  16  30  50  66  87 117 152 185 221 273
#     4  11  20  28  43  70  98 120 145 183 230 270
#     4  10  19  31  47  65  89 121 155 187 222 260
#     4   8  15  29  49  68  84 114 155 190 219 262
#     4  10  19  32  46  62  89 126 162 185 207 259
#
# _framework density 17.590123999999999
#
# number of rings (size 3 to 8) (size 9 to 14) (size 15 to 20)
#    0.000    2.500    2.500    1.500    0.000    2.000 
#    0.000    1.875    0.000    0.000    0.000    0.875 
#    0.000    7.000    0.000    0.000    0.000    0.000 
#
# Total GULP energy -178421.374790 kJ/mol
# GULP energy per Si atom -5575.667962 kJ/mol
# Density = 1.755009 g / cm^3
# Si number density = 17.590124 Si / 1000 Ang^3
#
#
#
# Elastic Constant Matrix: (Units=GPa)
#
#
# Indices 1 2 3 4 5 6 
#
# 1 114.4694 -9.5822 82.2677 -0.0006 -0.3440 -0.0007
# 2 -9.5822 31.5207 -10.3820 -0.0004 1.6121 0.0035
# 3 82.2677 -10.3820 131.3668 -0.0002 -4.4527 0.0000
# 4 -0.0006 -0.0004 -0.0002 3.6122 0.0001 6.4164
# 5 -0.3440 1.6121 -4.4527 0.0001 24.5558 0.0001
# 6 -0.0007 0.0035 0.0000 6.4164 0.0001 13.8647
#
#
#
# Elastic Compliance Matrix: (Units=1/GPa)
#
#
# Indices 1 2 3 4 5 6 
#
# 1 0.016034 0.001678 -0.009966 0.000008 -0.001693 -0.000003
# 2 0.001678 0.032818 0.001479 0.000101 -0.001863 -0.000055
# 3 -0.009966 0.001479 0.014048 0.000005 0.002311 -0.000003
# 4 0.000008 0.000101 0.000005 1.555657 -0.000006 -0.719940
# 5 -0.001693 -0.001863 0.002311 -0.000006 0.041241 0.000003
# 6 -0.000003 -0.000055 -0.000003 -0.719940 0.000003 0.405305
#
#
# Mechanical properties :
#
#
# Convention : Reuss Voigt Hill
#
# Bulk Modulus (GPa) = 20.29051 44.66266 32.47659
# Shear Modulus (GPa) = 2.38647 22.74345 12.56496
#
# Velocity S-wave (km/s) = 1.16604 3.59969 2.67557
# Velocity P-wave (km/s) = 3.65692 6.53627 5.29603
#
# Compressibility (1/GPa) = 0.04928412
#
# Stress axis : x y z
#
# Youngs Moduli (GPa) = 62.36923 30.47118 71.18228
#
# Poissons Ratio (x) = -0.05114 0.70938
# Poissons Ratio (y) = -0.10467 -0.10531
# Poissons Ratio (z) = 0.62155 -0.04508
#
# Static dielectric constant tensor:
#      x y z
#    x 1.582760 0.000000 -0.023350 
#    y 0.000000 1.723260 0.000000 
#    z -0.023350 0.000000 1.620530 
# 
# From -- ./inp_files/248266.got.cif
#   From: 2010.05.17/outbox.cif.g08.bks.cpg/sg12_125_cif.got.tgz:248266.got - 2010.06.03 13:09:07.
