data_PCOD9178780
_publ_section_title
;
Structure prediction by ZEFSAII (Michael W. Deem and Ramdas Pophale) SiO2 
 PCOD9178780
Probable space group: C 2/M
;
_chemical_formula_sum "Si O2"
_cell_formula_units_Z 64
_cell_length_a 23.033767
_cell_length_b 8.752577
_cell_length_c 24.126825
_cell_angle_alpha 90.000000
_cell_angle_beta 125.336894
_cell_angle_gamma 90.000000
_cell_volume 3967.951227
_symmetry_space_group_name_H-M "C 2/M"
_symmetry_group_IT_number 12
_symmetry_cell_setting 'monoclinic'
loop_
_space_group_symop_operation_xyz
x,y,z
-x,y,-z
-x,-y,-z
x,-y,z
1/2+x,1/2+y,z
1/2-x,1/2+y,-z
1/2-x,1/2-y,-z
1/2+x,1/2-y,z
loop_
_atom_site_type_symbol
_atom_site_label
_atom_site_fract_x
_atom_site_fract_y
_atom_site_fract_z
Si Si1 0.084709 0.821761 0.370540
Si Si2 0.075860 0.683777 0.069033
Si Si3 0.844593 0.182007 0.104401
Si Si4 0.404910 0.315764 0.798856
Si Si5 0.015763 0.318378 0.771643
Si Si6 0.180019 0.683480 0.027606
Si Si7 0.790628 0.821368 0.654296
Si Si8 0.809639 0.315298 0.491101
O O1 0.147703 0.811930 0.358855
O O2 0.116459 0.745257 0.443339
O O3 0.018291 0.741421 0.304478
O O4 0.070653 0.000000 0.372015
O O5 0.077276 0.500000 0.077624
O O6 0.086042 0.762231 0.133629
O O7 0.136730 0.725545 0.058467
O O8 0.000000 0.723255 0.000000
O O9 0.904329 0.262588 0.173905
O O10 0.763749 0.220683 0.077362
O O11 0.853678 0.000000 0.112434
O O12 0.850885 0.236620 0.044178
O O13 0.406721 0.500000 0.796137
O O14 0.467833 0.251231 0.794906
O O15 0.330138 0.258555 0.730327
O O16 0.011168 0.500000 0.771304
O O17 0.173676 0.500000 0.016398
O O18 0.719049 0.762023 0.585130
O O19 0.777089 0.000000 0.657679
O O20 0.808353 0.500000 0.492231
O O21 0.750000 0.250000 0.500000
#
# Coordination Sequence:
#
# PCOD9178780 Si02
#       8
#     8   8   8   8   8   8   8   8
#     4   9  16  26  38  57  85 114 147 186 223 264
#     4  10  20  33  48  67  93 122 150 183 224 268
#     4  10  19  32  50  69  90 117 150 188 227 268
#     4  10  19  31  46  66  91 119 153 190 226 266
#     4  11  20  30  45  65  90 121 154 187 228 274
#     4   9  19  34  50  69  93 120 149 183 226 272
#     4   7  13  24  37  54  80 112 144 179 216 256
#     4   9  14  22  36  54  79 114 150 182 220 264
#
# _framework density 16.129231000000001
#
# number of rings (size 3 to 8) (size 9 to 14) (size 15 to 20)
#    0.000    2.625    0.000    4.875    0.000    2.250 
#    0.000    1.875    0.000    0.000    0.000    0.000 
#    0.000    1.000    0.000   11.500    0.000    5.750 
#
# Total GULP energy -178220.734414 kJ/mol
# GULP energy per Si atom -5569.397950 kJ/mol
# Density = 1.609252 g / cm^3
# Si number density = 16.129231 Si / 1000 Ang^3
#
#
#
# Elastic Constant Matrix: (Units=GPa)
#
#
# Indices 1 2 3 4 5 6 
#
# 1 33.6627 18.4558 35.2689 0.0000 3.6101 0.0000
# 2 18.4558 61.8673 55.2943 0.0000 8.3050 0.0000
# 3 35.2689 55.2943 166.5854 0.0000 16.5449 0.0000
# 4 0.0000 0.0000 0.0000 23.7635 0.0000 1.8826
# 5 3.6101 8.3050 16.5449 0.0000 16.1356 0.0000
# 6 0.0000 0.0000 0.0000 1.8826 0.0000 13.5838
#
#
#
# Elastic Compliance Matrix: (Units=1/GPa)
#
#
# Indices 1 2 3 4 5 6 
#
# 1 0.039775 -0.006228 -0.006445 0.000000 0.000915 0.000000
# 2 -0.006228 0.024249 -0.006267 0.000000 -0.004661 0.000000
# 3 -0.006445 -0.006267 0.010003 0.000000 -0.005589 0.000000
# 4 0.000000 0.000000 0.000000 0.042549 0.000000 -0.005897
# 5 0.000915 -0.004661 -0.005589 0.000000 0.069900 0.000000
# 6 0.000000 0.000000 0.000000 -0.005897 0.000000 0.074435
#
#
# Mechanical properties :
#
#
# Convention : Reuss Voigt Hill
#
# Bulk Modulus (GPa) = 27.66538 53.35036 40.50787
# Shear Modulus (GPa) = 16.08553 20.90300 18.49426
#
# Velocity S-wave (km/s) = 3.16142 3.60386 3.38987
# Velocity P-wave (km/s) = 5.52410 7.10392 6.36323
#
# Compressibility (1/GPa) = 0.03614626
#
# Stress axis : x y z
#
# Youngs Moduli (GPa) = 25.14133 41.23935 99.97329
#
# Poissons Ratio (x) = 0.25685 0.64428
# Poissons Ratio (y) = 0.15659 0.62656
# Poissons Ratio (z) = 0.16202 0.25846
#
# Static dielectric constant tensor:
#      x y z
#    x 1.518590 0.000000 0.021380 
#    y 0.000000 1.541990 0.000000 
#    z 0.021380 0.000000 1.582770 
# 
# From -- ./inp_files/348581.got.cif
#   From: 2010.05.17/outbox.cif.g08.bks.cpg/sg12_175_cif.got.tgz:348581.got - 2010.06.03 13:09:07.
