data_PCOD9178197
_publ_section_title
;
Structure prediction by ZEFSAII (Michael W. Deem and Ramdas Pophale) SiO2 
 PCOD9178197
Probable space group: C 2/M
;
_chemical_formula_sum "Si O2"
_cell_formula_units_Z 48
_cell_length_a 23.310070
_cell_length_b 9.463640
_cell_length_c 9.637160
_cell_angle_alpha 90.000000
_cell_angle_beta 108.582572
_cell_angle_gamma 90.000000
_cell_volume 2015.104266
_symmetry_space_group_name_H-M "C 2/M"
_symmetry_group_IT_number 12
_symmetry_cell_setting 'monoclinic'
loop_
_space_group_symop_operation_xyz
x,y,z
-x,y,-z
-x,-y,-z
x,-y,z
1/2+x,1/2+y,z
1/2-x,1/2+y,-z
1/2-x,1/2-y,-z
1/2+x,1/2-y,z
loop_
_atom_site_type_symbol
_atom_site_label
_atom_site_fract_x
_atom_site_fract_y
_atom_site_fract_z
Si Si1 0.137771 0.160760 0.038099
Si Si2 0.449958 0.840070 0.839295
Si Si3 0.248350 0.660693 0.151203
Si Si4 0.632403 0.667975 0.577982
Si Si5 0.806317 0.657100 0.588547
Si Si6 0.965401 0.839873 0.279013
O O1 0.201302 0.232475 0.038117
O O2 0.099928 0.238855 0.129684
O O3 0.150873 0.000000 0.091693
O O4 0.090266 0.158414 0.874644
O O5 0.486484 0.769884 0.741647
O O6 0.426981 0.000000 0.792152
O O7 0.500000 0.852663 0.000000
O O8 0.253004 0.500000 0.098334
O O9 0.312725 0.703380 0.270851
O O10 0.206219 0.646758 0.258407
O O11 0.639484 0.500000 0.554955
O O12 0.639865 0.760596 0.446236
O O13 0.568525 0.690897 0.603669
O O14 0.803308 0.500000 0.527113
O O15 0.750000 0.750000 0.500000
O O16 0.990587 0.000000 0.300951
#
# Coordination Sequence:
#
# PCOD9178197 Si02
#       6
#     8   8   8   8   8   8
#     4  10  19  30  47  70  95 125 158 191 229 275
#     4   9  17  30  48  68  90 120 158 195 230 272
#     4   9  18  31  46  67  96 126 154 189 232 273
#     4   9  18  32  49  69  96 127 155 189 233 277
#     4   9  17  30  48  68  91 121 158 196 231 271
#     4   9  18  32  48  69  97 125 154 190 232 276
#
# _framework density 23.820108999999999
#
# number of rings (size 3 to 8) (size 9 to 14) (size 15 to 20)
#    0.000    2.833    0.000    2.500    0.000    7.333 
#    0.000    0.000    0.000    1.000    0.000    7.000 
#    0.000    0.000    0.000    0.000    0.000    0.000 
#
# Total GULP energy -133987.272629 kJ/mol
# GULP energy per Si atom -5582.803026 kJ/mol
# Density = 2.376589 g / cm^3
# Si number density = 23.820109 Si / 1000 Ang^3
#
#
#
# Elastic Constant Matrix: (Units=GPa)
#
#
# Indices 1 2 3 4 5 6 
#
# 1 131.5365 41.5815 -11.3095 0.0000 1.6122 0.0000
# 2 41.5815 59.1163 -25.3575 0.0000 5.4945 0.0000
# 3 -11.3095 -25.3575 10.4701 0.0000 10.3839 0.0000
# 4 0.0000 0.0000 0.0000 13.8924 0.0000 -20.0176
# 5 1.6122 5.4945 10.3839 0.0000 41.8054 0.0000
# 6 0.0000 0.0000 0.0000 -20.0176 0.0000 30.9028
#
#
#
# Elastic Compliance Matrix: (Units=1/GPa)
#
#
# Indices 1 2 3 4 5 6 
#
# 1 0.008757 0.000468 0.014580 0.000000 -0.004021 0.000000
# 2 0.000468 -0.031128 -0.104719 0.000000 0.030084 0.000000
# 3 0.014580 -0.104719 -0.206263 0.000000 0.064434 0.000000
# 4 0.000000 0.000000 0.000000 1.080139 0.000000 0.699670
# 5 -0.004021 0.030084 0.064434 0.000000 0.004117 0.000000
# 6 0.000000 0.000000 0.000000 0.699670 0.000000 0.485577
#
#
# Mechanical properties :
#
#
# Convention : Reuss Voigt Hill
#
# Bulk Modulus (GPa) = -2.45112 23.43908 10.49398
# Shear Modulus (GPa) = 3.61128 30.40069 17.00599
#
# Velocity S-wave (km/s) = 1.23262 3.57636 2.67485
# Velocity P-wave (km/s) = 0.99728 5.18798 3.73562
#
# Compressibility (1/GPa) = -0.40797650
#
# Stress axis : x y z
#
# Youngs Moduli (GPa) = 114.18833 -32.12590 -4.84818
#
# Poissons Ratio (x) = 0.01502 0.07068
# Poissons Ratio (y) = -0.05339 -0.50769
# Poissons Ratio (z) = -1.66481 -3.36418
#
# Static dielectric constant tensor:
#      x y z
#    x 1.944560 0.000000 0.005190 
#    y 0.000000 1.883770 0.000000 
#    z 0.005190 0.000000 2.093510 
# 
# From -- ./inp_files/172161.got.cif
#   From: 2010.05.17/outbox.cif.g08.bks.cpg/sg12_87_cif.got.tgz:172161.got - 2010.06.03 13:09:07.
