data_PCOD9178991
_publ_section_title
;
Structure prediction by ZEFSAII (Michael W. Deem and Ramdas Pophale) SiO2 
 PCOD9178991
Probable space group: C 2/M
;
_chemical_formula_sum "Si O2"
_cell_formula_units_Z 64
_cell_length_a 32.357005
_cell_length_b 7.577465
_cell_length_c 13.400644
_cell_angle_alpha 90.000000
_cell_angle_beta 74.227411
_cell_angle_gamma 90.000000
_cell_volume 3161.914621
_symmetry_space_group_name_H-M "C 2/M"
_symmetry_group_IT_number 12
_symmetry_cell_setting 'monoclinic'
loop_
_space_group_symop_operation_xyz
x,y,z
-x,y,-z
-x,-y,-z
x,-y,z
1/2+x,1/2+y,z
1/2-x,1/2+y,-z
1/2-x,1/2-y,-z
1/2+x,1/2-y,z
loop_
_atom_site_type_symbol
_atom_site_label
_atom_site_fract_x
_atom_site_fract_y
_atom_site_fract_z
Si Si1 0.799250 0.709592 0.463749
Si Si2 0.782977 0.787655 0.118694
Si Si3 0.149605 0.200812 0.763355
Si Si4 0.008645 0.215793 0.377793
Si Si5 0.633233 0.796692 0.438819
Si Si6 0.690856 0.288063 0.119601
Si Si7 0.899435 0.802997 0.742743
Si Si8 0.921657 0.214414 0.330686
O O1 0.806946 0.500000 0.448027
O O2 0.750000 0.750000 0.500000
O O3 0.821824 0.800719 0.355743
O O4 0.820619 0.764233 0.553769
O O5 0.818266 0.719452 0.174920
O O6 0.732028 0.749417 0.163277
O O7 0.785798 0.000000 0.119310
O O8 0.796180 0.724569 0.999409
O O9 0.104129 0.276221 0.751605
O O10 0.140292 0.000000 0.802011
O O11 0.053439 0.280335 0.300358
O O12 0.000000 0.271349 0.500000
O O13 0.970017 0.264294 0.328290
O O14 0.010809 0.000000 0.380663
O O15 0.614279 0.684930 0.363492
O O16 0.604829 0.780851 0.556453
O O17 0.634479 0.000000 0.405141
O O18 0.687300 0.500000 0.119651
O O19 0.643357 0.220928 0.179868
O O20 0.905187 0.000000 0.782616
O O21 0.919687 0.000000 0.330883
#
# Coordination Sequence:
#
# PCOD9178991 Si02
#       8
#     8   8   8   8   8   8   8   8
#     4  10  21  33  44  63  93 126 158 192 229 277
#     4   9  18  34  52  70  95 122 153 197 246 287
#     4   9  18  31  49  69  90 122 157 193 237 280
#     4   9  15  26  47  70  92 123 161 197 228 268
#     4  10  20  31  43  64  95 125 154 191 234 271
#     4   9  19  33  50  72  94 121 158 197 238 286
#     4  10  19  31  48  69  93 125 161 195 232 278
#     4   9  16  30  49  67  90 123 163 191 221 278
#
# _framework density 20.2409
#
# number of rings (size 3 to 8) (size 9 to 14) (size 15 to 20)
#    0.000    2.625    1.250    0.750    1.750    2.500 
#    0.000    1.250    0.000    0.750    0.000    5.250 
#    0.000    0.000    0.000   13.625    0.000   14.250 
#
# Total GULP energy -178166.614649 kJ/mol
# GULP energy per Si atom -5567.706708 kJ/mol
# Density = 2.019483 g / cm^3
# Si number density = 20.240900 Si / 1000 Ang^3
#
#
#
# Elastic Constant Matrix: (Units=GPa)
#
#
# Indices 1 2 3 4 5 6 
#
# 1 214.6006 4.5378 52.5557 0.0000 -0.3855 0.0000
# 2 4.5378 48.1033 0.1879 0.0000 2.2076 0.0000
# 3 52.5557 0.1879 48.1406 0.0000 2.0190 0.0000
# 4 0.0000 0.0000 0.0000 16.6048 0.0000 3.7055
# 5 -0.3855 2.2076 2.0190 0.0000 35.3971 0.0000
# 6 0.0000 0.0000 0.0000 3.7055 0.0000 10.7905
#
#
#
# Elastic Compliance Matrix: (Units=1/GPa)
#
#
# Indices 1 2 3 4 5 6 
#
# 1 0.006385 -0.000598 -0.006990 0.000000 0.000506 0.000000
# 2 -0.000598 0.020904 0.000628 0.000000 -0.001346 0.000000
# 3 -0.006990 0.000628 0.028474 0.000000 -0.001739 0.000000
# 4 0.000000 0.000000 0.000000 0.065222 0.000000 -0.022397
# 5 0.000506 -0.001346 -0.001739 0.000000 0.028440 0.000000
# 6 0.000000 0.000000 0.000000 -0.022397 0.000000 0.100366
#
#
# Mechanical properties :
#
#
# Convention : Reuss Voigt Hill
#
# Bulk Modulus (GPa) = 23.89866 47.26748 35.58307
# Shear Modulus (GPa) = 18.00777 29.46267 23.73522
#
# Velocity S-wave (km/s) = 2.98597 3.81937 3.42809
# Velocity P-wave (km/s) = 4.87040 6.54624 5.76949
#
# Compressibility (1/GPa) = 0.04184335
#
# Stress axis : x y z
#
# Youngs Moduli (GPa) = 156.61398 47.83694 35.12023
#
# Poissons Ratio (x) = 0.02862 0.24548
# Poissons Ratio (y) = 0.09369 -0.02205
# Poissons Ratio (z) = 1.09467 -0.03004
#
# Static dielectric constant tensor:
#      x y z
#    x 1.815810 0.000000 0.005950 
#    y 0.000000 1.770610 0.000000 
#    z 0.005950 0.000000 1.695080 
# 
# From -- ./inp_files/248312.got.cif
#   From: 2010.05.17/outbox.cif.g08.bks.cpg/sg12_125_cif.got.tgz:248312.got - 2010.06.03 13:09:07.
