data_PCOD9178204
_publ_section_title
;
Structure prediction by ZEFSAII (Michael W. Deem and Ramdas Pophale) SiO2 
 PCOD9178204
Probable space group: C 2/M
;
_chemical_formula_sum "Si O2"
_cell_formula_units_Z 64
_cell_length_a 19.771276
_cell_length_b 30.127217
_cell_length_c 18.121433
_cell_angle_alpha 90.000000
_cell_angle_beta 22.372343
_cell_angle_gamma 90.000000
_cell_volume 4108.492288
_symmetry_space_group_name_H-M "C 2/M"
_symmetry_group_IT_number 12
_symmetry_cell_setting 'monoclinic'
loop_
_space_group_symop_operation_xyz
x,y,z
-x,y,-z
-x,-y,-z
x,-y,z
1/2+x,1/2+y,z
1/2-x,1/2+y,-z
1/2-x,1/2-y,-z
1/2+x,1/2-y,z
loop_
_atom_site_type_symbol
_atom_site_label
_atom_site_fract_x
_atom_site_fract_y
_atom_site_fract_z
Si Si1 0.701815 0.552136 0.777931
Si Si2 0.964297 0.833095 0.123461
Si Si3 0.967022 0.728629 0.121108
Si Si4 0.458864 0.052159 0.660908
Si Si5 0.932358 0.326253 0.489902
Si Si6 0.275081 0.133989 0.906712
Si Si7 0.073414 0.779713 0.505054
Si Si8 0.733203 0.706156 0.069545
O O1 0.673871 0.500000 0.791343
O O2 0.822503 0.556439 0.729378
O O3 0.843817 0.564786 0.569320
O O4 0.500000 0.569711 0.000000
O O5 0.983883 0.781033 0.124727
O O6 0.758426 0.844058 0.340525
O O7 0.000000 0.834641 0.000000
O O8 0.097262 0.862955 0.036379
O O9 0.772585 0.707843 0.325927
O O10 0.000000 0.726342 0.000000
O O11 0.107474 0.705757 0.032233
O O12 0.372094 0.086110 0.807448
O O13 0.461761 0.000000 0.679270
O O14 0.911537 0.273574 0.519787
O O15 0.000000 0.344610 0.500000
O O16 0.082797 0.335645 0.279725
O O17 0.234970 0.160753 0.021393
O O18 0.000000 0.796730 0.500000
O O19 0.941728 0.789470 0.704299
O O20 0.750000 0.750000 0.000000
#
# Coordination Sequence:
#
# PCOD9178204 Si02
#       8
#     8   8   8   8   8   8   8   8
#     4   8  15  31  53  72  92 126 173 219 249 284
#     4  10  19  30  47  70  96 133 176 203 240 297
#     4  10  19  34  55  70  95 138 174 200 245 303
#     4   9  20  34  48  69  97 133 173 209 257 308
#     4  10  19  30  47  70  96 131 174 205 244 296
#     4  12  23  33  47  72 104 131 165 223 254 289
#     4  10  19  34  55  70  95 137 173 203 245 300
#     4  12  22  35  49  76 106 130 168 216 253 293
#
# _framework density 15.577491
#
# number of rings (size 3 to 8) (size 9 to 14) (size 15 to 20)
#    0.000    1.875    5.000    0.750    1.750    3.000 
#    0.000    0.000    0.000    0.000    0.000    0.000 
#    0.000    1.000    0.000    0.000    0.000    0.250 
#
# Total GULP energy -178262.867536 kJ/mol
# GULP energy per Si atom -5570.714610 kJ/mol
# Density = 1.554204 g / cm^3
# Si number density = 15.577491 Si / 1000 Ang^3
#
#
#
# Elastic Constant Matrix: (Units=GPa)
#
#
# Indices 1 2 3 4 5 6 
#
# 1 65.4923 26.7937 46.0082 0.0097 -9.0510 0.0216
# 2 26.7937 65.5419 21.4295 0.0804 -0.8688 0.0064
# 3 46.0082 21.4295 132.1977 0.1031 -17.8770 0.0896
# 4 0.0097 0.0804 0.1031 40.3302 0.0044 0.4064
# 5 -9.0510 -0.8688 -17.8770 0.0044 27.4372 -0.0467
# 6 0.0216 0.0064 0.0896 0.4064 -0.0467 16.1987
#
#
#
# Elastic Compliance Matrix: (Units=1/GPa)
#
#
# Indices 1 2 3 4 5 6 
#
# 1 0.023269 -0.007354 -0.006469 0.000025 0.003228 0.000016
# 2 -0.007354 0.018479 -0.000751 -0.000033 -0.002330 0.000001
# 3 -0.006469 -0.000751 0.010578 -0.000024 0.004734 -0.000035
# 4 0.000025 -0.000033 -0.000024 0.024802 -0.000014 -0.000622
# 5 0.003228 -0.002330 0.004734 -0.000014 0.040523 0.000087
# 6 0.000016 0.000001 -0.000035 -0.000622 0.000087 0.061749
#
#
# Mechanical properties :
#
#
# Convention : Reuss Voigt Hill
#
# Bulk Modulus (GPa) = 43.14888 50.18831 46.66859
# Shear Modulus (GPa) = 23.11888 28.05992 25.58940
#
# Velocity S-wave (km/s) = 3.85661 4.24879 4.05744
# Velocity P-wave (km/s) = 6.89861 7.50720 7.20933
#
# Compressibility (1/GPa) = 0.02317557
#
# Stress axis : x y z
#
# Youngs Moduli (GPa) = 42.97655 54.11678 94.53622
#
# Poissons Ratio (x) = 0.39799 0.61160
# Poissons Ratio (y) = 0.31606 0.07100
# Poissons Ratio (z) = 0.27803 0.04064
#
# Static dielectric constant tensor:
#      x y z
#    x 1.507440 -0.000080 -0.027140 
#    y -0.000080 1.557310 0.000030 
#    z -0.027140 0.000030 1.549630 
# 
# From -- ./inp_files/286775.got.cif
#   From: 2010.05.17/outbox.cif.g08.bks.cpg/sg12_144_cif.got.tgz:286775.got - 2010.06.03 13:09:07.
