data_PCOD9178193
_publ_section_title
;
Structure prediction by ZEFSAII (Michael W. Deem and Ramdas Pophale) SiO2 
 PCOD9178193
Probable space group: C 2/M
;
_chemical_formula_sum "Si O2"
_cell_formula_units_Z 64
_cell_length_a 5.473894
_cell_length_b 24.794874
_cell_length_c 22.750945
_cell_angle_alpha 90.000000
_cell_angle_beta 70.869706
_cell_angle_gamma 90.000000
_cell_volume 2917.336168
_symmetry_space_group_name_H-M "C 2/M"
_symmetry_group_IT_number 12
_symmetry_cell_setting 'monoclinic'
loop_
_space_group_symop_operation_xyz
x,y,z
-x,y,-z
-x,-y,-z
x,-y,z
1/2+x,1/2+y,z
1/2-x,1/2+y,-z
1/2-x,1/2-y,-z
1/2+x,1/2-y,z
loop_
_atom_site_type_symbol
_atom_site_label
_atom_site_fract_x
_atom_site_fract_y
_atom_site_fract_z
Si Si1 0.098827 0.842234 0.195281
Si Si2 0.411364 0.125054 0.073269
Si Si3 0.280279 0.833998 0.477838
Si Si4 0.589173 0.560375 0.925428
Si Si5 0.922818 0.587667 0.373890
Si Si6 0.944012 0.745719 0.298429
Si Si7 0.034172 0.372961 0.240871
Si Si8 0.835813 0.057972 0.437515
O O1 0.277456 0.829013 0.124601
O O2 0.019200 0.791801 0.243752
O O3 0.291100 0.881108 0.217147
O O4 0.832053 0.871165 0.197618
O O5 0.656424 0.098359 0.087582
O O6 0.171527 0.083406 0.084240
O O7 0.500000 0.140679 0.000000
O O8 0.500000 0.808028 0.500000
O O9 0.377319 0.852813 0.406333
O O10 0.229138 0.891801 0.515757
O O11 0.000000 0.808141 0.500000
O O12 0.655055 0.500000 0.898044
O O13 0.500000 0.555381 0.000000
O O14 0.637891 0.562108 0.398000
O O15 0.013005 0.591040 0.300197
O O16 0.147367 0.562728 0.396390
O O17 0.143242 0.751250 0.335368
O O18 0.989543 0.688512 0.265257
O O19 0.788920 0.000000 0.470011
#
# Coordination Sequence:
#
# PCOD9178193 Si02
#       8
#     8   8   8   8   8   8   8   8
#     4  10  19  33  53  74 100 126 159 204 251 304
#     4  10  19  31  51  77 101 129 164 207 255 296
#     4   8  16  27  42  66  94 120 159 204 245 281
#     4   9  17  30  49  73  98 125 162 202 237 280
#     4  10  19  30  47  70  94 126 170 208 241 284
#     4   8  16  30  50  72  92 118 155 199 245 289
#     4  10  19  33  52  71  97 129 165 204 243 293
#     4  10  19  31  48  70  99 133 170 210 247 287
#
# _framework density 21.937819000000001
#
# number of rings (size 3 to 8) (size 9 to 14) (size 15 to 20)
#    0.000    2.625    0.000    2.250    0.000    6.000 
#    0.000    0.000    0.000   21.750    0.000    0.000 
#    0.000  243.000    0.000    0.000    0.000    0.000 
#
# Total GULP energy -178218.573832 kJ/mol
# GULP energy per Si atom -5569.330432 kJ/mol
# Density = 2.188789 g / cm^3
# Si number density = 21.937819 Si / 1000 Ang^3
#
#
#
# Elastic Constant Matrix: (Units=GPa)
#
#
# Indices 1 2 3 4 5 6 
#
# 1 216.9749 14.9148 13.3383 0.0000 10.9336 0.0000
# 2 14.9148 51.9832 9.4430 0.0000 -2.7272 0.0000
# 3 13.3383 9.4430 52.4855 0.0000 2.1688 0.0000
# 4 0.0000 0.0000 0.0000 12.4840 0.0000 -1.6389
# 5 10.9336 -2.7272 2.1688 0.0000 28.6483 0.0000
# 6 0.0000 0.0000 0.0000 -1.6389 0.0000 4.8921
#
#
#
# Elastic Compliance Matrix: (Units=1/GPa)
#
#
# Indices 1 2 3 4 5 6 
#
# 1 0.004852 -0.001326 -0.000916 0.000000 -0.001909 0.000000
# 2 -0.001326 0.020385 -0.003442 0.000000 0.002707 0.000000
# 3 -0.000916 -0.003442 0.019966 0.000000 -0.001490 0.000000
# 4 0.000000 0.000000 0.000000 0.083788 0.000000 0.028070
# 5 -0.001909 0.002707 -0.001490 0.000000 0.036005 0.000000
# 6 0.000000 0.000000 0.000000 0.028070 0.000000 0.213817
#
#
# Mechanical properties :
#
#
# Convention : Reuss Voigt Hill
#
# Bulk Modulus (GPa) = 29.55488 44.09288 36.82388
# Shear Modulus (GPa) = 12.45455 28.12137 20.28796
#
# Velocity S-wave (km/s) = 2.38527 3.58420 3.04434
# Velocity P-wave (km/s) = 4.59210 6.10502 5.40179
#
# Compressibility (1/GPa) = 0.03383536
#
# Stress axis : x y z
#
# Youngs Moduli (GPa) = 206.08093 49.05617 50.08391
#
# Poissons Ratio (x) = 0.06505 0.04586
# Poissons Ratio (y) = 0.27327 0.17241
# Poissons Ratio (z) = 0.18871 0.16887
#
# Static dielectric constant tensor:
#      x y z
#    x 1.893210 0.000000 0.014720 
#    y 0.000000 1.808250 0.000000 
#    z 0.014720 0.000000 1.841900 
# 
# From -- ./inp_files/298522.got.cif
#   From: 2010.05.17/outbox.cif.g08.bks.cpg/sg12_150_cif.got.tgz:298522.got - 2010.06.03 13:09:07.
