data_PCOD9178014
_publ_section_title
;
Structure prediction by ZEFSAII (Michael W. Deem and Ramdas Pophale) SiO2 
 PCOD9178014
Probable space group: C 2/M
;
_chemical_formula_sum "Si O2"
_cell_formula_units_Z 48
_cell_length_a 26.315528
_cell_length_b 7.975000
_cell_length_c 12.195585
_cell_angle_alpha 90.000000
_cell_angle_beta 91.340471
_cell_angle_gamma 90.000000
_cell_volume 2558.742306
_symmetry_space_group_name_H-M "C 2/M"
_symmetry_group_IT_number 12
_symmetry_cell_setting 'monoclinic'
loop_
_space_group_symop_operation_xyz
x,y,z
-x,y,-z
-x,-y,-z
x,-y,z
1/2+x,1/2+y,z
1/2-x,1/2+y,-z
1/2-x,1/2-y,-z
1/2+x,1/2-y,z
loop_
_atom_site_type_symbol
_atom_site_label
_atom_site_fract_x
_atom_site_fract_y
_atom_site_fract_z
Si Si1 0.059991 0.692855 0.512718
Si Si2 0.090655 0.698538 0.279297
Si Si3 0.309061 0.699911 0.627760
Si Si4 0.693214 0.297299 0.624630
Si Si5 0.597755 0.692135 0.740406
Si Si6 0.002985 0.798446 0.875621
O O1 0.078920 0.500000 0.528504
O O2 0.077639 0.768852 0.398992
O O3 0.073980 0.801166 0.617786
O O4 0.000000 0.681706 0.500000
O O5 0.082618 0.500000 0.283240
O O6 0.150805 0.733540 0.280636
O O7 0.049691 0.763136 0.190543
O O8 0.312879 0.500000 0.626070
O O9 0.318706 0.761520 0.501612
O O10 0.251209 0.749627 0.650157
O O11 0.689196 0.500000 0.622747
O O12 0.653402 0.233647 0.714508
O O13 0.605527 0.500000 0.777209
O O14 0.553722 0.767856 0.815782
O O15 0.008104 0.000000 0.878133
O O16 0.000000 0.735912 0.000000
#
# Coordination Sequence:
#
# PCOD9178014 Si02
#       6
#     8   8   8   8   8   8
#     4  10  19  30  45  73 107 135 166 204 253 307
#     4  11  21  33  52  76 106 140 171 210 256 306
#     4  10  19  31  49  75 107 140 171 206 250 305
#     4   9  18  31  47  73 107 140 171 203 248 306
#     4  10  19  32  52  75 103 137 171 208 252 305
#     4  10  22  38  55  76 102 135 175 218 261 303
#
# _framework density 18.759217
#
# number of rings (size 3 to 8) (size 9 to 14) (size 15 to 20)
#    0.000    2.000    3.333    1.000    0.000    2.667 
#    0.000    0.000    0.000    1.000    0.000    0.000 
#    0.000    0.000    0.000    0.000    0.000    0.000 
#
# Total GULP energy -133672.349915 kJ/mol
# GULP energy per Si atom -5569.681246 kJ/mol
# Density = 1.871652 g / cm^3
# Si number density = 18.759217 Si / 1000 Ang^3
#
#
#
# Elastic Constant Matrix: (Units=GPa)
#
#
# Indices 1 2 3 4 5 6 
#
# 1 155.0003 4.3250 70.2447 0.0000 -4.0600 0.0000
# 2 4.3250 22.4945 2.7752 0.0000 -6.3311 0.0000
# 3 70.2447 2.7752 99.2267 0.0000 -9.0795 0.0000
# 4 0.0000 0.0000 0.0000 11.0242 0.0000 4.3007
# 5 -4.0600 -6.3311 -9.0795 0.0000 12.0870 0.0000
# 6 0.0000 0.0000 0.0000 4.3007 0.0000 22.8715
#
#
#
# Elastic Compliance Matrix: (Units=1/GPa)
#
#
# Indices 1 2 3 4 5 6 
#
# 1 0.009608 -0.001827 -0.007026 0.000000 -0.003007 0.000000
# 2 -0.001827 0.052605 0.002456 0.000000 0.028785 0.000000
# 3 -0.007026 0.002456 0.015983 0.000000 0.010933 0.000000
# 4 0.000000 0.000000 0.000000 0.097891 0.000000 -0.018407
# 5 -0.003007 0.028785 0.010933 0.000000 0.105013 0.000000
# 6 0.000000 0.000000 0.000000 -0.018407 0.000000 0.047184
#
#
# Mechanical properties :
#
#
# Convention : Reuss Voigt Hill
#
# Bulk Modulus (GPa) = 15.28981 47.93460 31.61220
# Shear Modulus (GPa) = 13.77875 22.48831 18.13353
#
# Velocity S-wave (km/s) = 2.71312 3.46611 3.11247
# Velocity P-wave (km/s) = 4.24063 6.45186 5.45937
#
# Compressibility (1/GPa) = 0.06540305
#
# Stress axis : x y z
#
# Youngs Moduli (GPa) = 104.08266 19.00955 62.56567
#
# Poissons Ratio (x) = 0.03473 0.43956
# Poissons Ratio (y) = 0.19015 -0.15366
# Poissons Ratio (z) = 0.73124 -0.04669
#
# Static dielectric constant tensor:
#      x y z
#    x 1.745800 0.000000 -0.028230 
#    y 0.000000 1.700350 0.000000 
#    z -0.028230 0.000000 1.633780 
# 
# From -- ./inp_files/164193.got.cif
#   From: 2010.05.17/outbox.cif.g08.bks.cpg/sg12_83_cif.got.tgz:164193.got - 2010.06.03 13:09:07.
