data_PCOD9178450
_publ_section_title
;
Structure prediction by ZEFSAII (Michael W. Deem and Ramdas Pophale) SiO2 
 PCOD9178450
Probable space group: C 2/M
;
_chemical_formula_sum "Si O2"
_cell_formula_units_Z 40
_cell_length_a 26.192818
_cell_length_b 8.835643
_cell_length_c 30.403695
_cell_angle_alpha 90.000000
_cell_angle_beta 19.691388
_cell_angle_gamma 90.000000
_cell_volume 2370.920759
_symmetry_space_group_name_H-M "C 2/M"
_symmetry_group_IT_number 12
_symmetry_cell_setting 'monoclinic'
loop_
_space_group_symop_operation_xyz
x,y,z
-x,y,-z
-x,-y,-z
x,-y,z
1/2+x,1/2+y,z
1/2-x,1/2+y,-z
1/2-x,1/2-y,-z
1/2+x,1/2-y,z
loop_
_atom_site_type_symbol
_atom_site_label
_atom_site_fract_x
_atom_site_fract_y
_atom_site_fract_z
Si Si1 0.930936 0.181459 0.202708
Si Si2 0.177557 0.682386 0.859993
Si Si3 0.892556 0.181578 0.857913
Si Si4 0.755583 0.818955 0.101539
Si Si5 0.327227 0.317477 0.646348
O O1 0.784936 0.256392 0.299937
O O2 0.966242 0.220554 0.224991
O O3 0.917840 0.000000 0.210465
O O4 0.080820 0.224769 0.052675
O O5 0.186574 0.500000 0.856971
O O6 0.245613 0.757608 0.848208
O O7 0.261972 0.728574 0.746861
O O8 0.000000 0.723085 0.000000
O O9 0.874317 0.249153 0.824247
O O10 0.880008 0.000000 0.866584
O O11 0.750000 0.250000 0.000000
O O12 0.745854 0.000000 0.108235
O O13 0.500000 0.267034 0.500000
O O14 0.324036 0.500000 0.647431
#
# Coordination Sequence:
#
# PCOD9178450 Si02
#       5
#     8   8   8   8   8
#     4   9  18  31  48  72 101 132 165 203 247 294
#     4  10  19  32  51  74  99 133 168 204 253 301
#     4   9  17  29  46  72 103 133 165 205 252 299
#     4  10  19  30  48  76 104 131 165 208 254 295
#     4  10  21  35  51  73 101 133 169 206 247 297
#
# _framework density 16.871084
#
# number of rings (size 3 to 8) (size 9 to 14) (size 15 to 20)
#    0.000    2.400    2.000    2.400    0.000    5.600 
#    0.000    0.000    0.000    1.200    0.000    0.000 
#    0.000    0.000    0.000    0.000    0.000    0.000 
#
# Total GULP energy -111482.340621 kJ/mol
# GULP energy per Si atom -5574.117031 kJ/mol
# Density = 1.683268 g / cm^3
# Si number density = 16.871084 Si / 1000 Ang^3
#
#
#
# Elastic Constant Matrix: (Units=GPa)
#
#
# Indices 1 2 3 4 5 6 
#
# 1 188.6919 50.5624 71.8047 0.0037 -28.3772 0.0011
# 2 50.5624 29.3923 27.5588 0.0091 -8.1843 0.0048
# 3 71.8047 27.5588 93.1336 0.0271 -10.6523 0.0055
# 4 0.0037 0.0091 0.0271 12.7664 0.0041 -8.0061
# 5 -28.3772 -8.1843 -10.6523 0.0041 21.6722 -0.0017
# 6 0.0011 0.0048 0.0055 -8.0061 -0.0017 33.1961
#
#
#
# Elastic Compliance Matrix: (Units=1/GPa)
#
#
# Indices 1 2 3 4 5 6 
#
# 1 0.011934 -0.014532 -0.003964 0.000017 0.008190 0.000007
# 2 -0.014532 0.067698 -0.008562 -0.000037 0.002329 -0.000017
# 3 -0.003964 -0.008562 0.016279 -0.000033 -0.000422 -0.000009
# 4 0.000017 -0.000037 -0.000033 0.092289 -0.000023 0.022258
# 5 0.008190 0.002329 -0.000422 -0.000023 0.057537 -0.000003
# 6 0.000007 -0.000017 -0.000009 0.022258 -0.000003 0.035492
#
#
# Mechanical properties :
#
#
# Convention : Reuss Voigt Hill
#
# Bulk Modulus (GPa) = 23.92662 67.89662 45.91162
# Shear Modulus (GPa) = 14.31534 24.27973 19.29753
#
# Velocity S-wave (km/s) = 2.91608 3.79771 3.38571
# Velocity P-wave (km/s) = 5.05479 7.71763 6.52352
#
# Compressibility (1/GPa) = 0.04179446
#
# Stress axis : x y z
#
# Youngs Moduli (GPa) = 83.79558 14.77154 61.43049
#
# Poissons Ratio (x) = 0.21466 0.24351
# Poissons Ratio (y) = 1.21773 0.52595
# Poissons Ratio (z) = 0.33216 0.12647
#
# Static dielectric constant tensor:
#      x y z
#    x 1.590430 0.000000 -0.003610 
#    y 0.000000 1.561130 0.000000 
#    z -0.003610 0.000000 1.552320 
# 
# From -- ./inp_files/93022.got.cif
#   From: 2010.05.17/outbox.cif.g08.bks.cpg/sg12_47_cif.got.tgz:93022.got - 2010.06.03 13:09:07.
