data_PCOD9178912
_publ_section_title
;
Structure prediction by ZEFSAII (Michael W. Deem and Ramdas Pophale) SiO2 
 PCOD9178912
Probable space group: C 2/M
;
_chemical_formula_sum "Si O2"
_cell_formula_units_Z 48
_cell_length_a 30.177132
_cell_length_b 7.470263
_cell_length_c 8.294092
_cell_angle_alpha 90.000000
_cell_angle_beta 101.951986
_cell_angle_gamma 90.000000
_cell_volume 1829.213068
_symmetry_space_group_name_H-M "C 2/M"
_symmetry_group_IT_number 12
_symmetry_cell_setting 'monoclinic'
loop_
_space_group_symop_operation_xyz
x,y,z
-x,y,-z
-x,-y,-z
x,-y,z
1/2+x,1/2+y,z
1/2-x,1/2+y,-z
1/2-x,1/2-y,-z
1/2+x,1/2-y,z
loop_
_atom_site_type_symbol
_atom_site_label
_atom_site_fract_x
_atom_site_fract_y
_atom_site_fract_z
Si Si1 0.722844 0.786017 0.312822
Si Si2 0.856956 0.717279 0.538508
Si Si3 0.440521 0.781963 0.789844
Si Si4 0.697204 0.704075 0.827122
Si Si5 0.390849 0.787331 0.070945
Si Si6 0.026410 0.281572 0.677531
O O1 0.750000 0.750000 0.500000
O O2 0.673120 0.725172 0.328640
O O3 0.754665 0.712556 0.192956
O O4 0.720023 0.000000 0.287673
O O5 0.854998 0.500000 0.526297
O O6 0.908310 0.767257 0.614891
O O7 0.833172 0.784275 0.359228
O O8 0.492173 0.732814 0.797038
O O9 0.440507 0.000000 0.795477
O O10 0.414608 0.716187 0.928235
O O11 0.706534 0.500000 0.869625
O O12 0.662496 0.765991 0.937936
O O13 0.423041 0.721965 0.241166
O O14 0.396673 0.000000 0.068536
O O15 0.028168 0.500000 0.665956
O O16 0.000000 0.218108 0.500000
#
# Coordination Sequence:
#
# PCOD9178912 Si02
#       6
#     8   8   8   8   8   8
#     4   8  15  27  45  68  92 119 152 194 236 272
#     4   9  16  30  52  73  92 118 157 199 237 277
#     4   9  17  29  48  74  98 120 151 194 238 278
#     4  10  19  31  47  69  97 126 158 194 233 275
#     4  10  19  31  48  70  97 127 157 189 229 278
#     4   9  16  27  47  74  97 117 149 195 239 274
#
# _framework density 26.240793
#
# number of rings (size 3 to 8) (size 9 to 14) (size 15 to 20)
#    0.000    2.833    0.000    2.000    0.000    5.333 
#    0.000    1.667    0.000    6.500    0.000    0.000 
#    0.000    0.000    0.000    0.000    0.000    0.000 
#
# Total GULP energy -134036.954762 kJ/mol
# GULP energy per Si atom -5584.873115 kJ/mol
# Density = 2.618107 g / cm^3
# Si number density = 26.240793 Si / 1000 Ang^3
#
#
#
# Elastic Constant Matrix: (Units=GPa)
#
#
# Indices 1 2 3 4 5 6 
#
# 1 153.4829 3.1368 19.2781 0.0000 -6.0580 0.0000
# 2 3.1368 72.8298 6.1355 0.0000 2.7920 0.0000
# 3 19.2781 6.1355 89.5449 0.0000 -15.2598 0.0000
# 4 0.0000 0.0000 0.0000 -78.7791 0.0000 -71.1339
# 5 -6.0580 2.7920 -15.2598 0.0000 41.3483 0.0000
# 6 0.0000 0.0000 0.0000 -71.1339 0.0000 -43.6162
#
#
#
# Elastic Compliance Matrix: (Units=1/GPa)
#
#
# Indices 1 2 3 4 5 6 
#
# 1 0.006708 -0.000195 -0.001346 0.000000 0.000499 0.000000
# 2 -0.000195 0.013889 -0.001147 0.000000 -0.001389 0.000000
# 3 -0.001346 -0.001147 0.012288 0.000000 0.004415 0.000000
# 4 0.000000 0.000000 0.000000 0.026857 0.000000 -0.043802
# 5 0.000499 -0.001389 0.004415 0.000000 0.025981 0.000000
# 6 0.000000 0.000000 0.000000 -0.043802 0.000000 0.048510
#
#
# Mechanical properties :
#
#
# Convention : Reuss Voigt Hill
#
# Bulk Modulus (GPa) = 36.34865 41.43983 38.89424
# Shear Modulus (GPa) = 33.60712 2.94442 18.27577
#
# Velocity S-wave (km/s) = 3.58260 1.06043 2.64192
# Velocity P-wave (km/s) = 5.56735 4.16242 4.91534
#
# Compressibility (1/GPa) = 0.02751134
#
# Stress axis : x y z
#
# Youngs Moduli (GPa) = 149.07343 72.00004 81.37822
#
# Poissons Ratio (x) = 0.01402 0.10952
# Poissons Ratio (y) = 0.02902 0.09330
# Poissons Ratio (z) = 0.20062 0.08255
#
# Static dielectric constant tensor:
#      x y z
#    x 2.044490 0.000000 -0.043610 
#    y 0.000000 2.011180 0.000000 
#    z -0.043610 0.000000 2.108370 
# 
# From -- ./inp_files/108708.got.cif
#   From: 2010.05.17/outbox.cif.g08.bks.cpg/sg12_55_cif.got.tgz:108708.got - 2010.06.03 13:09:07.
