data_PCOD9178826
_publ_section_title
;
Structure prediction by ZEFSAII (Michael W. Deem and Ramdas Pophale) SiO2 
 PCOD9178826
Probable space group: C 2/M
;
_chemical_formula_sum "Si O2"
_cell_formula_units_Z 64
_cell_length_a 13.961687
_cell_length_b 9.426569
_cell_length_c 23.417398
_cell_angle_alpha 90.000000
_cell_angle_beta 66.597585
_cell_angle_gamma 90.000000
_cell_volume 2828.452214
_symmetry_space_group_name_H-M "C 2/M"
_symmetry_group_IT_number 12
_symmetry_cell_setting 'monoclinic'
loop_
_space_group_symop_operation_xyz
x,y,z
-x,y,-z
-x,-y,-z
x,-y,z
1/2+x,1/2+y,z
1/2-x,1/2+y,-z
1/2-x,1/2-y,-z
1/2+x,1/2-y,z
loop_
_atom_site_type_symbol
_atom_site_label
_atom_site_fract_x
_atom_site_fract_y
_atom_site_fract_z
Si Si1 0.029810 0.841143 0.430784
Si Si2 0.889610 0.659003 0.683709
Si Si3 0.788326 0.166995 0.078309
Si Si4 0.603913 0.331230 0.058456
Si Si5 0.621115 0.161776 0.686838
Si Si6 0.969633 0.839337 0.192046
Si Si7 0.799783 0.838721 0.802579
Si Si8 0.200200 0.838455 0.564709
O O1 0.920993 0.854450 0.423613
O O2 0.000000 0.788035 0.500000
O O3 0.097146 0.731504 0.380126
O O4 0.076008 0.000000 0.425087
O O5 0.849780 0.500000 0.690071
O O6 0.819512 0.756487 0.739930
O O7 0.005341 0.655510 0.684996
O O8 0.688762 0.225274 0.065814
O O9 0.778957 0.256058 0.137945
O O10 0.778300 0.000000 0.092789
O O11 0.884711 0.187805 0.012144
O O12 0.630997 0.500000 0.062049
O O13 0.498220 0.307695 0.119191
O O14 0.598854 0.235438 0.753123
O O15 0.691936 0.251619 0.625996
O O16 0.658320 0.000000 0.683842
O O17 0.085810 0.839449 0.193607
O O18 0.928493 0.000000 0.205587
O O19 0.767957 0.000000 0.801594
O O20 0.250000 0.750000 0.500000
O O21 0.243338 0.000000 0.559167
#
# Coordination Sequence:
#
# PCOD9178826 Si02
#       8
#     8   8   8   8   8   8   8   8
#     4   9  18  32  48  65  86 113 142 171 208 254
#     4   9  16  25  38  56  75  96 126 165 204 240
#     4   9  14  19  27  39  56  80 114 155 194 232
#     4   8  14  21  27  37  56  83 114 150 193 238
#     4   9  16  25  37  54  74  96 126 163 201 241
#     4   8  13  21  31  43  61  87 119 154 194 237
#     4   9  15  22  31  43  62  89 120 155 196 240
#     4  10  19  31  47  65  86 111 139 173 210 250
#
# _framework density 22.627217999999999
#
# number of rings (size 3 to 8) (size 9 to 14) (size 15 to 20)
#    0.000    3.125    0.000    2.625    0.000    7.250 
#    0.000    0.000    0.000    0.000    0.000    0.000 
#    0.000    0.000    0.000    0.000    0.000    1.250 
#
# Total GULP energy -178662.338350 kJ/mol
# GULP energy per Si atom -5583.198073 kJ/mol
# Density = 2.257572 g / cm^3
# Si number density = 22.627218 Si / 1000 Ang^3
#
#
#
# Elastic Constant Matrix: (Units=GPa)
#
#
# Indices 1 2 3 4 5 6 
#
# 1 66.0504 20.2734 -18.7541 0.0000 -19.2360 0.0000
# 2 20.2734 199.3273 157.2795 0.0000 -21.6146 0.0000
# 3 -18.7541 157.2795 176.7747 0.0000 -39.4341 0.0000
# 4 0.0000 0.0000 0.0000 28.8934 0.0000 -2.3894
# 5 -19.2360 -21.6146 -39.4341 0.0000 1.5012 0.0000
# 6 0.0000 0.0000 0.0000 -2.3894 0.0000 -3.6212
#
#
#
# Elastic Compliance Matrix: (Units=1/GPa)
#
#
# Indices 1 2 3 4 5 6 
#
# 1 0.007206 0.000537 -0.004652 0.000000 -0.022140 0.000000
# 2 0.000537 0.011907 -0.006017 0.000000 0.020261 0.000000
# 3 -0.004652 -0.006017 0.004549 0.000000 -0.026752 0.000000
# 4 0.000000 0.000000 0.000000 0.032819 0.000000 -0.021655
# 5 -0.022140 0.020261 -0.026752 0.000000 -0.028587 0.000000
# 6 0.000000 0.000000 0.000000 -0.021655 0.000000 -0.261863
#
#
# Mechanical properties :
#
#
# Convention : Reuss Voigt Hill
#
# Bulk Modulus (GPa) = 294.33404 84.41667 189.37535
# Shear Modulus (GPa) = -23.52167 24.24493 0.36163
#
# Velocity S-wave (km/s) = -3.22767 3.27692 0.40021
# Velocity P-wave (km/s) = 10.79220 7.19070 9.17000
#
# Compressibility (1/GPa) = 0.00339750
#
# Stress axis : x y z
#
# Youngs Moduli (GPa) = 138.77185 83.98168 219.81303
#
# Poissons Ratio (x) = -0.04512 1.02268
# Poissons Ratio (y) = -0.07456 1.32271
# Poissons Ratio (z) = 0.64563 0.50535
#
# Static dielectric constant tensor:
#      x y z
#    x 1.003090 0.000000 -0.057030 
#    y 0.000000 1.786030 0.000000 
#    z -0.057030 0.000000 1.820760 
# 
# From -- ./inp_files/345543.got.cif
#   From: 2010.05.17/outbox.cif.g08.bks.cpg/sg12_173_cif.got.tgz:345543.got - 2010.06.03 13:09:07.
