data_PCOD9178571
_publ_section_title
;
Structure prediction by ZEFSAII (Michael W. Deem and Ramdas Pophale) SiO2 
 PCOD9178571
Probable space group: C 2/M
;
_chemical_formula_sum "Si O2"
_cell_formula_units_Z 56
_cell_length_a 19.403085
_cell_length_b 9.399735
_cell_length_c 24.989860
_cell_angle_alpha 90.000000
_cell_angle_beta 48.095000
_cell_angle_gamma 90.000000
_cell_volume 3392.118124
_symmetry_space_group_name_H-M "C 2/M"
_symmetry_group_IT_number 12
_symmetry_cell_setting 'monoclinic'
loop_
_space_group_symop_operation_xyz
x,y,z
-x,y,-z
-x,-y,-z
x,-y,z
1/2+x,1/2+y,z
1/2-x,1/2+y,-z
1/2-x,1/2-y,-z
1/2+x,1/2-y,z
loop_
_atom_site_type_symbol
_atom_site_label
_atom_site_fract_x
_atom_site_fract_y
_atom_site_fract_z
Si Si1 0.803097 0.834965 0.550354
Si Si2 0.347511 0.670865 0.938959
Si Si3 0.083685 0.670931 0.997980
Si Si4 0.405674 0.830357 0.580717
Si Si5 0.292356 0.331910 0.850765
Si Si6 0.092480 0.330968 0.294632
Si Si7 0.388389 0.165525 0.408196
O O1 0.824742 0.751889 0.592858
O O2 0.696292 0.824005 0.588634
O O3 0.861579 0.761505 0.472563
O O4 0.828021 0.000000 0.541796
O O5 0.341122 0.500000 0.951053
O O6 0.356091 0.693789 0.870587
O O7 0.250000 0.750000 0.000000
O O8 0.417358 0.742600 0.945324
O O9 0.081981 0.500000 0.009409
O O10 0.184918 0.704320 0.919812
O O11 0.000000 0.702942 0.000000
O O12 0.500000 0.792021 0.500000
O O13 0.406910 0.795599 0.642634
O O14 0.394780 0.000000 0.581087
O O15 0.294162 0.500000 0.839413
O O16 0.333471 0.248926 0.779523
O O17 0.106801 0.500000 0.281915
O O18 0.987034 0.296742 0.332274
O O19 0.394931 0.000000 0.423370
#
# Coordination Sequence:
#
# PCOD9178571 Si02
#       7
#     8   8   8   8   8   8   8
#     4  10  19  30  50  75  95 119 161 214 257 298
#     4   9  17  31  52  77 104 135 170 208 249 295
#     4   9  18  34  56  81 108 139 172 207 253 304
#     4  10  19  34  52  69  97 135 171 212 256 305
#     4   9  19  34  51  75 106 134 165 214 260 295
#     4  10  20  34  53  72  95 136 177 207 252 312
#     4   9  18  34  50  68  96 128 162 203 252 304
#
# _framework density 16.508859000000001
#
# number of rings (size 3 to 8) (size 9 to 14) (size 15 to 20)
#    0.000    2.571    1.429    1.714    0.000    5.143 
#    0.000    1.429    0.000    8.571    0.000    0.000 
#    0.000    0.000    0.000    0.000    0.000    0.000 
#
# Total GULP energy -155938.351488 kJ/mol
# GULP energy per Si atom -5569.226839 kJ/mol
# Density = 1.647128 g / cm^3
# Si number density = 16.508859 Si / 1000 Ang^3
#
#
#
# Elastic Constant Matrix: (Units=GPa)
#
#
# Indices 1 2 3 4 5 6 
#
# 1 101.7809 47.6183 44.9404 0.0000 11.3658 0.0001
# 2 47.6183 40.7095 42.9826 0.0000 11.8028 0.0003
# 3 44.9404 42.9826 93.7652 0.0000 7.8617 0.0000
# 4 0.0000 0.0000 0.0000 28.6918 0.0000 5.5953
# 5 11.3658 11.8028 7.8617 0.0000 17.7289 0.0000
# 6 0.0001 0.0003 0.0000 5.5953 0.0000 29.9243
#
#
#
# Elastic Compliance Matrix: (Units=1/GPa)
#
#
# Indices 1 2 3 4 5 6 
#
# 1 0.022288 -0.030515 0.002909 0.000000 0.004736 0.000000
# 2 -0.030515 0.100369 -0.028481 0.000000 -0.034627 -0.000001
# 3 0.002909 -0.028481 0.021700 0.000000 0.007473 0.000000
# 4 0.000000 0.000000 0.000000 0.036172 0.000000 -0.006764
# 5 0.004736 -0.034627 0.007473 0.000000 0.073107 0.000000
# 6 0.000000 -0.000001 0.000000 -0.006764 0.000000 0.034682
#
#
# Mechanical properties :
#
#
# Convention : Reuss Voigt Hill
#
# Bulk Modulus (GPa) = 31.07296 56.37090 43.72193
# Shear Modulus (GPa) = 12.15891 21.98328 17.07110
#
# Velocity S-wave (km/s) = 2.71681 3.65308 3.21916
# Velocity P-wave (km/s) = 5.35764 7.21202 6.35286
#
# Compressibility (1/GPa) = 0.03218232
#
# Stress axis : x y z
#
# Youngs Moduli (GPa) = 44.86634 9.96325 46.08305
#
# Poissons Ratio (x) = 0.30403 -0.13405
# Poissons Ratio (y) = 1.36912 1.31248
# Poissons Ratio (z) = -0.13051 0.28376
#
# Static dielectric constant tensor:
#      x y z
#    x 1.594960 0.000000 0.008750 
#    y 0.000000 1.552670 0.000000 
#    z 0.008750 0.000000 1.540730 
# 
# From -- ./inp_files/342518.got.cif
#   From: 2010.05.17/outbox.cif.g08.bks.cpg/sg12_172_cif.got.tgz:342518.got - 2010.06.03 13:09:07.
