data_PCOD9178807
_publ_section_title
;
Structure prediction by ZEFSAII (Michael W. Deem and Ramdas Pophale) SiO2 
 PCOD9178807
Probable space group: C 2/M
;
_chemical_formula_sum "Si O2"
_cell_formula_units_Z 48
_cell_length_a 23.323946
_cell_length_b 8.387025
_cell_length_c 29.847623
_cell_angle_alpha 90.000000
_cell_angle_beta 151.426985
_cell_angle_gamma 90.000000
_cell_volume 2792.546335
_symmetry_space_group_name_H-M "C 2/M"
_symmetry_group_IT_number 12
_symmetry_cell_setting 'monoclinic'
loop_
_space_group_symop_operation_xyz
x,y,z
-x,y,-z
-x,-y,-z
x,-y,z
1/2+x,1/2+y,z
1/2-x,1/2+y,-z
1/2-x,1/2-y,-z
1/2+x,1/2-y,z
loop_
_atom_site_type_symbol
_atom_site_label
_atom_site_fract_x
_atom_site_fract_y
_atom_site_fract_z
Si Si1 0.032459 0.307044 0.950256
Si Si2 0.457164 0.191044 0.719940
Si Si3 0.310324 0.805771 0.856997
Si Si4 0.114193 0.188740 0.910184
Si Si5 0.541943 0.692702 0.680738
Si Si6 0.207106 0.192350 0.519360
O O1 0.033636 0.500000 0.948360
O O2 0.904621 0.257021 0.883507
O O3 0.060756 0.238795 0.921361
O O4 0.132505 0.260069 0.055818
O O5 0.534534 0.243264 0.815191
O O6 0.511183 0.258713 0.710646
O O7 0.316739 0.243199 0.626476
O O8 0.459553 0.000000 0.718323
O O9 0.174311 0.748836 0.758906
O O10 0.309317 0.000000 0.855800
O O11 0.115677 0.000000 0.907274
O O12 0.250000 0.250000 0.000000
O O13 0.544603 0.500000 0.681108
O O14 0.431025 0.747428 0.573179
O O15 0.250000 0.250000 0.500000
O O16 0.204503 0.000000 0.518506
#
# Coordination Sequence:
#
# PCOD9178807 Si02
#       6
#     8   8   8   8   8   8
#     4   9  17  32  50  71  97 126 156 189 230 280
#     4  10  19  31  46  69  99 130 159 195 238 280
#     4   8  15  28  50  73  95 123 156 191 231 277
#     4  12  24  36  50  70  94 124 157 192 233 283
#     4   9  15  27  48  74  99 127 161 197 235 280
#     4   8  15  26  43  67  96 125 158 196 235 275
#
# _framework density 17.188614000000001
#
# number of rings (size 3 to 8) (size 9 to 14) (size 15 to 20)
#    0.000    2.667    0.000    4.000    0.000    2.000 
#    0.000    2.500    0.000    1.000    0.000    7.000 
#    0.000    0.000    0.000    0.000    0.000    0.000 
#
# Total GULP energy -133695.374390 kJ/mol
# GULP energy per Si atom -5570.640600 kJ/mol
# Density = 1.714949 g / cm^3
# Si number density = 17.188614 Si / 1000 Ang^3
#
#
#
# Elastic Constant Matrix: (Units=GPa)
#
#
# Indices 1 2 3 4 5 6 
#
# 1 65.0955 -2.6177 64.9515 0.0000 11.8757 -0.0001
# 2 -2.6177 7.0789 11.5731 0.0000 5.7744 -0.0011
# 3 64.9515 11.5731 186.0238 0.0000 26.8630 -0.0001
# 4 0.0000 0.0000 0.0000 16.6528 0.0001 -2.6642
# 5 11.8757 5.7744 26.8630 0.0001 29.4266 0.0000
# 6 -0.0001 -0.0011 -0.0001 -2.6642 0.0000 22.1892
#
#
#
# Elastic Compliance Matrix: (Units=1/GPa)
#
#
# Indices 1 2 3 4 5 6 
#
# 1 0.029913 0.037049 -0.011468 0.000000 -0.008873 0.000002
# 2 0.037049 0.221330 -0.021049 0.000003 -0.039168 0.000011
# 3 -0.011468 -0.021049 0.010856 0.000000 -0.001151 -0.000001
# 4 0.000000 0.000003 0.000000 0.061226 -0.000001 0.007351
# 5 -0.008873 -0.039168 -0.001151 -0.000001 0.046301 -0.000002
# 6 0.000002 0.000011 -0.000001 0.007351 -0.000002 0.045950
#
#
# Mechanical properties :
#
#
# Convention : Reuss Voigt Hill
#
# Bulk Modulus (GPa) = 3.68784 45.11244 24.40014
# Shear Modulus (GPa) = 10.06240 25.93980 18.00110
#
# Velocity S-wave (km/s) = 2.42215 3.88896 3.23966
# Velocity P-wave (km/s) = 3.15794 6.81674 5.31227
#
# Compressibility (1/GPa) = 0.27116149
#
# Stress axis : x y z
#
# Youngs Moduli (GPa) = 33.42993 4.51815 92.11876
#
# Poissons Ratio (x) = -0.16739 1.05642
# Poissons Ratio (y) = -1.23854 1.93903
# Poissons Ratio (z) = 0.38337 0.09510
#
# Static dielectric constant tensor:
#      x y z
#    x 1.544370 0.000000 0.023770 
#    y 0.000000 1.591380 0.000000 
#    z 0.023770 0.000000 1.594920 
# 
# From -- ./inp_files/345403.got.cif
#   From: 2010.05.17/outbox.cif.g08.bks.cpg/sg12_173_cif.got.tgz:345403.got - 2010.06.03 13:09:07.
