data_PCOD9178532
_publ_section_title
;
Structure prediction by ZEFSAII (Michael W. Deem and Ramdas Pophale) SiO2 
 PCOD9178532
Probable space group: C 2/M
;
_chemical_formula_sum "Si O2"
_cell_formula_units_Z 56
_cell_length_a 19.579320
_cell_length_b 8.931151
_cell_length_c 19.397206
_cell_angle_alpha 90.000000
_cell_angle_beta 67.999263
_cell_angle_gamma 90.000000
_cell_volume 3144.907078
_symmetry_space_group_name_H-M "C 2/M"
_symmetry_group_IT_number 12
_symmetry_cell_setting 'monoclinic'
loop_
_space_group_symop_operation_xyz
x,y,z
-x,y,-z
-x,-y,-z
x,-y,z
1/2+x,1/2+y,z
1/2-x,1/2+y,-z
1/2-x,1/2-y,-z
1/2+x,1/2-y,z
loop_
_atom_site_type_symbol
_atom_site_label
_atom_site_fract_x
_atom_site_fract_y
_atom_site_fract_z
Si Si1 0.644523 0.177631 0.821923
Si Si2 0.073706 0.178493 0.261464
Si Si3 0.727302 0.321489 0.580928
Si Si4 0.333774 0.324207 0.044237
Si Si5 0.081328 0.320863 0.700215
Si Si6 0.296332 0.678335 0.684424
Si Si7 0.342971 0.176087 0.897136
O O1 0.633353 0.266283 0.896479
O O2 0.591149 0.214364 0.778162
O O3 0.726577 0.208431 0.760958
O O4 0.639919 0.000000 0.837620
O O5 0.129426 0.213785 0.302836
O O6 0.113258 0.232463 0.176670
O O7 0.996339 0.261646 0.296473
O O8 0.063022 0.000000 0.263738
O O9 0.724835 0.500000 0.577234
O O10 0.750000 0.250000 0.500000
O O11 0.648506 0.256927 0.635106
O O12 0.783296 0.269118 0.619731
O O13 0.347488 0.500000 0.029401
O O14 0.244867 0.302388 0.081113
O O15 0.360080 0.233590 0.967466
O O16 0.088092 0.500000 0.690852
O O17 0.294181 0.500000 0.670090
O O18 0.359269 0.000000 0.884417
#
# Coordination Sequence:
#
# PCOD9178532 Si02
#       7
#     8   8   8   8   8   8   8
#     4   9  17  33  54  76 106 145 184 229 279 330
#     4  11  21  36  57  83 115 149 186 230 279 331
#     4  11  22  39  64  90 116 146 183 224 269 323
#     4  10  19  30  49  77 106 140 188 239 281 326
#     4  10  22  39  58  83 116 150 184 225 277 332
#     4   9  19  35  57  84 114 147 184 226 274 327
#     4  10  20  32  49  75 109 147 185 231 285 333
#
# _framework density 17.806567000000001
#
# number of rings (size 3 to 8) (size 9 to 14) (size 15 to 20)
#    0.000    2.000    1.429    3.857    0.000    5.143 
#    0.000    1.429    0.000    8.571    0.000    0.000 
#    0.000    0.000    0.000    0.000    0.000    0.000 
#
# Total GULP energy -156360.714256 kJ/mol
# GULP energy per Si atom -5584.311223 kJ/mol
# Density = 1.776604 g / cm^3
# Si number density = 17.806567 Si / 1000 Ang^3
#
#
#
# Elastic Constant Matrix: (Units=GPa)
#
#
# Indices 1 2 3 4 5 6 
#
# 1 101.6761 54.5112 37.4176 0.0000 11.5731 0.0000
# 2 54.5112 82.8585 54.9279 0.0000 13.0652 0.0000
# 3 37.4176 54.9279 92.6382 0.0000 22.6105 0.0000
# 4 0.0000 0.0000 0.0000 33.9281 0.0000 2.8313
# 5 11.5731 13.0652 22.6105 0.0000 15.7470 0.0000
# 6 0.0000 0.0000 0.0000 2.8313 0.0000 29.1449
#
#
#
# Elastic Compliance Matrix: (Units=1/GPa)
#
#
# Indices 1 2 3 4 5 6 
#
# 1 0.015363 -0.009902 0.000641 0.000000 -0.003996 0.000000
# 2 -0.009902 0.026271 -0.012368 0.000000 0.003239 0.000000
# 3 0.000641 -0.012368 0.023831 0.000000 -0.024428 0.000000
# 4 0.000000 0.000000 0.000000 0.029715 0.000000 -0.002887
# 5 -0.003996 0.003239 -0.024428 0.000000 0.098828 0.000000
# 6 0.000000 0.000000 0.000000 -0.002887 0.000000 0.034592
#
#
# Mechanical properties :
#
#
# Convention : Reuss Voigt Hill
#
# Bulk Modulus (GPa) = 45.02928 63.43179 54.23054
# Shear Modulus (GPa) = 17.90445 24.45174 21.17809
#
# Velocity S-wave (km/s) = 3.17440 3.70967 3.45242
# Velocity P-wave (km/s) = 6.22725 7.35180 6.81277
#
# Compressibility (1/GPa) = 0.02220777
#
# Stress axis : x y z
#
# Youngs Moduli (GPa) = 65.09310 38.06448 41.96164
#
# Poissons Ratio (x) = 0.37691 -0.02691
# Poissons Ratio (y) = 0.64454 0.51899
# Poissons Ratio (z) = -0.04174 0.47078
#
# Static dielectric constant tensor:
#      x y z
#    x 1.610770 0.000000 0.002350 
#    y 0.000000 1.587660 0.000000 
#    z 0.002350 0.000000 1.579310 
# 
# From -- ./inp_files/280886.got.cif
#   From: 2010.05.17/outbox.cif.g08.bks.cpg/sg12_141_cif.got.tgz:280886.got - 2010.06.03 13:09:07.
