data_PCOD9178775
_publ_section_title
;
Structure prediction by ZEFSAII (Michael W. Deem and Ramdas Pophale) SiO2 
 PCOD9178775
Probable space group: C 2/M
;
_chemical_formula_sum "Si O2"
_cell_formula_units_Z 48
_cell_length_a 8.091477
_cell_length_b 24.858238
_cell_length_c 8.970114
_cell_angle_alpha 90.000000
_cell_angle_beta 107.741990
_cell_angle_gamma 90.000000
_cell_volume 1718.434606
_symmetry_space_group_name_H-M "C 2/M"
_symmetry_group_IT_number 12
_symmetry_cell_setting 'monoclinic'
loop_
_space_group_symop_operation_xyz
x,y,z
-x,y,-z
-x,-y,-z
x,-y,z
1/2+x,1/2+y,z
1/2-x,1/2+y,-z
1/2-x,1/2-y,-z
1/2+x,1/2-y,z
loop_
_atom_site_type_symbol
_atom_site_label
_atom_site_fract_x
_atom_site_fract_y
_atom_site_fract_z
Si Si1 0.574499 0.207988 0.353897
Si Si2 0.641261 0.907978 0.402782
Si Si3 0.929492 0.058389 0.685590
Si Si4 0.655872 0.057783 0.886804
Si Si5 0.718605 0.173852 0.955596
Si Si6 0.505608 0.679382 0.236102
O O1 0.500000 0.203134 0.500000
O O2 0.691090 0.154175 0.384042
O O3 0.450820 0.195539 0.175187
O O4 0.597744 0.272358 0.351387
O O5 0.500000 0.907707 0.500000
O O6 0.805306 0.939565 0.507369
O O7 0.530969 0.934425 0.241554
O O8 0.800022 0.058458 0.794259
O O9 0.010438 0.118180 0.711417
O O10 0.019800 0.000000 0.717357
O O11 0.688528 0.111542 0.987178
O O12 0.669823 0.000000 0.964682
O O13 0.862225 0.174741 0.865708
O O14 0.816431 0.199190 0.123887
#
# Coordination Sequence:
#
# PCOD9178775 Si02
#       6
#     8   8   8   8   8   8
#     4  10  19  31  48  67  87 116 154 188 217 254
#     4   8  14  24  39  62  88 112 142 181 220 256
#     4   9  16  25  40  63  89 116 144 175 216 264
#     4   8  13  23  40  61  87 116 143 173 214 265
#     4   9  19  31  44  67  94 119 145 178 222 265
#     4  10  19  31  46  65  93 121 145 179 222 267
#
# _framework density 27.932397999999999
#
# number of rings (size 3 to 8) (size 9 to 14) (size 15 to 20)
#    0.000    3.000    0.000    4.000    0.000    5.333 
#    0.000    3.333    0.000    0.500    0.000    0.000 
#    0.000    0.000    0.000   25.500    0.000    8.500 
#
# Total GULP energy -134060.792791 kJ/mol
# GULP energy per Si atom -5585.866366 kJ/mol
# Density = 2.786882 g / cm^3
# Si number density = 27.932398 Si / 1000 Ang^3
#
#
#
# Elastic Constant Matrix: (Units=GPa)
#
#
# Indices 1 2 3 4 5 6 
#
# 1 99.6906 22.4406 22.5072 0.0000 -11.0599 0.0000
# 2 22.4406 249.6690 39.3358 0.0000 4.9191 0.0000
# 3 22.5072 39.3358 55.8155 0.0000 20.4867 0.0000
# 4 0.0000 0.0000 0.0000 -41.1468 0.0000 31.3977
# 5 -11.0599 4.9191 20.4867 0.0000 39.4137 0.0000
# 6 0.0000 0.0000 0.0000 31.3977 0.0000 -0.0927
#
#
#
# Elastic Compliance Matrix: (Units=1/GPa)
#
#
# Indices 1 2 3 4 5 6 
#
# 1 0.012673 -0.000047 -0.007890 0.000000 0.007663 0.000000
# 2 -0.000047 0.004564 -0.003687 0.000000 0.001334 0.000000
# 3 -0.007890 -0.003687 0.030078 0.000000 -0.017388 0.000000
# 4 0.000000 0.000000 0.000000 0.000094 0.000000 0.031973
# 5 0.007663 0.001334 -0.017388 0.000000 0.036394 0.000000
# 6 0.000000 0.000000 0.000000 0.031973 0.000000 0.041901
#
#
# Mechanical properties :
#
#
# Convention : Reuss Voigt Hill
#
# Bulk Modulus (GPa) = 41.54976 63.74917 52.64947
# Shear Modulus (GPa) = 31.85204 21.02759 26.43982
#
# Velocity S-wave (km/s) = 3.38054 2.74670 3.07997
# Velocity P-wave (km/s) = 5.49042 5.73859 5.61588
#
# Compressibility (1/GPa) = 0.02406753
#
# Stress axis : x y z
#
# Youngs Moduli (GPa) = 78.90725 219.09792 33.24641
#
# Poissons Ratio (x) = 0.01029 0.26231
# Poissons Ratio (y) = 0.00371 0.12259
# Poissons Ratio (z) = 0.62257 0.80785
#
# Static dielectric constant tensor:
#      x y z
#    x 2.247260 0.000000 0.019760 
#    y 0.000000 2.133120 0.000000 
#    z 0.019760 0.000000 2.156910 
# 
# From -- ./inp_files/132676.got.cif
#   From: 2010.05.17/outbox.cif.g08.bks.cpg/sg12_67_cif.got.tgz:132676.got - 2010.06.03 13:09:07.
