data_PCOD9178100
_publ_section_title
;
Structure prediction by ZEFSAII (Michael W. Deem and Ramdas Pophale) SiO2 
 PCOD9178100
Probable space group: C 2/M
;
_chemical_formula_sum "Si O2"
_cell_formula_units_Z 44
_cell_length_a 5.058431
_cell_length_b 38.074765
_cell_length_c 16.094366
_cell_angle_alpha 90.000000
_cell_angle_beta 124.826075
_cell_angle_gamma 90.000000
_cell_volume 2544.553465
_symmetry_space_group_name_H-M "C 2/M"
_symmetry_group_IT_number 12
_symmetry_cell_setting 'monoclinic'
loop_
_space_group_symop_operation_xyz
x,y,z
-x,y,-z
-x,-y,-z
x,-y,z
1/2+x,1/2+y,z
1/2-x,1/2+y,-z
1/2-x,1/2-y,-z
1/2+x,1/2-y,z
loop_
_atom_site_type_symbol
_atom_site_label
_atom_site_fract_x
_atom_site_fract_y
_atom_site_fract_z
Si Si1 0.118427 0.570218 0.319939
Si Si2 0.687722 0.648481 0.815846
Si Si3 0.200483 0.105874 0.115179
Si Si4 0.236332 0.888106 0.386311
Si Si5 0.379985 0.000000 0.575206
Si Si6 0.285011 0.227480 0.878133
O O1 0.495178 0.580722 0.375489
O O2 0.047080 0.534062 0.355038
O O3 0.926517 0.576357 0.199253
O O4 0.958508 0.598502 0.351636
O O5 0.534814 0.623380 0.859081
O O6 0.503433 0.640107 0.696711
O O7 0.661238 0.688966 0.834105
O O8 0.055660 0.636417 0.870683
O O9 0.000000 0.093064 0.000000
O O10 0.500000 0.876327 0.500000
O O11 0.500000 0.000000 0.500000
O O12 0.000000 0.000000 0.500000
O O13 0.509877 0.244485 0.849009
O O14 0.500000 0.223733 0.000000
#
# Coordination Sequence:
#
# PCOD9178100 Si02
#       6
#     8   8   8   8   4   8
#     4  10  21  33  50  77 100 128 165 201 246 296
#     4  10  20  32  51  75  98 130 167 202 244 294
#     4  10  19  33  52  73 100 130 165 205 243 288
#     4  10  19  34  53  73  99 127 164 209 247 283
#     4  12  22  34  53  74 103 134 162 202 251 294
#     4  10  19  30  46  69  98 128 158 197 245 293
#
# _framework density 17.291834999999999
#
# number of rings (size 3 to 8) (size 9 to 14) (size 15 to 20)
#    0.000    1.818    0.000    6.000    0.000    1.455 
#    0.000    0.455    0.000    1.091    0.000    8.909 
#    0.000    0.000    0.000    0.000    0.000    0.000 
#
# Total GULP energy -122608.454348 kJ/mol
# GULP energy per Si atom -5573.111561 kJ/mol
# Density = 1.725248 g / cm^3
# Si number density = 17.291835 Si / 1000 Ang^3
#
#
#
# Elastic Constant Matrix: (Units=GPa)
#
#
# Indices 1 2 3 4 5 6 
#
# 1 80.7481 -10.5080 17.2362 0.0000 -0.5698 0.0000
# 2 -10.5080 59.4768 32.9853 0.0000 -6.3771 0.0000
# 3 17.2362 32.9853 104.6280 0.0000 2.1193 0.0000
# 4 0.0000 0.0000 0.0000 15.1332 0.0000 -2.0760
# 5 -0.5698 -6.3771 2.1193 0.0000 17.3795 0.0000
# 6 0.0000 0.0000 0.0000 -2.0760 0.0000 18.9043
#
#
#
# Elastic Compliance Matrix: (Units=1/GPa)
#
#
# Indices 1 2 3 4 5 6 
#
# 1 0.013870 0.004896 -0.003884 0.000000 0.002725 0.000000
# 2 0.004896 0.023367 -0.008371 0.000000 0.009755 0.000000
# 3 -0.003884 -0.008371 0.012933 0.000000 -0.004776 0.000000
# 4 0.000000 0.000000 0.000000 0.067091 0.000000 0.007368
# 5 0.002725 0.009755 -0.004776 0.000000 0.061790 0.000000
# 6 0.000000 0.000000 0.000000 0.007368 0.000000 0.053707
#
#
# Mechanical properties :
#
#
# Convention : Reuss Voigt Hill
#
# Bulk Modulus (GPa) = 28.20615 36.03110 32.11862
# Shear Modulus (GPa) = 19.28330 23.95936 21.62133
#
# Velocity S-wave (km/s) = 3.34304 3.72639 3.53990
# Velocity P-wave (km/s) = 5.59003 6.27670 5.94329
#
# Compressibility (1/GPa) = 0.03545327
#
# Stress axis : x y z
#
# Youngs Moduli (GPa) = 72.10006 42.79593 77.32025
#
# Poissons Ratio (x) = -0.20955 0.30029
# Poissons Ratio (y) = -0.35303 0.64724
# Poissons Ratio (z) = 0.28002 0.35824
#
# Static dielectric constant tensor:
#      x y z
#    x 1.606460 0.000000 -0.033560 
#    y 0.000000 1.636720 0.000000 
#    z -0.033560 0.000000 1.746210 
# 
# From -- ./inp_files/253942.got.cif
#   From: 2010.05.17/outbox.cif.g08.bks.cpg/sg12_127_cif.got.tgz:253942.got - 2010.06.03 13:09:07.
