data_PCOD9178462
_publ_section_title
;
Structure prediction by ZEFSAII (Michael W. Deem and Ramdas Pophale) SiO2 
 PCOD9178462
Probable space group: C 2/M
;
_chemical_formula_sum "Si O2"
_cell_formula_units_Z 60
_cell_length_a 26.893307
_cell_length_b 22.399527
_cell_length_c 14.889357
_cell_angle_alpha 90.000000
_cell_angle_beta 22.054768
_cell_angle_gamma 90.000000
_cell_volume 3367.910168
_symmetry_space_group_name_H-M "C 2/M"
_symmetry_group_IT_number 12
_symmetry_cell_setting 'monoclinic'
loop_
_space_group_symop_operation_xyz
x,y,z
-x,y,-z
-x,-y,-z
x,-y,z
1/2+x,1/2+y,z
1/2-x,1/2+y,-z
1/2-x,1/2-y,-z
1/2+x,1/2-y,z
loop_
_atom_site_type_symbol
_atom_site_label
_atom_site_fract_x
_atom_site_fract_y
_atom_site_fract_z
Si Si1 0.458254 0.270206 0.768350
Si Si2 0.259548 0.570088 0.881130
Si Si3 0.992744 0.631643 0.739429
Si Si4 0.372218 0.431773 0.882439
Si Si5 0.353837 0.370465 0.543902
Si Si6 0.910751 0.571604 0.061896
Si Si7 0.500000 0.246769 0.500000
Si Si8 0.789999 0.661333 0.754416
O O1 0.448489 0.200851 0.808609
O O2 0.600536 0.302150 0.546620
O O3 0.439854 0.279097 0.689938
O O4 0.347503 0.302545 0.013576
O O5 0.257940 0.500000 0.855668
O O6 0.358726 0.574108 0.798030
O O7 0.307175 0.614143 0.723031
O O8 0.109502 0.592748 0.150066
O O9 0.139494 0.638030 0.453304
O O10 0.978786 0.601822 0.860544
O O11 0.364226 0.500000 0.919928
O O12 0.508295 0.406022 0.693360
O O13 0.246730 0.396749 0.128568
O O14 0.232980 0.396658 0.688776
O O15 0.894592 0.500000 0.075250
O O16 0.000000 0.580511 0.000000
O O17 0.390075 0.204548 0.639378
#
# Coordination Sequence:
#
# PCOD9178462 Si02
#       8
#     8   8   8   8   8   8   4   8
#     4  10  22  32  54  79 117 156 193 224 271 314
#     4  10  20  32  51  77 110 153 195 232 268 311
#     4  10  21  36  56  78 114 145 185 231 276 332
#     4  10  19  30  48  76 112 150 185 226 273 324
#     4  10  20  33  54  81 110 141 186 232 276 322
#     4  10  22  42  68  88 102 133 184 239 289 339
#     4  10  20  32  49  76 111 166 202 232 238 306
#     4  10  21  33  46  76 115 154 192 221 271 324
#
# _framework density 17.815203
#
# number of rings (size 3 to 8) (size 9 to 14) (size 15 to 20)
#    0.000    2.000    0.000    4.800   11.200    2.133 
#    0.000    2.333    0.000    2.400    0.000    8.400 
#    0.000    0.000    0.000    0.000    0.000    0.000 
#
# Total GULP energy -167038.970499 kJ/mol
# GULP energy per Si atom -5567.965683 kJ/mol
# Density = 1.777465 g / cm^3
# Si number density = 17.815203 Si / 1000 Ang^3
#
#
#
# Elastic Constant Matrix: (Units=GPa)
#
#
# Indices 1 2 3 4 5 6 
#
# 1 72.0250 18.2912 25.9123 0.0002 -14.0304 -0.0005
# 2 18.2912 73.9864 24.7854 0.0003 -4.1040 -0.0004
# 3 25.9123 24.7854 96.9765 0.0006 1.1505 -0.0009
# 4 0.0002 0.0003 0.0006 41.2176 -0.0003 -9.5390
# 5 -14.0304 -4.1040 1.1505 -0.0003 19.7637 0.0004
# 6 -0.0005 -0.0004 -0.0009 -9.5390 0.0004 27.3429
#
#
#
# Elastic Compliance Matrix: (Units=1/GPa)
#
#
# Indices 1 2 3 4 5 6 
#
# 1 0.018651 -0.002371 -0.004532 0.000000 0.013012 0.000000
# 2 -0.002371 0.015300 -0.003297 0.000000 0.001686 0.000000
# 3 -0.004532 -0.003297 0.012420 0.000000 -0.004625 0.000000
# 4 0.000000 0.000000 0.000000 0.026392 0.000000 0.009207
# 5 0.013012 0.001686 -0.004625 0.000000 0.060454 -0.000001
# 6 0.000000 0.000000 0.000000 0.009207 -0.000001 0.039785
#
#
# Mechanical properties :
#
#
# Convention : Reuss Voigt Hill
#
# Bulk Modulus (GPa) = 38.50329 42.32953 40.41641
# Shear Modulus (GPa) = 24.74505 29.26481 27.00493
#
# Velocity S-wave (km/s) = 3.73095 4.05740 3.89760
# Velocity P-wave (km/s) = 6.34189 6.76476 6.55673
#
# Compressibility (1/GPa) = 0.02597181
#
# Stress axis : x y z
#
# Youngs Moduli (GPa) = 53.61505 65.35890 80.51375
#
# Poissons Ratio (x) = 0.15497 0.36489
# Poissons Ratio (y) = 0.12713 0.26544
# Poissons Ratio (z) = 0.24299 0.21548
#
# Static dielectric constant tensor:
#      x y z
#    x 1.602390 0.000000 0.005490 
#    y 0.000000 1.642950 0.000000 
#    z 0.005490 0.000000 1.668880 
# 
# From -- ./inp_files/247430.got.cif
#   From: 2010.05.17/outbox.cif.g08.bks.cpg/sg12_124_cif.got.tgz:247430.got - 2010.06.03 13:09:07.
