data_PCOD9178877
_publ_section_title
;
Structure prediction by ZEFSAII (Michael W. Deem and Ramdas Pophale) SiO2 
 PCOD9178877
Probable space group: C 2/M
;
_chemical_formula_sum "Si O2"
_cell_formula_units_Z 64
_cell_length_a 14.664642
_cell_length_b 17.552375
_cell_length_c 14.133810
_cell_angle_alpha 90.000000
_cell_angle_beta 107.290232
_cell_angle_gamma 90.000000
_cell_volume 3473.635435
_symmetry_space_group_name_H-M "C 2/M"
_symmetry_group_IT_number 12
_symmetry_cell_setting 'monoclinic'
loop_
_space_group_symop_operation_xyz
x,y,z
-x,y,-z
-x,-y,-z
x,-y,z
1/2+x,1/2+y,z
1/2-x,1/2+y,-z
1/2-x,1/2-y,-z
1/2+x,1/2-y,z
loop_
_atom_site_type_symbol
_atom_site_label
_atom_site_fract_x
_atom_site_fract_y
_atom_site_fract_z
Si Si1 0.437087 0.127239 0.667660
Si Si2 0.240967 0.696092 0.695456
Si Si3 0.641326 0.087057 0.794450
Si Si4 0.471129 0.735779 0.386235
Si Si5 0.695223 0.146270 0.209614
Si Si6 0.891985 0.591050 0.000842
Si Si7 0.623622 0.587622 0.629265
Si Si8 0.245869 0.589810 0.515229
O O1 0.543037 0.091875 0.702660
O O2 0.460648 0.216882 0.660942
O O3 0.387406 0.108099 0.751885
O O4 0.359468 0.102973 0.564661
O O5 0.224596 0.634031 0.771237
O O6 0.136828 0.735185 0.655806
O O7 0.302489 0.766882 0.751779
O O8 0.261620 0.650443 0.604612
O O9 0.669346 0.000000 0.809022
O O10 0.619625 0.115024 0.893862
O O11 0.500000 0.757641 0.500000
O O12 0.463063 0.644983 0.377881
O O13 0.673917 0.135529 0.093522
O O14 0.793739 0.105484 0.269006
O O15 0.872830 0.500000 0.988036
O O16 0.000000 0.603196 0.000000
O O17 0.594974 0.500000 0.622038
O O18 0.677267 0.603508 0.545380
O O19 0.251764 0.500000 0.545184
#
# Coordination Sequence:
#
# PCOD9178877 Si02
#       8
#     8   8   8   8   8   8   8   8
#     4  10  19  31  50  77 102 133 166 205 253 295
#     4  10  21  33  47  74 104 138 164 199 248 299
#     4  10  20  33  51  76 105 129 163 208 254 300
#     4  10  19  31  47  68 101 134 168 204 243 287
#     4  10  20  33  54  72 100 131 166 209 249 302
#     4  10  19  33  54  79 101 125 159 209 261 301
#     4   9  20  33  49  71  97 133 174 211 243 286
#     4  10  19  32  51  73 101 135 171 203 242 296
#
# _framework density 18.424502
#
# number of rings (size 3 to 8) (size 9 to 14) (size 15 to 20)
#    0.000    2.125    2.500    1.125    1.750    3.250 
#    0.000    1.875    0.000    0.000    0.000    0.000 
#    0.000    2.000    0.000    0.375    0.000    0.000 
#
# Total GULP energy -178373.933393 kJ/mol
# GULP energy per Si atom -5574.185419 kJ/mol
# Density = 1.838257 g / cm^3
# Si number density = 18.424502 Si / 1000 Ang^3
#
#
#
# Elastic Constant Matrix: (Units=GPa)
#
#
# Indices 1 2 3 4 5 6 
#
# 1 19.7350 9.3943 7.4741 0.0000 -0.6884 0.0000
# 2 9.3943 75.4881 21.2779 0.0000 -10.2930 0.0000
# 3 7.4741 21.2779 84.9385 0.0000 -9.2528 0.0000
# 4 0.0000 0.0000 0.0000 -4.3876 0.0000 -18.8928
# 5 -0.6884 -10.2930 -9.2528 0.0000 16.7540 0.0000
# 6 0.0000 0.0000 0.0000 -18.8928 0.0000 8.6642
#
#
#
# Elastic Compliance Matrix: (Units=1/GPa)
#
#
# Indices 1 2 3 4 5 6 
#
# 1 0.054927 -0.006302 -0.003650 0.000000 -0.003630 0.000000
# 2 -0.006302 0.015847 -0.002536 0.000000 0.008077 0.000000
# 3 -0.003650 -0.002536 0.013347 0.000000 0.005663 0.000000
# 4 0.000000 0.000000 0.000000 -0.021937 0.000000 -0.047836
# 5 -0.003630 0.008077 0.005663 0.000000 0.067628 0.000000
# 6 0.000000 0.000000 0.000000 -0.047836 0.000000 0.011109
#
#
# Mechanical properties :
#
#
# Convention : Reuss Voigt Hill
#
# Bulk Modulus (GPa) = 16.90727 28.49490 22.70109
# Shear Modulus (GPa) = 26.93817 13.67382 20.30599
#
# Velocity S-wave (km/s) = 3.82787 2.72721 3.32342
# Velocity P-wave (km/s) = 5.36034 5.04145 5.20334
#
# Compressibility (1/GPa) = 0.05914614
#
# Stress axis : x y z
#
# Youngs Moduli (GPa) = 18.20598 63.10206 74.92598
#
# Poissons Ratio (x) = 0.39765 0.27349
# Poissons Ratio (y) = 0.11473 0.18998
# Poissons Ratio (z) = 0.06645 0.16000
#
# Static dielectric constant tensor:
#      x y z
#    x 1.627440 0.000000 0.006540 
#    y 0.000000 1.687000 0.000000 
#    z 0.006540 0.000000 1.665400 
# 
# From -- ./inp_files/216375.got.cif
#   From: 2010.05.17/outbox.cif.g08.bks.cpg/sg12_109_cif.got.tgz:216375.got - 2010.06.03 13:09:07.
