data_PCOD9178827
_publ_section_title
;
Structure prediction by ZEFSAII (Michael W. Deem and Ramdas Pophale) SiO2 
 PCOD9178827
Probable space group: C 2/M
;
_chemical_formula_sum "Si O2"
_cell_formula_units_Z 48
_cell_length_a 13.952517
_cell_length_b 9.411443
_cell_length_c 20.371233
_cell_angle_alpha 90.000000
_cell_angle_beta 52.891189
_cell_angle_gamma 90.000000
_cell_volume 2133.300176
_symmetry_space_group_name_H-M "C 2/M"
_symmetry_group_IT_number 12
_symmetry_cell_setting 'monoclinic'
loop_
_space_group_symop_operation_xyz
x,y,z
-x,y,-z
-x,-y,-z
x,-y,z
1/2+x,1/2+y,z
1/2-x,1/2+y,-z
1/2-x,1/2-y,-z
1/2+x,1/2-y,z
loop_
_atom_site_type_symbol
_atom_site_label
_atom_site_fract_x
_atom_site_fract_y
_atom_site_fract_z
Si Si1 0.171954 0.157915 0.081250
Si Si2 0.793158 0.830360 0.575523
Si Si3 0.189291 0.661090 0.750899
Si Si4 0.056652 0.662821 0.236182
Si Si5 0.935401 0.158840 0.091811
Si Si6 0.430973 0.667494 0.394635
O O1 0.149271 0.246303 0.155814
O O2 0.044410 0.144266 0.097930
O O3 0.221256 0.000000 0.072143
O O4 0.250000 0.250000 0.000000
O O5 0.790731 0.803666 0.654457
O O6 0.693473 0.724727 0.586481
O O7 0.909121 0.812680 0.481295
O O8 0.759375 0.000000 0.581902
O O9 0.209522 0.500000 0.765047
O O10 0.067059 0.662261 0.756398
O O11 0.162423 0.758343 0.824538
O O12 0.092003 0.500000 0.230526
O O13 0.027880 0.740240 0.316018
O O14 0.893027 0.000000 0.090179
O O15 0.000000 0.223572 0.000000
O O16 0.448268 0.500000 0.374656
#
# Coordination Sequence:
#
# PCOD9178827 Si02
#       6
#     8   8   8   8   8   8
#     4  10  19  31  47  65  86 113 144 178 215 254
#     4   8  14  22  31  47  74 105 135 168 205 248
#     4   8  14  24  37  54  77 106 138 171 208 247
#     4   9  16  26  38  54  79 108 138 172 209 250
#     4   9  18  31  45  62  85 113 144 177 213 252
#     4   9  14  20  32  50  73 103 137 169 204 247
#
# _framework density 22.500350999999998
#
# number of rings (size 3 to 8) (size 9 to 14) (size 15 to 20)
#    0.000    3.167    0.000    2.500    0.000    5.667 
#    0.000    0.000    0.000    0.000    0.000    0.000 
#    0.000    1.333    0.000   15.333    0.000   15.667 
#
# Total GULP energy -133893.284579 kJ/mol
# GULP energy per Si atom -5578.886857 kJ/mol
# Density = 2.244914 g / cm^3
# Si number density = 22.500351 Si / 1000 Ang^3
#
#
#
# Elastic Constant Matrix: (Units=GPa)
#
#
# Indices 1 2 3 4 5 6 
#
# 1 60.1787 19.3309 13.9181 0.0000 16.0461 0.0000
# 2 19.3309 158.8411 129.9890 0.0000 -1.7844 0.0000
# 3 13.9181 129.9890 256.3646 0.0000 -8.0529 0.0000
# 4 0.0000 0.0000 0.0000 41.5127 0.0000 1.8881
# 5 16.0461 -1.7844 -8.0529 0.0000 24.4182 0.0000
# 6 0.0000 0.0000 0.0000 1.8881 0.0000 -1.1053
#
#
#
# Elastic Compliance Matrix: (Units=1/GPa)
#
#
# Indices 1 2 3 4 5 6 
#
# 1 0.021302 -0.002460 -0.000358 0.000000 -0.014296 0.000000
# 2 -0.002460 0.011070 -0.005460 0.000000 0.000625 0.000000
# 3 -0.000358 -0.005460 0.006753 0.000000 0.002064 0.000000
# 4 0.000000 0.000000 0.000000 0.022352 0.000000 0.038181
# 5 -0.014296 0.000625 0.002064 0.000000 0.051074 0.000000
# 6 0.000000 0.000000 0.000000 0.038181 0.000000 -0.839486
#
#
# Mechanical properties :
#
#
# Convention : Reuss Voigt Hill
#
# Bulk Modulus (GPa) = 44.30736 89.09561 66.70149
# Shear Modulus (GPa) = -7.11385 33.77485 13.33050
#
# Velocity S-wave (km/s) = -1.78003 3.87858 2.43669
# Velocity P-wave (km/s) = 3.93826 7.72925 6.13397
#
# Compressibility (1/GPa) = 0.02256961
#
# Stress axis : x y z
#
# Youngs Moduli (GPa) = 46.94347 90.33293 148.07325
#
# Poissons Ratio (x) = 0.22220 0.05306
# Poissons Ratio (y) = 0.11547 0.80847
# Poissons Ratio (z) = 0.01682 0.49321
#
# Static dielectric constant tensor:
#      x y z
#    x 2.011970 0.000000 -0.023560 
#    y 0.000000 1.767180 0.000000 
#    z -0.023560 0.000000 1.852540 
# 
# From -- ./inp_files/313577.got.cif
#   From: 2010.05.17/outbox.cif.g08.bks.cpg/sg12_157_cif.got.tgz:313577.got - 2010.06.03 13:09:07.
