data_PCOD9178258
_publ_section_title
;
Structure prediction by ZEFSAII (Michael W. Deem and Ramdas Pophale) SiO2 
 PCOD9178258
Probable space group: C 2/M
;
_chemical_formula_sum "Si O2"
_cell_formula_units_Z 64
_cell_length_a 24.277318
_cell_length_b 8.057570
_cell_length_c 15.276214
_cell_angle_alpha 90.000000
_cell_angle_beta 98.717447
_cell_angle_gamma 90.000000
_cell_volume 2953.753563
_symmetry_space_group_name_H-M "C 2/M"
_symmetry_group_IT_number 12
_symmetry_cell_setting 'monoclinic'
loop_
_space_group_symop_operation_xyz
x,y,z
-x,y,-z
-x,-y,-z
x,-y,z
1/2+x,1/2+y,z
1/2-x,1/2+y,-z
1/2-x,1/2-y,-z
1/2+x,1/2-y,z
loop_
_atom_site_type_symbol
_atom_site_label
_atom_site_fract_x
_atom_site_fract_y
_atom_site_fract_z
Si Si1 0.629037 0.697538 0.080395
Si Si2 0.404296 0.700805 0.461179
Si Si3 0.315204 0.798741 0.741594
Si Si4 0.575127 0.803033 0.336385
Si Si5 0.451970 0.299512 0.291911
Si Si6 0.011148 0.683392 0.105260
Si Si7 0.722502 0.700114 0.585210
Si Si8 0.603896 0.313333 0.883146
O O1 0.621703 0.500000 0.071722
O O2 0.679665 0.739178 0.157068
O O3 0.575662 0.768680 0.119943
O O4 0.629163 0.761301 0.979157
O O5 0.405532 0.500000 0.461504
O O6 0.422733 0.754881 0.561461
O O7 0.441142 0.758576 0.388307
O O8 0.341032 0.758120 0.429495
O O9 0.369318 0.738557 0.698954
O O10 0.260955 0.743000 0.674939
O O11 0.316139 0.000000 0.743050
O O12 0.515840 0.744730 0.283872
O O13 0.577207 0.000000 0.330379
O O14 0.447733 0.500000 0.289998
O O15 0.402223 0.236238 0.215368
O O16 0.001300 0.500000 0.142324
O O17 0.963063 0.813798 0.116438
O O18 0.000000 0.664803 0.000000
O O19 0.721544 0.500000 0.588633
O O20 0.750000 0.750000 0.500000
O O21 0.626521 0.500000 0.880545
#
# Coordination Sequence:
#
# PCOD9178258 Si02
#       8
#     8   8   8   8   8   8   8   8
#     4  10  19  30  47  72 100 134 174 214 257 304
#     4  10  21  37  58  79 102 137 178 216 259 312
#     4  10  21  35  52  78 109 137 169 213 265 317
#     4  11  22  35  52  78 111 142 172 212 262 314
#     4  10  21  36  53  76 106 142 180 215 254 306
#     4   9  16  26  42  65  95 131 168 208 255 302
#     4  10  20  37  59  81 104 132 171 217 265 314
#     4   9  18  32  48  68  99 136 176 217 252 296
#
# _framework density 21.667345999999998
#
# number of rings (size 3 to 8) (size 9 to 14) (size 15 to 20)
#    0.000    2.125    1.250    2.250    0.000    8.000 
#    0.000    0.000    0.000    0.750    0.000    0.000 
#    0.000    0.000    0.000    0.000    0.000    0.375 
#
# Total GULP energy -178355.392753 kJ/mol
# GULP energy per Si atom -5573.606024 kJ/mol
# Density = 2.161803 g / cm^3
# Si number density = 21.667346 Si / 1000 Ang^3
#
#
#
# Elastic Constant Matrix: (Units=GPa)
#
#
# Indices 1 2 3 4 5 6 
#
# 1 42.6861 -0.7188 14.6654 0.0000 18.3717 0.0000
# 2 -0.7188 26.8041 -0.7699 0.0000 1.8390 0.0000
# 3 14.6654 -0.7699 158.0021 0.0000 32.8551 0.0000
# 4 0.0000 0.0000 0.0000 21.6914 0.0000 6.6675
# 5 18.3717 1.8390 32.8551 0.0000 32.7406 0.0000
# 6 0.0000 0.0000 0.0000 6.6675 0.0000 10.6438
#
#
#
# Elastic Compliance Matrix: (Units=1/GPa)
#
#
# Indices 1 2 3 4 5 6 
#
# 1 0.031116 0.002136 0.000983 0.000000 -0.018566 0.000000
# 2 0.002136 0.037676 0.000852 0.000000 -0.004170 0.000000
# 3 0.000983 0.000852 0.008045 0.000000 -0.008673 0.000000
# 4 0.000000 0.000000 0.000000 0.057095 0.000000 -0.035766
# 5 -0.018566 -0.004170 -0.008673 0.000000 0.049899 0.000000
# 6 0.000000 0.000000 0.000000 -0.035766 0.000000 0.116356
#
#
# Mechanical properties :
#
#
# Convention : Reuss Voigt Hill
#
# Bulk Modulus (GPa) = 11.79510 28.20508 20.00009
# Shear Modulus (GPa) = 15.60046 27.30288 21.45167
#
# Velocity S-wave (km/s) = 2.68619 3.55363 3.14991
# Velocity P-wave (km/s) = 3.88283 5.46656 4.74129
#
# Compressibility (1/GPa) = 0.08478094
#
# Stress axis : x y z
#
# Youngs Moduli (GPa) = 32.13789 26.54240 124.29442
#
# Poissons Ratio (x) = -0.05671 -0.12219
# Poissons Ratio (y) = -0.06866 -0.10596
# Poissons Ratio (z) = -0.03159 -0.02263
#
# Static dielectric constant tensor:
#      x y z
#    x 1.791110 0.000000 -0.027060 
#    y 0.000000 1.801020 0.000000 
#    z -0.027060 0.000000 1.899590 
# 
# From -- ./inp_files/244262.got.cif
#   From: 2010.05.17/outbox.cif.g08.bks.cpg/sg12_123_cif.got.tgz:244262.got - 2010.06.03 13:09:07.
