data_PCOD9178951
_publ_section_title
;
Structure prediction by ZEFSAII (Michael W. Deem and Ramdas Pophale) SiO2 
 PCOD9178951
Probable space group: C 2/M
;
_chemical_formula_sum "Si O2"
_cell_formula_units_Z 48
_cell_length_a 28.942323
_cell_length_b 8.803177
_cell_length_c 12.428814
_cell_angle_alpha 90.000000
_cell_angle_beta 70.931407
_cell_angle_gamma 90.000000
_cell_volume 2992.906856
_symmetry_space_group_name_H-M "C 2/M"
_symmetry_group_IT_number 12
_symmetry_cell_setting 'monoclinic'
loop_
_space_group_symop_operation_xyz
x,y,z
-x,y,-z
-x,-y,-z
x,-y,z
1/2+x,1/2+y,z
1/2-x,1/2+y,-z
1/2-x,1/2-y,-z
1/2+x,1/2-y,z
loop_
_atom_site_type_symbol
_atom_site_label
_atom_site_fract_x
_atom_site_fract_y
_atom_site_fract_z
Si Si1 0.021395 0.175867 0.605907
Si Si2 0.222063 0.819056 0.419753
Si Si3 0.081918 0.816915 0.257639
Si Si4 0.253216 0.319090 0.173222
Si Si5 0.616689 0.819911 0.458080
Si Si6 0.675951 0.681827 0.065958
O O1 0.070454 0.272995 0.566752
O O2 0.000000 0.179922 0.500000
O O3 0.974826 0.227991 0.711392
O O4 0.033186 0.000000 0.621070
O O5 0.250000 0.750000 0.500000
O O6 0.247662 0.764849 0.289972
O O7 0.166639 0.757703 0.457055
O O8 0.221750 0.000000 0.425481
O O9 0.103591 0.740891 0.348587
O O10 0.119468 0.783681 0.133045
O O11 0.081605 0.000000 0.275432
O O12 0.250646 0.500000 0.192207
O O13 0.209003 0.267356 0.128813
O O14 0.302050 0.282424 0.067674
O O15 0.622654 0.000000 0.450663
O O16 0.682869 0.500000 0.076945
#
# Coordination Sequence:
#
# PCOD9178951 Si02
#       6
#     8   8   8   8   8   8
#     4   8  15  27  43  64  93 128 162 193 233 284
#     4  12  24  38  53  69  93 127 166 205 246 289
#     4   9  16  28  46  69  97 132 164 192 233 284
#     4  10  19  31  47  72  99 127 164 200 239 286
#     4  11  20  30  45  68  96 126 160 200 243 287
#     4   9  17  29  48  71 100 134 162 194 236 285
#
# _framework density 16.037918999999999
#
# number of rings (size 3 to 8) (size 9 to 14) (size 15 to 20)
#    0.000    2.167    1.667    4.500    0.000    3.667 
#    0.000    0.000    0.000    0.000    0.000    1.167 
#    0.000    9.333    0.000    0.000    0.000    0.000 
#
# Total GULP energy -133794.263985 kJ/mol
# GULP energy per Si atom -5574.760999 kJ/mol
# Density = 1.600142 g / cm^3
# Si number density = 16.037919 Si / 1000 Ang^3
#
#
#
# Elastic Constant Matrix: (Units=GPa)
#
#
# Indices 1 2 3 4 5 6 
#
# 1 95.5276 52.1042 72.7029 0.0000 -28.7378 0.0000
# 2 52.1042 85.0797 50.4984 0.0000 -8.3008 0.0000
# 3 72.7029 50.4984 95.1411 0.0000 -25.3789 0.0000
# 4 0.0000 0.0000 0.0000 21.8373 0.0000 -2.1707
# 5 -28.7378 -8.3008 -25.3789 0.0000 34.9528 0.0000
# 6 0.0000 0.0000 0.0000 -2.1707 0.0000 23.3293
#
#
#
# Elastic Compliance Matrix: (Units=1/GPa)
#
#
# Indices 1 2 3 4 5 6 
#
# 1 0.030463 -0.008093 -0.015893 0.000000 0.011585 0.000000
# 2 -0.008093 0.019593 -0.005890 0.000000 -0.006277 0.000000
# 3 -0.015893 -0.005890 0.027189 0.000000 0.005276 0.000000
# 4 0.000000 0.000000 0.000000 0.046221 0.000000 0.004301
# 5 0.011585 -0.006277 0.005276 0.000000 0.040475 0.000000
# 6 0.000000 0.000000 0.000000 0.004301 0.000000 0.043265
#
#
# Mechanical properties :
#
#
# Convention : Reuss Voigt Hill
#
# Bulk Modulus (GPa) = 57.16210 69.59549 63.37880
# Shear Modulus (GPa) = 18.32931 22.72007 20.52469
#
# Velocity S-wave (km/s) = 3.38431 3.76792 3.58125
# Velocity P-wave (km/s) = 7.14077 7.90052 7.53023
#
# Compressibility (1/GPa) = 0.01749411
#
# Stress axis : x y z
#
# Youngs Moduli (GPa) = 32.82712 51.03806 36.77967
#
# Poissons Ratio (x) = 0.41303 0.58453
# Poissons Ratio (y) = 0.26565 0.21663
# Poissons Ratio (z) = 0.52171 0.30062
#
# Static dielectric constant tensor:
#      x y z
#    x 1.538620 0.000000 -0.058190 
#    y 0.000000 1.537000 0.000000 
#    z -0.058190 0.000000 1.546410 
# 
# From -- ./inp_files/179225.got.cif
#   From: 2010.05.17/outbox.cif.g08.bks.cpg/sg12_90_cif.got.tgz:179225.got - 2010.06.03 13:09:07.
