data_PCOD9178077
_publ_section_title
;
Structure prediction by ZEFSAII (Michael W. Deem and Ramdas Pophale) SiO2 
 PCOD9178077
Probable space group: C 2/M
;
_chemical_formula_sum "Si O2"
_cell_formula_units_Z 40
_cell_length_a 24.715691
_cell_length_b 7.652426
_cell_length_c 21.540894
_cell_angle_alpha 90.000000
_cell_angle_beta 31.866074
_cell_angle_gamma 90.000000
_cell_volume 2150.881705
_symmetry_space_group_name_H-M "C 2/M"
_symmetry_group_IT_number 12
_symmetry_cell_setting 'monoclinic'
loop_
_space_group_symop_operation_xyz
x,y,z
-x,y,-z
-x,-y,-z
x,-y,z
1/2+x,1/2+y,z
1/2-x,1/2+y,-z
1/2-x,1/2-y,-z
1/2+x,1/2-y,z
loop_
_atom_site_type_symbol
_atom_site_label
_atom_site_fract_x
_atom_site_fract_y
_atom_site_fract_z
Si Si1 0.017173 0.797163 0.415395
Si Si2 0.659089 0.205478 0.503599
Si Si3 0.381732 0.211782 0.315579
Si Si4 0.105311 0.706819 0.088860
Si Si5 0.674402 0.287126 0.160546
O O1 0.912822 0.790159 0.477543
O O2 0.000000 0.717436 0.500000
O O3 0.106086 0.722853 0.284334
O O4 0.046073 0.000000 0.397025
O O5 0.632444 0.272071 0.598995
O O6 0.780474 0.232451 0.377678
O O7 0.636536 0.000000 0.524413
O O8 0.492042 0.275564 0.184415
O O9 0.382420 0.000000 0.315946
O O10 0.102882 0.500000 0.078771
O O11 0.124441 0.731661 0.143856
O O12 0.207686 0.775534 0.955866
O O13 0.674066 0.500000 0.160746
#
# Coordination Sequence:
#
# PCOD9178077 Si02
#       5
#     8   8   8   8   8
#     4  10  20  33  48  67  95 128 159 190 224 269
#     4  10  19  30  46  69  94 121 156 192 230 275
#     4   9  17  29  46  68  96 122 145 187 238 281
#     4   9  16  28  46  69  95 119 146 187 235 278
#     4   9  17  28  45  68  93 121 153 187 227 274
#
# _framework density 18.597024999999999
#
# number of rings (size 3 to 8) (size 9 to 14) (size 15 to 20)
#    0.000    2.600    2.000    0.600    0.000    2.000 
#    0.000    0.000    0.000    1.200    0.000    8.400 
#    0.000    0.000    0.000    0.000    0.000    0.000 
#
# Total GULP energy -111478.369918 kJ/mol
# GULP energy per Si atom -5573.918496 kJ/mol
# Density = 1.855470 g / cm^3
# Si number density = 18.597025 Si / 1000 Ang^3
#
#
#
# Elastic Constant Matrix: (Units=GPa)
#
#
# Indices 1 2 3 4 5 6 
#
# 1 63.5446 -6.4273 69.0753 -0.0021 -4.0766 0.0011
# 2 -6.4273 31.0072 -5.1347 0.0052 -0.1323 -0.0053
# 3 69.0753 -5.1347 162.1749 -0.0015 -20.6754 -0.0008
# 4 -0.0021 0.0052 -0.0015 8.8966 -0.0008 -1.7581
# 5 -4.0766 -0.1323 -20.6754 -0.0008 31.3834 0.0018
# 6 0.0011 -0.0053 -0.0008 -1.7581 0.0018 13.0846
#
#
#
# Elastic Compliance Matrix: (Units=1/GPa)
#
#
# Indices 1 2 3 4 5 6 
#
# 1 0.030491 0.004066 -0.013484 0.000002 -0.004905 -0.000001
# 2 0.004066 0.032986 -0.000658 -0.000016 0.000234 0.000011
# 3 -0.013484 -0.000658 0.012734 0.000000 0.006635 0.000001
# 4 0.000002 -0.000016 0.000000 0.115468 0.000002 0.015515
# 5 -0.004905 0.000234 0.006635 0.000002 0.035599 -0.000004
# 6 -0.000001 0.000011 0.000001 0.015515 -0.000004 0.078510
#
#
# Mechanical properties :
#
#
# Convention : Reuss Voigt Hill
#
# Bulk Modulus (GPa) = 17.83779 41.30592 29.57185
# Shear Modulus (GPa) = 14.50854 23.95382 19.23118
#
# Velocity S-wave (km/s) = 2.79615 3.59283 3.21923
# Velocity P-wave (km/s) = 4.47629 6.28255 5.45471
#
# Compressibility (1/GPa) = 0.05606076
#
# Stress axis : x y z
#
# Youngs Moduli (GPa) = 32.79693 30.31629 78.52809
#
# Poissons Ratio (x) = -0.12328 1.05883
# Poissons Ratio (y) = -0.13337 0.05166
# Poissons Ratio (z) = 0.44222 0.01994
#
# Static dielectric constant tensor:
#      x y z
#    x 1.607890 0.000000 -0.025660 
#    y 0.000000 1.677900 0.000000 
#    z -0.025660 0.000000 1.692900 
# 
# From -- ./inp_files/152921.got.cif
#   From: 2010.05.17/outbox.cif.g08.bks.cpg/sg12_77_cif.got.tgz:152921.got - 2010.06.03 13:09:07.
