data_PCOD9178251
_publ_section_title
;
Structure prediction by ZEFSAII (Michael W. Deem and Ramdas Pophale) SiO2 
 PCOD9178251
Probable space group: C 2/M
;
_chemical_formula_sum "Si O2"
_cell_formula_units_Z 56
_cell_length_a 8.441170
_cell_length_b 24.075817
_cell_length_c 17.208872
_cell_angle_alpha 90.000000
_cell_angle_beta 54.349215
_cell_angle_gamma 90.000000
_cell_volume 2841.872579
_symmetry_space_group_name_H-M "C 2/M"
_symmetry_group_IT_number 12
_symmetry_cell_setting 'monoclinic'
loop_
_space_group_symop_operation_xyz
x,y,z
-x,y,-z
-x,-y,-z
x,-y,z
1/2+x,1/2+y,z
1/2-x,1/2+y,-z
1/2-x,1/2-y,-z
1/2+x,1/2-y,z
loop_
_atom_site_type_symbol
_atom_site_label
_atom_site_fract_x
_atom_site_fract_y
_atom_site_fract_z
Si Si1 0.397846 0.567675 0.950204
Si Si2 0.554247 0.938141 0.696399
Si Si3 0.506053 0.935532 0.881413
Si Si4 0.051842 0.066807 0.236107
Si Si5 0.335729 0.108025 0.614886
Si Si6 0.538635 0.775671 0.396343
Si Si7 0.308109 0.670292 0.603337
O O1 0.393539 0.500000 0.954108
O O2 0.171698 0.587193 0.017410
O O3 0.500000 0.586926 0.000000
O O4 0.494202 0.582014 0.840541
O O5 0.438837 0.935072 0.810582
O O6 0.420108 0.930074 0.659601
O O7 0.703167 0.886871 0.654035
O O8 0.644923 0.000000 0.668982
O O9 0.725815 0.913038 0.817096
O O10 0.529298 0.000000 0.898438
O O11 0.883261 0.089267 0.340607
O O12 0.050882 0.000000 0.244096
O O13 0.500000 0.106312 0.500000
O O14 0.322839 0.171083 0.649550
O O15 0.500000 0.771528 0.500000
O O16 0.623608 0.715280 0.351639
O O17 0.346999 0.795130 0.405304
O O18 0.500000 0.655527 0.500000
#
# Coordination Sequence:
#
# PCOD9178251 Si02
#       7
#     8   8   8   8   8   8   8
#     4   9  16  28  48  70  94 128 168 212 259 305
#     4  10  21  34  48  71 104 138 168 202 254 316
#     4   9  18  31  46  69 100 130 167 213 256 305
#     4  10  19  30  47  71  99 134 172 211 259 308
#     4  10  21  35  50  70 100 140 180 214 249 300
#     4   9  18  32  50  70  91 122 170 221 259 291
#     4  10  19  32  51  71  94 127 170 219 260 299
#
# _framework density 19.705317000000001
#
# number of rings (size 3 to 8) (size 9 to 14) (size 15 to 20)
#    0.000    2.429    0.000    3.429    0.000   10.000 
#    0.000    1.429    0.000    0.000    0.000    1.000 
#    0.000    0.571    0.000    0.000    0.000    0.000 
#
# Total GULP energy -155959.251947 kJ/mol
# GULP energy per Si atom -5569.973284 kJ/mol
# Density = 1.966047 g / cm^3
# Si number density = 19.705317 Si / 1000 Ang^3
#
#
#
# Elastic Constant Matrix: (Units=GPa)
#
#
# Indices 1 2 3 4 5 6 
#
# 1 68.1207 11.7794 27.0376 0.0000 -12.3439 0.0000
# 2 11.7794 93.8284 20.6137 0.0000 -11.5619 0.0000
# 3 27.0376 20.6137 81.8393 0.0000 -20.2585 0.0000
# 4 0.0000 0.0000 0.0000 -4.0766 0.0000 -3.9228
# 5 -12.3439 -11.5619 -20.2585 0.0000 36.0049 0.0000
# 6 0.0000 0.0000 0.0000 -3.9228 0.0000 10.6542
#
#
#
# Elastic Compliance Matrix: (Units=1/GPa)
#
#
# Indices 1 2 3 4 5 6 
#
# 1 0.017243 -0.000749 -0.004768 0.000000 0.002988 0.000000
# 2 -0.000749 0.011489 -0.002087 0.000000 0.002258 0.000000
# 3 -0.004768 -0.002087 0.015975 0.000000 0.006683 0.000000
# 4 0.000000 0.000000 0.000000 -0.181129 0.000000 -0.066691
# 5 0.002988 0.002258 0.006683 0.000000 0.033284 0.000000
# 6 0.000000 0.000000 0.000000 -0.066691 0.000000 0.069305
#
#
# Mechanical properties :
#
#
# Convention : Reuss Voigt Hill
#
# Bulk Modulus (GPa) = 33.90170 40.29441 37.09805
# Shear Modulus (GPa) = -568.70685 20.80703 -273.94991
#
# Velocity S-wave (km/s) = -17.00683 3.25300 -11.80361
# Velocity P-wave (km/s) = 19.19379 5.88237 12.91896
#
# Compressibility (1/GPa) = 0.02949705
#
# Stress axis : x y z
#
# Youngs Moduli (GPa) = 57.99308 87.04282 62.59964
#
# Poissons Ratio (x) = 0.06519 0.29850
# Poissons Ratio (y) = 0.04343 0.13067
# Poissons Ratio (z) = 0.27654 0.18169
#
# Static dielectric constant tensor:
#      x y z
#    x 1.807770 0.000000 0.001760 
#    y 0.000000 1.716580 0.000000 
#    z 0.001760 0.000000 1.719160 
# 
# From -- ./inp_files/259154.got.cif
#   From: 2010.05.17/outbox.cif.g08.bks.cpg/sg12_130_cif.got.tgz:259154.got - 2010.06.03 13:09:07.
