data_PCOD9178371
_publ_section_title
;
Structure prediction by ZEFSAII (Michael W. Deem and Ramdas Pophale) SiO2 
 PCOD9178371
Probable space group: C 2/M
;
_chemical_formula_sum "Si O2"
_cell_formula_units_Z 64
_cell_length_a 22.876126
_cell_length_b 9.158636
_cell_length_c 15.730001
_cell_angle_alpha 90.000000
_cell_angle_beta 117.231885
_cell_angle_gamma 90.000000
_cell_volume 2930.372670
_symmetry_space_group_name_H-M "C 2/M"
_symmetry_group_IT_number 12
_symmetry_cell_setting 'monoclinic'
loop_
_space_group_symop_operation_xyz
x,y,z
-x,y,-z
-x,-y,-z
x,-y,z
1/2+x,1/2+y,z
1/2-x,1/2+y,-z
1/2-x,1/2-y,-z
1/2+x,1/2-y,z
loop_
_atom_site_type_symbol
_atom_site_label
_atom_site_fract_x
_atom_site_fract_y
_atom_site_fract_z
Si Si1 0.712036 0.661860 0.546803
Si Si2 0.122067 0.666340 0.603386
Si Si3 0.765128 0.668370 0.172281
Si Si4 0.823771 0.664567 0.763685
Si Si5 0.064516 0.165935 0.263728
Si Si6 0.044547 0.165669 0.956404
Si Si7 0.861497 0.822622 0.118984
Si Si8 0.969877 0.324007 0.314328
O O1 0.697967 0.500000 0.506060
O O2 0.750000 0.750000 0.500000
O O3 0.648185 0.736888 0.544207
O O4 0.762442 0.652728 0.658882
O O5 0.115370 0.500000 0.568943
O O6 0.178450 0.666966 0.715452
O O7 0.055525 0.709307 0.607820
O O8 0.752107 0.500000 0.140883
O O9 0.702953 0.745741 0.173968
O O10 0.794556 0.756797 0.112238
O O11 0.845416 0.500000 0.800103
O O12 0.878114 0.751779 0.747501
O O13 0.005555 0.157496 0.155891
O O14 0.037588 0.257032 0.325792
O O15 0.081846 0.000000 0.297594
O O16 0.111472 0.221345 0.956635
O O17 0.059631 0.000000 0.997235
O O18 0.000000 0.239683 0.000000
O O19 0.915240 0.752529 0.218446
O O20 0.861644 0.000000 0.123807
O O21 0.968587 0.500000 0.303101
#
# Coordination Sequence:
#
# PCOD9178371 Si02
#       8
#     8   8   8   8   8   8   8   8
#     4  10  20  32  49  71  95 124 154 188 230 275
#     4   8  15  27  44  66  91 119 151 188 229 271
#     4   9  16  27  44  66  92 120 152 193 236 276
#     4  10  20  33  49  70  96 125 156 191 233 280
#     4  10  19  30  48  72  96 125 158 194 236 279
#     4   8  15  28  46  69  96 125 157 192 232 278
#     4   9  15  24  42  67  92 119 154 195 236 276
#     4   9  16  27  44  66  93 123 154 193 235 273
#
# _framework density 21.840225
#
# number of rings (size 3 to 8) (size 9 to 14) (size 15 to 20)
#    0.000    2.875    0.000    3.750    0.000    5.000 
#    0.000    0.000    0.000   15.000    0.000    5.250 
#    0.000    0.000    0.000    0.000    0.000    0.000 
#
# Total GULP energy -178462.268039 kJ/mol
# GULP energy per Si atom -5576.945876 kJ/mol
# Density = 2.179052 g / cm^3
# Si number density = 21.840225 Si / 1000 Ang^3
#
#
#
# Elastic Constant Matrix: (Units=GPa)
#
#
# Indices 1 2 3 4 5 6 
#
# 1 198.5278 109.2668 40.4377 0.0000 -76.8043 0.0000
# 2 109.2668 151.0055 36.7330 0.0000 -50.2657 0.0000
# 3 40.4377 36.7330 67.8827 0.0000 -14.8942 0.0000
# 4 0.0000 0.0000 0.0000 3.1367 0.0000 -10.0365
# 5 -76.8043 -50.2657 -14.8942 0.0000 55.6238 0.0000
# 6 0.0000 0.0000 0.0000 -10.0365 0.0000 33.2460
#
#
#
# Elastic Compliance Matrix: (Units=1/GPa)
#
#
# Indices 1 2 3 4 5 6 
#
# 1 0.013274 -0.004459 -0.002504 0.000000 0.013628 0.000000
# 2 -0.004459 0.011796 -0.002910 0.000000 0.003724 0.000000
# 3 -0.002504 -0.002910 0.017489 0.000000 -0.001404 0.000000
# 4 0.000000 0.000000 0.000000 9.360826 0.000000 2.825896
# 5 0.013628 0.003724 -0.001404 0.000000 0.039784 0.000000
# 6 0.000000 0.000000 0.000000 2.825896 0.000000 0.883175
#
#
# Mechanical properties :
#
#
# Convention : Reuss Voigt Hill
#
# Bulk Modulus (GPa) = 43.83458 87.81011 65.82234
# Shear Modulus (GPa) = 0.48292 33.79988 17.14140
#
# Velocity S-wave (km/s) = 0.47074 3.93822 2.80456
# Velocity P-wave (km/s) = 4.51770 7.80848 6.37895
#
# Compressibility (1/GPa) = 0.02281304
#
# Stress axis : x y z
#
# Youngs Moduli (GPa) = 75.33779 84.77238 57.17717
#
# Poissons Ratio (x) = 0.37802 0.14317
# Poissons Ratio (y) = 0.33595 0.16638
# Poissons Ratio (z) = 0.18864 0.24668
#
# Static dielectric constant tensor:
#      x y z
#    x 1.878690 0.000000 0.064680 
#    y 0.000000 2.079940 0.000000 
#    z 0.064680 0.000000 1.872030 
# 
# From -- ./inp_files/287722.got.cif
#   From: 2010.05.17/outbox.cif.g08.bks.cpg/sg12_144_cif.got.tgz:287722.got - 2010.06.03 13:09:07.
