data_PCOD9178079
_publ_section_title
;
Structure prediction by ZEFSAII (Michael W. Deem and Ramdas Pophale) SiO2 
 PCOD9178079
Probable space group: C 2/M
;
_chemical_formula_sum "Si O2"
_cell_formula_units_Z 48
_cell_length_a 13.814850
_cell_length_b 13.611924
_cell_length_c 14.906847
_cell_angle_alpha 90.000000
_cell_angle_beta 51.605327
_cell_angle_gamma 90.000000
_cell_volume 2196.998218
_symmetry_space_group_name_H-M "C 2/M"
_symmetry_group_IT_number 12
_symmetry_cell_setting 'monoclinic'
loop_
_space_group_symop_operation_xyz
x,y,z
-x,y,-z
-x,-y,-z
x,-y,z
1/2+x,1/2+y,z
1/2-x,1/2+y,-z
1/2-x,1/2-y,-z
1/2+x,1/2-y,z
loop_
_atom_site_type_symbol
_atom_site_label
_atom_site_fract_x
_atom_site_fract_y
_atom_site_fract_z
Si Si1 0.553214 0.384767 0.069670
Si Si2 0.577346 0.217937 0.757460
Si Si3 0.443442 0.613832 0.667796
Si Si4 0.687457 0.116088 0.869117
Si Si5 0.664251 0.114973 0.087819
Si Si6 0.810122 0.116270 0.549555
O O1 0.558357 0.500000 0.090880
O O2 0.466094 0.327147 0.189629
O O3 0.695392 0.347875 0.981938
O O4 0.500000 0.375839 0.000000
O O5 0.621299 0.173966 0.828707
O O6 0.690442 0.183990 0.629369
O O7 0.451161 0.165553 0.798526
O O8 0.462710 0.500000 0.678924
O O9 0.330586 0.649522 0.793091
O O10 0.378768 0.617391 0.606813
O O11 0.581670 0.654180 0.579261
O O12 0.634783 0.122570 0.998632
O O13 0.686333 0.000000 0.844999
O O14 0.666419 0.000000 0.111123
O O15 0.779995 0.000000 0.549475
#
# Coordination Sequence:
#
# PCOD9178079 Si02
#       6
#     8   8   8   8   8   8
#     4  10  22  37  47  57  81 123 168 196 216 254
#     4  11  18  27  46  71  97 118 142 182 228 270
#     4   7  11  21  37  62  98 129 144 157 196 270
#     4   9  16  26  45  75 103 120 136 169 225 283
#     4  10  19  30  46  69  95 118 143 182 231 276
#     4   8  13  22  39  66  98 125 143 164 207 270
#
# _framework density 21.847992000000001
#
# number of rings (size 3 to 8) (size 9 to 14) (size 15 to 20)
#    0.000    2.833    0.000    5.500    0.000    1.333 
#    0.000    0.000    0.000    1.000    0.000   11.667 
#    0.000   10.667    0.000    2.333    0.000    0.333 
#
# Total GULP energy -133895.877242 kJ/mol
# GULP energy per Si atom -5578.994885 kJ/mol
# Density = 2.179826 g / cm^3
# Si number density = 21.847992 Si / 1000 Ang^3
#
#
#
# Elastic Constant Matrix: (Units=GPa)
#
#
# Indices 1 2 3 4 5 6 
#
# 1 70.0262 26.3067 17.6285 0.0000 -24.6728 0.0000
# 2 26.3067 101.8720 40.8387 0.0000 -31.5797 0.0000
# 3 17.6285 40.8387 176.1356 0.0000 -54.2351 0.0000
# 4 0.0000 0.0000 0.0000 20.1895 0.0000 -11.6400
# 5 -24.6728 -31.5797 -54.2351 0.0000 36.2741 0.0000
# 6 0.0000 0.0000 0.0000 -11.6400 0.0000 31.7642
#
#
#
# Elastic Compliance Matrix: (Units=1/GPa)
#
#
# Indices 1 2 3 4 5 6 
#
# 1 0.020337 -0.000972 0.004056 0.000000 0.019051 0.000000
# 2 -0.000972 0.013569 0.000713 0.000000 0.012218 0.000000
# 3 0.004056 0.000713 0.011391 0.000000 0.020411 0.000000
# 4 0.000000 0.000000 0.000000 0.062798 0.000000 0.023012
# 5 0.019051 0.012218 0.020411 0.000000 0.081680 0.000000
# 6 0.000000 0.000000 0.000000 0.023012 0.000000 0.039915
#
#
# Mechanical properties :
#
#
# Convention : Reuss Voigt Hill
#
# Bulk Modulus (GPa) = 18.90666 57.50908 38.20787
# Shear Modulus (GPa) = 20.85717 35.19622 28.02669
#
# Velocity S-wave (km/s) = 3.09309 4.01803 3.58551
# Velocity P-wave (km/s) = 4.62913 6.92139 5.88789
#
# Compressibility (1/GPa) = 0.05289143
#
# Stress axis : x y z
#
# Youngs Moduli (GPa) = 49.17223 73.69806 87.78867
#
# Poissons Ratio (x) = 0.07163 -0.35607
# Poissons Ratio (y) = 0.04780 -0.06264
# Poissons Ratio (z) = -0.19944 -0.05258
#
# Static dielectric constant tensor:
#      x y z
#    x 1.813220 0.000000 0.002460 
#    y 0.000000 1.819320 0.000000 
#    z 0.002460 0.000000 1.878400 
# 
# From -- ./inp_files/310531.got.cif
#   From: 2010.05.17/outbox.cif.g08.bks.cpg/sg12_156_cif.got.tgz:310531.got - 2010.06.03 13:09:07.
