data_PCOD9178276
_publ_section_title
;
Structure prediction by ZEFSAII (Michael W. Deem and Ramdas Pophale) SiO2 
 PCOD9178276
Probable space group: C 2/M
;
_chemical_formula_sum "Si O2"
_cell_formula_units_Z 48
_cell_length_a 28.721846
_cell_length_b 8.913039
_cell_length_c 11.571101
_cell_angle_alpha 90.000000
_cell_angle_beta 77.395643
_cell_angle_gamma 90.000000
_cell_volume 2890.801254
_symmetry_space_group_name_H-M "C 2/M"
_symmetry_group_IT_number 12
_symmetry_cell_setting 'monoclinic'
loop_
_space_group_symop_operation_xyz
x,y,z
-x,y,-z
-x,-y,-z
x,-y,z
1/2+x,1/2+y,z
1/2-x,1/2+y,-z
1/2-x,1/2-y,-z
1/2+x,1/2-y,z
loop_
_atom_site_type_symbol
_atom_site_label
_atom_site_fract_x
_atom_site_fract_y
_atom_site_fract_z
Si Si1 0.391864 0.320733 0.979983
Si Si2 0.177193 0.178897 0.602355
Si Si3 0.013260 0.327332 0.129539
Si Si4 0.591151 0.180452 0.777595
Si Si5 0.794213 0.180723 0.907714
Si Si6 0.230703 0.820000 0.338047
O O1 0.391824 0.500000 0.994114
O O2 0.394116 0.245423 0.105106
O O3 0.439413 0.270470 0.886038
O O4 0.344119 0.273957 0.938751
O O5 0.128366 0.257430 0.665163
O O6 0.194956 0.214546 0.462998
O O7 0.219567 0.238093 0.662105
O O8 0.172695 0.000000 0.616300
O O9 0.023338 0.500000 0.156092
O O10 0.964090 0.275782 0.215314
O O11 0.000000 0.326807 0.000000
O O12 0.592557 0.000000 0.782545
O O13 0.789859 0.222121 0.775321
O O14 0.791389 0.000000 0.916189
O O15 0.750000 0.250000 0.000000
O O16 0.239075 0.000000 0.335359
#
# Coordination Sequence:
#
# PCOD9178276 Si02
#       6
#     8   8   8   8   8   8
#     4  10  19  30  47  72  98 122 155 196 231 271
#     4  10  19  31  50  73  93 118 158 200 232 270
#     4   8  16  30  46  66  93 125 156 187 232 283
#     4  10  19  31  48  70  97 126 155 189 234 283
#     4  10  21  34  48  69  96 126 156 186 226 277
#     4   9  19  35  50  66  95 129 155 187 235 281
#
# _framework density 16.604393000000002
#
# number of rings (size 3 to 8) (size 9 to 14) (size 15 to 20)
#    0.000    2.500    0.000    3.500    0.000    9.000 
#    0.000    0.000    0.000    1.000    0.000    7.000 
#    0.000    0.000    0.000    0.000    0.000    0.000 
#
# Total GULP energy -133828.345568 kJ/mol
# GULP energy per Si atom -5576.181065 kJ/mol
# Density = 1.656660 g / cm^3
# Si number density = 16.604393 Si / 1000 Ang^3
#
#
#
# Elastic Constant Matrix: (Units=GPa)
#
#
# Indices 1 2 3 4 5 6 
#
# 1 136.8062 43.6245 56.5824 0.0000 -20.0536 0.0000
# 2 43.6245 36.3820 25.6899 0.0000 -8.1523 0.0000
# 3 56.5824 25.6899 61.8647 0.0000 -8.9412 0.0000
# 4 0.0000 0.0000 0.0000 21.8686 0.0000 -7.6426
# 5 -20.0536 -8.1523 -8.9412 0.0000 31.5493 0.0000
# 6 0.0000 0.0000 0.0000 -7.6426 0.0000 30.0306
#
#
#
# Elastic Compliance Matrix: (Units=1/GPa)
#
#
# Indices 1 2 3 4 5 6 
#
# 1 0.014946 -0.010964 -0.008502 0.000000 0.004258 0.000000
# 2 -0.010964 0.047943 -0.009486 0.000000 0.002731 0.000000
# 3 -0.008502 -0.009486 0.027886 0.000000 0.000048 0.000000
# 4 0.000000 0.000000 0.000000 0.050192 0.000000 0.012774
# 5 0.004258 0.002731 0.000048 0.000000 0.035122 0.000000
# 6 0.000000 0.000000 0.000000 0.012774 0.000000 0.036550
#
#
# Mechanical properties :
#
#
# Convention : Reuss Voigt Hill
#
# Bulk Modulus (GPa) = 30.42144 54.09407 42.25775
# Shear Modulus (GPa) = 17.76194 23.96678 20.86436
#
# Velocity S-wave (km/s) = 3.27419 3.80333 3.54864
# Velocity P-wave (km/s) = 5.71445 7.20666 6.50350
#
# Compressibility (1/GPa) = 0.03287156
#
# Stress axis : x y z
#
# Youngs Moduli (GPa) = 66.90631 20.85800 35.86015
#
# Poissons Ratio (x) = 0.22870 0.30487
# Poissons Ratio (y) = 0.73359 0.34017
# Poissons Ratio (z) = 0.56882 0.19786
#
# Static dielectric constant tensor:
#      x y z
#    x 1.557000 0.000000 -0.017700 
#    y 0.000000 1.557170 0.000000 
#    z -0.017700 0.000000 1.554060 
# 
# From -- ./inp_files/172074.got.cif
#   From: 2010.05.17/outbox.cif.g08.bks.cpg/sg12_87_cif.got.tgz:172074.got - 2010.06.03 13:09:07.
