data_PCOD9178579
_publ_section_title
;
Structure prediction by ZEFSAII (Michael W. Deem and Ramdas Pophale) SiO2 
 PCOD9178579
Probable space group: C 2/M
;
_chemical_formula_sum "Si O2"
_cell_formula_units_Z 48
_cell_length_a 8.512779
_cell_length_b 18.797429
_cell_length_c 21.758784
_cell_angle_alpha 90.000000
_cell_angle_beta 129.962536
_cell_angle_gamma 90.000000
_cell_volume 2668.680131
_symmetry_space_group_name_H-M "C 2/M"
_symmetry_group_IT_number 12
_symmetry_cell_setting 'monoclinic'
loop_
_space_group_symop_operation_xyz
x,y,z
-x,y,-z
-x,-y,-z
x,-y,z
1/2+x,1/2+y,z
1/2-x,1/2+y,-z
1/2-x,1/2-y,-z
1/2+x,1/2-y,z
loop_
_atom_site_type_symbol
_atom_site_label
_atom_site_fract_x
_atom_site_fract_y
_atom_site_fract_z
Si Si1 0.721973 0.693462 0.659023
Si Si2 0.899504 0.308228 0.569990
Si Si3 0.046493 0.322977 0.155493
Si Si4 0.394001 0.418695 0.541481
Si Si5 0.730461 0.805180 0.075515
Si Si6 0.787582 0.083250 0.982202
O O1 0.849200 0.681887 0.629031
O O2 0.619687 0.771224 0.623266
O O3 0.853366 0.685541 0.753111
O O4 0.541095 0.634460 0.616033
O O5 0.750000 0.250000 0.500000
O O6 0.828579 0.381603 0.520722
O O7 0.213628 0.324244 0.143090
O O8 0.896135 0.255772 0.107891
O O9 0.899110 0.390318 0.107585
O O10 0.500000 0.418455 0.500000
O O11 0.387230 0.500000 0.561156
O O12 0.776210 0.870528 0.041580
O O13 0.500000 0.780403 0.000000
O O14 0.769940 0.000000 0.991379
O O15 0.000000 0.096020 0.000000
#
# Coordination Sequence:
#
# PCOD9178579 Si02
#       6
#     8   8   8   8   8   8
#     4  10  19  30  50  77 101 127 163 211 256 295
#     4   9  17  31  50  71  97 132 168 203 244 298
#     4  11  20  32  52  78 105 133 168 219 266 301
#     4   8  15  29  48  69  94 127 165 200 237 290
#     4  10  20  34  53  74 101 137 175 210 252 311
#     4  10  21  37  55  74 100 136 175 211 253 312
#
# _framework density 17.986419999999999
#
# number of rings (size 3 to 8) (size 9 to 14) (size 15 to 20)
#    0.000    2.333    0.000    6.000    0.000    3.667 
#    0.000    0.000    0.000    9.000    0.000    0.000 
#    0.000    0.000    0.000    0.000    0.000    0.000 
#
# Total GULP energy -133765.721719 kJ/mol
# GULP energy per Si atom -5573.571738 kJ/mol
# Density = 1.794548 g / cm^3
# Si number density = 17.986420 Si / 1000 Ang^3
#
#
#
# Elastic Constant Matrix: (Units=GPa)
#
#
# Indices 1 2 3 4 5 6 
#
# 1 60.6883 31.9883 32.4188 0.0000 -3.1876 0.0000
# 2 31.9883 112.8527 34.8358 0.0000 11.7733 0.0000
# 3 32.4188 34.8358 101.9396 0.0000 -16.0101 0.0000
# 4 0.0000 0.0000 0.0000 8.5477 0.0000 4.4239
# 5 -3.1876 11.7733 -16.0101 0.0000 18.1442 0.0000
# 6 0.0000 0.0000 0.0000 4.4239 0.0000 26.5683
#
#
#
# Elastic Compliance Matrix: (Units=1/GPa)
#
#
# Indices 1 2 3 4 5 6 
#
# 1 0.021821 -0.005010 -0.004777 0.000000 0.002869 0.000000
# 2 -0.005010 0.013357 -0.005190 0.000000 -0.014127 0.000000
# 3 -0.004777 -0.005190 0.015671 0.000000 0.016356 0.000000
# 4 0.000000 0.000000 0.000000 0.128024 0.000000 -0.021317
# 5 0.002869 -0.014127 0.016356 0.000000 0.079217 0.000000
# 6 0.000000 0.000000 0.000000 -0.021317 0.000000 0.041188
#
#
# Mechanical properties :
#
#
# Convention : Reuss Voigt Hill
#
# Bulk Modulus (GPa) = 47.85647 52.66293 50.25970
# Shear Modulus (GPa) = 14.87226 22.40121 18.63674
#
# Velocity S-wave (km/s) = 2.87864 3.53292 3.22243
# Velocity P-wave (km/s) = 6.14113 6.78122 6.46910
#
# Compressibility (1/GPa) = 0.02089581
#
# Stress axis : x y z
#
# Youngs Moduli (GPa) = 45.82802 74.86725 63.81131
#
# Poissons Ratio (x) = 0.37508 0.30481
# Poissons Ratio (y) = 0.22960 0.33117
# Poissons Ratio (z) = 0.21891 0.38855
#
# Static dielectric constant tensor:
#      x y z
#    x 1.643430 0.000000 0.001570 
#    y 0.000000 1.624440 0.000000 
#    z 0.001570 0.000000 1.608770 
# 
# From -- ./inp_files/256207.got.cif
#   From: 2010.05.17/outbox.cif.g08.bks.cpg/sg12_129_cif.got.tgz:256207.got - 2010.06.03 13:09:07.
