data_PCOD9178080
_publ_section_title
;
Structure prediction by ZEFSAII (Michael W. Deem and Ramdas Pophale) SiO2 
 PCOD9178080
Probable space group: C 2/M
;
_chemical_formula_sum "Si O2"
_cell_formula_units_Z 64
_cell_length_a 21.968067
_cell_length_b 9.698812
_cell_length_c 14.488830
_cell_angle_alpha 90.000000
_cell_angle_beta 73.562128
_cell_angle_gamma 90.000000
_cell_volume 2960.873701
_symmetry_space_group_name_H-M "C 2/M"
_symmetry_group_IT_number 12
_symmetry_cell_setting 'monoclinic'
loop_
_space_group_symop_operation_xyz
x,y,z
-x,y,-z
-x,-y,-z
x,-y,z
1/2+x,1/2+y,z
1/2-x,1/2+y,-z
1/2-x,1/2-y,-z
1/2+x,1/2-y,z
loop_
_atom_site_type_symbol
_atom_site_label
_atom_site_fract_x
_atom_site_fract_y
_atom_site_fract_z
Si Si1 0.195210 0.340762 0.667828
Si Si2 0.322490 0.155926 0.826062
Si Si3 0.814046 0.657337 0.604324
Si Si4 0.923034 0.163043 0.260926
Si Si5 0.568356 0.840571 0.923140
Si Si6 0.566360 0.651911 0.243516
Si Si7 0.706523 0.154960 0.887962
Si Si8 0.425901 0.346123 0.543155
O O1 0.192492 0.500000 0.640604
O O2 0.256492 0.259369 0.606595
O O3 0.133003 0.252487 0.671417
O O4 0.200631 0.341000 0.778029
O O5 0.317792 0.152392 0.715425
O O6 0.386892 0.237698 0.820247
O O7 0.260511 0.235692 0.888301
O O8 0.324654 0.000000 0.858301
O O9 0.804536 0.500000 0.578342
O O10 0.877741 0.726303 0.537007
O O11 0.929846 0.224433 0.155537
O O12 0.992065 0.186291 0.274941
O O13 0.908761 0.000000 0.267448
O O14 0.634030 0.821743 0.951787
O O15 0.572870 0.000000 0.884572
O O16 0.500000 0.831122 0.000000
O O17 0.573638 0.500000 0.197253
O O18 0.585189 0.640852 0.342425
O O19 0.726923 0.000000 0.903901
O O20 0.500000 0.313489 0.500000
O O21 0.414703 0.500000 0.506406
#
# Coordination Sequence:
#
# PCOD9178080 Si02
#       8
#     8   8   8   8   8   8   8   8
#     4   9  16  27  44  65  89 118 152 188 225 267
#     4   9  16  25  41  65  89 114 147 186 223 262
#     4   9  16  26  42  66  93 117 146 189 235 271
#     4  10  19  30  46  69  95 121 149 185 229 272
#     4   9  18  32  49  69  93 122 154 186 223 269
#     4   9  18  31  46  66  93 122 150 184 228 273
#     4   8  14  25  42  63  87 114 143 180 224 263
#     4   9  17  30  48  68  91 122 157 189 225 274
#
# _framework density 21.615243
#
# number of rings (size 3 to 8) (size 9 to 14) (size 15 to 20)
#    0.000    3.000    0.000    2.250    0.000    7.500 
#    0.000    0.000    0.000    1.500    0.000    0.000 
#    0.000    0.000    0.000    0.000    0.000    0.000 
#
# Total GULP energy -178550.849656 kJ/mol
# GULP energy per Si atom -5579.714052 kJ/mol
# Density = 2.156605 g / cm^3
# Si number density = 21.615243 Si / 1000 Ang^3
#
#
#
# Elastic Constant Matrix: (Units=GPa)
#
#
# Indices 1 2 3 4 5 6 
#
# 1 84.7364 104.4067 21.2712 0.0000 -44.1327 0.0000
# 2 104.4067 191.3465 41.6247 0.0000 -45.8325 0.0000
# 3 21.2712 41.6247 65.0293 0.0000 -12.1680 0.0000
# 4 0.0000 0.0000 0.0000 2.5229 0.0000 -11.5214
# 5 -44.1327 -45.8325 -12.1680 0.0000 42.9309 0.0000
# 6 0.0000 0.0000 0.0000 -11.5214 0.0000 60.7915
#
#
#
# Elastic Compliance Matrix: (Units=1/GPa)
#
#
# Indices 1 2 3 4 5 6 
#
# 1 0.061786 -0.025468 0.003051 0.000000 0.037190 0.000000
# 2 -0.025468 0.018244 -0.004859 0.000000 -0.008082 0.000000
# 3 0.003051 -0.004859 0.018064 0.000000 0.003069 0.000000
# 4 0.000000 0.000000 0.000000 2.946702 0.000000 0.558467
# 5 0.037190 -0.008082 0.003069 0.000000 0.053766 0.000000
# 6 0.000000 0.000000 0.000000 0.558467 0.000000 0.122292
#
#
# Mechanical properties :
#
#
# Convention : Reuss Voigt Hill
#
# Bulk Modulus (GPa) = 22.96729 75.07970 49.02349
# Shear Modulus (GPa) = 1.51979 32.83636 17.17808
#
# Velocity S-wave (km/s) = 0.83943 3.90183 2.82214
# Velocity P-wave (km/s) = 3.40413 7.42355 5.77482
#
# Compressibility (1/GPa) = 0.04354017
#
# Stress axis : x y z
#
# Youngs Moduli (GPa) = 16.18501 54.81214 55.35770
#
# Poissons Ratio (x) = 1.39598 -0.16889
# Poissons Ratio (y) = 0.41221 0.26900
# Poissons Ratio (z) = -0.04938 0.26635
#
# Static dielectric constant tensor:
#      x y z
#    x 1.800220 0.000000 0.039890 
#    y 0.000000 1.753240 0.000000 
#    z 0.039890 0.000000 1.841450 
# 
# From -- ./inp_files/323675.got.cif
#   From: 2010.05.17/outbox.cif.g08.bks.cpg/sg12_162_cif.got.tgz:323675.got - 2010.06.03 13:09:07.
