data_PCOD9178386
_publ_section_title
;
Structure prediction by ZEFSAII (Michael W. Deem and Ramdas Pophale) SiO2 
 PCOD9178386
Probable space group: C 2/M
;
_chemical_formula_sum "Si O2"
_cell_formula_units_Z 64
_cell_length_a 9.307315
_cell_length_b 27.776713
_cell_length_c 15.893245
_cell_angle_alpha 90.000000
_cell_angle_beta 49.617550
_cell_angle_gamma 90.000000
_cell_volume 3129.844610
_symmetry_space_group_name_H-M "C 2/M"
_symmetry_group_IT_number 12
_symmetry_cell_setting 'monoclinic'
loop_
_space_group_symop_operation_xyz
x,y,z
-x,y,-z
-x,-y,-z
x,-y,z
1/2+x,1/2+y,z
1/2-x,1/2+y,-z
1/2-x,1/2-y,-z
1/2+x,1/2-y,z
loop_
_atom_site_type_symbol
_atom_site_label
_atom_site_fract_x
_atom_site_fract_y
_atom_site_fract_z
Si Si1 0.603389 0.913737 0.539707
Si Si2 0.063381 0.225936 0.380411
Si Si3 0.513825 0.376534 0.329745
Si Si4 0.460373 0.302330 0.915373
Si Si5 0.879396 0.671621 0.713713
Si Si6 0.304596 0.135894 0.087583
Si Si7 0.299959 0.551339 0.622792
Si Si8 0.969603 0.699938 0.175566
O O1 0.500000 0.937773 0.500000
O O2 0.810218 0.898703 0.426298
O O3 0.473291 0.869139 0.620362
O O4 0.645361 0.942530 0.609059
O O5 0.033824 0.277767 0.350868
O O6 0.285079 0.217815 0.294172
O O7 0.000000 0.223882 0.500000
O O8 0.986549 0.180252 0.357492
O O9 0.621086 0.386707 0.201731
O O10 0.666750 0.400652 0.335714
O O11 0.652263 0.323123 0.799505
O O12 0.284266 0.336239 0.958171
O O13 0.427713 0.249383 0.888552
O O14 0.500000 0.298718 0.000000
O O15 0.928337 0.667098 0.794212
O O16 0.383576 0.174657 0.125606
O O17 0.500000 0.106612 0.000000
O O18 0.500000 0.547806 0.500000
O O19 0.271425 0.500000 0.679532
#
# Coordination Sequence:
#
# PCOD9178386 Si02
#       8
#     8   8   8   8   8   8   8   8
#     4  11  21  33  53  82 116 143 171 217 270 326
#     4  10  19  30  48  73 106 145 183 218 257 312
#     4  10  20  37  56  77 106 140 180 223 266 316
#     4  11  22  35  49  69 100 138 183 229 269 313
#     4  11  22  33  49  76 109 147 183 217 266 322
#     4  11  22  35  52  72  97 135 180 225 270 316
#     4   9  19  37  60  82 106 141 182 223 268 316
#     4  10  20  33  48  66  95 138 188 232 264 302
#
# _framework density 20.4483
#
# number of rings (size 3 to 8) (size 9 to 14) (size 15 to 20)
#    0.000    1.625    0.000    7.875    0.000    5.750 
#    0.000    0.000    0.000    0.375    0.000    0.000 
#    0.000    3.000    0.000    0.000    0.000    0.000 
#
# Total GULP energy -178417.866698 kJ/mol
# GULP energy per Si atom -5575.558334 kJ/mol
# Density = 2.040176 g / cm^3
# Si number density = 20.448300 Si / 1000 Ang^3
#
#
#
# Elastic Constant Matrix: (Units=GPa)
#
#
# Indices 1 2 3 4 5 6 
#
# 1 88.4454 1.5565 4.6577 0.0000 12.1865 0.0000
# 2 1.5565 49.0923 -0.7199 0.0000 2.3929 0.0000
# 3 4.6577 -0.7199 102.3005 0.0000 -6.8627 0.0000
# 4 0.0000 0.0000 0.0000 -1.7444 0.0000 1.9892
# 5 12.1865 2.3929 -6.8627 0.0000 33.8041 0.0000
# 6 0.0000 0.0000 0.0000 1.9892 0.0000 -1.7272
#
#
#
# Elastic Compliance Matrix: (Units=1/GPa)
#
#
# Indices 1 2 3 4 5 6 
#
# 1 0.011971 -0.000174 -0.000846 0.000000 -0.004475 0.000000
# 2 -0.000174 0.020443 0.000060 0.000000 -0.001372 0.000000
# 3 -0.000846 0.000060 0.009970 0.000000 0.002325 0.000000
# 4 0.000000 0.000000 0.000000 1.829573 0.000000 2.107145
# 5 -0.004475 -0.001372 0.002325 0.000000 0.031765 0.000000
# 6 0.000000 0.000000 0.000000 2.107145 0.000000 1.847843
#
#
# Mechanical properties :
#
#
# Convention : Reuss Voigt Hill
#
# Bulk Modulus (GPa) = 24.71414 27.86964 26.29189
# Shear Modulus (GPa) = 1.32733 21.68945 11.50839
#
# Velocity S-wave (km/s) = 0.80655 3.26037 2.37492
# Velocity P-wave (km/s) = 3.60274 5.27563 4.51730
#
# Compressibility (1/GPa) = 0.04046266
#
# Stress axis : x y z
#
# Youngs Moduli (GPa) = 83.53779 48.91636 100.30042
#
# Poissons Ratio (x) = 0.00850 0.08490
# Poissons Ratio (y) = 0.01452 -0.00599
# Poissons Ratio (z) = 0.07071 -0.00292
#
# Static dielectric constant tensor:
#      x y z
#    x 1.769150 0.000000 0.001650 
#    y 0.000000 1.744410 0.000000 
#    z 0.001650 0.000000 1.817860 
# 
# From -- ./inp_files/201276.got.cif
#   From: 2010.05.17/outbox.cif.g08.bks.cpg/sg12_101_cif.got.tgz:201276.got - 2010.06.03 13:09:07.
