data_PCOD9178931
_publ_section_title
;
Structure prediction by ZEFSAII (Michael W. Deem and Ramdas Pophale) SiO2 
 PCOD9178931
Probable space group: C 2/M
;
_chemical_formula_sum "Si O2"
_cell_formula_units_Z 64
_cell_length_a 26.079269
_cell_length_b 8.808033
_cell_length_c 17.424946
_cell_angle_alpha 90.000000
_cell_angle_beta 89.999839
_cell_angle_gamma 90.000000
_cell_volume 4002.633151
_symmetry_space_group_name_H-M "C 2/M"
_symmetry_group_IT_number 12
_symmetry_cell_setting 'monoclinic'
loop_
_space_group_symop_operation_xyz
x,y,z
-x,y,-z
-x,-y,-z
x,-y,z
1/2+x,1/2+y,z
1/2-x,1/2+y,-z
1/2-x,1/2-y,-z
1/2+x,1/2-y,z
loop_
_atom_site_type_symbol
_atom_site_label
_atom_site_fract_x
_atom_site_fract_y
_atom_site_fract_z
Si Si1 0.399478 0.817484 0.683480
Si Si2 0.937756 0.324751 0.000000
Si Si3 0.693993 0.318266 0.589380
Si Si4 0.500001 0.184610 0.412085
Si Si5 0.439291 0.318600 0.161525
Si Si6 0.100521 0.317484 0.683479
Si Si7 0.560709 0.681400 0.161524
Si Si8 0.193994 0.818266 0.410619
O O1 0.449005 0.768500 0.633167
O O2 0.408747 0.756667 0.768971
O O3 0.348992 0.751532 0.643926
O O4 0.397534 0.000000 0.683869
O O5 0.921562 0.500000 0.000001
O O6 0.922146 0.242385 0.078458
O O7 0.922146 0.242387 0.921543
O O8 0.000000 0.321505 0.000000
O O9 0.695378 0.500000 0.596937
O O10 0.651007 0.248470 0.643925
O O11 0.749999 0.249999 0.605855
O O12 0.681893 0.281420 0.499999
O O13 0.500000 0.237728 0.500000
O O14 0.449006 0.231499 0.366833
O O15 0.500001 0.000000 0.413310
O O16 0.434808 0.500000 0.164114
O O17 0.408748 0.243332 0.231030
O O18 0.500000 0.279821 0.170797
O O19 0.102465 0.500000 0.683867
O O20 0.565192 0.500000 0.164112
O O21 0.195378 0.000000 0.403061
#
# Coordination Sequence:
#
# PCOD9178931 Si02
#       8
#     8   8   8   8   8   8   8   8
#     4  11  20  32  51  74 103 136 172 211 254 303
#     4   9  17  29  47  69  96 131 172 209 249 300
#     4  10  21  37  55  75  99 130 171 218 264 307
#     4   9  18  30  45  68  99 134 169 203 246 301
#     4  10  19  31  47  70 103 137 170 208 253 302
#     4  11  20  32  51  74 103 136 172 211 254 303
#     4  10  19  31  47  70 103 137 170 208 253 302
#     4  10  21  37  55  75  99 130 171 218 264 307
#
# _framework density 15.989473
#
# number of rings (size 3 to 8) (size 9 to 14) (size 15 to 20)
#    0.000    2.000    1.250    3.375    0.000    5.000 
#    0.000    0.000    0.000    3.000    0.000    0.875 
#    0.000    0.000    0.000    0.000    0.000    0.000 
#
# Total GULP energy -178617.281871 kJ/mol
# GULP energy per Si atom -5581.790058 kJ/mol
# Density = 1.595308 g / cm^3
# Si number density = 15.989473 Si / 1000 Ang^3
#
#
#
# Elastic Constant Matrix: (Units=GPa)
#
#
# Indices 1 2 3 4 5 6 
#
# 1 96.8657 48.9016 84.9107 0.0000 0.0022 0.0000
# 2 48.9016 70.1178 62.2583 0.0000 0.0014 0.0000
# 3 84.9107 62.2583 167.5592 0.0000 0.0032 0.0000
# 4 0.0000 0.0000 0.0000 28.4897 0.0000 0.0000
# 5 0.0022 0.0014 0.0032 0.0000 18.3914 0.0000
# 6 0.0000 0.0000 0.0000 0.0000 0.0000 22.7285
#
#
#
# Elastic Compliance Matrix: (Units=1/GPa)
#
#
# Indices 1 2 3 4 5 6 
#
# 1 0.021084 -0.007787 -0.007791 0.000000 -0.000001 0.000000
# 2 -0.007787 0.024159 -0.005031 0.000000 0.000000 0.000000
# 3 -0.007791 -0.005031 0.011785 0.000000 -0.000001 0.000000
# 4 0.000000 0.000000 0.000000 0.035100 0.000000 0.000000
# 5 -0.000001 0.000000 -0.000001 0.000000 0.054373 0.000000
# 6 0.000000 0.000000 0.000000 0.000000 0.000000 0.043998
#
#
# Mechanical properties :
#
#
# Convention : Reuss Voigt Hill
#
# Bulk Modulus (GPa) = 63.24454 80.74266 71.99360
# Shear Modulus (GPa) = 21.09815 23.15340 22.12578
#
# Velocity S-wave (km/s) = 3.63644 3.80944 3.72394
# Velocity P-wave (km/s) = 7.56778 8.36398 7.97582
#
# Compressibility (1/GPa) = 0.01581164
#
# Stress axis : x y z
#
# Youngs Moduli (GPa) = 47.42872 41.39239 84.85046
#
# Poissons Ratio (x) = 0.32231 0.66109
# Poissons Ratio (y) = 0.36931 0.42685
# Poissons Ratio (z) = 0.36953 0.20823
#
# Static dielectric constant tensor:
#      x y z
#    x 1.504020 0.000000 0.000000 
#    y 0.000000 1.529350 0.000000 
#    z 0.000000 0.000000 1.524800 
# 
# From -- ./inp_files/281265.got.cif
#   From: 2010.05.17/outbox.cif.g08.bks.cpg/sg12_141_cif.got.tgz:281265.got - 2010.06.03 13:09:07.
