data_PCOD9178423
_publ_section_title
;
Structure prediction by ZEFSAII (Michael W. Deem and Ramdas Pophale) SiO2 
 PCOD9178423
Probable space group: C 2/M
;
_chemical_formula_sum "Si O2"
_cell_formula_units_Z 48
_cell_length_a 11.898586
_cell_length_b 16.672292
_cell_length_c 9.745402
_cell_angle_alpha 90.000000
_cell_angle_beta 102.256171
_cell_angle_gamma 90.000000
_cell_volume 1889.198293
_symmetry_space_group_name_H-M "C 2/M"
_symmetry_group_IT_number 12
_symmetry_cell_setting 'monoclinic'
loop_
_space_group_symop_operation_xyz
x,y,z
-x,y,-z
-x,-y,-z
x,-y,z
1/2+x,1/2+y,z
1/2-x,1/2+y,-z
1/2-x,1/2-y,-z
1/2+x,1/2-y,z
loop_
_atom_site_type_symbol
_atom_site_label
_atom_site_fract_x
_atom_site_fract_y
_atom_site_fract_z
Si Si1 0.069218 0.330224 0.194837
Si Si2 0.256308 0.656278 0.472519
Si Si3 0.911838 0.907653 0.300758
Si Si4 0.739806 0.845403 0.021469
Si Si5 0.094659 0.407500 0.647576
Si Si6 0.910238 0.860823 0.852404
O O1 0.162391 0.361147 0.329778
O O2 0.117807 0.363126 0.061994
O O3 0.081426 0.234140 0.181317
O O4 0.949618 0.352338 0.238108
O O5 0.250000 0.750000 0.500000
O O6 0.376431 0.635130 0.432324
O O7 0.212031 0.614418 0.598901
O O8 0.831547 0.868289 0.163002
O O9 0.038248 0.902832 0.267696
O O10 0.880679 0.000000 0.311168
O O11 0.750000 0.750000 0.000000
O O12 0.789632 0.882988 0.894167
O O13 0.092170 0.500000 0.690200
O O14 0.000000 0.397588 0.500000
O O15 0.000000 0.876076 0.000000
#
# Coordination Sequence:
#
# PCOD9178423 Si02
#       6
#     8   8   8   8   8   8
#     4   9  17  30  48  70  93 121 159 197 237 284
#     4  10  19  31  49  71  95 126 161 199 239 288
#     4  10  19  30  48  74  99 124 160 204 243 282
#     4   8  16  29  45  68  97 125 156 196 237 280
#     4   9  17  29  46  69  95 121 154 198 241 280
#     4   9  17  30  48  70  95 123 156 196 237 282
#
# _framework density 25.407605
#
# number of rings (size 3 to 8) (size 9 to 14) (size 15 to 20)
#    0.000    2.833    0.000    1.500    0.000    7.000 
#    0.000    0.000    0.000    3.500    0.000   47.833 
#    0.000    0.000    0.000    0.000    0.000    0.000 
#
# Total GULP energy -134085.199655 kJ/mol
# GULP energy per Si atom -5586.883319 kJ/mol
# Density = 2.534978 g / cm^3
# Si number density = 25.407605 Si / 1000 Ang^3
#
#
#
# Elastic Constant Matrix: (Units=GPa)
#
#
# Indices 1 2 3 4 5 6 
#
# 1 154.8791 7.6121 68.4451 0.0000 -53.9785 0.0000
# 2 7.6121 75.8143 45.9778 0.0000 -31.2458 0.0000
# 3 68.4451 45.9778 220.8171 0.0000 -54.9748 0.0000
# 4 0.0000 0.0000 0.0000 -7.8313 0.0000 0.6866
# 5 -53.9785 -31.2458 -54.9748 0.0000 67.7468 0.0000
# 6 0.0000 0.0000 0.0000 0.6866 0.0000 13.6827
#
#
#
# Elastic Compliance Matrix: (Units=1/GPa)
#
#
# Indices 1 2 3 4 5 6 
#
# 1 0.009849 0.003367 -0.001772 0.000000 0.007963 0.000000
# 2 0.003367 0.018103 -0.002590 0.000000 0.008931 0.000000
# 3 -0.001772 -0.002590 0.006226 0.000000 0.002446 0.000000
# 4 0.000000 0.000000 0.000000 -0.127134 0.000000 0.006380
# 5 0.007963 0.008931 0.002446 0.000000 0.027210 0.000000
# 6 0.000000 0.000000 0.000000 0.006380 0.000000 0.072765
#
#
# Mechanical properties :
#
#
# Convention : Reuss Voigt Hill
#
# Bulk Modulus (GPa) = 31.06468 77.28673 54.17571
# Shear Modulus (GPa) = 253.31759 36.68467 145.00113
#
# Velocity S-wave (km/s) = 9.99590 3.80392 7.56266
# Velocity P-wave (km/s) = 12.06138 7.05534 9.88066
#
# Compressibility (1/GPa) = 0.03219090
#
# Stress axis : x y z
#
# Youngs Moduli (GPa) = 101.52930 55.23840 160.61657
#
# Poissons Ratio (x) = -0.18601 0.28454
# Poissons Ratio (y) = -0.34188 0.41595
# Poissons Ratio (z) = 0.17987 0.14305
#
# Static dielectric constant tensor:
#      x y z
#    x 2.189980 0.000000 -0.014310 
#    y 0.000000 1.866320 0.000000 
#    z -0.014310 0.000000 2.003660 
# 
# From -- ./inp_files/142732.got.cif
#   From: 2010.05.17/outbox.cif.g08.bks.cpg/sg12_72_cif.got.tgz:142732.got - 2010.06.03 13:09:07.
