data_PCOD9178306
_publ_section_title
;
Structure prediction by ZEFSAII (Michael W. Deem and Ramdas Pophale) SiO2 
 PCOD9178306
Probable space group: C 2/M
;
_chemical_formula_sum "Si O2"
_cell_formula_units_Z 40
_cell_length_a 5.672330
_cell_length_b 23.822594
_cell_length_c 15.280285
_cell_angle_alpha 90.000000
_cell_angle_beta 127.546437
_cell_angle_gamma 90.000000
_cell_volume 1637.111774
_symmetry_space_group_name_H-M "C 2/M"
_symmetry_group_IT_number 12
_symmetry_cell_setting 'monoclinic'
loop_
_space_group_symop_operation_xyz
x,y,z
-x,y,-z
-x,-y,-z
x,-y,z
1/2+x,1/2+y,z
1/2-x,1/2+y,-z
1/2-x,1/2-y,-z
1/2+x,1/2-y,z
loop_
_atom_site_type_symbol
_atom_site_label
_atom_site_fract_x
_atom_site_fract_y
_atom_site_fract_z
Si Si1 0.935460 0.564389 0.177480
Si Si2 0.884604 0.101614 0.147561
Si Si3 0.289068 0.655823 0.372409
Si Si4 0.705496 0.149906 0.624362
Si Si5 0.229327 0.268277 0.125260
O O1 0.972336 0.500000 0.211864
O O2 0.588881 0.579995 0.114735
O O3 0.087555 0.572179 0.116351
O O4 0.128140 0.606834 0.281156
O O5 0.801561 0.167024 0.120395
O O6 0.127263 0.102386 0.282192
O O7 0.500000 0.635080 0.500000
O O8 0.530302 0.683595 0.362791
O O9 0.012036 0.683457 0.360132
O O10 0.500000 0.127419 0.500000
O O11 0.536620 0.236686 0.171016
O O12 0.000000 0.245734 0.000000
#
# Coordination Sequence:
#
# PCOD9178306 Si02
#       5
#     8   8   8   8   8
#     4  10  19  30  47  73 105 142 177 203 237 293
#     4  10  19  33  53  74 103 138 167 208 257 295
#     4   8  14  24  38  60  92 130 173 214 243 271
#     4   8  14  25  42  65  94 130 167 200 240 289
#     4  10  21  38  61  85 102 120 158 214 269 313
#
# _framework density 24.433275999999999
#
# number of rings (size 3 to 8) (size 9 to 14) (size 15 to 20)
#    0.000    2.800    0.000    1.800    0.000    0.400 
#    0.000    0.000    0.000   16.800    0.000    0.000 
#    0.000    0.000    0.000    0.000    0.000    0.000 
#
# Total GULP energy -111347.677598 kJ/mol
# GULP energy per Si atom -5567.383880 kJ/mol
# Density = 2.437766 g / cm^3
# Si number density = 24.433276 Si / 1000 Ang^3
#
#
#
# Elastic Constant Matrix: (Units=GPa)
#
#
# Indices 1 2 3 4 5 6 
#
# 1 338.5526 37.8540 45.2478 0.0000 44.0992 0.0000
# 2 37.8540 94.0407 4.8526 0.0000 12.9893 0.0000
# 3 45.2478 4.8526 96.9638 0.0000 5.1056 0.0000
# 4 0.0000 0.0000 0.0000 -9.7918 0.0000 4.9249
# 5 44.0992 12.9893 5.1056 0.0000 40.1011 0.0000
# 6 0.0000 0.0000 0.0000 4.9249 0.0000 26.9122
#
#
#
# Elastic Compliance Matrix: (Units=1/GPa)
#
#
# Indices 1 2 3 4 5 6 
#
# 1 0.003728 -0.000925 -0.001503 0.000000 -0.003609 0.000000
# 2 -0.000925 0.011374 0.000003 0.000000 -0.002668 0.000000
# 3 -0.001503 0.000003 0.011001 0.000000 0.000252 0.000000
# 4 0.000000 0.000000 0.000000 -0.093519 0.000000 0.017114
# 5 -0.003609 -0.002668 0.000252 0.000000 0.029738 0.000000
# 6 0.000000 0.000000 0.000000 0.017114 0.000000 0.034026
#
#
# Mechanical properties :
#
#
# Convention : Reuss Voigt Hill
#
# Bulk Modulus (GPa) = 47.05215 78.38510 62.71863
# Shear Modulus (GPa) = 603.56478 40.88447 322.22463
#
# Velocity S-wave (km/s) = 15.73410 4.09505 11.49634
# Velocity P-wave (km/s) = 18.69176 7.38310 14.21077
#
# Compressibility (1/GPa) = 0.02125301
#
# Stress axis : x y z
#
# Youngs Moduli (GPa) = 268.22859 87.91799 90.89834
#
# Poissons Ratio (x) = 0.08129 0.13666
# Poissons Ratio (y) = 0.24801 -0.00025
# Poissons Ratio (z) = 0.40326 -0.00024
#
# Static dielectric constant tensor:
#      x y z
#    x 2.095240 0.000000 -0.042060 
#    y 0.000000 1.828870 0.000000 
#    z -0.042060 0.000000 2.020570 
# 
# From -- ./inp_files/191636.got.cif
#   From: 2010.05.17/outbox.cif.g08.bks.cpg/sg12_96_cif.got.tgz:191636.got - 2010.06.03 13:09:07.
