data_PCOD9178233
_publ_section_title
;
Structure prediction by ZEFSAII (Michael W. Deem and Ramdas Pophale) SiO2 
 PCOD9178233
Probable space group: C 2/M
;
_chemical_formula_sum "Si O2"
_cell_formula_units_Z 56
_cell_length_a 13.930353
_cell_length_b 9.016885
_cell_length_c 20.037887
_cell_angle_alpha 90.000000
_cell_angle_beta 108.890185
_cell_angle_gamma 90.000000
_cell_volume 2381.367168
_symmetry_space_group_name_H-M "C 2/M"
_symmetry_group_IT_number 12
_symmetry_cell_setting 'monoclinic'
loop_
_space_group_symop_operation_xyz
x,y,z
-x,y,-z
-x,-y,-z
x,-y,z
1/2+x,1/2+y,z
1/2-x,1/2+y,-z
1/2-x,1/2-y,-z
1/2+x,1/2-y,z
loop_
_atom_site_type_symbol
_atom_site_label
_atom_site_fract_x
_atom_site_fract_y
_atom_site_fract_z
Si Si1 0.349603 0.330304 0.374144
Si Si2 0.361546 0.180681 0.512573
Si Si3 0.508275 0.166707 0.188996
Si Si4 0.107053 0.669733 0.338864
Si Si5 0.196222 0.329005 0.089672
Si Si6 0.907601 0.169626 0.052222
Si Si7 0.195893 0.666940 0.772056
O O1 0.387152 0.500000 0.378825
O O2 0.393467 0.242011 0.447728
O O3 0.228199 0.338467 0.361550
O O4 0.349165 0.246913 0.303343
O O5 0.250000 0.250000 0.500000
O O6 0.419594 0.229060 0.593687
O O7 0.358588 0.000000 0.510721
O O8 0.570879 0.244851 0.262551
O O9 0.489646 0.245557 0.115275
O O10 0.397451 0.155049 0.197768
O O11 0.547964 0.000000 0.187595
O O12 0.066562 0.500000 0.328302
O O13 0.166506 0.500000 0.087715
O O14 0.302923 0.326590 0.072120
O O15 0.220501 0.259298 0.167688
O O16 0.120091 0.240713 0.024710
O O17 0.936927 0.000000 0.051463
O O18 0.230629 0.500000 0.763440
#
# Coordination Sequence:
#
# PCOD9178233 Si02
#       7
#     8   8   8   8   8   8   8
#     4  10  19  32  50  70  94 124 158 194 231 276
#     4   9  16  29  49  71  93 119 156 197 233 272
#     4   9  17  31  49  69  94 123 156 191 230 277
#     4   8  16  31  51  71  90 119 158 194 227 272
#     4   9  16  27  44  65  91 124 158 190 225 270
#     4   9  16  26  42  67  95 121 153 191 230 271
#     4  10  19  30  47  71  97 123 152 192 237 277
#
# _framework density 23.515905
#
# number of rings (size 3 to 8) (size 9 to 14) (size 15 to 20)
#    0.000    2.857    0.000    3.000    0.000    4.000 
#    0.000    5.000    0.000    5.143    0.000    6.000 
#    0.000    0.000    0.000    0.000    0.000    0.000 
#
# Total GULP energy -156373.574429 kJ/mol
# GULP energy per Si atom -5584.770515 kJ/mol
# Density = 2.346238 g / cm^3
# Si number density = 23.515905 Si / 1000 Ang^3
#
#
#
# Elastic Constant Matrix: (Units=GPa)
#
#
# Indices 1 2 3 4 5 6 
#
# 1 46.8799 -4.8860 23.1417 0.0000 -16.8744 0.0000
# 2 -4.8860 143.6384 105.2989 0.0000 -6.1937 0.0000
# 3 23.1417 105.2989 263.5240 0.0000 -6.5776 0.0000
# 4 0.0000 0.0000 0.0000 38.1138 0.0000 -0.8018
# 5 -16.8744 -6.1937 -6.5776 0.0000 48.3977 0.0000
# 6 0.0000 0.0000 0.0000 -0.8018 0.0000 2.8531
#
#
#
# Elastic Compliance Matrix: (Units=1/GPa)
#
#
# Indices 1 2 3 4 5 6 
#
# 1 0.027013 0.004090 -0.003771 0.000000 0.009429 0.000000
# 2 0.004090 0.010491 -0.004497 0.000000 0.002157 0.000000
# 3 -0.003771 -0.004497 0.005896 0.000000 -0.001089 0.000000
# 4 0.000000 0.000000 0.000000 0.026393 0.000000 0.007418
# 5 0.009429 0.002157 -0.001089 0.000000 0.024078 0.000000
# 6 0.000000 0.000000 0.000000 0.007418 0.000000 0.352583
#
#
# Mechanical properties :
#
#
# Convention : Reuss Voigt Hill
#
# Bulk Modulus (GPa) = 28.53643 77.90570 53.22107
# Shear Modulus (GPa) = 10.71830 39.90544 25.31187
#
# Velocity S-wave (km/s) = 2.13724 4.12388 3.28437
# Velocity P-wave (km/s) = 4.27220 7.47503 6.08801
#
# Compressibility (1/GPa) = 0.03504293
#
# Stress axis : x y z
#
# Youngs Moduli (GPa) = 37.01917 95.31998 169.61420
#
# Poissons Ratio (x) = -0.38986 0.63963
# Poissons Ratio (y) = -0.15141 0.76281
# Poissons Ratio (z) = 0.13960 0.42868
#
# Static dielectric constant tensor:
#      x y z
#    x 2.003430 0.000000 -0.016210 
#    y 0.000000 1.825720 0.000000 
#    z -0.016210 0.000000 1.912530 
# 
# From -- ./inp_files/319309.got.cif
#   From: 2010.05.17/outbox.cif.g08.bks.cpg/sg12_160_cif.got.tgz:319309.got - 2010.06.03 13:09:07.
