data_PCOD9178206
_publ_section_title
;
Structure prediction by ZEFSAII (Michael W. Deem and Ramdas Pophale) SiO2 
 PCOD9178206
Probable space group: C 2/M
;
_chemical_formula_sum "Si O2"
_cell_formula_units_Z 56
_cell_length_a 33.769123
_cell_length_b 8.224107
_cell_length_c 19.794737
_cell_angle_alpha 90.000000
_cell_angle_beta 30.996495
_cell_angle_gamma 90.000000
_cell_volume 2831.088120
_symmetry_space_group_name_H-M "C 2/M"
_symmetry_group_IT_number 12
_symmetry_cell_setting 'monoclinic'
loop_
_space_group_symop_operation_xyz
x,y,z
-x,y,-z
-x,-y,-z
x,-y,z
1/2+x,1/2+y,z
1/2-x,1/2+y,-z
1/2-x,1/2-y,-z
1/2+x,1/2-y,z
loop_
_atom_site_type_symbol
_atom_site_label
_atom_site_fract_x
_atom_site_fract_y
_atom_site_fract_z
Si Si1 0.570305 0.305067 0.610505
Si Si2 0.728939 0.186719 0.923865
Si Si3 0.167038 0.694866 0.594904
Si Si4 0.482280 0.314742 0.452176
Si Si5 0.924121 0.303390 0.911473
Si Si6 0.135257 0.319932 0.201218
Si Si7 0.021986 0.301853 0.894154
O O1 0.570845 0.500000 0.606591
O O2 0.637648 0.251522 0.563689
O O3 0.569620 0.245226 0.533150
O O4 0.490111 0.250134 0.762614
O O5 0.806930 0.283362 0.821963
O O6 0.747712 0.000000 0.877842
O O7 0.662123 0.257296 0.974644
O O8 0.685246 0.182428 0.060096
O O9 0.165400 0.500000 0.596034
O O10 0.250000 0.750000 0.500000
O O11 0.102048 0.752523 0.743585
O O12 0.500000 0.237969 0.500000
O O13 0.455849 0.500000 0.503502
O O14 0.568164 0.310262 0.295839
O O15 0.920055 0.500000 0.911846
O O16 0.955941 0.258074 0.937795
O O17 0.100968 0.500000 0.256702
O O18 0.025470 0.500000 0.891626
O O19 0.000000 0.241618 0.000000
#
# Coordination Sequence:
#
# PCOD9178206 Si02
#       7
#     8   8   8   8   8   8   8
#     4  10  19  32  53  77 101 131 174 220 260 310
#     4   9  17  29  46  69  98 129 161 201 248 298
#     4  10  20  35  57  81 109 141 176 220 265 317
#     4  10  21  36  52  71  99 136 176 218 263 312
#     4   9  16  29  50  74 100 130 166 208 254 304
#     4  10  19  30  47  70  97 127 162 206 253 300
#     4   8  15  29  51  78 103 130 167 209 253 304
#
# _framework density 19.780380000000001
#
# number of rings (size 3 to 8) (size 9 to 14) (size 15 to 20)
#    0.000    2.571    1.429    2.143    0.000    2.000 
#    0.000    1.429    0.000   15.857    0.000    0.000 
#    0.000    0.000    0.000    0.000    0.000    0.000 
#
# Total GULP energy -155910.125027 kJ/mol
# GULP energy per Si atom -5568.218751 kJ/mol
# Density = 1.973536 g / cm^3
# Si number density = 19.780380 Si / 1000 Ang^3
#
#
#
# Elastic Constant Matrix: (Units=GPa)
#
#
# Indices 1 2 3 4 5 6 
#
# 1 196.5064 12.0483 53.5359 0.0002 4.2809 -0.0011
# 2 12.0483 27.8593 3.4908 0.0038 1.9426 -0.0015
# 3 53.5359 3.4908 24.5804 0.0038 2.0157 -0.0008
# 4 0.0002 0.0038 0.0038 15.4040 -0.0008 -3.8599
# 5 4.2809 1.9426 2.0157 -0.0008 38.3172 0.0004
# 6 -0.0011 -0.0015 -0.0008 -3.8599 0.0004 21.3007
#
#
#
# Elastic Compliance Matrix: (Units=1/GPa)
#
#
# Indices 1 2 3 4 5 6 
#
# 1 0.012629 -0.002059 -0.027225 0.000007 0.000126 0.000001
# 2 -0.002059 0.036977 -0.000634 -0.000009 -0.001611 0.000001
# 3 -0.027225 -0.000634 0.100248 -0.000025 -0.002200 -0.000002
# 4 0.000007 -0.000009 -0.000025 0.068006 0.000002 0.012323
# 5 0.000126 -0.001611 -0.002200 0.000002 0.026281 0.000000
# 6 0.000001 0.000001 -0.000002 0.012323 0.000000 0.049180
#
#
# Mechanical properties :
#
#
# Convention : Reuss Voigt Hill
#
# Bulk Modulus (GPa) = 11.10878 43.01066 27.05972
# Shear Modulus (GPa) = 13.04923 26.99580 20.02251
#
# Velocity S-wave (km/s) = 2.57126 3.69830 3.18503
# Velocity P-wave (km/s) = 3.80045 6.32676 5.21878
#
# Compressibility (1/GPa) = 0.09001888
#
# Stress axis : x y z
#
# Youngs Moduli (GPa) = 79.17981 27.04384 9.97522
#
# Poissons Ratio (x) = 0.05569 0.27157
# Poissons Ratio (y) = 0.16306 0.00632
# Poissons Ratio (z) = 2.15565 0.01714
#
# Static dielectric constant tensor:
#      x y z
#    x 1.754880 0.000000 0.015990 
#    y 0.000000 1.727340 0.000000 
#    z 0.015990 0.000000 1.704440 
# 
# From -- ./inp_files/295080.got.cif
#   From: 2010.05.17/outbox.cif.g08.bks.cpg/sg12_148_cif.got.tgz:295080.got - 2010.06.03 13:09:07.
