data_PCOD9178545
_publ_section_title
;
Structure prediction by ZEFSAII (Michael W. Deem and Ramdas Pophale) SiO2 
 PCOD9178545
Probable space group: C 2/M
;
_chemical_formula_sum "Si O2"
_cell_formula_units_Z 48
_cell_length_a 23.386882
_cell_length_b 17.413418
_cell_length_c 12.042732
_cell_angle_alpha 90.000000
_cell_angle_beta 150.038710
_cell_angle_gamma 90.000000
_cell_volume 2449.304419
_symmetry_space_group_name_H-M "C 2/M"
_symmetry_group_IT_number 12
_symmetry_cell_setting 'monoclinic'
loop_
_space_group_symop_operation_xyz
x,y,z
-x,y,-z
-x,-y,-z
x,-y,z
1/2+x,1/2+y,z
1/2-x,1/2+y,-z
1/2-x,1/2-y,-z
1/2+x,1/2-y,z
loop_
_atom_site_type_symbol
_atom_site_label
_atom_site_fract_x
_atom_site_fract_y
_atom_site_fract_z
Si Si1 0.471413 0.909310 0.322135
Si Si2 0.834285 0.705854 0.957200
Si Si3 0.185560 0.316349 0.590543
Si Si4 0.628954 0.915453 0.173672
Si Si5 0.962317 0.782025 0.812665
Si Si6 0.831664 0.086502 0.688813
O O1 0.500000 0.904470 0.500000
O O2 0.367514 0.851601 0.113236
O O3 0.583126 0.874718 0.447371
O O4 0.453333 0.000000 0.265319
O O5 0.940789 0.763130 0.114236
O O6 0.722385 0.758912 0.752540
O O7 0.837977 0.648792 0.858087
O O8 0.144462 0.264872 0.417001
O O9 0.296314 0.363418 0.735733
O O10 0.715649 0.914639 0.421585
O O11 0.638233 0.000000 0.136270
O O12 0.500000 0.907967 0.000000
O O13 0.923954 0.869061 0.769429
O O14 0.000000 0.756004 0.000000
O O15 0.863531 0.000000 0.769772
#
# Coordination Sequence:
#
# PCOD9178545 Si02
#       6
#     8   8   8   8   8   8
#     4  10  23  42  61  82 107 136 180 240 295 335
#     4  11  20  34  58  80 109 141 182 226 270 328
#     4  11  21  35  57  83 108 143 184 225 274 325
#     4  10  19  30  49  78 110 145 181 217 259 312
#     4  11  20  33  51  76 113 152 179 212 258 311
#     4  11  21  32  48  76 115 151 181 208 249 316
#
# _framework density 19.5974
#
# number of rings (size 3 to 8) (size 9 to 14) (size 15 to 20)
#    0.000    1.333    3.333    5.000    0.000    2.333 
#    0.000    0.000    0.000    0.500    0.000    0.000 
#    0.000   10.667    0.000    0.000    0.000    0.000 
#
# Total GULP energy -133858.605441 kJ/mol
# GULP energy per Si atom -5577.441893 kJ/mol
# Density = 1.955280 g / cm^3
# Si number density = 19.597400 Si / 1000 Ang^3
#
#
#
# Elastic Constant Matrix: (Units=GPa)
#
#
# Indices 1 2 3 4 5 6 
#
# 1 22.8797 9.2891 9.1291 0.0000 -13.1083 0.0000
# 2 9.2891 132.4449 40.8497 0.0000 -10.5419 0.0000
# 3 9.1291 40.8497 91.3884 0.0000 -15.0261 0.0000
# 4 0.0000 0.0000 0.0000 27.9670 0.0000 -3.6613
# 5 -13.1083 -10.5419 -15.0261 0.0000 26.4579 0.0000
# 6 0.0000 0.0000 0.0000 -3.6613 0.0000 23.4637
#
#
#
# Elastic Compliance Matrix: (Units=1/GPa)
#
#
# Indices 1 2 3 4 5 6 
#
# 1 0.061532 -0.001819 -0.000486 0.000000 0.029485 0.000000
# 2 -0.001819 0.008858 -0.003690 0.000000 0.000533 0.000000
# 3 -0.000486 -0.003690 0.013632 0.000000 0.006031 0.000000
# 4 0.000000 0.000000 0.000000 0.036502 0.000000 0.005696
# 5 0.029485 0.000533 0.006031 0.000000 0.056041 0.000000
# 6 0.000000 0.000000 0.000000 0.005696 0.000000 0.043508
#
#
# Mechanical properties :
#
#
# Convention : Reuss Voigt Hill
#
# Bulk Modulus (GPa) = 13.88273 40.58321 27.23297
# Shear Modulus (GPa) = 19.52564 28.07406 23.79985
#
# Velocity S-wave (km/s) = 3.15991 3.78900 3.48866
# Velocity P-wave (km/s) = 4.51804 6.31628 5.49127
#
# Compressibility (1/GPa) = 0.07203196
#
# Stress axis : x y z
#
# Youngs Moduli (GPa) = 16.25182 112.88600 73.35680
#
# Poissons Ratio (x) = 0.20533 0.03563
# Poissons Ratio (y) = 0.02956 0.27072
# Poissons Ratio (z) = 0.00789 0.41659
#
# Static dielectric constant tensor:
#      x y z
#    x 1.666780 0.000000 0.005990 
#    y 0.000000 1.745130 0.000000 
#    z 0.005990 0.000000 1.769440 
# 
# From -- ./inp_files/131223.got.cif
#   From: 2010.05.17/outbox.cif.g08.bks.cpg/sg12_66_cif.got.tgz:131223.got - 2010.06.03 13:09:07.
