data_PCOD9178006
_publ_section_title
;
Structure prediction by ZEFSAII (Michael W. Deem and Ramdas Pophale) SiO2 
 PCOD9178006
Probable space group: C 2/M
;
_chemical_formula_sum "Si O2"
_cell_formula_units_Z 64
_cell_length_a 27.637333
_cell_length_b 11.189970
_cell_length_c 11.414197
_cell_angle_alpha 90.000000
_cell_angle_beta 98.106413
_cell_angle_gamma 90.000000
_cell_volume 3494.693314
_symmetry_space_group_name_H-M "C 2/M"
_symmetry_group_IT_number 12
_symmetry_cell_setting 'monoclinic'
loop_
_space_group_symop_operation_xyz
x,y,z
-x,y,-z
-x,-y,-z
x,-y,z
1/2+x,1/2+y,z
1/2-x,1/2+y,-z
1/2-x,1/2-y,-z
1/2+x,1/2-y,z
loop_
_atom_site_type_symbol
_atom_site_label
_atom_site_fract_x
_atom_site_fract_y
_atom_site_fract_z
Si Si1 0.646340 0.135659 0.530416
Si Si2 0.704096 0.701996 0.862524
Si Si3 0.884243 0.861696 0.325824
Si Si4 0.249429 0.362648 0.682158
Si Si5 0.810219 0.626211 0.950526
Si Si6 0.543787 0.644248 0.859454
Si Si7 0.153067 0.283517 0.279340
Si Si8 0.933550 0.144072 0.870940
O O1 0.622168 0.251927 0.584980
O O2 0.704628 0.146644 0.576150
O O3 0.637691 0.145712 0.389249
O O4 0.632667 0.000000 0.566997
O O5 0.665984 0.636670 0.766470
O O6 0.727195 0.809477 0.794082
O O7 0.751237 0.629429 0.919364
O O8 0.677758 0.761095 0.964463
O O9 0.925938 0.825988 0.246134
O O10 0.892455 0.000000 0.371627
O O11 0.262485 0.500000 0.701269
O O12 0.298234 0.290636 0.670268
O O13 0.826115 0.500000 0.008324
O O14 0.831350 0.639801 0.828110
O O15 0.544448 0.500000 0.864876
O O16 0.486883 0.679473 0.839273
O O17 0.566212 0.683368 0.992145
O O18 0.109858 0.199457 0.218448
O O19 0.930100 0.000000 0.867333
#
# Coordination Sequence:
#
# PCOD9178006 Si02
#       8
#     8   8   8   8   8   8   8   8
#     4  10  22  38  52  72 107 146 179 215 260 307
#     4   9  18  30  47  74 101 131 167 212 264 313
#     4  10  19  34  57  79  99 131 177 221 258 305
#     4   9  18  32  49  71 102 139 178 218 259 306
#     4  10  19  30  45  69 104 139 170 208 256 313
#     4   8  16  32  54  81 109 134 162 209 272 320
#     4  11  20  31  50  75 101 139 183 218 252 301
#     4   9  17  31  53  81 111 135 162 210 268 319
#
# _framework density 18.313479999999998
#
# number of rings (size 3 to 8) (size 9 to 14) (size 15 to 20)
#    0.000    2.500    0.000    3.375    0.000    1.500 
#    0.000    7.500    0.000    4.500    0.000    5.250 
#    0.000    0.000    0.000    0.000    0.000    0.000 
#
# Total GULP energy -178242.711096 kJ/mol
# GULP energy per Si atom -5570.084722 kJ/mol
# Density = 1.827180 g / cm^3
# Si number density = 18.313480 Si / 1000 Ang^3
#
#
#
# Elastic Constant Matrix: (Units=GPa)
#
#
# Indices 1 2 3 4 5 6 
#
# 1 74.3978 25.5654 24.2686 0.0000 -11.8149 0.0000
# 2 25.5654 94.1761 37.9656 0.0000 -12.9153 0.0000
# 3 24.2686 37.9656 75.6239 0.0000 -8.6608 0.0000
# 4 0.0000 0.0000 0.0000 -5.0576 0.0000 18.6348
# 5 -11.8149 -12.9153 -8.6608 0.0000 17.2656 0.0000
# 6 0.0000 0.0000 0.0000 18.6348 0.0000 -2.8593
#
#
#
# Elastic Compliance Matrix: (Units=1/GPa)
#
#
# Indices 1 2 3 4 5 6 
#
# 1 0.016518 -0.002018 -0.003359 0.000000 0.008109 0.000000
# 2 -0.002018 0.014410 -0.005846 0.000000 0.006466 0.000000
# 3 -0.003359 -0.005846 0.017476 0.000000 0.002095 0.000000
# 4 0.000000 0.000000 0.000000 0.008592 0.000000 0.055995
# 5 0.008109 0.006466 0.002095 0.000000 0.069355 0.000000
# 6 0.000000 0.000000 0.000000 0.055995 0.000000 0.015197
#
#
# Mechanical properties :
#
#
# Convention : Reuss Voigt Hill
#
# Bulk Modulus (GPa) = 38.52415 46.64410 42.58413
# Shear Modulus (GPa) = 28.96089 12.29629 20.62859
#
# Velocity S-wave (km/s) = 3.98099 2.59401 3.35985
# Velocity P-wave (km/s) = 6.49713 5.87341 6.19313
#
# Compressibility (1/GPa) = 0.02595774
#
# Stress axis : x y z
#
# Youngs Moduli (GPa) = 60.53939 69.39813 57.22087
#
# Poissons Ratio (x) = 0.14003 0.19222
# Poissons Ratio (y) = 0.12216 0.33452
# Poissons Ratio (z) = 0.20336 0.40571
#
# Static dielectric constant tensor:
#      x y z
#    x 1.625040 0.000000 -0.011980 
#    y 0.000000 1.711320 0.000000 
#    z -0.011980 0.000000 1.647850 
# 
# From -- ./inp_files/182121.got.cif
#   From: 2010.05.17/outbox.cif.g08.bks.cpg/sg12_92_cif.got.tgz:182121.got - 2010.06.03 13:09:07.
