data_PCOD9178813
_publ_section_title
;
Structure prediction by ZEFSAII (Michael W. Deem and Ramdas Pophale) SiO2 
 PCOD9178813
Probable space group: C 2/M
;
_chemical_formula_sum "Si O2"
_cell_formula_units_Z 64
_cell_length_a 23.693535
_cell_length_b 8.855877
_cell_length_c 18.331011
_cell_angle_alpha 90.000000
_cell_angle_beta 86.632642
_cell_angle_gamma 90.000000
_cell_volume 3839.700737
_symmetry_space_group_name_H-M "C 2/M"
_symmetry_group_IT_number 12
_symmetry_cell_setting 'monoclinic'
loop_
_space_group_symop_operation_xyz
x,y,z
-x,y,-z
-x,-y,-z
x,-y,z
1/2+x,1/2+y,z
1/2-x,1/2+y,-z
1/2-x,1/2-y,-z
1/2+x,1/2-y,z
loop_
_atom_site_type_symbol
_atom_site_label
_atom_site_fract_x
_atom_site_fract_y
_atom_site_fract_z
Si Si1 0.176716 0.326397 0.437710
Si Si2 0.372284 0.817337 0.116953
Si Si3 0.884975 0.681748 0.849102
Si Si4 0.501228 0.182983 0.915746
Si Si5 0.188349 0.180696 0.017937
Si Si6 0.313836 0.673641 0.413712
Si Si7 0.832796 0.180248 0.713613
Si Si8 0.799107 0.318683 0.263236
O O1 0.158988 0.500000 0.432927
O O2 0.245364 0.322604 0.427432
O O3 0.161978 0.259161 0.517752
O O4 0.155819 0.231666 0.370060
O O5 0.438096 0.778118 0.122713
O O6 0.333499 0.775014 0.188585
O O7 0.368212 0.000000 0.107061
O O8 0.350221 0.737117 0.046020
O O9 0.881370 0.500000 0.852990
O O10 0.946247 0.731259 0.875086
O O11 0.838501 0.754196 0.906122
O O12 0.872382 0.738602 0.768981
O O13 0.498621 0.000000 0.918491
O O14 0.500000 0.236029 0.000000
O O15 0.191220 0.000000 0.020897
O O16 0.250000 0.250000 0.000000
O O17 0.331585 0.500000 0.412889
O O18 0.324768 0.748984 0.334874
O O19 0.767239 0.223665 0.736045
O O20 0.837337 0.000000 0.719770
O O21 0.801091 0.500000 0.269446
#
# Coordination Sequence:
#
# PCOD9178813 Si02
#       8
#     8   8   8   8   8   8   8   8
#     4   9  16  27  44  67  96 132 170 201 237 291
#     4  10  19  35  55  74  98 131 170 210 252 297
#     4  11  21  35  54  74  98 131 170 210 253 300
#     4   9  17  33  56  76  95 126 169 214 256 298
#     4  12  24  36  51  73 100 131 165 203 251 306
#     4   9  16  26  43  67  98 132 163 198 240 289
#     4  10  19  31  46  71 105 135 166 206 252 298
#     4   9  18  30  47  70  99 132 164 201 244 295
#
# _framework density 16.667967000000001
#
# number of rings (size 3 to 8) (size 9 to 14) (size 15 to 20)
#    0.000    2.125    1.250    3.375    0.000    5.000 
#    0.000    1.875    0.000    0.000    0.000    0.875 
#    0.000    7.000    0.000    0.000    0.000    0.000 
#
# Total GULP energy -178514.502564 kJ/mol
# GULP energy per Si atom -5578.578205 kJ/mol
# Density = 1.663003 g / cm^3
# Si number density = 16.667967 Si / 1000 Ang^3
#
#
#
# Elastic Constant Matrix: (Units=GPa)
#
#
# Indices 1 2 3 4 5 6 
#
# 1 60.5108 18.3299 16.3607 0.0000 22.1013 0.0000
# 2 18.3299 56.6478 28.8442 0.0000 11.6730 0.0000
# 3 16.3607 28.8442 90.4426 0.0000 24.3402 0.0000
# 4 0.0000 0.0000 0.0000 32.1013 0.0000 2.9002
# 5 22.1013 11.6730 24.3402 0.0000 15.7199 0.0000
# 6 0.0000 0.0000 0.0000 2.9002 0.0000 10.7160
#
#
#
# Elastic Compliance Matrix: (Units=1/GPa)
#
#
# Indices 1 2 3 4 5 6 
#
# 1 0.044025 -0.005351 0.015997 0.000000 -0.082692 0.000000
# 2 -0.005351 0.022493 -0.006404 0.000000 0.000736 0.000000
# 3 0.015997 -0.006404 0.025679 0.000000 -0.057496 0.000000
# 4 0.000000 0.000000 0.000000 0.031932 0.000000 -0.008642
# 5 -0.082692 0.000736 -0.057496 0.000000 0.268354 0.000000
# 6 0.000000 0.000000 0.000000 -0.008642 0.000000 0.095658
#
#
# Mechanical properties :
#
#
# Convention : Reuss Voigt Hill
#
# Bulk Modulus (GPa) = 9.93231 37.18561 23.55896
# Shear Modulus (GPa) = 9.74248 21.31185 15.52716
#
# Velocity S-wave (km/s) = 2.42027 3.57965 3.05545
# Velocity P-wave (km/s) = 3.71243 6.28038 5.15875
#
# Compressibility (1/GPa) = 0.10068150
#
# Stress axis : x y z
#
# Youngs Moduli (GPa) = 22.71457 44.45737 38.94255
#
# Poissons Ratio (x) = 0.23790 -0.62297
# Poissons Ratio (y) = 0.12155 0.24938
# Poissons Ratio (z) = -0.36337 0.28469
#
# Static dielectric constant tensor:
#      x y z
#    x 1.550510 0.000000 0.005160 
#    y 0.000000 1.559340 0.000000 
#    z 0.005160 0.000000 1.551620 
# 
# From -- ./inp_files/281313.got.cif
#   From: 2010.05.17/outbox.cif.g08.bks.cpg/sg12_141_cif.got.tgz:281313.got - 2010.06.03 13:09:07.
