data_PCOD9178804
_publ_section_title
;
Structure prediction by ZEFSAII (Michael W. Deem and Ramdas Pophale) SiO2 
 PCOD9178804
Probable space group: C 2/M
;
_chemical_formula_sum "Si O2"
_cell_formula_units_Z 64
_cell_length_a 23.091293
_cell_length_b 7.304556
_cell_length_c 27.050768
_cell_angle_alpha 90.000000
_cell_angle_beta 141.284528
_cell_angle_gamma 90.000000
_cell_volume 2853.754555
_symmetry_space_group_name_H-M "C 2/M"
_symmetry_group_IT_number 12
_symmetry_cell_setting 'monoclinic'
loop_
_space_group_symop_operation_xyz
x,y,z
-x,y,-z
-x,-y,-z
x,-y,z
1/2+x,1/2+y,z
1/2-x,1/2+y,-z
1/2-x,1/2-y,-z
1/2+x,1/2-y,z
loop_
_atom_site_type_symbol
_atom_site_label
_atom_site_fract_x
_atom_site_fract_y
_atom_site_fract_z
Si Si1 0.758304 0.706597 0.919259
Si Si2 0.138419 0.777336 0.384922
Si Si3 0.121201 0.222995 0.905140
Si Si4 0.107871 0.723975 0.079260
Si Si5 0.150070 0.792810 0.496236
Si Si6 0.107755 0.776541 0.575245
Si Si7 0.915871 0.220547 0.758240
Si Si8 0.273872 0.792029 0.747950
O O1 0.735746 0.500000 0.887952
O O2 0.664219 0.784849 0.881053
O O3 0.823141 0.784220 0.919188
O O4 0.820922 0.705147 0.010248
O O5 0.104160 0.714135 0.415953
O O6 0.241921 0.706410 0.445102
O O7 0.086605 0.725147 0.300746
O O8 0.142007 0.000000 0.389385
O O9 0.015932 0.275694 0.843991
O O10 0.126579 0.000000 0.908911
O O11 0.104040 0.500000 0.076224
O O12 0.158952 0.783591 0.164224
O O13 0.000000 0.782430 0.000000
O O14 0.144516 0.710287 0.546591
O O15 0.113962 0.000000 0.477388
O O16 0.174770 0.711917 0.664325
O O17 0.000000 0.728104 0.500000
O O18 0.113492 0.000000 0.581512
O O19 0.834256 0.293817 0.737926
O O20 0.908095 0.000000 0.754971
O O21 0.254852 0.000000 0.751466
#
# Coordination Sequence:
#
# PCOD9178804 Si02
#       8
#     8   8   8   8   8   8   8   8
#     4   9  17  32  50  68  94 126 158 193 234 281
#     4   9  17  28  45  67  92 120 148 188 238 277
#     4   9  18  31  48  70  96 125 157 191 235 287
#     4   9  17  29  47  73  99 122 155 199 238 275
#     4   9  16  29  47  67  90 118 153 191 233 278
#     4   9  17  30  47  70  97 123 156 199 239 277
#     4  10  19  31  46  69  98 123 153 196 240 282
#     4  10  19  32  51  72  94 125 163 199 236 283
#
# _framework density 22.426596
#
# number of rings (size 3 to 8) (size 9 to 14) (size 15 to 20)
#    0.000    2.750    1.250    0.750    0.000    1.500 
#    2.250    0.625    0.000    3.750    0.000    0.000 
#    0.000    0.000    0.000    0.000    0.000    0.000 
#
# Total GULP energy -178223.996645 kJ/mol
# GULP energy per Si atom -5569.499895 kJ/mol
# Density = 2.237555 g / cm^3
# Si number density = 22.426596 Si / 1000 Ang^3
#
#
#
# Elastic Constant Matrix: (Units=GPa)
#
#
# Indices 1 2 3 4 5 6 
#
# 1 80.7489 -1.4320 44.2670 -0.0012 -7.3465 0.0025
# 2 -1.4320 92.4581 -0.3531 -0.0043 -1.5743 0.0059
# 3 44.2670 -0.3531 127.7273 0.0003 -5.8578 -0.0002
# 4 -0.0012 -0.0043 0.0003 -109.9439 0.0017 57.8309
# 5 -7.3465 -1.5743 -5.8578 0.0017 39.3167 -0.0009
# 6 0.0025 0.0059 -0.0002 57.8309 -0.0009 -28.9669
#
#
#
# Elastic Compliance Matrix: (Units=1/GPa)
#
#
# Indices 1 2 3 4 5 6 
#
# 1 0.015466 0.000255 -0.005262 -0.000011 0.002116 -0.000021
# 2 0.000255 0.010828 -0.000037 -0.000015 0.000476 -0.000027
# 3 -0.005262 -0.000037 0.009674 0.000004 0.000457 0.000008
# 4 -0.000011 -0.000015 0.000004 0.181405 -0.000001 0.362167
# 5 0.002116 0.000476 0.000457 -0.000001 0.025917 -0.000004
# 6 -0.000021 -0.000027 0.000008 0.362167 -0.000004 0.688525
#
#
# Mechanical properties :
#
#
# Convention : Reuss Voigt Hill
#
# Bulk Modulus (GPa) = 38.63977 42.87757 40.75867
# Shear Modulus (GPa) = 5.26023 -2.68864 1.28580
#
# Velocity S-wave (km/s) = 1.53317 -1.09611 0.75801
# Velocity P-wave (km/s) = 4.51675 4.19030 4.35658
#
# Compressibility (1/GPa) = 0.02588007
#
# Stress axis : x y z
#
# Youngs Moduli (GPa) = 64.65807 92.35636 103.37186
#
# Poissons Ratio (x) = -0.02359 0.54398
# Poissons Ratio (y) = -0.01652 0.00380
# Poissons Ratio (z) = 0.34025 0.00340
#
# Static dielectric constant tensor:
#      x y z
#    x 1.829490 0.000000 -0.019850 
#    y 0.000000 1.896940 0.000000 
#    z -0.019850 0.000000 1.861850 
# 
# From -- ./inp_files/346863.got.cif
#   From: 2010.05.17/outbox.cif.g08.bks.cpg/sg12_174_cif.got.tgz:346863.got - 2010.06.03 13:09:07.
