data_PCOD9178205
_publ_section_title
;
Structure prediction by ZEFSAII (Michael W. Deem and Ramdas Pophale) SiO2 
 PCOD9178205
Probable space group: C 2/M
;
_chemical_formula_sum "Si O2"
_cell_formula_units_Z 50
_cell_length_a 26.122136
_cell_length_b 7.373904
_cell_length_c 12.892676
_cell_angle_alpha 90.000000
_cell_angle_beta 71.272094
_cell_angle_gamma 90.000000
_cell_volume 2351.927779
_symmetry_space_group_name_H-M "C 2/M"
_symmetry_group_IT_number 12
_symmetry_cell_setting 'monoclinic'
loop_
_space_group_symop_operation_xyz
x,y,z
-x,y,-z
-x,-y,-z
x,-y,z
1/2+x,1/2+y,z
1/2-x,1/2+y,-z
1/2-x,1/2-y,-z
1/2+x,1/2-y,z
loop_
_atom_site_type_symbol
_atom_site_label
_atom_site_fract_x
_atom_site_fract_y
_atom_site_fract_z
Si Si1 0.656593 0.712772 0.378585
Si Si2 0.000000 0.000000 0.000000
Si Si3 0.216914 0.219013 0.732090
Si Si4 0.895566 0.223696 0.801605
Si Si5 0.127891 0.777217 0.625356
Si Si6 0.486747 0.298750 0.221727
Si Si7 0.693730 0.716394 0.977697
O O1 0.643567 0.500000 0.388244
O O2 0.721073 0.731007 0.327295
O O3 0.628645 0.784080 0.292537
O O4 0.637043 0.784931 0.501826
O O5 0.989618 0.154970 0.097632
O O6 0.176816 0.281166 0.667960
O O7 0.214963 0.000000 0.735472
O O8 0.198106 0.285442 0.857600
O O9 0.855529 0.283237 0.919791
O O10 0.956689 0.285371 0.780705
O O11 0.895323 0.000000 0.805284
O O12 0.070211 0.717202 0.708198
O O13 0.129229 0.000000 0.626529
O O14 0.486711 0.500000 0.273856
O O15 0.686623 0.500000 0.974477
O O16 0.750000 0.750000 0.000000
#
# Coordination Sequence:
#
# PCOD9178205 Si02
#       7
#     8   2   8   8   8   8   8
#     4  10  19  32  48  68  99 130 160 197 241 291
#     4   8  16  24  44  62 104 124 154 192 246 288
#     4  10  20  31  48  71  96 126 164 204 239 279
#     4   9  17  28  44  68  96 125 153 193 242 292
#     4   9  18  30  45  68  96 127 162 198 238 288
#     4   8  16  26  43  68  93 126 155 192 246 285
#     4  10  19  30  47  70  97 123 155 194 238 287
#
# _framework density 21.259157999999999
#
# number of rings (size 3 to 8) (size 9 to 14) (size 15 to 20)
#    0.480    2.240    1.600    0.480    2.240    0.640 
#    0.000    3.200    0.000    0.000    0.000    5.600 
#    0.000    2.560    0.000    0.000    0.000    0.000 
#
# Total GULP energy -139180.442457 kJ/mol
# GULP energy per Si atom -5567.217698 kJ/mol
# Density = 2.121077 g / cm^3
# Si number density = 21.259158 Si / 1000 Ang^3
#
#
#
# Elastic Constant Matrix: (Units=GPa)
#
#
# Indices 1 2 3 4 5 6 
#
# 1 134.6477 -9.4884 105.4648 0.0000 -11.8735 0.0000
# 2 -9.4884 69.1580 3.6840 0.0000 2.8207 0.0000
# 3 105.4648 3.6840 216.6773 0.0000 1.1458 0.0000
# 4 0.0000 0.0000 0.0000 -2.4927 0.0000 -2.1284
# 5 -11.8735 2.8207 1.1458 0.0000 6.8146 0.0000
# 6 0.0000 0.0000 0.0000 -2.1284 0.0000 12.0017
#
#
#
# Elastic Compliance Matrix: (Units=1/GPa)
#
#
# Indices 1 2 3 4 5 6 
#
# 1 0.016651 0.001511 -0.008288 0.000000 0.029780 0.000000
# 2 0.001511 0.014855 -0.000970 0.000000 -0.003352 0.000000
# 3 -0.008288 -0.000970 0.008748 0.000000 -0.015509 0.000000
# 4 0.000000 0.000000 0.000000 -0.348413 0.000000 -0.061788
# 5 0.029780 -0.003352 -0.015509 0.000000 0.202626 0.000000
# 6 0.000000 0.000000 0.000000 -0.061788 0.000000 0.072364
#
#
# Mechanical properties :
#
#
# Convention : Reuss Voigt Hill
#
# Bulk Modulus (GPa) = 40.38747 68.86710 54.62729
# Shear Modulus (GPa) = -530.64743 24.65290 -252.99727
#
# Velocity S-wave (km/s) = -15.81615 3.40904 -10.92083
# Velocity P-wave (km/s) = 17.73402 6.92530 11.54417
#
# Compressibility (1/GPa) = 0.02476015
#
# Stress axis : x y z
#
# Youngs Moduli (GPa) = 60.05697 67.31546 114.31661
#
# Poissons Ratio (x) = -0.10174 0.94743
# Poissons Ratio (y) = -0.09077 0.11094
# Poissons Ratio (z) = 0.49774 0.06533
#
# Static dielectric constant tensor:
#      x y z
#    x 1.730520 0.000000 0.000910 
#    y 0.000000 1.904070 0.000000 
#    z 0.000910 0.000000 1.736810 
# 
# From -- ./inp_files/179857.got.cif
#   From: 2010.05.17/outbox.cif.g08.bks.cpg/sg12_90_cif.got.tgz:179857.got - 2010.06.03 13:09:07.
