data_PCOD9178791
_publ_section_title
;
Structure prediction by ZEFSAII (Michael W. Deem and Ramdas Pophale) SiO2 
 PCOD9178791
Probable space group: C 2/M
;
_chemical_formula_sum "Si O2"
_cell_formula_units_Z 56
_cell_length_a 21.108503
_cell_length_b 7.320025
_cell_length_c 32.297225
_cell_angle_alpha 90.000000
_cell_angle_beta 147.290575
_cell_angle_gamma 90.000000
_cell_volume 2696.705133
_symmetry_space_group_name_H-M "C 2/M"
_symmetry_group_IT_number 12
_symmetry_cell_setting 'monoclinic'
loop_
_space_group_symop_operation_xyz
x,y,z
-x,y,-z
-x,-y,-z
x,-y,z
1/2+x,1/2+y,z
1/2-x,1/2+y,-z
1/2-x,1/2-y,-z
1/2+x,1/2-y,z
loop_
_atom_site_type_symbol
_atom_site_label
_atom_site_fract_x
_atom_site_fract_y
_atom_site_fract_z
Si Si1 0.418909 0.222713 0.840719
Si Si2 0.519185 0.277974 0.576986
Si Si3 0.421197 0.222668 0.996117
Si Si4 0.062312 0.718641 0.243158
Si Si5 0.686166 0.277832 0.592236
Si Si6 0.832558 0.783330 0.170459
Si Si7 0.837656 0.222876 0.267031
O O1 0.440450 0.284830 0.805739
O O2 0.290086 0.275746 0.785908
O O3 0.419847 0.000000 0.841014
O O4 0.516241 0.282295 0.927287
O O5 0.517498 0.500000 0.576674
O O6 0.615487 0.227453 0.595127
O O7 0.393492 0.217765 0.490222
O O8 0.563571 0.216811 0.646093
O O9 0.288391 0.285837 0.916014
O O10 0.421296 0.000000 0.997059
O O11 0.500000 0.275490 0.000000
O O12 0.073584 0.500000 0.246872
O O13 0.944878 0.756438 0.203652
O O14 0.180480 0.785204 0.330784
O O15 0.686835 0.500000 0.591551
O O16 0.851415 0.713691 0.227507
O O17 0.815195 0.000000 0.165402
O O18 0.840003 0.000000 0.268314
#
# Coordination Sequence:
#
# PCOD9178791 Si02
#       7
#     8   8   8   8   8   8   8
#     4   9  15  25  45  69  89 113 150 191 224 257
#     4   8  12  20  39  67  91 108 142 194 230 249
#     4   9  15  26  45  69  90 110 147 196 230 252
#     4  10  19  31  46  67  96 124 146 177 226 276
#     4   8  13  22  39  65  92 114 140 184 231 261
#     4  10  20  31  46  68  94 121 148 183 227 269
#     4   9  14  24  43  68  90 111 148 194 226 252
#
# _framework density 20.766081
#
# number of rings (size 3 to 8) (size 9 to 14) (size 15 to 20)
#    0.000    3.000    2.857    0.857    0.000    0.571 
#    0.000    0.714    0.000    1.286    0.000    2.000 
#    0.000    0.000    0.000    0.000    0.000    0.000 
#
# Total GULP energy -156280.746955 kJ/mol
# GULP energy per Si atom -5581.455248 kJ/mol
# Density = 2.071882 g / cm^3
# Si number density = 20.766081 Si / 1000 Ang^3
#
#
#
# Elastic Constant Matrix: (Units=GPa)
#
#
# Indices 1 2 3 4 5 6 
#
# 1 154.4434 -1.6482 118.9667 0.0078 -7.9001 0.0092
# 2 -1.6482 80.8695 6.2663 0.0299 -4.1163 0.0361
# 3 118.9667 6.2663 245.8107 -0.0061 -14.2665 -0.0069
# 4 0.0078 0.0299 -0.0061 -166.8305 -0.0048 -161.7542
# 5 -7.9001 -4.1163 -14.2665 -0.0048 35.7747 -0.0050
# 6 0.0092 0.0361 -0.0069 -161.7542 -0.0050 -192.6501
#
#
#
# Elastic Compliance Matrix: (Units=1/GPa)
#
#
# Indices 1 2 3 4 5 6 
#
# 1 0.010357 0.000617 -0.005007 0.000000 0.000361 0.000001
# 2 0.000617 0.012489 -0.000538 0.000000 0.001359 0.000003
# 3 -0.005007 -0.000538 0.006590 0.000000 0.001460 -0.000001
# 4 0.000000 0.000000 0.000000 -0.032240 -0.000001 0.027070
# 5 0.000361 0.001359 0.001460 -0.000001 0.028771 0.000000
# 6 0.000001 0.000003 -0.000001 0.027070 0.000000 -0.027919
#
#
# Mechanical properties :
#
#
# Convention : Reuss Voigt Hill
#
# Bulk Modulus (GPa) = 51.07319 80.92146 65.99732
# Shear Modulus (GPa) = 346.46945 -40.90525 152.78210
#
# Velocity S-wave (km/s) = 12.93082 -4.44307 8.58677
# Velocity P-wave (km/s) = 15.73497 3.56813 11.40879
#
# Compressibility (1/GPa) = 0.01957975
#
# Stress axis : x y z
#
# Youngs Moduli (GPa) = 96.55246 80.07009 151.74298
#
# Poissons Ratio (x) = -0.04944 0.75983
# Poissons Ratio (y) = -0.05962 0.08169
# Poissons Ratio (z) = 0.48347 0.04311
#
# Static dielectric constant tensor:
#      x y z
#    x 1.684130 0.000000 -0.015780 
#    y 0.000000 1.820250 0.000000 
#    z -0.015780 0.000000 1.745730 
# 
# From -- ./inp_files/268616.got.cif
#   From: 2010.05.17/outbox.cif.g08.bks.cpg/sg12_135_cif.got.tgz:268616.got - 2010.06.03 13:09:07.
