data_PCOD9178471
_publ_section_title
;
Structure prediction by ZEFSAII (Michael W. Deem and Ramdas Pophale) SiO2 
 PCOD9178471
Probable space group: C 2/M
;
_chemical_formula_sum "Si O2"
_cell_formula_units_Z 56
_cell_length_a 20.288998
_cell_length_b 7.490784
_cell_length_c 22.052242
_cell_angle_alpha 90.000000
_cell_angle_beta 125.468703
_cell_angle_gamma 90.000000
_cell_volume 2729.579647
_symmetry_space_group_name_H-M "C 2/M"
_symmetry_group_IT_number 12
_symmetry_cell_setting 'monoclinic'
loop_
_space_group_symop_operation_xyz
x,y,z
-x,y,-z
-x,-y,-z
x,-y,z
1/2+x,1/2+y,z
1/2-x,1/2+y,-z
1/2-x,1/2-y,-z
1/2+x,1/2-y,z
loop_
_atom_site_type_symbol
_atom_site_label
_atom_site_fract_x
_atom_site_fract_y
_atom_site_fract_z
Si Si1 0.271829 0.204043 0.295565
Si Si2 0.007157 0.214547 0.130718
Si Si3 0.907131 0.718898 0.455048
Si Si4 0.123973 0.711555 0.300845
Si Si5 0.670621 0.713996 0.997988
Si Si6 0.344949 0.787045 0.550435
Si Si7 0.157746 0.780889 0.129735
O O1 0.350034 0.283763 0.369938
O O2 0.201109 0.203628 0.308527
O O3 0.228203 0.282217 0.213119
O O4 0.292309 0.000000 0.290350
O O5 0.915469 0.280296 0.074422
O O6 0.047365 0.258665 0.216721
O O7 0.071425 0.274678 0.113136
O O8 0.005199 0.000000 0.124920
O O9 0.901178 0.500000 0.450939
O O10 0.877120 0.783743 0.504203
O O11 0.000000 0.766979 0.500000
O O12 0.140140 0.500000 0.311375
O O13 0.117490 0.778458 0.366182
O O14 0.664895 0.500000 0.997767
O O15 0.750000 0.750000 0.000000
O O16 0.673557 0.776564 0.069498
O O17 0.250000 0.750000 0.500000
O O18 0.358527 0.000000 0.556555
O O19 0.157334 0.000000 0.130795
#
# Coordination Sequence:
#
# PCOD9178471 Si02
#       7
#     8   8   8   8   8   8   8
#     4   9  16  30  53  75  96 130 170 206 248 292
#     4   9  18  34  56  75  96 131 173 208 243 292
#     4   9  17  30  48  72 100 129 167 208 242 286
#     4  10  19  30  48  78 106 127 159 209 259 294
#     4  10  20  35  53  76 106 134 163 203 252 302
#     4  10  19  31  50  75 101 131 165 206 252 294
#     4   8  15  30  54  79  94 121 172 216 241 278
#
# _framework density 20.515979999999999
#
# number of rings (size 3 to 8) (size 9 to 14) (size 15 to 20)
#    0.000    2.714    1.429    1.714    0.000    2.857 
#    2.571    2.857    0.000    6.000    0.000    0.000 
#    0.000    0.000    0.000    0.000    0.000    0.000 
#
# Total GULP energy -156156.440866 kJ/mol
# GULP energy per Si atom -5577.015745 kJ/mol
# Density = 2.046928 g / cm^3
# Si number density = 20.515980 Si / 1000 Ang^3
#
#
#
# Elastic Constant Matrix: (Units=GPa)
#
#
# Indices 1 2 3 4 5 6 
#
# 1 135.5409 -3.1456 106.2142 0.0000 8.9767 0.0000
# 2 -3.1456 58.4667 1.4021 0.0000 -1.1346 0.0000
# 3 106.2142 1.4021 190.4958 0.0000 14.8050 0.0000
# 4 0.0000 0.0000 0.0000 10.3734 0.0000 -3.5561
# 5 8.9767 -1.1346 14.8050 0.0000 28.9429 0.0000
# 6 0.0000 0.0000 0.0000 -3.5561 0.0000 13.3276
#
#
#
# Elastic Compliance Matrix: (Units=1/GPa)
#
#
# Indices 1 2 3 4 5 6 
#
# 1 0.013151 0.000877 -0.007315 0.000000 -0.000302 0.000000
# 2 0.000877 0.017182 -0.000673 0.000000 0.000746 0.000000
# 3 -0.007315 -0.000673 0.009538 0.000000 -0.002637 0.000000
# 4 0.000000 0.000000 0.000000 0.106106 0.000000 0.028312
# 5 -0.000302 0.000746 -0.002637 0.000000 0.036022 0.000000
# 6 0.000000 0.000000 0.000000 0.028312 0.000000 0.082587
#
#
# Mechanical properties :
#
#
# Convention : Reuss Voigt Hill
#
# Bulk Modulus (GPa) = 38.99100 65.93833 52.46467
# Shear Modulus (GPa) = 17.39988 29.19762 23.29875
#
# Velocity S-wave (km/s) = 2.91540 3.77658 3.37358
# Velocity P-wave (km/s) = 5.51173 7.15727 6.38771
#
# Compressibility (1/GPa) = 0.02564694
#
# Stress axis : x y z
#
# Youngs Moduli (GPa) = 76.04079 58.20190 104.84192
#
# Poissons Ratio (x) = -0.05105 0.76696
# Poissons Ratio (y) = -0.06670 0.07061
# Poissons Ratio (z) = 0.55627 0.03920
#
# Static dielectric constant tensor:
#      x y z
#    x 1.676150 0.000000 -0.001830 
#    y 0.000000 1.804260 0.000000 
#    z -0.001830 0.000000 1.744350 
# 
# From -- ./inp_files/314415.got.cif
#   From: 2010.05.17/outbox.cif.g08.bks.cpg/sg12_158_cif.got.tgz:314415.got - 2010.06.03 13:09:07.
