data_PCOD9178455
_publ_section_title
;
Structure prediction by ZEFSAII (Michael W. Deem and Ramdas Pophale) SiO2 
 PCOD9178455
Probable space group: C 2/M
;
_chemical_formula_sum "Si O2"
_cell_formula_units_Z 64
_cell_length_a 29.420893
_cell_length_b 7.505229
_cell_length_c 18.999910
_cell_angle_alpha 90.000000
_cell_angle_beta 43.071516
_cell_angle_gamma 90.000000
_cell_volume 2865.070135
_symmetry_space_group_name_H-M "C 2/M"
_symmetry_group_IT_number 12
_symmetry_cell_setting 'monoclinic'
loop_
_space_group_symop_operation_xyz
x,y,z
-x,y,-z
-x,-y,-z
x,-y,z
1/2+x,1/2+y,z
1/2-x,1/2+y,-z
1/2-x,1/2-y,-z
1/2+x,1/2-y,z
loop_
_atom_site_type_symbol
_atom_site_label
_atom_site_fract_x
_atom_site_fract_y
_atom_site_fract_z
Si Si1 0.082907 0.208827 0.022065
Si Si2 0.415514 0.282720 0.824356
Si Si3 0.665822 0.795039 0.792668
Si Si4 0.211233 0.784275 0.264562
Si Si5 0.927567 0.716939 0.224535
Si Si6 0.937708 0.711392 0.523676
Si Si7 0.434117 0.201880 0.371257
Si Si8 0.708285 0.712321 0.116250
O O1 0.107922 0.270606 0.070743
O O2 0.002837 0.232978 0.116641
O O3 0.096615 0.000000 0.000270
O O4 0.118462 0.295035 0.915268
O O5 0.421303 0.500000 0.817921
O O6 0.486786 0.200736 0.730553
O O7 0.365427 0.225205 0.820515
O O8 0.736631 0.716338 0.736474
O O9 0.624367 0.716909 0.774883
O O10 0.678461 0.000000 0.758342
O O11 0.134138 0.736082 0.359937
O O12 0.233295 0.718785 0.162333
O O13 0.215546 0.000000 0.261827
O O14 0.927450 0.500000 0.226607
O O15 0.910521 0.780656 0.323123
O O16 0.950729 0.500000 0.499993
O O17 0.928086 0.786840 0.455266
O O18 0.000000 0.781037 0.500000
O O19 0.407161 0.000000 0.405990
O O20 0.704735 0.500000 0.127010
O O21 0.750000 0.750000 0.000000
#
# Coordination Sequence:
#
# PCOD9178455 Si02
#       8
#     8   8   8   8   8   8   8   8
#     4  10  19  30  48  76 106 134 168 209 250 294
#     4   9  18  31  47  71 101 129 159 200 249 296
#     4  10  20  34  50  70 100 137 174 208 245 293
#     4  10  22  37  53  76 103 133 171 209 246 296
#     4   9  18  33  52  72  99 136 172 207 247 292
#     4  10  21  37  57  80 103 127 160 206 258 307
#     4   9  18  33  53  75  96 123 163 205 246 296
#     4  10  20  33  49  71 100 133 166 198 238 291
#
# _framework density 22.338021000000001
#
# number of rings (size 3 to 8) (size 9 to 14) (size 15 to 20)
#    0.000    2.375    0.000    2.250    0.000    4.750 
#    0.000    0.625    0.000    0.000    0.000    0.000 
#    0.000    0.000    0.000    0.000    0.000    0.000 
#
# Total GULP energy -178544.191636 kJ/mol
# GULP energy per Si atom -5579.505989 kJ/mol
# Density = 2.228718 g / cm^3
# Si number density = 22.338021 Si / 1000 Ang^3
#
#
#
# Elastic Constant Matrix: (Units=GPa)
#
#
# Indices 1 2 3 4 5 6 
#
# 1 158.3254 3.5354 43.0428 -0.0972 6.2564 0.0043
# 2 3.5354 63.4164 -13.1118 -0.0683 3.6453 0.0123
# 3 43.0428 -13.1118 83.6855 -0.1051 13.6194 0.0407
# 4 -0.0972 -0.0683 -0.1051 -29.9043 0.0103 2.0158
# 5 6.2564 3.6453 13.6194 0.0103 28.9595 0.0005
# 6 0.0043 0.0123 0.0407 2.0158 0.0005 4.5918
#
#
#
# Elastic Compliance Matrix: (Units=1/GPa)
#
#
# Indices 1 2 3 4 5 6 
#
# 1 0.007443 -0.001293 -0.004110 -0.000004 0.000488 0.000035
# 2 -0.001293 0.016860 0.003905 -0.000053 -0.003680 -0.000055
# 3 -0.004110 0.003905 0.015822 -0.000062 -0.007044 -0.000119
# 4 -0.000004 -0.000053 -0.000062 -0.032479 0.000048 0.014259
# 5 0.000488 -0.003680 -0.007044 0.000048 0.038202 0.000046
# 6 0.000035 -0.000055 -0.000119 0.014259 0.000046 0.211522
#
#
# Mechanical properties :
#
#
# Convention : Reuss Voigt Hill
#
# Bulk Modulus (GPa) = 26.93291 41.37335 34.15313
# Shear Modulus (GPa) = 18.33233 18.86012 18.59622
#
# Velocity S-wave (km/s) = 2.86786 2.90885 2.88842
# Velocity P-wave (km/s) = 4.80097 5.46292 5.14261
#
# Compressibility (1/GPa) = 0.03712930
#
# Stress axis : x y z
#
# Youngs Moduli (GPa) = 134.35221 59.31271 63.20360
#
# Poissons Ratio (x) = 0.07668 0.25978
# Poissons Ratio (y) = 0.17369 -0.24683
# Poissons Ratio (z) = 0.55222 -0.23164
#
# Static dielectric constant tensor:
#      x y z
#    x 1.852610 0.000010 0.031260 
#    y 0.000010 1.859660 0.000000 
#    z 0.031260 0.000000 1.817410 
# 
# From -- ./inp_files/295485.got.cif
#   From: 2010.05.17/outbox.cif.g08.bks.cpg/sg12_148_cif.got.tgz:295485.got - 2010.06.03 13:09:07.
