data_PCOD9178930
_publ_section_title
;
Structure prediction by ZEFSAII (Michael W. Deem and Ramdas Pophale) SiO2 
 PCOD9178930
Probable space group: C 2/M
;
_chemical_formula_sum "Si O2"
_cell_formula_units_Z 48
_cell_length_a 27.487584
_cell_length_b 9.015855
_cell_length_c 20.662545
_cell_angle_alpha 90.000000
_cell_angle_beta 34.519651
_cell_angle_gamma 90.000000
_cell_volume 2901.830053
_symmetry_space_group_name_H-M "C 2/M"
_symmetry_group_IT_number 12
_symmetry_cell_setting 'monoclinic'
loop_
_space_group_symop_operation_xyz
x,y,z
-x,y,-z
-x,-y,-z
x,-y,z
1/2+x,1/2+y,z
1/2-x,1/2+y,-z
1/2-x,1/2-y,-z
1/2+x,1/2-y,z
loop_
_atom_site_type_symbol
_atom_site_label
_atom_site_fract_x
_atom_site_fract_y
_atom_site_fract_z
Si Si1 0.738241 0.829466 0.259854
Si Si2 0.949977 0.177457 0.737862
Si Si3 0.563269 0.678134 0.489565
Si Si4 0.082292 0.678304 0.951457
Si Si5 0.405949 0.822591 0.911069
Si Si6 0.275853 0.171893 0.880183
O O1 0.656392 0.749789 0.380429
O O2 0.829421 0.750069 0.170007
O O3 0.723287 0.826376 0.198747
O O4 0.742757 0.000000 0.275684
O O5 0.965016 0.248988 0.791624
O O6 0.860343 0.245770 0.811561
O O7 0.019164 0.213031 0.606504
O O8 0.943251 0.000000 0.750433
O O9 0.500000 0.726247 0.500000
O O10 0.571372 0.500000 0.475414
O O11 0.090652 0.500000 0.938295
O O12 0.070759 0.715323 0.040236
O O13 0.000000 0.724340 0.000000
O O14 0.405299 0.000000 0.905105
O O15 0.310360 0.757215 0.005287
O O16 0.273704 0.000000 0.904122
#
# Coordination Sequence:
#
# PCOD9178930 Si02
#       6
#     8   8   8   8   8   8
#     4  10  20  32  51  79 107 134 168 214 259 298
#     4  11  21  32  48  70 101 139 174 207 246 294
#     4  10  20  34  51  71 101 143 182 210 242 294
#     4   9  19  37  60  80  99 129 168 211 260 312
#     4  10  20  33  50  73 101 130 165 209 256 304
#     4  10  19  31  47  70 102 137 171 205 247 298
#
# _framework density 16.541284999999998
#
# number of rings (size 3 to 8) (size 9 to 14) (size 15 to 20)
#    0.000    2.000    1.667    2.500    0.000    4.000 
#    0.000    0.000    0.000    1.000    0.000    0.000 
#    0.000    0.000    0.000    0.000    0.000    0.000 
#
# Total GULP energy -133943.863625 kJ/mol
# GULP energy per Si atom -5580.994318 kJ/mol
# Density = 1.650364 g / cm^3
# Si number density = 16.541285 Si / 1000 Ang^3
#
#
#
# Elastic Constant Matrix: (Units=GPa)
#
#
# Indices 1 2 3 4 5 6 
#
# 1 86.8677 43.6228 77.0975 -0.0008 -11.3140 0.0004
# 2 43.6228 65.4985 67.5611 -0.0004 5.7323 0.0004
# 3 77.0975 67.5611 146.6953 -0.0011 6.8370 0.0017
# 4 -0.0008 -0.0004 -0.0011 27.6116 0.0005 5.4249
# 5 -11.3140 5.7323 6.8370 0.0005 22.2366 -0.0006
# 6 0.0004 0.0004 0.0017 5.4249 -0.0006 18.7673
#
#
#
# Elastic Compliance Matrix: (Units=1/GPa)
#
#
# Indices 1 2 3 4 5 6 
#
# 1 0.029986 -0.008687 -0.012757 0.000000 0.021419 0.000002
# 2 -0.008687 0.031861 -0.009658 0.000000 -0.009664 0.000000
# 3 -0.012757 -0.009658 0.018420 0.000001 -0.009665 -0.000002
# 4 0.000000 0.000000 0.000001 0.038397 -0.000002 -0.011099
# 5 0.021419 -0.009664 -0.009665 -0.000002 0.061332 0.000003
# 6 0.000002 0.000000 -0.000002 -0.011099 0.000003 0.056493
#
#
# Mechanical properties :
#
#
# Convention : Reuss Voigt Hill
#
# Bulk Modulus (GPa) = 55.36069 75.06938 65.21503
# Shear Modulus (GPa) = 16.40894 21.10842 18.75868
#
# Velocity S-wave (km/s) = 3.15302 3.57614 3.37122
# Velocity P-wave (km/s) = 6.84078 7.90780 7.39356
#
# Compressibility (1/GPa) = 0.01806336
#
# Stress axis : x y z
#
# Youngs Moduli (GPa) = 33.34905 31.38667 54.28957
#
# Poissons Ratio (x) = 0.27265 0.69257
# Poissons Ratio (y) = 0.28970 0.52431
# Poissons Ratio (z) = 0.42543 0.30312
#
# Static dielectric constant tensor:
#      x y z
#    x 1.561660 0.000000 0.032790 
#    y 0.000000 1.556530 0.000000 
#    z 0.032790 0.000000 1.544040 
# 
# From -- ./inp_files/180258.got.cif
#   From: 2010.05.17/outbox.cif.g08.bks.cpg/sg12_91_cif.got.tgz:180258.got - 2010.06.03 13:09:07.
