data_PCOD9178876
_publ_section_title
;
Structure prediction by ZEFSAII (Michael W. Deem and Ramdas Pophale) SiO2 
 PCOD9178876
Probable space group: C 2/M
;
_chemical_formula_sum "Si O2"
_cell_formula_units_Z 60
_cell_length_a 38.952933
_cell_length_b 17.820711
_cell_length_c 5.219828
_cell_angle_alpha 90.000000
_cell_angle_beta 104.033956
_cell_angle_gamma 90.000000
_cell_volume 3515.290729
_symmetry_space_group_name_H-M "C 2/M"
_symmetry_group_IT_number 12
_symmetry_cell_setting 'monoclinic'
loop_
_space_group_symop_operation_xyz
x,y,z
-x,y,-z
-x,-y,-z
x,-y,z
1/2+x,1/2+y,z
1/2-x,1/2+y,-z
1/2-x,1/2-y,-z
1/2+x,1/2-y,z
loop_
_atom_site_type_symbol
_atom_site_label
_atom_site_fract_x
_atom_site_fract_y
_atom_site_fract_z
Si Si1 0.761294 0.589868 0.342851
Si Si2 0.355429 0.583941 0.452445
Si Si3 0.598928 0.733859 0.483785
Si Si4 0.475200 0.333397 0.705350
Si Si5 0.806813 0.410933 0.926135
Si Si6 0.024440 0.000000 0.293741
Si Si7 0.137222 0.713677 0.048847
Si Si8 0.816873 0.863304 0.887550
O O1 0.753739 0.500000 0.317760
O O2 0.779394 0.606201 0.647183
O O3 0.724777 0.633026 0.234541
O O4 0.788603 0.607444 0.164157
O O5 0.370187 0.500000 0.456040
O O6 0.383670 0.650589 0.479311
O O7 0.336204 0.593902 0.689753
O O8 0.327353 0.598151 0.174141
O O9 0.557276 0.723697 0.366026
O O10 0.609657 0.771773 0.770042
O O11 0.617624 0.776546 0.283273
O O12 0.500000 0.327719 0.500000
O O13 0.458333 0.417941 0.678870
O O14 0.500000 0.324963 0.000000
O O15 0.813687 0.500000 0.931768
O O16 0.842014 0.363457 0.946450
O O17 0.000000 0.000000 0.500000
O O18 0.000000 0.000000 0.000000
O O19 0.166690 0.779918 0.082398
#
# Coordination Sequence:
#
# PCOD9178876 Si02
#       8
#     8   8   8   8   8   4   8   8
#     4  10  19  31  49  73  97 127 169 209 250 294
#     4  10  19  31  47  67  96 136 175 207 241 284
#     4  10  21  34  52  73 100 135 164 206 246 286
#     4  10  19  33  51  74 103 133 169 204 238 280
#     4  10  21  35  53  74  97 127 162 209 257 305
#     4   8  16  28  44  68  98 132 162 200 232 258
#     4  10  21  37  50  72 103 129 166 206 251 303
#     4  10  20  32  48  70  98 132 167 212 254 286
#
# _framework density 17.068290999999999
#
# number of rings (size 3 to 8) (size 9 to 14) (size 15 to 20)
#    0.000    2.133    0.000    3.600    0.933    2.133 
#    0.000    0.000    0.000    0.000    0.000    0.000 
#    0.000   10.667    0.000    0.000    0.000    0.000 
#
# Total GULP energy -167415.135889 kJ/mol
# GULP energy per Si atom -5580.504530 kJ/mol
# Density = 1.702944 g / cm^3
# Si number density = 17.068291 Si / 1000 Ang^3
#
#
#
# Elastic Constant Matrix: (Units=GPa)
#
#
# Indices 1 2 3 4 5 6 
#
# 1 29.9721 10.5761 -5.1190 0.0000 18.4790 0.0000
# 2 10.5761 22.5113 5.4306 0.0000 6.1149 0.0000
# 3 -5.1190 5.4306 65.7096 0.0000 -2.1946 0.0000
# 4 0.0000 0.0000 0.0000 3.8345 0.0000 -1.0489
# 5 18.4790 6.1149 -2.1946 0.0000 22.8685 0.0000
# 6 0.0000 0.0000 0.0000 -1.0489 0.0000 14.1252
#
#
#
# Elastic Compliance Matrix: (Units=1/GPa)
#
#
# Indices 1 2 3 4 5 6 
#
# 1 0.076151 -0.022266 0.005935 0.000000 -0.055011 0.000000
# 2 -0.022266 0.055715 -0.006256 0.000000 0.002494 0.000000
# 3 0.005935 -0.006256 0.016145 0.000000 -0.001574 0.000000
# 4 0.000000 0.000000 0.000000 0.266195 0.000000 0.019767
# 5 -0.055011 0.002494 -0.001574 0.000000 0.087362 0.000000
# 6 0.000000 0.000000 0.000000 0.019767 0.000000 0.072263
#
#
# Mechanical properties :
#
#
# Convention : Reuss Voigt Hill
#
# Bulk Modulus (GPa) = 9.72396 15.55205 12.63800
# Shear Modulus (GPa) = 7.65364 15.31934 11.48649
#
# Velocity S-wave (km/s) = 2.11987 2.99913 2.59699
# Velocity P-wave (km/s) = 3.42071 4.59614 4.05128
#
# Compressibility (1/GPa) = 0.10283874
#
# Stress axis : x y z
#
# Youngs Moduli (GPa) = 13.13176 17.94855 61.93739
#
# Poissons Ratio (x) = 0.39964 -0.36762
# Poissons Ratio (y) = 0.29239 0.38747
# Poissons Ratio (z) = -0.07794 0.11228
#
# Static dielectric constant tensor:
#      x y z
#    x 1.547000 0.000000 -0.004460 
#    y 0.000000 1.581010 0.000000 
#    z -0.004460 0.000000 1.572300 
# 
# From -- ./inp_files/32085.got.cif
#   From: 2010.05.17/outbox.cif.g08.bks.cpg/sg12_17_cif.got.tgz:32085.got - 2010.06.03 13:09:07.
