data_PCOD9178591
_publ_section_title
;
Structure prediction by ZEFSAII (Michael W. Deem and Ramdas Pophale) SiO2 
 PCOD9178591
Probable space group: C 2/M
;
_chemical_formula_sum "Si O2"
_cell_formula_units_Z 50
_cell_length_a 23.392886
_cell_length_b 14.397931
_cell_length_c 8.046811
_cell_angle_alpha 90.000000
_cell_angle_beta 44.898279
_cell_angle_gamma 90.000000
_cell_volume 1913.023448
_symmetry_space_group_name_H-M "C 2/M"
_symmetry_group_IT_number 12
_symmetry_cell_setting 'monoclinic'
loop_
_space_group_symop_operation_xyz
x,y,z
-x,y,-z
-x,-y,-z
x,-y,z
1/2+x,1/2+y,z
1/2-x,1/2+y,-z
1/2-x,1/2-y,-z
1/2+x,1/2-y,z
loop_
_atom_site_type_symbol
_atom_site_label
_atom_site_fract_x
_atom_site_fract_y
_atom_site_fract_z
Si Si1 0.129618 0.100136 0.521874
Si Si2 0.444295 0.781167 0.777857
Si Si3 0.902265 0.692269 0.394355
Si Si4 0.656453 0.392251 0.000975
Si Si5 0.689506 0.892549 0.111298
Si Si6 0.000000 0.000000 0.000000
Si Si7 0.221590 0.605978 0.557097
O O1 0.107957 0.203381 0.512066
O O2 0.221309 0.108406 0.399718
O O3 0.121659 0.000000 0.443236
O O4 0.065980 0.079022 0.801733
O O5 0.500000 0.795533 0.500000
O O6 0.501779 0.821072 0.802654
O O7 0.419980 0.674046 0.844084
O O8 0.359520 0.832459 0.920175
O O9 0.859573 0.624443 0.615278
O O10 0.850184 0.677391 0.334849
O O11 0.631407 0.500000 0.048820
O O12 0.717342 0.371729 0.030447
O O13 0.712939 0.377979 0.724712
O O14 0.684076 0.000000 0.079334
O O15 0.190492 0.500000 0.607681
#
# Coordination Sequence:
#
# PCOD9178591 Si02
#       7
#     8   8   8   8   8   2   8
#     4   9  19  32  51  77 109 133 167 206 253 304
#     4  10  21  31  48  77 106 130 170 216 260 304
#     4  10  19  30  50  78 103 131 172 213 253 297
#     4   9  18  32  54  73 102 138 170 210 259 309
#     4   9  19  37  54  74  98 134 177 216 254 303
#     4   8  20  32  52  80 108 136 168 208 254 308
#     4   9  18  33  53  76 101 137 177 211 249 305
#
# _framework density 26.136638000000001
#
# number of rings (size 3 to 8) (size 9 to 14) (size 15 to 20)
#    0.480    2.240    0.000    2.400    2.240    4.480 
#    0.000    2.400    0.000    3.840    0.000    2.240 
#    0.000    0.000    0.000    0.000    0.000    0.000 
#
# Total GULP energy -139569.948435 kJ/mol
# GULP energy per Si atom -5582.797937 kJ/mol
# Density = 2.607715 g / cm^3
# Si number density = 26.136638 Si / 1000 Ang^3
#
#
#
# Elastic Constant Matrix: (Units=GPa)
#
#
# Indices 1 2 3 4 5 6 
#
# 1 83.9665 23.3319 7.6717 0.0000 -10.3977 0.0000
# 2 23.3319 81.3290 30.3382 0.0000 -18.6751 0.0000
# 3 7.6717 30.3382 115.6442 0.0000 -17.3315 0.0000
# 4 0.0000 0.0000 0.0000 38.2406 0.0000 -11.4062
# 5 -10.3977 -18.6751 -17.3315 0.0000 36.8131 0.0000
# 6 0.0000 0.0000 0.0000 -11.4062 0.0000 14.7386
#
#
#
# Elastic Compliance Matrix: (Units=1/GPa)
#
#
# Indices 1 2 3 4 5 6 
#
# 1 0.013085 -0.003391 0.000342 0.000000 0.002137 0.000000
# 2 -0.003391 0.015686 -0.003057 0.000000 0.005560 0.000000
# 3 0.000342 -0.003057 0.009908 0.000000 0.003210 0.000000
# 4 0.000000 0.000000 0.000000 0.033998 0.000000 0.026311
# 5 0.002137 0.005560 0.003210 0.000000 0.032100 0.000000
# 6 0.000000 0.000000 0.000000 0.026311 0.000000 0.088211
#
#
# Mechanical properties :
#
#
# Convention : Reuss Voigt Hill
#
# Bulk Modulus (GPa) = 37.78335 44.84704 41.31520
# Shear Modulus (GPa) = 23.36218 32.59833 27.98026
#
# Velocity S-wave (km/s) = 2.99297 3.53544 3.27546
# Velocity P-wave (km/s) = 5.14114 5.81908 5.49059
#
# Compressibility (1/GPa) = 0.02646668
#
# Stress axis : x y z
#
# Youngs Moduli (GPa) = 76.42309 63.75307 100.93295
#
# Poissons Ratio (x) = 0.21617 -0.03449
# Poissons Ratio (y) = 0.25913 0.30852
# Poissons Ratio (z) = -0.02611 0.19487
#
# Static dielectric constant tensor:
#      x y z
#    x 2.185380 0.000000 0.082530 
#    y 0.000000 1.975190 0.000000 
#    z 0.082530 0.000000 2.043950 
# 
# From -- ./inp_files/183194.got.cif
#   From: 2010.05.17/outbox.cif.g08.bks.cpg/sg12_92_cif.got.tgz:183194.got - 2010.06.03 13:09:07.
