data_PCOD9178023
_publ_section_title
;
Structure prediction by ZEFSAII (Michael W. Deem and Ramdas Pophale) SiO2 
 PCOD9178023
Probable space group: C 2/M
;
_chemical_formula_sum "Si O2"
_cell_formula_units_Z 48
_cell_length_a 14.042208
_cell_length_b 7.445573
_cell_length_c 18.820831
_cell_angle_alpha 90.000000
_cell_angle_beta 64.316596
_cell_angle_gamma 90.000000
_cell_volume 1773.351213
_symmetry_space_group_name_H-M "C 2/M"
_symmetry_group_IT_number 12
_symmetry_cell_setting 'monoclinic'
loop_
_space_group_symop_operation_xyz
x,y,z
-x,y,-z
-x,-y,-z
x,-y,z
1/2+x,1/2+y,z
1/2-x,1/2+y,-z
1/2-x,1/2-y,-z
1/2+x,1/2-y,z
loop_
_atom_site_type_symbol
_atom_site_label
_atom_site_fract_x
_atom_site_fract_y
_atom_site_fract_z
Si Si1 0.057778 0.700430 0.409983
Si Si2 0.707227 0.788011 0.245558
Si Si3 0.960772 0.719330 0.906123
Si Si4 0.422459 0.205629 0.260157
Si Si5 0.267811 0.786394 0.413438
Si Si6 0.672925 0.785514 0.927964
O O1 0.009573 0.500000 0.415644
O O2 0.098270 0.776416 0.319419
O O3 0.174782 0.688641 0.403912
O O4 0.000000 0.782992 0.500000
O O5 0.811894 0.704535 0.249612
O O6 0.730253 0.770241 0.153594
O O7 0.709471 0.000000 0.257467
O O8 0.955231 0.500000 0.904313
O O9 0.990651 0.789892 0.818740
O O10 0.066210 0.760274 0.917875
O O11 0.859075 0.783493 0.983023
O O12 0.379860 0.279624 0.347980
O O13 0.455740 0.000000 0.261680
O O14 0.239825 0.500000 0.596868
O O15 0.250000 0.750000 0.500000
O O16 0.678181 0.000000 0.930310
#
# Coordination Sequence:
#
# PCOD9178023 Si02
#       6
#     8   8   8   8   8   8
#     4   9  18  32  47  62  84 115 148 181 216 253
#     4   9  15  22  34  53  76 101 130 166 206 245
#     4   7  10  18  32  47  65  95 133 163 188 229
#     4   8  14  25  38  51  71 103 138 166 196 239
#     4  10  19  30  46  66  88 114 144 179 216 256
#     4   8  12  19  31  46  68  99 130 159 193 237
#
# _framework density 27.067395999999999
#
# number of rings (size 3 to 8) (size 9 to 14) (size 15 to 20)
#    0.000    3.500    0.000    3.000    0.000    1.667 
#    0.000    6.667    0.000    0.000    0.000    0.000 
#    0.000    1.333    0.000    2.667    0.000   12.333 
#
# Total GULP energy -133750.224783 kJ/mol
# GULP energy per Si atom -5572.926033 kJ/mol
# Density = 2.700579 g / cm^3
# Si number density = 27.067396 Si / 1000 Ang^3
#
#
#
# Elastic Constant Matrix: (Units=GPa)
#
#
# Indices 1 2 3 4 5 6 
#
# 1 92.2334 0.6526 23.9373 0.0000 -38.0389 0.0000
# 2 0.6526 101.9790 18.5211 0.0000 0.8331 0.0000
# 3 23.9373 18.5211 382.8941 0.0000 -35.4002 0.0000
# 4 0.0000 0.0000 0.0000 22.9701 0.0000 4.6209
# 5 -38.0389 0.8331 -35.4002 0.0000 30.5466 0.0000
# 6 0.0000 0.0000 0.0000 4.6209 0.0000 -1.3164
#
#
#
# Elastic Compliance Matrix: (Units=1/GPa)
#
#
# Indices 1 2 3 4 5 6 
#
# 1 0.022937 -0.000646 0.001388 0.000000 0.030190 0.000000
# 2 -0.000646 0.009934 -0.000604 0.000000 -0.001775 0.000000
# 3 0.001388 -0.000604 0.003041 0.000000 0.005270 0.000000
# 4 0.000000 0.000000 0.000000 0.025516 0.000000 0.089569
# 5 0.030190 -0.001775 0.005270 0.000000 0.076487 0.000000
# 6 0.000000 0.000000 0.000000 0.089569 0.000000 -0.445246
#
#
# Mechanical properties :
#
#
# Convention : Reuss Voigt Hill
#
# Bulk Modulus (GPa) = 27.63197 73.70316 50.66757
# Shear Modulus (GPa) = -16.91797 46.03977 14.56090
#
# Velocity S-wave (km/s) = -2.50277 4.12871 2.32189
# Velocity P-wave (km/s) = 1.37073 7.07226 5.09391
#
# Compressibility (1/GPa) = 0.03618997
#
# Stress axis : x y z
#
# Youngs Moduli (GPa) = 43.59744 100.66106 328.80044
#
# Poissons Ratio (x) = 0.06498 -0.45652
# Poissons Ratio (y) = 0.02814 0.19869
# Poissons Ratio (z) = -0.06053 0.06083
#
# Static dielectric constant tensor:
#      x y z
#    x 2.272580 0.000000 0.155130 
#    y 0.000000 2.213960 0.000000 
#    z 0.155130 0.000000 2.397560 
# 
# From -- ./inp_files/318985.got.cif
#   From: 2010.05.17/outbox.cif.g08.bks.cpg/sg12_160_cif.got.tgz:318985.got - 2010.06.03 13:09:07.
