data_PCOD9178229
_publ_section_title
;
Structure prediction by ZEFSAII (Michael W. Deem and Ramdas Pophale) SiO2 
 PCOD9178229
Probable space group: C 2/M
;
_chemical_formula_sum "Si O2"
_cell_formula_units_Z 48
_cell_length_a 28.144320
_cell_length_b 8.784163
_cell_length_c 24.456082
_cell_angle_alpha 90.000000
_cell_angle_beta 30.079705
_cell_angle_gamma 90.000000
_cell_volume 3030.349908
_symmetry_space_group_name_H-M "C 2/M"
_symmetry_group_IT_number 12
_symmetry_cell_setting 'monoclinic'
loop_
_space_group_symop_operation_xyz
x,y,z
-x,y,-z
-x,-y,-z
x,-y,z
1/2+x,1/2+y,z
1/2-x,1/2+y,-z
1/2-x,1/2-y,-z
1/2+x,1/2-y,z
loop_
_atom_site_type_symbol
_atom_site_label
_atom_site_fract_x
_atom_site_fract_y
_atom_site_fract_z
Si Si1 0.219721 0.317947 0.445354
Si Si2 0.605161 0.182118 0.668465
Si Si3 0.388898 0.684122 0.547963
Si Si4 0.896969 0.818219 0.877388
Si Si5 0.392166 0.684941 0.669145
Si Si6 0.777375 0.816385 0.888426
O O1 0.226359 0.500000 0.437285
O O2 0.320793 0.248709 0.361549
O O3 0.147666 0.275041 0.566488
O O4 0.178816 0.255224 0.429649
O O5 0.500244 0.246519 0.779691
O O6 0.604178 0.000000 0.673137
O O7 0.383957 0.500000 0.549686
O O8 0.366726 0.730228 0.632608
O O9 0.498715 0.729276 0.428207
O O10 0.850519 0.778806 0.864672
O O11 0.903500 0.000000 0.874214
O O12 0.822553 0.756613 0.996015
O O13 0.391769 0.500000 0.670120
O O14 0.321965 0.735983 0.786736
O O15 0.767322 0.000000 0.897510
#
# Coordination Sequence:
#
# PCOD9178229 Si02
#       6
#     8   8   8   8   8   8
#     4  10  20  32  47  70  97 122 151 189 233 277
#     4  10  20  33  49  68  92 124 157 188 227 278
#     4   9  16  29  49  71  95 124 158 191 226 269
#     4  10  19  30  47  71  96 122 154 194 235 271
#     4   8  15  28  48  71  94 125 161 191 220 267
#     4   9  17  30  47  68  96 128 158 187 225 274
#
# _framework density 15.839756
#
# number of rings (size 3 to 8) (size 9 to 14) (size 15 to 20)
#    0.000    2.667    0.000    3.500    0.000    4.000 
#    0.000    3.333    0.000    1.000    0.000    7.000 
#    0.000    0.000    0.000    0.000    0.000    0.000 
#
# Total GULP energy -133827.711539 kJ/mol
# GULP energy per Si atom -5576.154647 kJ/mol
# Density = 1.580370 g / cm^3
# Si number density = 15.839756 Si / 1000 Ang^3
#
#
#
# Elastic Constant Matrix: (Units=GPa)
#
#
# Indices 1 2 3 4 5 6 
#
# 1 127.2195 39.6936 89.3135 0.0005 -7.4613 -0.0008
# 2 39.6936 30.2150 43.2555 0.0092 -4.6353 -0.0037
# 3 89.3135 43.2555 150.7970 0.0054 -5.6750 -0.0026
# 4 0.0005 0.0092 0.0054 19.9270 -0.0038 -2.1567
# 5 -7.4613 -4.6353 -5.6750 -0.0038 25.0482 0.0013
# 6 -0.0008 -0.0037 -0.0026 -2.1567 0.0013 25.3893
#
#
#
# Elastic Compliance Matrix: (Units=1/GPa)
#
#
# Indices 1 2 3 4 5 6 
#
# 1 0.015854 -0.012341 -0.005808 0.000007 0.001123 -0.000001
# 2 -0.012341 0.066935 -0.011663 -0.000026 0.006068 0.000006
# 3 -0.005808 -0.011663 0.013384 0.000002 -0.000856 0.000000
# 4 0.000007 -0.000026 0.000002 0.050649 0.000005 0.004302
# 5 0.001123 0.006068 -0.000856 0.000005 0.041187 -0.000001
# 6 -0.000001 0.000006 0.000000 0.004302 -0.000001 0.039752
#
#
# Mechanical properties :
#
#
# Convention : Reuss Voigt Hill
#
# Bulk Modulus (GPa) = 27.35878 72.52851 49.94365
# Shear Modulus (GPa) = 16.69073 23.13751 19.91412
#
# Velocity S-wave (km/s) = 3.24963 3.82609 3.54958
# Velocity P-wave (km/s) = 5.60267 8.08745 6.95690
#
# Compressibility (1/GPa) = 0.03655134
#
# Stress axis : x y z
#
# Youngs Moduli (GPa) = 63.07527 14.93980 74.71399
#
# Poissons Ratio (x) = 0.18437 0.43392
# Poissons Ratio (y) = 0.77841 0.87135
# Poissons Ratio (z) = 0.36633 0.17424
#
# Static dielectric constant tensor:
#      x y z
#    x 1.510740 0.000000 0.016240 
#    y 0.000000 1.528270 0.000000 
#    z 0.016240 0.000000 1.515530 
# 
# From -- ./inp_files/179716.got.cif
#   From: 2010.05.17/outbox.cif.g08.bks.cpg/sg12_90_cif.got.tgz:179716.got - 2010.06.03 13:09:07.
