data_PCOD9178213
_publ_section_title
;
Structure prediction by ZEFSAII (Michael W. Deem and Ramdas Pophale) SiO2 
 PCOD9178213
Probable space group: C 2/M
;
_chemical_formula_sum "Si O2"
_cell_formula_units_Z 64
_cell_length_a 21.808442
_cell_length_b 19.766663
_cell_length_c 8.762644
_cell_angle_alpha 90.000000
_cell_angle_beta 123.019031
_cell_angle_gamma 90.000000
_cell_volume 3167.312073
_symmetry_space_group_name_H-M "C 2/M"
_symmetry_group_IT_number 12
_symmetry_cell_setting 'monoclinic'
loop_
_space_group_symop_operation_xyz
x,y,z
-x,y,-z
-x,-y,-z
x,-y,z
1/2+x,1/2+y,z
1/2-x,1/2+y,-z
1/2-x,1/2-y,-z
1/2+x,1/2-y,z
loop_
_atom_site_type_symbol
_atom_site_label
_atom_site_fract_x
_atom_site_fract_y
_atom_site_fract_z
Si Si1 0.920813 0.073617 0.467109
Si Si2 0.135009 0.728186 0.347695
Si Si3 0.819389 0.894851 0.936460
Si Si4 0.984322 0.890531 0.154059
Si Si5 0.487056 0.756948 0.306149
Si Si6 0.721084 0.622249 0.797941
Si Si7 0.343064 0.233736 0.969821
Si Si8 0.225882 0.865681 0.459156
O O1 0.866646 0.130385 0.334812
O O2 0.000000 0.079105 0.500000
O O3 0.944885 0.075637 0.674282
O O4 0.888512 0.000000 0.387459
O O5 0.122507 0.723340 0.150381
O O6 0.166712 0.804867 0.409906
O O7 0.199846 0.676151 0.474853
O O8 0.060393 0.712311 0.333006
O O9 0.822626 0.812565 0.953875
O O10 0.793719 0.905298 0.724864
O O11 0.903207 0.920615 0.066925
O O12 0.773917 0.914795 0.028492
O O13 0.982096 0.815871 0.219777
O O14 0.000000 0.886246 0.000000
O O15 0.500000 0.749287 0.500000
O O16 0.407175 0.788539 0.170363
O O17 0.770950 0.688178 0.879101
O O18 0.734871 0.597507 0.638359
#
# Coordination Sequence:
#
# PCOD9178213 Si02
#       8
#     8   8   8   8   8   8   8   8
#     4  11  23  39  55  74  99 132 180 230 271 310
#     4   9  17  31  43  64 103 140 167 207 246 291
#     4  10  19  30  47  71 100 133 169 210 248 311
#     4  11  21  34  50  72 100 138 180 220 262 308
#     4  11  21  28  48  75 109 143 173 208 250 312
#     4  11  20  34  54  68  97 132 171 218 267 304
#     4   9  20  31  45  72  96 135 174 206 251 311
#     4   9  19  30  48  70  98 135 174 211 248 300
#
# _framework density 20.206408
#
# number of rings (size 3 to 8) (size 9 to 14) (size 15 to 20)
#    0.000    1.875    1.250    5.625    7.000    0.250 
#    0.000    0.000    0.000    0.000    0.000    0.000 
#    0.000    8.500    0.000    0.000    0.000    0.500 
#
# Total GULP energy -178261.176609 kJ/mol
# GULP energy per Si atom -5570.661769 kJ/mol
# Density = 2.016042 g / cm^3
# Si number density = 20.206408 Si / 1000 Ang^3
#
#
#
# Elastic Constant Matrix: (Units=GPa)
#
#
# Indices 1 2 3 4 5 6 
#
# 1 95.5594 32.6315 50.9944 0.0000 -12.1140 0.0000
# 2 32.6315 28.5131 13.4663 0.0000 11.5578 0.0000
# 3 50.9944 13.4663 106.6065 0.0000 -8.8908 0.0000
# 4 0.0000 0.0000 0.0000 -7.7106 0.0000 -2.5808
# 5 -12.1140 11.5578 -8.8908 0.0000 49.0317 0.0000
# 6 0.0000 0.0000 0.0000 -2.5808 0.0000 -7.2005
#
#
#
# Elastic Compliance Matrix: (Units=1/GPa)
#
#
# Indices 1 2 3 4 5 6 
#
# 1 0.027862 -0.033525 -0.007981 0.000000 0.013339 0.000000
# 2 -0.033525 0.082924 0.003290 0.000000 -0.027233 0.000000
# 3 -0.007981 0.003290 0.012746 0.000000 -0.000436 0.000000
# 4 0.000000 0.000000 0.000000 -0.147370 0.000000 0.052820
# 5 0.013339 -0.027233 -0.000436 0.000000 0.030031 0.000000
# 6 0.000000 0.000000 0.000000 0.052820 0.000000 -0.157810
#
#
# Mechanical properties :
#
#
# Convention : Reuss Voigt Hill
#
# Bulk Modulus (GPa) = 21.23057 47.20705 34.21881
# Shear Modulus (GPa) = -84.05185 15.72990 -34.16098
#
# Velocity S-wave (km/s) = -6.45654 2.79312 -4.11615
# Velocity P-wave (km/s) = 6.71215 5.81508 2.37042
#
# Compressibility (1/GPa) = 0.04710189
#
# Stress axis : x y z
#
# Youngs Moduli (GPa) = 35.89068 12.05930 78.45786
#
# Poissons Ratio (x) = 0.40429 0.62613
# Poissons Ratio (y) = 1.20323 -0.25816
# Poissons Ratio (z) = 0.28643 -0.03968
#
# Static dielectric constant tensor:
#      x y z
#    x 1.789110 0.000000 -0.043710 
#    y 0.000000 1.721790 0.000000 
#    z -0.043710 0.000000 1.849890 
# 
# From -- ./inp_files/90408.got.cif
#   From: 2010.05.17/outbox.cif.g08.bks.cpg/sg12_46_cif.got.tgz:90408.got - 2010.06.03 13:09:07.
