data_PCOD9178362
_publ_section_title
;
Structure prediction by ZEFSAII (Michael W. Deem and Ramdas Pophale) SiO2 
 PCOD9178362
Probable space group: C 2/M
;
_chemical_formula_sum "Si O2"
_cell_formula_units_Z 48
_cell_length_a 11.153715
_cell_length_b 14.508940
_cell_length_c 14.718256
_cell_angle_alpha 90.000000
_cell_angle_beta 101.683853
_cell_angle_gamma 90.000000
_cell_volume 2332.482695
_symmetry_space_group_name_H-M "C 2/M"
_symmetry_group_IT_number 12
_symmetry_cell_setting 'monoclinic'
loop_
_space_group_symop_operation_xyz
x,y,z
-x,y,-z
-x,-y,-z
x,-y,z
1/2+x,1/2+y,z
1/2-x,1/2+y,-z
1/2-x,1/2-y,-z
1/2+x,1/2-y,z
loop_
_atom_site_type_symbol
_atom_site_label
_atom_site_fract_x
_atom_site_fract_y
_atom_site_fract_z
Si Si1 0.917650 0.104369 0.908843
Si Si2 0.860335 0.107095 0.517307
Si Si3 0.181435 0.344482 0.968907
Si Si4 0.570321 0.107517 0.143196
Si Si5 0.036820 0.886800 0.284590
Si Si6 0.769903 0.887146 0.316851
O O1 0.780651 0.101839 0.924634
O O2 0.926744 0.144811 0.810001
O O3 0.966689 0.000000 0.906226
O O4 0.000000 0.150109 0.000000
O O5 0.874465 0.146468 0.620561
O O6 0.778798 0.145924 0.422694
O O7 0.000000 0.107010 0.500000
O O8 0.823197 0.000000 0.521591
O O9 0.055036 0.339157 0.894712
O O10 0.250000 0.250000 0.000000
O O11 0.148147 0.387213 0.061653
O O12 0.653917 0.140280 0.239150
O O13 0.538125 0.000000 0.152565
O O14 0.896904 0.861017 0.286536
O O15 0.041739 0.000000 0.288714
O O16 0.769642 0.000000 0.318785
#
# Coordination Sequence:
#
# PCOD9178362 Si02
#       6
#     8   8   8   8   8   8
#     4  10  19  30  48  72 101 131 164 204 252 304
#     4   7  10  18  36  66 104 131 154 198 253 292
#     4  11  23  35  50  69 100 131 170 207 253 303
#     4  10  20  37  57  74  98 135 176 212 251 303
#     4   8  13  22  40  71 106 134 158 202 257 297
#     4   8  13  24  45  73 100 129 166 206 246 294
#
# _framework density 20.578931999999998
#
# number of rings (size 3 to 8) (size 9 to 14) (size 15 to 20)
#    0.000    3.000    0.000    5.000    2.333    2.667 
#    0.000    0.000    0.000    1.000    0.000    7.000 
#    5.000    0.000    0.000    0.000    0.000    0.000 
#
# Total GULP energy -133782.165804 kJ/mol
# GULP energy per Si atom -5574.256909 kJ/mol
# Density = 2.053209 g / cm^3
# Si number density = 20.578932 Si / 1000 Ang^3
#
#
#
# Elastic Constant Matrix: (Units=GPa)
#
#
# Indices 1 2 3 4 5 6 
#
# 1 92.7404 15.7640 89.6020 0.0000 21.7648 0.0000
# 2 15.7640 51.6244 15.3305 0.0000 12.6245 0.0000
# 3 89.6020 15.3305 233.8218 0.0000 31.7635 0.0000
# 4 0.0000 0.0000 0.0000 -1.6184 0.0000 16.8149
# 5 21.7648 12.6245 31.7635 0.0000 37.9077 0.0000
# 6 0.0000 0.0000 0.0000 16.8149 0.0000 9.2158
#
#
#
# Elastic Compliance Matrix: (Units=1/GPa)
#
#
# Indices 1 2 3 4 5 6 
#
# 1 0.018293 -0.002660 -0.006239 0.000000 -0.004389 0.000000
# 2 -0.002660 0.021523 0.000422 0.000000 -0.005995 0.000000
# 3 -0.006239 0.000422 0.006965 0.000000 -0.002395 0.000000
# 4 0.000000 0.000000 0.000000 -0.030961 0.000000 0.056491
# 5 -0.004389 -0.005995 -0.002395 0.000000 0.032903 0.000000
# 6 0.000000 0.000000 0.000000 0.056491 0.000000 0.005437
#
#
# Mechanical properties :
#
#
# Convention : Reuss Voigt Hill
#
# Bulk Modulus (GPa) = 33.52506 68.84219 51.18363
# Shear Modulus (GPa) = 61.68470 26.26703 43.97586
#
# Velocity S-wave (km/s) = 5.48085 3.57656 4.62772
# Velocity P-wave (km/s) = 7.50862 7.11204 7.31302
#
# Compressibility (1/GPa) = 0.02982843
#
# Stress axis : x y z
#
# Youngs Moduli (GPa) = 54.66479 46.46101 143.56725
#
# Poissons Ratio (x) = 0.12358 0.89578
# Poissons Ratio (y) = 0.14540 -0.06065
# Poissons Ratio (z) = 0.34108 -0.01963
#
# Static dielectric constant tensor:
#      x y z
#    x 1.708850 0.000000 0.013030 
#    y 0.000000 1.826550 0.000000 
#    z 0.013030 0.000000 1.787310 
# 
# From -- ./inp_files/204508.got.cif
#   From: 2010.05.17/outbox.cif.g08.bks.cpg/sg12_103_cif.got.tgz:204508.got - 2010.06.03 13:09:07.
