data_PCOD9178868
_publ_section_title
;
Structure prediction by ZEFSAII (Michael W. Deem and Ramdas Pophale) SiO2 
 PCOD9178868
Probable space group: C 2/M
;
_chemical_formula_sum "Si O2"
_cell_formula_units_Z 64
_cell_length_a 23.669153
_cell_length_b 7.600029
_cell_length_c 22.968114
_cell_angle_alpha 90.000000
_cell_angle_beta 128.636369
_cell_angle_gamma 90.000000
_cell_volume 3227.330565
_symmetry_space_group_name_H-M "C 2/M"
_symmetry_group_IT_number 12
_symmetry_cell_setting 'monoclinic'
loop_
_space_group_symop_operation_xyz
x,y,z
-x,y,-z
-x,-y,-z
x,-y,z
1/2+x,1/2+y,z
1/2-x,1/2+y,-z
1/2-x,1/2-y,-z
1/2+x,1/2-y,z
loop_
_atom_site_type_symbol
_atom_site_label
_atom_site_fract_x
_atom_site_fract_y
_atom_site_fract_z
Si Si1 0.409181 0.201426 0.261603
Si Si2 0.922725 0.699856 0.463347
Si Si3 0.300262 0.714378 0.954302
Si Si4 0.638040 0.296210 0.891295
Si Si5 0.565894 0.297112 0.400628
Si Si6 0.734945 0.216257 0.664080
Si Si7 0.249913 0.714564 0.801384
Si Si8 0.196321 0.789450 0.411836
O O1 0.405479 0.207764 0.188916
O O2 0.481646 0.288923 0.331183
O O3 0.332217 0.272560 0.235312
O O4 0.413281 0.000000 0.283603
O O5 0.926795 0.500000 0.442466
O O6 0.916490 0.696675 0.528885
O O7 0.848698 0.776544 0.391308
O O8 0.000000 0.786632 0.500000
O O9 0.298531 0.500000 0.956052
O O10 0.221800 0.780490 0.925010
O O11 0.302659 0.767603 0.888226
O O12 0.358739 0.772152 0.040140
O O13 0.616321 0.500000 0.877927
O O14 0.585584 0.500000 0.424642
O O15 0.616948 0.230329 0.381453
O O16 0.767890 0.268368 0.747405
O O17 0.774660 0.278932 0.631221
O O18 0.733395 0.000000 0.661283
O O19 0.248264 0.500000 0.801541
O O20 0.250000 0.750000 0.500000
O O21 0.193759 0.000000 0.403563
#
# Coordination Sequence:
#
# PCOD9178868 Si02
#       8
#     8   8   8   8   8   8   8   8
#     4  10  19  31  47  67  93 124 156 190 230 281
#     4  10  19  31  49  70  91 121 158 187 220 276
#     4   8  14  24  40  64  94 127 157 184 220 271
#     4   9  15  24  40  64  95 126 154 186 224 269
#     4  11  22  33  46  67  93 120 152 194 241 280
#     4   9  16  28  47  68  89 115 150 191 228 264
#     4   8  14  26  45  69  93 117 151 189 223 266
#     4  10  20  34  51  68  87 116 155 196 237 277
#
# _framework density 19.830629999999999
#
# number of rings (size 3 to 8) (size 9 to 14) (size 15 to 20)
#    0.000    2.625    1.250    2.625    0.000    3.250 
#    0.000    0.000    0.000    3.750    0.000    0.875 
#    0.000    7.000    0.000    0.000    0.000    0.000 
#
# Total GULP energy -178323.040069 kJ/mol
# GULP energy per Si atom -5572.595002 kJ/mol
# Density = 1.978549 g / cm^3
# Si number density = 19.830630 Si / 1000 Ang^3
#
#
#
# Elastic Constant Matrix: (Units=GPa)
#
#
# Indices 1 2 3 4 5 6 
#
# 1 52.8062 1.8297 16.7273 0.0000 -28.7512 0.0000
# 2 1.8297 44.9463 -2.9909 0.0000 -0.0965 0.0000
# 3 16.7273 -2.9909 117.7238 0.0000 -40.1406 0.0000
# 4 0.0000 0.0000 0.0000 13.1059 0.0000 -5.4435
# 5 -28.7512 -0.0965 -40.1406 0.0000 30.5567 0.0000
# 6 0.0000 0.0000 0.0000 -5.4435 0.0000 2.2018
#
#
#
# Elastic Compliance Matrix: (Units=1/GPa)
#
#
# Indices 1 2 3 4 5 6 
#
# 1 0.052827 -0.000860 0.017062 0.000000 0.072116 0.000001
# 2 -0.000860 0.022337 0.000793 -0.000006 0.000303 -0.000014
# 3 0.017062 0.000793 0.020948 0.000000 0.043574 0.000000
# 4 0.000000 -0.000006 0.000000 -2.841305 0.000001 -7.024472
# 5 0.072116 0.000303 0.043574 0.000001 0.157823 0.000003
# 6 0.000001 -0.000014 0.000000 -7.024472 0.000003-16.912226
#
#
# Mechanical properties :
#
#
# Convention : Reuss Voigt Hill
#
# Bulk Modulus (GPa) = 7.68634 27.40094 17.54364
# Shear Modulus (GPa) = -0.25654 22.50023 11.12185
#
# Velocity S-wave (km/s) = -0.36006 3.37207 2.37078
# Velocity P-wave (km/s) = 1.92654 5.38596 4.04476
#
# Compressibility (1/GPa) = 0.13010086
#
# Stress axis : x y z
#
# Youngs Moduli (GPa) = 18.92959 44.76831 47.73745
#
# Poissons Ratio (x) = 0.03852 -0.81448
# Poissons Ratio (y) = 0.01629 -0.03785
# Poissons Ratio (z) = -0.32297 -0.03550
#
# Static dielectric constant tensor:
#      x y z
#    x 1.702750 0.000000 -0.040580 
#    y 0.000000 1.761440 0.000000 
#    z -0.040580 0.000000 1.729560 
# 
# From -- ./inp_files/323755.got.cif
#   From: 2010.05.17/outbox.cif.g08.bks.cpg/sg12_162_cif.got.tgz:323755.got - 2010.06.03 13:09:07.
