data_PCOD9178858
_publ_section_title
;
Structure prediction by ZEFSAII (Michael W. Deem and Ramdas Pophale) SiO2 
 PCOD9178858
Probable space group: C 2/M
;
_chemical_formula_sum "Si O2"
_cell_formula_units_Z 56
_cell_length_a 18.234493
_cell_length_b 7.405376
_cell_length_c 23.983111
_cell_angle_alpha 90.000000
_cell_angle_beta 125.509418
_cell_angle_gamma 90.000000
_cell_volume 2636.218653
_symmetry_space_group_name_H-M "C 2/M"
_symmetry_group_IT_number 12
_symmetry_cell_setting 'monoclinic'
loop_
_space_group_symop_operation_xyz
x,y,z
-x,y,-z
-x,-y,-z
x,-y,z
1/2+x,1/2+y,z
1/2-x,1/2+y,-z
1/2-x,1/2-y,-z
1/2+x,1/2-y,z
loop_
_atom_site_type_symbol
_atom_site_label
_atom_site_fract_x
_atom_site_fract_y
_atom_site_fract_z
Si Si1 0.611881 0.721048 0.215898
Si Si2 0.235941 0.211436 0.364113
Si Si3 0.083344 0.279314 0.498326
Si Si4 0.018642 0.792733 0.068449
Si Si5 0.439090 0.219117 0.638470
Si Si6 0.847884 0.284678 0.067868
Si Si7 0.436833 0.206608 0.213543
O O1 0.608461 0.500000 0.215239
O O2 0.700217 0.781009 0.288626
O O3 0.592846 0.781863 0.144422
O O4 0.527112 0.787846 0.215038
O O5 0.324159 0.286534 0.432808
O O6 0.151255 0.228420 0.368344
O O7 0.254380 0.000000 0.363223
O O8 0.086726 0.500000 0.497741
O O9 0.068706 0.219643 0.428408
O O10 0.000000 0.228294 0.500000
O O11 0.925487 0.791387 0.061995
O O12 0.046672 0.000000 0.070328
O O13 0.000000 0.708242 0.000000
O O14 0.526038 0.285115 0.712060
O O15 0.442983 0.000000 0.640909
O O16 0.862337 0.500000 0.075960
O O17 0.863419 0.215697 0.138178
O O18 0.750000 0.250000 0.000000
O O19 0.410015 0.000000 0.213434
#
# Coordination Sequence:
#
# PCOD9178858 Si02
#       7
#     8   8   8   8   8   8   8
#     4   8  14  25  42  64  87 112 143 180 220 256
#     4   9  16  27  45  67  87 110 145 183 216 253
#     4   9  17  28  42  63  91 118 142 172 212 258
#     4   9  17  30  47  67  92 120 151 187 226 268
#     4   9  16  28  47  67  85 109 144 182 217 253
#     4  10  19  31  47  67  92 120 151 186 225 269
#     4   8  15  27  43  64  86 110 143 181 218 255
#
# _framework density 21.242549
#
# number of rings (size 3 to 8) (size 9 to 14) (size 15 to 20)
#    0.000    3.143    0.000    0.857    0.000    0.857 
#    0.000    1.429    0.000    8.571    0.000    0.000 
#    0.000    0.000    0.000    0.000    0.000    0.000 
#
# Total GULP energy -155977.449168 kJ/mol
# GULP energy per Si atom -5570.623185 kJ/mol
# Density = 2.119420 g / cm^3
# Si number density = 21.242549 Si / 1000 Ang^3
#
#
#
# Elastic Constant Matrix: (Units=GPa)
#
#
# Indices 1 2 3 4 5 6 
#
# 1 35.4423 -11.1791 70.1646 0.0000 0.2356 0.0000
# 2 -11.1791 77.4823 2.0516 0.0000 -0.7997 0.0000
# 3 70.1646 2.0516 297.5281 0.0000 -3.3170 0.0000
# 4 0.0000 0.0000 0.0000 -19.9947 0.0000 -1.9337
# 5 0.2356 -0.7997 -3.3170 0.0000 30.2783 0.0000
# 6 0.0000 0.0000 0.0000 -1.9337 0.0000 11.6442
#
#
#
# Elastic Compliance Matrix: (Units=1/GPa)
#
#
# Indices 1 2 3 4 5 6 
#
# 1 0.058435 0.008780 -0.013860 0.000000 -0.001741 0.000000
# 2 0.008780 0.014231 -0.002168 0.000000 0.000070 0.000000
# 3 -0.013860 -0.002168 0.006653 0.000000 0.000779 0.000000
# 4 0.000000 0.000000 0.000000 -0.049223 0.000000 -0.008174
# 5 -0.001741 0.000070 0.000779 0.000000 0.033128 0.000000
# 6 0.000000 0.000000 0.000000 -0.008174 0.000000 0.084522
#
#
# Mechanical properties :
#
#
# Convention : Reuss Voigt Hill
#
# Bulk Modulus (GPa) = 15.42665 59.16965 37.29815
# Shear Modulus (GPa) = 27.19601 27.67994 27.43798
#
# Velocity S-wave (km/s) = 3.58196 3.61368 3.59785
# Velocity P-wave (km/s) = 4.93813 6.73249 5.90388
#
# Compressibility (1/GPa) = 0.06482287
#
# Stress axis : x y z
#
# Youngs Moduli (GPa) = 17.11302 70.26873 150.30144
#
# Poissons Ratio (x) = -0.61696 2.08324
# Poissons Ratio (y) = -0.15025 0.32584
# Poissons Ratio (z) = 0.23719 0.15234
#
# Static dielectric constant tensor:
#      x y z
#    x 1.689250 0.000000 -0.005460 
#    y 0.000000 1.815850 0.000000 
#    z -0.005460 0.000000 1.851280 
# 
# From -- ./inp_files/345487.got.cif
#   From: 2010.05.17/outbox.cif.g08.bks.cpg/sg12_173_cif.got.tgz:345487.got - 2010.06.03 13:09:07.
