data_PCOD9178238
_publ_section_title
;
Structure prediction by ZEFSAII (Michael W. Deem and Ramdas Pophale) SiO2 
 PCOD9178238
Probable space group: C 2/M
;
_chemical_formula_sum "Si O2"
_cell_formula_units_Z 64
_cell_length_a 19.233823
_cell_length_b 14.627426
_cell_length_c 10.704846
_cell_angle_alpha 90.000000
_cell_angle_beta 92.837307
_cell_angle_gamma 90.000000
_cell_volume 3008.023525
_symmetry_space_group_name_H-M "C 2/M"
_symmetry_group_IT_number 12
_symmetry_cell_setting 'monoclinic'
loop_
_space_group_symop_operation_xyz
x,y,z
-x,y,-z
-x,-y,-z
x,-y,z
1/2+x,1/2+y,z
1/2-x,1/2+y,-z
1/2-x,1/2-y,-z
1/2+x,1/2-y,z
loop_
_atom_site_type_symbol
_atom_site_label
_atom_site_fract_x
_atom_site_fract_y
_atom_site_fract_z
Si Si1 0.280560 0.842978 0.231974
Si Si2 0.569831 0.304724 0.570388
Si Si3 0.713098 0.604271 0.995160
Si Si4 0.409082 0.901358 0.385350
Si Si5 0.436564 0.390340 0.906451
Si Si6 0.864805 0.799379 0.688636
Si Si7 0.335620 0.097767 0.648413
Si Si8 0.808249 0.136806 0.292768
O O1 0.344701 0.902329 0.283154
O O2 0.203473 0.858596 0.281425
O O3 0.300536 0.745336 0.288821
O O4 0.268511 0.840096 0.082103
O O5 0.500000 0.339486 0.500000
O O6 0.555786 0.200118 0.619783
O O7 0.622737 0.299744 0.457457
O O8 0.610459 0.372718 0.667589
O O9 0.723865 0.500000 0.039112
O O10 0.714241 0.605770 0.846760
O O11 0.635295 0.631742 0.028070
O O12 0.375589 0.901219 0.520731
O O13 0.447700 0.000000 0.374507
O O14 0.440589 0.500000 0.888675
O O15 0.428605 0.339735 0.773652
O O16 0.500000 0.362048 0.000000
O O17 0.853346 0.692069 0.720755
O O18 0.251923 0.100782 0.621933
O O19 0.352055 0.000000 0.712335
#
# Coordination Sequence:
#
# PCOD9178238 Si02
#       8
#     8   8   8   8   8   8   8   8
#     4   9  17  31  50  74  97 124 164 205 248 299
#     4  10  21  33  48  72 101 136 170 203 245 300
#     4  10  19  30  47  71  97 125 159 202 250 296
#     4   9  17  31  52  75  99 127 165 210 251 294
#     4   9  19  34  52  71  94 131 175 210 241 287
#     4   9  18  33  53  74  99 131 166 208 251 291
#     4   9  17  31  53  78 101 129 163 202 252 305
#     4  10  19  31  48  72 103 131 160 199 251 300
#
# _framework density 21.276427999999999
#
# number of rings (size 3 to 8) (size 9 to 14) (size 15 to 20)
#    0.000    2.625    0.000    1.875    1.750    3.750 
#    0.000    1.250    0.000    2.250    0.000    0.000 
#    0.000    0.000    0.000    0.000    0.000    0.000 
#
# Total GULP energy -178179.384187 kJ/mol
# GULP energy per Si atom -5568.105756 kJ/mol
# Density = 2.122800 g / cm^3
# Si number density = 21.276428 Si / 1000 Ang^3
#
#
#
# Elastic Constant Matrix: (Units=GPa)
#
#
# Indices 1 2 3 4 5 6 
#
# 1 26.3397 -3.8903 8.6990 0.0000 21.7695 0.0000
# 2 -3.8903 47.6865 9.0010 0.0000 10.3428 0.0000
# 3 8.6990 9.0010 74.1667 0.0000 28.0254 0.0000
# 4 0.0000 0.0000 0.0000 14.8381 0.0000 -7.4515
# 5 21.7695 10.3428 28.0254 0.0000 37.6296 0.0000
# 6 0.0000 0.0000 0.0000 -7.4515 0.0000 16.6895
#
#
#
# Elastic Compliance Matrix: (Units=1/GPa)
#
#
# Indices 1 2 3 4 5 6 
#
# 1 0.094425 0.020420 0.012816 0.000000 -0.069784 0.000000
# 2 0.020420 0.026731 0.002228 0.000000 -0.020820 0.000000
# 3 0.012816 0.002228 0.020516 0.000000 -0.023307 0.000000
# 4 0.000000 0.000000 0.000000 0.086872 0.000000 0.038787
# 5 -0.069784 -0.020820 -0.023307 0.000000 0.090027 0.000000
# 6 0.000000 0.000000 0.000000 0.038787 0.000000 0.077235
#
#
# Mechanical properties :
#
#
# Convention : Reuss Voigt Hill
#
# Bulk Modulus (GPa) = 4.70367 19.53468 12.11917
# Shear Modulus (GPa) = 12.63436 22.79031 17.71234
#
# Velocity S-wave (km/s) = 2.43949 3.27640 2.88841
# Velocity P-wave (km/s) = 3.18596 4.84916 4.10272
#
# Compressibility (1/GPa) = 0.21259991
#
# Stress axis : x y z
#
# Youngs Moduli (GPa) = 10.59046 37.40938 48.74128
#
# Poissons Ratio (x) = -0.76389 -0.62467
# Poissons Ratio (y) = -0.21625 -0.10860
# Poissons Ratio (z) = -0.13573 -0.08335
#
# Static dielectric constant tensor:
#      x y z
#    x 1.821920 0.000000 0.011990 
#    y 0.000000 1.826920 0.000000 
#    z 0.011990 0.000000 1.803520 
# 
# From -- ./inp_files/167274.got.cif
#   From: 2010.05.17/outbox.cif.g08.bks.cpg/sg12_84_cif.got.tgz:167274.got - 2010.06.03 13:09:07.
