data_PCOD9178263
_publ_section_title
;
Structure prediction by ZEFSAII (Michael W. Deem and Ramdas Pophale) SiO2 
 PCOD9178263
Probable space group: C 2/M
;
_chemical_formula_sum "Si O2"
_cell_formula_units_Z 44
_cell_length_a 5.140629
_cell_length_b 14.184718
_cell_length_c 28.888491
_cell_angle_alpha 90.000000
_cell_angle_beta 85.136226
_cell_angle_gamma 90.000000
_cell_volume 2098.916458
_symmetry_space_group_name_H-M "C 2/M"
_symmetry_group_IT_number 12
_symmetry_cell_setting 'monoclinic'
loop_
_space_group_symop_operation_xyz
x,y,z
-x,y,-z
-x,-y,-z
x,-y,z
1/2+x,1/2+y,z
1/2-x,1/2+y,-z
1/2-x,1/2-y,-z
1/2+x,1/2-y,z
loop_
_atom_site_type_symbol
_atom_site_label
_atom_site_fract_x
_atom_site_fract_y
_atom_site_fract_z
Si Si1 0.234648 0.000000 0.032703
Si Si2 0.033975 0.683806 0.548243
Si Si3 0.318967 0.887815 0.748363
Si Si4 0.295148 0.614715 0.802955
Si Si5 0.514086 0.188578 0.648979
Si Si6 0.660234 0.312203 0.093798
O O1 0.215414 0.906512 0.064202
O O2 0.500000 0.000000 0.000000
O O3 0.000000 0.000000 0.000000
O O4 0.317200 0.732924 0.547072
O O5 0.987502 0.638008 0.599274
O O6 0.000000 0.629813 0.500000
O O7 0.520744 0.855977 0.784816
O O8 0.424355 0.863572 0.696258
O O9 0.026414 0.856514 0.764384
O O10 0.314586 0.000000 0.751597
O O11 0.296770 0.500000 0.807343
O O12 0.342559 0.658406 0.852241
O O13 0.311099 0.276207 0.649305
O O14 0.388658 0.264227 0.084005
#
# Coordination Sequence:
#
# PCOD9178263 Si02
#       6
#     4   8   8   8   8   8
#     4  12  28  50  74 100 140 176 208 266 313 360
#     4   8  14  25  41  62  89 125 169 220 280 336
#     4  10  21  34  54  78 113 155 186 229 290 355
#     4  10  21  40  59  83 120 159 197 240 295 354
#     4  10  19  30  47  72 102 133 177 235 280 334
#     4  12  26  44  72 103 131 170 217 260 309 369
#
# _framework density 20.963197999999998
#
# number of rings (size 3 to 8) (size 9 to 14) (size 15 to 20)
#    0.000    1.818    0.909    3.273    0.000    6.545 
#    0.000    0.000    0.000    0.545    0.000    0.000 
#    0.000   18.909    0.000    0.000    0.000    2.909 
#
# Total GULP energy -122860.730517 kJ/mol
# GULP energy per Si atom -5584.578660 kJ/mol
# Density = 2.091548 g / cm^3
# Si number density = 20.963198 Si / 1000 Ang^3
#
#
#
# Elastic Constant Matrix: (Units=GPa)
#
#
# Indices 1 2 3 4 5 6 
#
# 1 78.6047 -12.0387 1.0557 0.0000 -5.0526 0.0000
# 2 -12.0387 57.4551 15.4090 0.0000 -6.1556 0.0000
# 3 1.0557 15.4090 122.9150 0.0000 -9.4661 0.0000
# 4 0.0000 0.0000 0.0000 80.6366 0.0000 -19.0553
# 5 -5.0526 -6.1556 -9.4661 0.0000 31.4998 0.0000
# 6 0.0000 0.0000 0.0000 -19.0553 0.0000 19.7254
#
#
#
# Elastic Compliance Matrix: (Units=1/GPa)
#
#
# Indices 1 2 3 4 5 6 
#
# 1 0.013384 0.003173 -0.000307 0.000000 0.002675 0.000000
# 2 0.003173 0.019027 -0.002136 0.000000 0.003585 0.000000
# 3 -0.000307 -0.002136 0.008569 0.000000 0.002108 0.000000
# 4 0.000000 0.000000 0.000000 0.016070 0.000000 0.015524
# 5 0.002675 0.003585 0.002108 0.000000 0.033509 0.000000
# 6 0.000000 0.000000 0.000000 0.015524 0.000000 0.065693
#
#
# Mechanical properties :
#
#
# Convention : Reuss Voigt Hill
#
# Bulk Modulus (GPa) = 23.56301 29.75853 26.66077
# Shear Modulus (GPa) = 29.59674 43.34229 36.46951
#
# Velocity S-wave (km/s) = 3.76153 4.55196 4.17549
# Velocity P-wave (km/s) = 5.48908 6.46943 5.99931
#
# Compressibility (1/GPa) = 0.04243940
#
# Stress axis : x y z
#
# Youngs Moduli (GPa) = 74.71642 52.55725 116.70615
#
# Poissons Ratio (x) = -0.16678 0.03580
# Poissons Ratio (y) = -0.23709 0.24933
# Poissons Ratio (z) = 0.02292 0.11228
#
# Static dielectric constant tensor:
#      x y z
#    x 1.727900 0.000000 -0.009950 
#    y 0.000000 1.740280 0.000000 
#    z -0.009950 0.000000 1.781180 
# 
# From -- ./inp_files/354789.got.cif
#   From: 2010.05.17/outbox.cif.g08.bks.cpg/sg12_178_cif.got.tgz:354789.got - 2010.06.03 13:09:07.
