data_PCOD9178730
_publ_section_title
;
Structure prediction by ZEFSAII (Michael W. Deem and Ramdas Pophale) SiO2 
 PCOD9178730
Probable space group: C 2/M
;
_chemical_formula_sum "Si O2"
_cell_formula_units_Z 56
_cell_length_a 27.658452
_cell_length_b 21.764726
_cell_length_c 24.129500
_cell_angle_alpha 90.000000
_cell_angle_beta 164.511927
_cell_angle_gamma 90.000000
_cell_volume 3878.842081
_symmetry_space_group_name_H-M "C 2/M"
_symmetry_group_IT_number 12
_symmetry_cell_setting 'monoclinic'
loop_
_space_group_symop_operation_xyz
x,y,z
-x,y,-z
-x,-y,-z
x,-y,z
1/2+x,1/2+y,z
1/2-x,1/2+y,-z
1/2-x,1/2-y,-z
1/2+x,1/2-y,z
loop_
_atom_site_type_symbol
_atom_site_label
_atom_site_fract_x
_atom_site_fract_y
_atom_site_fract_z
Si Si1 0.061196 0.072554 0.821935
Si Si2 0.078788 0.357281 0.461718
Si Si3 0.793307 0.071261 0.793313
Si Si4 0.460423 0.072551 0.221163
Si Si5 0.718634 0.847013 0.437208
Si Si6 0.156067 0.223329 0.312117
Si Si7 0.187087 0.142733 0.070010
O O1 0.889612 0.110563 0.610794
O O2 0.023833 0.000000 0.782761
O O3 0.245113 0.082616 0.990156
O O4 0.105428 0.097537 0.932610
O O5 0.169749 0.394755 0.611871
O O6 0.049029 0.402469 0.376215
O O7 0.208626 0.302702 0.584874
O O8 0.880733 0.335268 0.261449
O O9 0.785528 0.105264 0.843412
O O10 0.740050 0.000000 0.740067
O O11 0.000000 0.073428 0.000000
O O12 0.552881 0.110555 0.274058
O O13 0.494176 0.000000 0.253107
O O14 0.780099 0.809532 0.560202
O O15 0.668324 0.795748 0.336596
O O16 0.956140 0.197305 0.079907
#
# Coordination Sequence:
#
# PCOD9178730 Si02
#       7
#     8   8   8   8   8   8   8
#     4   9  17  28  43  64  86 110 142 176 213 257
#     4  10  19  31  45  60  84 116 147 181 216 247
#     4  11  21  31  45  64  87 115 148 185 218 248
#     4   9  17  28  43  64  86 110 142 176 213 257
#     4   9  17  28  44  58  81 110 140 179 219 251
#     4   9  18  31  41  60  80 106 149 184 211 251
#     4  10  19  31  45  60  84 116 147 181 216 247
#
# _framework density 14.437298999999999
#
# number of rings (size 3 to 8) (size 9 to 14) (size 15 to 20)
#    0.000    2.429    1.429    1.714    0.000    3.429 
#    0.000    5.714    0.000    0.000    0.000    0.000 
#    0.000    0.000    0.000   10.286    0.000   38.857 
#
# Total GULP energy -156070.183602 kJ/mol
# GULP energy per Si atom -5573.935129 kJ/mol
# Density = 1.440444 g / cm^3
# Si number density = 14.437299 Si / 1000 Ang^3
#
#
#
# Elastic Constant Matrix: (Units=GPa)
#
#
# Indices 1 2 3 4 5 6 
#
# 1 61.2407 61.0689 47.8074 -0.0029 14.2489 0.0004
# 2 61.0689 116.6764 71.9859 0.0062 17.4486 0.0048
# 3 47.8074 71.9859 82.1741 -0.0204 19.2374 -0.0050
# 4 -0.0029 0.0062 -0.0204 13.7360 -0.0079 -6.0643
# 5 14.2489 17.4486 19.2374 -0.0079 19.2073 0.0000
# 6 0.0004 0.0048 -0.0050 -6.0643 0.0000 17.5034
#
#
#
# Elastic Compliance Matrix: (Units=1/GPa)
#
#
# Indices 1 2 3 4 5 6 
#
# 1 0.038448 -0.013678 -0.008645 -0.000003 -0.007439 -0.000001
# 2 -0.013678 0.023525 -0.013094 -0.000043 0.001890 -0.000025
# 3 -0.008645 -0.013094 0.031851 0.000058 -0.013593 0.000033
# 4 -0.000003 -0.000043 0.000058 0.085948 0.000018 0.029778
# 5 -0.007439 0.001890 -0.013593 0.000018 0.069480 0.000002
# 6 -0.000001 -0.000025 0.000033 0.029778 0.000002 0.067449
#
#
# Mechanical properties :
#
#
# Convention : Reuss Voigt Hill
#
# Bulk Modulus (GPa) = 43.49333 69.09061 56.29197
# Shear Modulus (GPa) = 12.65191 15.37127 14.01159
#
# Velocity S-wave (km/s) = 2.96351 3.26650 3.11869
# Velocity P-wave (km/s) = 6.47309 7.88582 7.21412
#
# Compressibility (1/GPa) = 0.02299203
#
# Stress axis : x y z
#
# Youngs Moduli (GPa) = 26.00946 42.50711 31.39588
#
# Poissons Ratio (x) = 0.58139 0.27141
# Poissons Ratio (y) = 0.35574 0.41109
# Poissons Ratio (z) = 0.22485 0.55658
#
# Static dielectric constant tensor:
#      x y z
#    x 1.466860 0.000000 0.027020 
#    y 0.000000 1.457040 0.000000 
#    z 0.027020 0.000000 1.483740 
# 
# From -- ./inp_files/97353.got.cif
#   From: 2010.05.17/outbox.cif.g08.bks.cpg/sg12_49_cif.got.tgz:97353.got - 2010.06.03 13:09:07.
