data_PCOD9178763
_publ_section_title
;
Structure prediction by ZEFSAII (Michael W. Deem and Ramdas Pophale) SiO2 
 PCOD9178763
Probable space group: C 2/M
;
_chemical_formula_sum "Si O2"
_cell_formula_units_Z 56
_cell_length_a 16.248574
_cell_length_b 38.951403
_cell_length_c 5.269408
_cell_angle_alpha 90.000000
_cell_angle_beta 121.664404
_cell_angle_gamma 90.000000
_cell_volume 2838.571647
_symmetry_space_group_name_H-M "C 2/M"
_symmetry_group_IT_number 12
_symmetry_cell_setting 'monoclinic'
loop_
_space_group_symop_operation_xyz
x,y,z
-x,y,-z
-x,-y,-z
x,-y,z
1/2+x,1/2+y,z
1/2-x,1/2+y,-z
1/2-x,1/2-y,-z
1/2+x,1/2-y,z
loop_
_atom_site_type_symbol
_atom_site_label
_atom_site_fract_x
_atom_site_fract_y
_atom_site_fract_z
Si Si1 0.901171 0.867214 0.930678
Si Si2 0.863884 0.174517 0.365046
Si Si3 0.814095 0.606110 0.432785
Si Si4 0.351494 0.147476 0.002743
Si Si5 0.113500 0.744968 0.640703
Si Si6 0.896237 0.282416 0.880758
Si Si7 0.434585 0.960447 0.645891
O O1 0.885428 0.840612 0.676135
O O2 0.801921 0.889067 0.787423
O O3 0.912672 0.846009 0.210155
O O4 0.000000 0.885964 0.000000
O O5 0.751703 0.166160 0.137743
O O6 0.883395 0.214733 0.402612
O O7 0.844173 0.622003 0.752283
O O8 0.849630 0.567136 0.485989
O O9 0.866176 0.627198 0.288386
O O10 0.415643 0.179657 0.021694
O O11 0.152110 0.721443 0.472535
O O12 0.000000 0.735105 0.500000
O O13 0.159267 0.737280 0.988483
O O14 0.000000 0.264791 0.000000
O O15 0.500000 0.957644 0.500000
O O16 0.401175 0.000000 0.612647
O O17 0.500000 0.953030 0.000000
#
# Coordination Sequence:
#
# PCOD9178763 Si02
#       7
#     8   8   8   8   8   8   8
#     4  10  19  33  53  77 106 137 173 220 269 313
#     4  10  20  32  50  73  96 129 176 226 270 316
#     4  10  21  36  55  81 109 138 174 213 257 313
#     4  10  21  35  50  73 103 134 171 214 264 316
#     4  10  19  31  46  64  89 125 172 221 270 317
#     4  10  21  33  45  64  92 129 171 216 266 321
#     4  10  21  38  61  89 117 145 178 213 252 300
#
# _framework density 19.728231999999998
#
# number of rings (size 3 to 8) (size 9 to 14) (size 15 to 20)
#    0.000    2.000    0.000    3.857    0.000    4.000 
#    0.000    0.000    0.000    0.429    0.000    0.000 
#    0.000   10.286    0.000    0.000    0.000    1.714 
#
# Total GULP energy -156242.812874 kJ/mol
# GULP energy per Si atom -5580.100460 kJ/mol
# Density = 1.968333 g / cm^3
# Si number density = 19.728232 Si / 1000 Ang^3
#
#
#
# Elastic Constant Matrix: (Units=GPa)
#
#
# Indices 1 2 3 4 5 6 
#
# 1 95.5184 54.5536 48.6026 0.0000 -22.3991 0.0000
# 2 54.5536 119.6225 40.1829 0.0000 -0.9447 0.0000
# 3 48.6026 40.1829 93.9691 0.0000 -36.1578 0.0000
# 4 0.0000 0.0000 0.0000 12.4503 0.0000 12.4064
# 5 -22.3991 -0.9447 -36.1578 0.0000 32.4704 0.0000
# 6 0.0000 0.0000 0.0000 12.4064 0.0000 13.2434
#
#
#
# Elastic Compliance Matrix: (Units=1/GPa)
#
#
# Indices 1 2 3 4 5 6 
#
# 1 0.018220 -0.007334 -0.002683 0.000000 0.009367 0.000000
# 2 -0.007334 0.013931 -0.006920 0.000000 -0.012359 0.000000
# 3 -0.002683 -0.006920 0.024844 0.000000 0.025613 0.000000
# 4 0.000000 0.000000 0.000000 1.207686 0.000000 -1.131357
# 5 0.009367 -0.012359 0.025613 0.000000 0.065421 0.000000
# 6 0.000000 0.000000 0.000000 -1.131357 0.000000 1.135361
#
#
# Mechanical properties :
#
#
# Convention : Reuss Voigt Hill
#
# Bulk Modulus (GPa) = 43.24931 66.19870 54.72400
# Shear Modulus (GPa) = 1.99438 22.68421 12.33930
#
# Velocity S-wave (km/s) = 1.00654 3.39460 2.50364
# Velocity P-wave (km/s) = 4.82918 6.99947 6.01305
#
# Compressibility (1/GPa) = 0.02312176
#
# Stress axis : x y z
#
# Youngs Moduli (GPa) = 54.88596 71.78254 40.25104
#
# Poissons Ratio (x) = 0.52644 0.10800
# Poissons Ratio (y) = 0.40252 0.27852
# Poissons Ratio (z) = 0.14726 0.49671
#
# Static dielectric constant tensor:
#      x y z
#    x 1.810450 0.000000 0.009640 
#    y 0.000000 1.649750 0.000000 
#    z 0.009640 0.000000 1.795110 
# 
# From -- ./inp_files/18388.got.cif
#   From: 2010.05.17/outbox.cif.g08.bks.cpg/sg12_10_cif.got.tgz:18388.got - 2010.06.03 13:09:07.
