data_PCOD9178363
_publ_section_title
;
Structure prediction by ZEFSAII (Michael W. Deem and Ramdas Pophale) SiO2 
 PCOD9178363
Probable space group: C 2/M
;
_chemical_formula_sum "Si O2"
_cell_formula_units_Z 56
_cell_length_a 28.263428
_cell_length_b 8.257619
_cell_length_c 14.259408
_cell_angle_alpha 90.000000
_cell_angle_beta 120.320343
_cell_angle_gamma 90.000000
_cell_volume 2872.769860
_symmetry_space_group_name_H-M "C 2/M"
_symmetry_group_IT_number 12
_symmetry_cell_setting 'monoclinic'
loop_
_space_group_symop_operation_xyz
x,y,z
-x,y,-z
-x,-y,-z
x,-y,z
1/2+x,1/2+y,z
1/2-x,1/2+y,-z
1/2-x,1/2-y,-z
1/2+x,1/2-y,z
loop_
_atom_site_type_symbol
_atom_site_label
_atom_site_fract_x
_atom_site_fract_y
_atom_site_fract_z
Si Si1 0.166874 0.196349 0.881285
Si Si2 0.056157 0.190385 0.849263
Si Si3 0.733982 0.305374 0.130703
Si Si4 0.170133 0.192548 0.458192
Si Si5 0.768063 0.807039 0.665605
Si Si6 0.566467 0.813871 0.060440
Si Si7 0.433256 0.192142 0.733216
O O1 0.103769 0.247489 0.826868
O O2 0.203774 0.259934 0.833665
O O3 0.168118 0.000000 0.881225
O O4 0.197068 0.253621 0.007249
O O5 0.997348 0.273801 0.781617
O O6 0.047543 0.000000 0.827860
O O7 0.078580 0.218104 0.977879
O O8 0.729419 0.500000 0.127829
O O9 0.718107 0.242049 0.217523
O O10 0.197274 0.257121 0.387867
O O11 0.204958 0.271004 0.576164
O O12 0.106496 0.233211 0.383814
O O13 0.177741 0.000000 0.471197
O O14 0.776331 0.000000 0.675656
O O15 0.582757 0.743583 0.178079
O O16 0.585220 0.000000 0.069538
O O17 0.500000 0.818774 0.000000
O O18 0.425448 0.000000 0.728659
#
# Coordination Sequence:
#
# PCOD9178363 Si02
#       7
#     8   8   8   8   8   8   8
#     4   9  19  33  50  76 105 132 168 210 250 295
#     4  10  19  30  48  72 101 134 168 207 252 298
#     4   9  18  34  54  74 100 135 170 206 250 298
#     4  10  20  33  53  78 103 132 170 208 250 302
#     4   9  19  35  54  75 103 134 167 209 253 299
#     4   8  16  29  42  62  95 131 165 200 239 289
#     4  10  20  33  48  69 102 136 169 207 249 299
#
# _framework density 19.493379999999998
#
# number of rings (size 3 to 8) (size 9 to 14) (size 15 to 20)
#    0.000    2.714    0.000    2.143    2.000    5.429 
#    0.000    0.000    0.000    0.857    0.000    6.000 
#    0.000    0.000    0.000    0.000    0.000    0.000 
#
# Total GULP energy -156126.039769 kJ/mol
# GULP energy per Si atom -5575.929992 kJ/mol
# Density = 1.944901 g / cm^3
# Si number density = 19.493380 Si / 1000 Ang^3
#
#
#
# Elastic Constant Matrix: (Units=GPa)
#
#
# Indices 1 2 3 4 5 6 
#
# 1 52.8482 -6.1696 -4.2223 0.0000 1.0783 0.0000
# 2 -6.1696 10.0415 -5.1748 0.0000 -6.0725 0.0000
# 3 -4.2223 -5.1748 38.7045 0.0000 1.7302 0.0000
# 4 0.0000 0.0000 0.0000 18.0720 0.0000 1.4066
# 5 1.0783 -6.0725 1.7302 0.0000 23.7456 0.0000
# 6 0.0000 0.0000 0.0000 1.4066 0.0000 21.4698
#
#
#
# Elastic Compliance Matrix: (Units=1/GPa)
#
#
# Indices 1 2 3 4 5 6 
#
# 1 0.021229 0.017238 0.004481 0.000000 0.003118 0.000000
# 2 0.017238 0.140450 0.019151 0.000000 0.033740 0.000000
# 3 0.004481 0.019151 0.028770 0.000000 0.002598 0.000000
# 4 0.000000 0.000000 0.000000 0.055618 0.000000 -0.003644
# 5 0.003118 0.033740 0.002598 0.000000 0.050410 0.000000
# 6 0.000000 0.000000 0.000000 -0.003644 0.000000 0.046816
#
#
# Mechanical properties :
#
#
# Convention : Reuss Voigt Hill
#
# Bulk Modulus (GPa) = 3.67391 7.82897 5.75144
# Shear Modulus (GPa) = 14.19312 20.46821 17.33067
#
# Velocity S-wave (km/s) = 2.70126 3.24390 2.98494
# Velocity P-wave (km/s) = 3.40850 4.24917 3.85184
#
# Compressibility (1/GPa) = 0.27218939
#
# Stress axis : x y z
#
# Youngs Moduli (GPa) = 47.10545 7.11995 34.75845
#
# Poissons Ratio (x) = -0.12274 -0.15576
# Poissons Ratio (y) = -0.81201 -0.66564
# Poissons Ratio (z) = -0.21109 -0.13635
#
# Static dielectric constant tensor:
#      x y z
#    x 1.718570 0.000000 0.011180 
#    y 0.000000 1.667710 0.000000 
#    z 0.011180 0.000000 1.707700 
# 
# From -- ./inp_files/243282.got.cif
#   From: 2010.05.17/outbox.cif.g08.bks.cpg/sg12_122_cif.got.tgz:243282.got - 2010.06.03 13:09:07.
