data_PCOD9178639
_publ_section_title
;
Structure prediction by ZEFSAII (Michael W. Deem and Ramdas Pophale) SiO2 
 PCOD9178639
Probable space group: C 2/M
;
_chemical_formula_sum "Si O2"
_cell_formula_units_Z 56
_cell_length_a 19.219915
_cell_length_b 8.672036
_cell_length_c 17.341493
_cell_angle_alpha 90.000000
_cell_angle_beta 72.904962
_cell_angle_gamma 90.000000
_cell_volume 2762.704537
_symmetry_space_group_name_H-M "C 2/M"
_symmetry_group_IT_number 12
_symmetry_cell_setting 'monoclinic'
loop_
_space_group_symop_operation_xyz
x,y,z
-x,y,-z
-x,-y,-z
x,-y,z
1/2+x,1/2+y,z
1/2-x,1/2+y,-z
1/2-x,1/2-y,-z
1/2+x,1/2-y,z
loop_
_atom_site_type_symbol
_atom_site_label
_atom_site_fract_x
_atom_site_fract_y
_atom_site_fract_z
Si Si1 0.653724 0.184514 0.102702
Si Si2 0.492656 0.323389 0.585884
Si Si3 0.253732 0.823307 0.367227
Si Si4 0.478474 0.686955 0.756326
Si Si5 0.160900 0.175423 0.526667
Si Si6 0.309782 0.184179 0.083996
Si Si7 0.131851 0.816807 0.781494
O O1 0.584371 0.258521 0.166132
O O2 0.729275 0.242898 0.115094
O O3 0.650052 0.000000 0.109872
O O4 0.658624 0.226682 0.010385
O O5 0.500000 0.244455 0.500000
O O6 0.463789 0.500000 0.583152
O O7 0.460329 0.256853 0.674999
O O8 0.577973 0.334684 0.577597
O O9 0.175243 0.786029 0.431493
O O10 0.301815 0.795402 0.428549
O O11 0.295109 0.724902 0.290168
O O12 0.253247 0.000000 0.341576
O O13 0.479372 0.500000 0.751746
O O14 0.558254 0.736604 0.761530
O O15 0.189741 0.000000 0.528818
O O16 0.359179 0.241928 0.137783
O O17 0.302870 0.000000 0.089408
O O18 0.127157 0.000000 0.790318
#
# Coordination Sequence:
#
# PCOD9178639 Si02
#       7
#     8   8   8   8   8   8   8
#     4  10  22  41  64  89 119 153 190 240 296 352
#     4   9  17  32  54  78 107 148 195 237 282 339
#     4  10  19  30  51  78 105 145 190 237 290 339
#     4  10  21  37  59  86 118 159 200 242 293 353
#     4   9  17  32  50  73 105 142 190 238 285 340
#     4  10  22  41  64  89 117 152 195 238 290 358
#     4  11  22  37  58  87 123 157 197 246 296 348
#
# _framework density 20.269992999999999
#
# number of rings (size 3 to 8) (size 9 to 14) (size 15 to 20)
#    0.000    2.143    1.429    1.714    0.000    5.143 
#    0.000    5.714    0.000    1.714    0.000    0.000 
#    0.000    0.000    0.000    0.000    0.000    0.000 
#
# Total GULP energy -156033.417640 kJ/mol
# GULP energy per Si atom -5572.622059 kJ/mol
# Density = 2.022386 g / cm^3
# Si number density = 20.269993 Si / 1000 Ang^3
#
#
#
# Elastic Constant Matrix: (Units=GPa)
#
#
# Indices 1 2 3 4 5 6 
#
# 1 30.8291 7.8157 45.8146 0.0000 -2.1633 0.0000
# 2 7.8157 18.4635 19.5530 0.0000 0.2004 0.0000
# 3 45.8146 19.5530 128.6508 0.0000 1.7914 0.0000
# 4 0.0000 0.0000 0.0000 30.2494 0.0000 0.0084
# 5 -2.1633 0.2004 1.7914 0.0000 37.0468 0.0000
# 6 0.0000 0.0000 0.0000 0.0084 0.0000 24.6008
#
#
#
# Elastic Compliance Matrix: (Units=1/GPa)
#
#
# Indices 1 2 3 4 5 6 
#
# 1 0.070148 -0.003836 -0.024472 0.000000 0.005300 0.000000
# 2 -0.003836 0.064761 -0.008474 0.000000 -0.000165 0.000000
# 3 -0.024472 -0.008474 0.017807 0.000000 -0.002244 0.000000
# 4 0.000000 0.000000 0.000000 0.033059 0.000000 -0.000011
# 5 0.005300 -0.000165 -0.002244 0.000000 0.027412 0.000000
# 6 0.000000 0.000000 0.000000 -0.000011 0.000000 0.040649
#
#
# Mechanical properties :
#
#
# Convention : Reuss Voigt Hill
#
# Bulk Modulus (GPa) = 12.63391 36.03445 24.33418
# Shear Modulus (GPa) = 14.13293 25.36340 19.74817
#
# Velocity S-wave (km/s) = 2.64338 3.54118 3.12469
# Velocity P-wave (km/s) = 3.94499 5.87671 5.00493
#
# Compressibility (1/GPa) = 0.07915207
#
# Stress axis : x y z
#
# Youngs Moduli (GPa) = 14.25553 15.44141 56.15779
#
# Poissons Ratio (x) = 0.05923 1.37428
# Poissons Ratio (y) = 0.05468 0.47590
# Poissons Ratio (z) = 0.34886 0.13086
#
# Static dielectric constant tensor:
#      x y z
#    x 1.768910 0.000000 0.003180 
#    y 0.000000 1.701860 0.000000 
#    z 0.003180 0.000000 1.771590 
# 
# From -- ./inp_files/237398.got.cif
#   From: 2010.05.17/outbox.cif.g08.bks.cpg/sg12_119_cif.got.tgz:237398.got - 2010.06.03 13:09:07.
