data_PCOD9178887
_publ_section_title
;
Structure prediction by ZEFSAII (Michael W. Deem and Ramdas Pophale) SiO2 
 PCOD9178887
Probable space group: C 2/M
;
_chemical_formula_sum "Si O2"
_cell_formula_units_Z 56
_cell_length_a 16.187292
_cell_length_b 7.287719
_cell_length_c 17.550875
_cell_angle_alpha 90.000000
_cell_angle_beta 78.834203
_cell_angle_gamma 90.000000
_cell_volume 2031.257585
_symmetry_space_group_name_H-M "C 2/M"
_symmetry_group_IT_number 12
_symmetry_cell_setting 'monoclinic'
loop_
_space_group_symop_operation_xyz
x,y,z
-x,y,-z
-x,-y,-z
x,-y,z
1/2+x,1/2+y,z
1/2-x,1/2+y,-z
1/2-x,1/2-y,-z
1/2+x,1/2-y,z
loop_
_atom_site_type_symbol
_atom_site_label
_atom_site_fract_x
_atom_site_fract_y
_atom_site_fract_z
Si Si1 0.992465 0.276961 0.381900
Si Si2 0.561306 0.782457 0.764935
Si Si3 0.679487 0.217409 0.946702
Si Si4 0.253972 0.280056 0.332630
Si Si5 0.050706 0.275685 0.088357
Si Si6 0.182997 0.709347 0.193046
Si Si7 0.638410 0.221237 0.476883
O O1 0.990041 0.500000 0.380409
O O2 0.996954 0.213871 0.294261
O O3 0.905890 0.211988 0.438139
O O4 0.068705 0.233294 0.424305
O O5 0.653352 0.755563 0.714490
O O6 0.534470 0.715594 0.853375
O O7 0.550160 0.000000 0.772674
O O8 0.724997 0.292992 0.863839
O O9 0.670698 0.000000 0.934813
O O10 0.750000 0.250000 0.000000
O O11 0.592437 0.284265 0.001119
O O12 0.244100 0.500000 0.336351
O O13 0.195225 0.209015 0.274129
O O14 0.224380 0.213144 0.421242
O O15 0.049798 0.500000 0.081260
O O16 0.119345 0.218920 0.140768
O O17 0.155078 0.500000 0.209620
O O18 0.642098 0.000000 0.483048
#
# Coordination Sequence:
#
# PCOD9178887 Si02
#       7
#     8   8   8   8   8   8   8
#     4   8  14  26  48  74  92 114 155 199 230 263
#     4  10  19  31  47  68  95 124 155 190 227 274
#     4   9  16  28  48  73  96 118 150 193 238 278
#     4  10  20  32  46  67  97 128 154 187 234 280
#     4   8  15  29  49  69  88 116 154 192 228 267
#     4   9  17  31  50  69  90 120 159 197 231 270
#     4   8  14  27  48  72  94 117 153 197 233 268
#
# _framework density 27.569130000000001
#
# number of rings (size 3 to 8) (size 9 to 14) (size 15 to 20)
#    0.000    3.143    0.000    3.000    0.000    4.571 
#    0.000    4.286    0.000    6.857    0.000    2.000 
#    0.000    0.000    0.000    0.000    0.000    0.000 
#
# Total GULP energy -156432.383334 kJ/mol
# GULP energy per Si atom -5586.870833 kJ/mol
# Density = 2.750638 g / cm^3
# Si number density = 27.569130 Si / 1000 Ang^3
#
#
#
# Elastic Constant Matrix: (Units=GPa)
#
#
# Indices 1 2 3 4 5 6 
#
# 1 80.5473 -8.8815 34.8608 0.0000 -23.1133 0.0000
# 2 -8.8815 120.6058 0.9629 0.0000 1.2028 0.0000
# 3 34.8608 0.9629 248.4936 0.0000 -23.0254 0.0000
# 4 0.0000 0.0000 0.0000 2.3546 0.0000 -10.2804
# 5 -23.1133 1.2028 -23.0254 0.0000 62.0960 0.0000
# 6 0.0000 0.0000 0.0000 -10.2804 0.0000 4.8080
#
#
#
# Elastic Compliance Matrix: (Units=1/GPa)
#
#
# Indices 1 2 3 4 5 6 
#
# 1 0.014609 0.001041 -0.001607 0.000000 0.004822 0.000000
# 2 0.001041 0.008368 -0.000163 0.000000 0.000165 0.000000
# 3 -0.001607 -0.000163 0.004344 0.000000 0.001016 0.000000
# 4 0.000000 0.000000 0.000000 -0.050951 0.000000 -0.108942
# 5 0.004822 0.000165 0.001016 0.000000 0.018272 0.000000
# 6 0.000000 0.000000 0.000000 -0.108942 0.000000 -0.024952
#
#
# Mechanical properties :
#
#
# Convention : Reuss Voigt Hill
#
# Bulk Modulus (GPa) = 38.66616 55.94791 47.30704
# Shear Modulus (GPa) = -247.16136 42.03201 -102.56468
#
# Velocity S-wave (km/s) = -9.47872 3.90885 -6.10602
# Velocity P-wave (km/s) = 10.28296 6.38043 5.70216
#
# Compressibility (1/GPa) = 0.02586241
#
# Stress axis : x y z
#
# Youngs Moduli (GPa) = 68.45190 119.50625 230.17993
#
# Poissons Ratio (x) = -0.12435 0.36983
# Poissons Ratio (y) = -0.07123 0.03755
# Poissons Ratio (z) = 0.10998 0.01950
#
# Static dielectric constant tensor:
#      x y z
#    x 2.254210 0.000000 -0.041040 
#    y 0.000000 2.191280 0.000000 
#    z -0.041040 0.000000 2.133220 
# 
# From -- ./inp_files/313763.got.cif
#   From: 2010.05.17/outbox.cif.g08.bks.cpg/sg12_157_cif.got.tgz:313763.got - 2010.06.03 13:09:07.
