data_PCOD9178704
_publ_section_title
;
Structure prediction by ZEFSAII (Michael W. Deem and Ramdas Pophale) SiO2 
 PCOD9178704
Probable space group: C 2/M
;
_chemical_formula_sum "Si O2"
_cell_formula_units_Z 56
_cell_length_a 20.021995
_cell_length_b 25.740467
_cell_length_c 9.090789
_cell_angle_alpha 90.000000
_cell_angle_beta 34.823765
_cell_angle_gamma 90.000000
_cell_volume 2675.485564
_symmetry_space_group_name_H-M "C 2/M"
_symmetry_group_IT_number 12
_symmetry_cell_setting 'monoclinic'
loop_
_space_group_symop_operation_xyz
x,y,z
-x,y,-z
-x,-y,-z
x,-y,z
1/2+x,1/2+y,z
1/2-x,1/2+y,-z
1/2-x,1/2-y,-z
1/2+x,1/2-y,z
loop_
_atom_site_type_symbol
_atom_site_label
_atom_site_fract_x
_atom_site_fract_y
_atom_site_fract_z
Si Si1 0.875755 0.890098 0.673729
Si Si2 0.856230 0.634176 0.482092
Si Si3 0.057069 0.440460 0.090987
Si Si4 0.665460 0.940245 0.203292
Si Si5 0.742655 0.868962 0.639309
Si Si6 0.545172 0.215420 0.079641
Si Si7 0.876263 0.223277 0.803501
O O1 0.855710 0.873351 0.539342
O O2 0.859010 0.836272 0.792565
O O3 0.000000 0.909944 0.500000
O O4 0.782288 0.931529 0.897261
O O5 0.827729 0.603555 0.682682
O O6 0.756260 0.640234 0.538209
O O7 0.951113 0.595734 0.236687
O O8 0.934318 0.686295 0.357761
O O9 0.033314 0.500000 0.107631
O O10 0.070991 0.432365 0.243004
O O11 0.174433 0.422050 0.800385
O O12 0.657255 0.000000 0.272426
O O13 0.653533 0.825080 0.865736
O O14 0.593077 0.263373 0.084353
O O15 0.500000 0.228890 0.000000
O O16 0.000000 0.239536 0.500000
O O17 0.750000 0.250000 0.000000
#
# Coordination Sequence:
#
# PCOD9178704 Si02
#       7
#     8   8   8   8   8   8   8
#     4  10  22  41  60  80 112 155 209 253 295 364
#     4  10  19  30  54  86 118 151 183 242 305 363
#     4   9  17  29  48  78 116 149 182 229 291 360
#     4  10  21  36  57  86 117 153 200 249 300 359
#     4   9  18  34  53  79 115 152 192 237 295 361
#     4   9  19  36  57  88 125 159 192 243 315 374
#     4  11  23  39  65  93 121 165 213 258 303 368
#
# _framework density 20.930782000000001
#
# number of rings (size 3 to 8) (size 9 to 14) (size 15 to 20)
#    0.000    2.286    1.429    2.143    2.000    3.143 
#    0.000    4.286    0.000    0.857    0.000    0.000 
#    0.000    0.000    0.000    0.000    0.000    0.000 
#
# Total GULP energy -155958.462868 kJ/mol
# GULP energy per Si atom -5569.945102 kJ/mol
# Density = 2.088314 g / cm^3
# Si number density = 20.930782 Si / 1000 Ang^3
#
#
#
# Elastic Constant Matrix: (Units=GPa)
#
#
# Indices 1 2 3 4 5 6 
#
# 1 159.2704 23.6063 24.7976 0.0000 2.5080 0.0000
# 2 23.6063 40.1880 -5.3100 0.0000 9.1842 0.0000
# 3 24.7976 -5.3100 45.4678 0.0000 -4.4847 0.0000
# 4 0.0000 0.0000 0.0000 7.6166 0.0000 1.2175
# 5 2.5080 9.1842 -4.4847 0.0000 30.1721 0.0000
# 6 0.0000 0.0000 0.0000 1.2175 0.0000 14.9685
#
#
#
# Elastic Compliance Matrix: (Units=1/GPa)
#
#
# Indices 1 2 3 4 5 6 
#
# 1 0.007814 -0.005286 -0.004856 0.000000 0.000238 0.000000
# 2 -0.005286 0.030570 0.005662 0.000000 -0.008024 0.000000
# 3 -0.004856 0.005662 0.025547 0.000000 0.002478 0.000000
# 4 0.000000 0.000000 0.000000 0.133022 0.000000 -0.010820
# 5 0.000238 -0.008024 0.002478 0.000000 0.035934 0.000000
# 6 0.000000 0.000000 0.000000 -0.010820 0.000000 0.067687
#
#
# Mechanical properties :
#
#
# Convention : Reuss Voigt Hill
#
# Bulk Modulus (GPa) = 18.19126 36.79044 27.49085
# Shear Modulus (GPa) = 15.25043 24.00692 19.62868
#
# Velocity S-wave (km/s) = 2.70221 3.39036 3.06566
# Velocity P-wave (km/s) = 4.29487 5.73946 5.06889
#
# Compressibility (1/GPa) = 0.05497146
#
# Stress axis : x y z
#
# Youngs Moduli (GPa) = 127.96910 32.71182 39.14283
#
# Poissons Ratio (x) = 0.17292 0.19007
# Poissons Ratio (y) = 0.67645 -0.22161
# Poissons Ratio (z) = 0.62139 -0.18520
#
# Static dielectric constant tensor:
#      x y z
#    x 1.831820 0.000000 -0.008600 
#    y 0.000000 1.739060 0.000000 
#    z -0.008600 0.000000 1.840280 
# 
# From -- ./inp_files/80404.got.cif
#   From: 2010.05.17/outbox.cif.g08.bks.cpg/sg12_41_cif.got.tgz:80404.got - 2010.06.03 13:09:07.
