data_PCOD9178664
_publ_section_title
;
Structure prediction by ZEFSAII (Michael W. Deem and Ramdas Pophale) SiO2 
 PCOD9178664
Probable space group: C 2/M
;
_chemical_formula_sum "Si O2"
_cell_formula_units_Z 48
_cell_length_a 13.361752
_cell_length_b 19.422740
_cell_length_c 19.120926
_cell_angle_alpha 90.000000
_cell_angle_beta 151.354905
_cell_angle_gamma 90.000000
_cell_volume 2378.839876
_symmetry_space_group_name_H-M "C 2/M"
_symmetry_group_IT_number 12
_symmetry_cell_setting 'monoclinic'
loop_
_space_group_symop_operation_xyz
x,y,z
-x,y,-z
-x,-y,-z
x,-y,z
1/2+x,1/2+y,z
1/2-x,1/2+y,-z
1/2-x,1/2-y,-z
1/2+x,1/2-y,z
loop_
_atom_site_type_symbol
_atom_site_label
_atom_site_fract_x
_atom_site_fract_y
_atom_site_fract_z
Si Si1 0.112975 0.273781 0.736716
Si Si2 0.729736 0.921218 0.168347
Si Si3 0.533177 0.420733 0.219363
Si Si4 0.709351 0.815277 0.263132
Si Si5 0.757277 0.702455 0.409842
Si Si6 0.271235 0.826265 0.048815
O O1 0.295330 0.239997 0.802785
O O2 0.207033 0.319562 0.855081
O O3 0.947326 0.303693 0.579961
O O4 0.960846 0.219924 0.684363
O O5 0.886436 0.921006 0.198840
O O6 0.820174 0.877056 0.288961
O O7 0.698922 0.000000 0.172011
O O8 0.500000 0.895981 0.000000
O O9 0.581614 0.500000 0.232331
O O10 0.725148 0.369581 0.351726
O O11 0.401559 0.379534 0.080869
O O12 0.782161 0.768820 0.373693
O O13 0.494479 0.848579 0.155519
O O14 0.250000 0.750000 0.000000
#
# Coordination Sequence:
#
# PCOD9178664 Si02
#       6
#     8   8   8   8   8   8
#     4  10  21  35  56  82 116 148 203 241 280 338
#     4  10  19  30  51  84 122 155 181 228 298 362
#     4  11  21  37  58  86 123 155 191 240 299 353
#     4  11  19  32  60  83 115 145 197 243 286 342
#     4  10  21  37  55  85 112 157 199 238 285 339
#     4  11  20  35  55  90 115 147 192 242 295 342
#
# _framework density 20.177902
#
# number of rings (size 3 to 8) (size 9 to 14) (size 15 to 20)
#    0.000    1.500    6.667    0.500    0.000    0.000 
#    0.000    0.833    0.000   12.000    0.000    0.000 
#    0.000    0.000    0.000    0.000    0.000    0.000 
#
# Total GULP energy -133701.912548 kJ/mol
# GULP energy per Si atom -5570.913023 kJ/mol
# Density = 2.013198 g / cm^3
# Si number density = 20.177902 Si / 1000 Ang^3
#
#
#
# Elastic Constant Matrix: (Units=GPa)
#
#
# Indices 1 2 3 4 5 6 
#
# 1 50.1266 -2.3274 15.8372 0.0039 -18.3588 0.0017
# 2 -2.3274 132.2531 77.3578 0.0022 -19.4064 0.0015
# 3 15.8372 77.3578 113.6840 -0.0032 -32.5732 0.0002
# 4 0.0039 0.0022 -0.0032 9.6627 0.0002 -8.6735
# 5 -18.3588 -19.4064 -32.5732 0.0002 28.0431 0.0012
# 6 0.0017 0.0015 0.0002 -8.6735 0.0012 23.6765
#
#
#
# Elastic Compliance Matrix: (Units=1/GPa)
#
#
# Indices 1 2 3 4 5 6 
#
# 1 0.027651 0.003863 -0.000792 -0.000023 0.019856 -0.000012
# 2 0.003863 0.013165 -0.009235 -0.000013 0.000913 -0.000006
# 3 -0.000792 -0.009235 0.019801 0.000013 0.016091 0.000004
# 4 -0.000023 -0.000013 0.000013 0.154194 -0.000013 0.056487
# 5 0.019856 0.000913 0.016091 -0.000013 0.067980 -0.000010
# 6 -0.000012 -0.000006 0.000004 0.056487 -0.000010 0.062929
#
#
# Mechanical properties :
#
#
# Convention : Reuss Voigt Hill
#
# Bulk Modulus (GPa) = 20.70792 53.08875 36.89834
# Shear Modulus (GPa) = 13.36385 25.95621 19.66003
#
# Velocity S-wave (km/s) = 2.57631 3.59049 3.12482
# Velocity P-wave (km/s) = 4.37433 6.59972 5.59871
#
# Compressibility (1/GPa) = 0.04829069
#
# Stress axis : x y z
#
# Youngs Moduli (GPa) = 36.16471 75.95974 50.50278
#
# Poissons Ratio (x) = -0.29345 0.03998
# Poissons Ratio (y) = -0.13971 0.46639
# Poissons Ratio (z) = 0.02863 0.70148
#
# Static dielectric constant tensor:
#      x y z
#    x 1.760760 0.000000 0.020410 
#    y 0.000000 1.745150 0.000000 
#    z 0.020410 0.000000 1.768600 
# 
# From -- ./inp_files/208009.got.cif
#   From: 2010.05.17/outbox.cif.g08.bks.cpg/sg12_105_cif.got.tgz:208009.got - 2010.06.03 13:09:07.
