data_PCOD9178019
_publ_section_title
;
Structure prediction by ZEFSAII (Michael W. Deem and Ramdas Pophale) SiO2 
 PCOD9178019
Probable space group: C 2/M
;
_chemical_formula_sum "Si O2"
_cell_formula_units_Z 56
_cell_length_a 13.773912
_cell_length_b 9.188013
_cell_length_c 20.535562
_cell_angle_alpha 90.000000
_cell_angle_beta 112.083944
_cell_angle_gamma 90.000000
_cell_volume 2408.206588
_symmetry_space_group_name_H-M "C 2/M"
_symmetry_group_IT_number 12
_symmetry_cell_setting 'monoclinic'
loop_
_space_group_symop_operation_xyz
x,y,z
-x,y,-z
-x,-y,-z
x,-y,z
1/2+x,1/2+y,z
1/2-x,1/2+y,-z
1/2-x,1/2-y,-z
1/2+x,1/2-y,z
loop_
_atom_site_type_symbol
_atom_site_label
_atom_site_fract_x
_atom_site_fract_y
_atom_site_fract_z
Si Si1 0.057756 0.836580 0.578617
Si Si2 0.508443 0.664675 0.854507
Si Si3 0.821305 0.823506 0.268900
Si Si4 0.281651 0.332593 0.872155
Si Si5 0.284107 0.161736 0.570694
Si Si6 0.871728 0.826763 0.704467
Si Si7 0.611754 0.164813 0.989394
O O1 0.083272 0.778359 0.658179
O O2 0.176366 0.851928 0.583061
O O3 0.000000 0.767380 0.500000
O O4 0.010474 0.000000 0.574212
O O5 0.549243 0.500000 0.870872
O O6 0.394731 0.667379 0.862614
O O7 0.477426 0.693556 0.772066
O O8 0.581715 0.774785 0.911121
O O9 0.799929 0.760130 0.191424
O O10 0.718364 0.759120 0.279147
O O11 0.821331 0.000000 0.266909
O O12 0.248212 0.500000 0.867528
O O13 0.311375 0.264996 0.949200
O O14 0.250000 0.250000 0.500000
O O15 0.364420 0.257794 0.631822
O O16 0.324496 0.000000 0.566968
O O17 0.850335 0.000000 0.697748
O O18 0.650270 0.000000 0.997424
O O19 0.500000 0.164801 0.000000
#
# Coordination Sequence:
#
# PCOD9178019 Si02
#       7
#     8   8   8   8   8   8   8
#     4   8  15  28  45  64  84 109 142 177 213 253
#     4   8  14  22  31  44  64  93 125 158 197 239
#     4   9  15  23  37  55  74  98 131 169 206 246
#     4   9  15  22  31  43  65  96 128 162 199 242
#     4  10  19  30  46  65  86 112 142 178 215 254
#     4   9  16  26  39  54  75 102 133 167 203 248
#     4   9  15  20  28  43  63  89 124 164 199 235
#
# _framework density 23.253820000000001
#
# number of rings (size 3 to 8) (size 9 to 14) (size 15 to 20)
#    0.000    3.143    0.000    3.857    0.000    5.714 
#    0.000    0.000    0.000   15.429    0.000    0.000 
#    0.000    0.000    0.000    1.286    0.000   15.429 
#
# Total GULP energy -156227.328324 kJ/mol
# GULP energy per Si atom -5579.547440 kJ/mol
# Density = 2.320089 g / cm^3
# Si number density = 23.253820 Si / 1000 Ang^3
#
#
#
# Elastic Constant Matrix: (Units=GPa)
#
#
# Indices 1 2 3 4 5 6 
#
# 1 65.0676 16.7438 5.8078 0.0000 17.3642 0.0000
# 2 16.7438 132.9865 110.1391 0.0000 13.3096 0.0000
# 3 5.8078 110.1391 234.2647 0.0000 5.7855 0.0000
# 4 0.0000 0.0000 0.0000 42.8786 0.0000 1.0697
# 5 17.3642 13.3096 5.7855 0.0000 30.7898 0.0000
# 6 0.0000 0.0000 0.0000 1.0697 0.0000 3.3391
#
#
#
# Elastic Compliance Matrix: (Units=1/GPa)
#
#
# Indices 1 2 3 4 5 6 
#
# 1 0.018379 -0.001911 0.000682 0.000000 -0.009667 0.000000
# 2 -0.001911 0.013094 -0.006024 0.000000 -0.003451 0.000000
# 3 0.000682 -0.006024 0.007062 0.000000 0.000893 0.000000
# 4 0.000000 0.000000 0.000000 0.023510 0.000000 -0.007532
# 5 -0.009667 -0.003451 0.000893 0.000000 0.039254 0.000000
# 6 0.000000 0.000000 0.000000 -0.007532 0.000000 0.301893
#
#
# Mechanical properties :
#
#
# Convention : Reuss Voigt Hill
#
# Bulk Modulus (GPa) = 41.61606 77.52225 59.56915
# Shear Modulus (GPa) = 11.74514 35.37672 23.56093
#
# Velocity S-wave (km/s) = 2.24985 3.90465 3.18654
# Velocity P-wave (km/s) = 4.96834 7.33064 6.26189
#
# Compressibility (1/GPa) = 0.02402919
#
# Stress axis : x y z
#
# Youngs Moduli (GPa) = 54.40879 76.36905 141.60793
#
# Poissons Ratio (x) = 0.14594 -0.09651
# Poissons Ratio (y) = 0.10398 0.85300
# Poissons Ratio (z) = -0.03708 0.46002
#
# Static dielectric constant tensor:
#      x y z
#    x 1.905680 0.000000 -0.002800 
#    y 0.000000 1.820920 0.000000 
#    z -0.002800 0.000000 1.839050 
# 
# From -- ./inp_files/348313.got.cif
#   From: 2010.05.17/outbox.cif.g08.bks.cpg/sg12_175_cif.got.tgz:348313.got - 2010.06.03 13:09:07.
