data_PCOD9178564
_publ_section_title
;
Structure prediction by ZEFSAII (Michael W. Deem and Ramdas Pophale) SiO2 
 PCOD9178564
Probable space group: C 2/M
;
_chemical_formula_sum "Si O2"
_cell_formula_units_Z 64
_cell_length_a 20.334958
_cell_length_b 13.686068
_cell_length_c 12.268735
_cell_angle_alpha 90.000000
_cell_angle_beta 72.750162
_cell_angle_gamma 90.000000
_cell_volume 3260.878234
_symmetry_space_group_name_H-M "C 2/M"
_symmetry_group_IT_number 12
_symmetry_cell_setting 'monoclinic'
loop_
_space_group_symop_operation_xyz
x,y,z
-x,y,-z
-x,-y,-z
x,-y,z
1/2+x,1/2+y,z
1/2-x,1/2+y,-z
1/2-x,1/2-y,-z
1/2+x,1/2-y,z
loop_
_atom_site_type_symbol
_atom_site_label
_atom_site_fract_x
_atom_site_fract_y
_atom_site_fract_z
Si Si1 0.280124 0.614868 0.912807
Si Si2 0.423003 0.386545 0.174459
Si Si3 0.351050 0.316597 0.424318
Si Si4 0.441227 0.615844 0.784409
Si Si5 0.323567 0.892120 0.680858
Si Si6 0.795040 0.793552 0.139110
Si Si7 0.701351 0.892127 0.559006
Si Si8 0.064098 0.748269 0.409117
O O1 0.267821 0.500000 0.904954
O O2 0.360663 0.635273 0.846504
O O3 0.229325 0.682536 0.866850
O O4 0.272345 0.648627 0.041366
O O5 0.417120 0.500000 0.141155
O O6 0.390982 0.376108 0.312204
O O7 0.503262 0.358983 0.148838
O O8 0.374059 0.318772 0.125111
O O9 0.332098 0.208990 0.382416
O O10 0.281650 0.369269 0.499014
O O11 0.393298 0.298127 0.514294
O O12 0.448350 0.500000 0.765491
O O13 0.460571 0.672313 0.665223
O O14 0.252332 0.839833 0.743701
O O15 0.328870 0.899214 0.548124
O O16 0.387527 0.825514 0.680867
O O17 0.324529 0.000000 0.728230
O O18 0.692418 0.000000 0.615705
O O19 0.000000 0.697710 0.500000
#
# Coordination Sequence:
#
# PCOD9178564 Si02
#       8
#     8   8   8   8   8   8   8   8
#     4  10  22  40  62  90 117 145 185 235 292 344
#     4  11  21  35  57  83 113 150 192 233 278 339
#     4  10  19  30  50  74 104 142 185 227 269 326
#     4  10  22  38  55  81 119 153 189 233 283 342
#     4  10  19  33  55  79 106 143 191 239 283 331
#     4  11  21  37  64  90 112 147 185 239 291 336
#     4   9  18  31  47  72 105 139 179 231 280 326
#     4  11  21  35  51  75 113 153 193 230 275 337
#
# _framework density 19.626614
#
# number of rings (size 3 to 8) (size 9 to 14) (size 15 to 20)
#    0.000    1.750    3.750    1.500    0.000    2.000 
#    0.000    3.750    0.000    0.750    0.000    1.750 
#    0.000    0.000    0.000    0.000    0.000    0.000 
#
# Total GULP energy -178468.437509 kJ/mol
# GULP energy per Si atom -5577.138672 kJ/mol
# Density = 1.958194 g / cm^3
# Si number density = 19.626614 Si / 1000 Ang^3
#
#
#
# Elastic Constant Matrix: (Units=GPa)
#
#
# Indices 1 2 3 4 5 6 
#
# 1 111.0601 54.4778 -0.4231 0.0000 10.0086 0.0000
# 2 54.4778 106.2616 14.6907 0.0000 1.9472 0.0000
# 3 -0.4231 14.6907 18.5208 0.0000 -1.3329 0.0000
# 4 0.0000 0.0000 0.0000 17.0909 0.0000 2.2626
# 5 10.0086 1.9472 -1.3329 0.0000 24.0509 0.0000
# 6 0.0000 0.0000 0.0000 2.2626 0.0000 25.0755
#
#
#
# Elastic Compliance Matrix: (Units=1/GPa)
#
#
# Indices 1 2 3 4 5 6 
#
# 1 0.013081 -0.007435 0.005871 0.000000 -0.004516 0.000000
# 2 -0.007435 0.014838 -0.011850 0.000000 0.001236 0.000000
# 3 0.005871 -0.011850 0.063674 0.000000 0.002045 0.000000
# 4 0.000000 0.000000 0.000000 0.059218 0.000000 -0.005343
# 5 -0.004516 0.001236 0.002045 0.000000 0.043471 0.000000
# 6 0.000000 0.000000 0.000000 -0.005343 0.000000 0.040362
#
#
# Mechanical properties :
#
#
# Convention : Reuss Voigt Hill
#
# Bulk Modulus (GPa) = 15.44057 41.48147 28.46102
# Shear Modulus (GPa) = 17.66406 24.38326 21.02366
#
# Velocity S-wave (km/s) = 3.00326 3.52853 3.27644
# Velocity P-wave (km/s) = 4.46210 6.14670 5.37086
#
# Compressibility (1/GPa) = 0.06476446
#
# Stress axis : x y z
#
# Youngs Moduli (GPa) = 76.44934 67.39372 15.70493
#
# Poissons Ratio (x) = 0.50107 -0.09221
# Poissons Ratio (y) = 0.56840 0.18611
# Poissons Ratio (z) = -0.44885 0.79865
#
# Static dielectric constant tensor:
#      x y z
#    x 1.731780 0.000000 -0.000710 
#    y 0.000000 1.722280 0.000000 
#    z -0.000710 0.000000 1.714230 
# 
# From -- ./inp_files/167229.got.cif
#   From: 2010.05.17/outbox.cif.g08.bks.cpg/sg12_84_cif.got.tgz:167229.got - 2010.06.03 13:09:07.
