data_PCOD9178272
_publ_section_title
;
Structure prediction by ZEFSAII (Michael W. Deem and Ramdas Pophale) SiO2 
 PCOD9178272
Probable space group: C 2/M
;
_chemical_formula_sum "Si O2"
_cell_formula_units_Z 56
_cell_length_a 20.100720
_cell_length_b 8.126169
_cell_length_c 25.388826
_cell_angle_alpha 90.000000
_cell_angle_beta 133.559243
_cell_angle_gamma 90.000000
_cell_volume 3005.216138
_symmetry_space_group_name_H-M "C 2/M"
_symmetry_group_IT_number 12
_symmetry_cell_setting 'monoclinic'
loop_
_space_group_symop_operation_xyz
x,y,z
-x,y,-z
-x,-y,-z
x,-y,z
1/2+x,1/2+y,z
1/2-x,1/2+y,-z
1/2-x,1/2-y,-z
1/2+x,1/2-y,z
loop_
_atom_site_type_symbol
_atom_site_label
_atom_site_fract_x
_atom_site_fract_y
_atom_site_fract_z
Si Si1 0.948523 0.303456 0.806659
Si Si2 0.562836 0.201185 0.082191
Si Si3 0.273712 0.701085 0.207260
Si Si4 0.443010 0.308222 0.233827
Si Si5 0.104990 0.306710 0.394155
Si Si6 0.795663 0.695419 0.449484
Si Si7 0.239022 0.198927 0.680866
O O1 0.940641 0.500000 0.805402
O O2 0.970143 0.245197 0.877641
O O3 0.845869 0.244488 0.735478
O O4 0.020641 0.263883 0.800935
O O5 0.669769 0.249614 0.136467
O O6 0.560917 0.000000 0.080249
O O7 0.500000 0.259567 0.000000
O O8 0.275454 0.500000 0.207945
O O9 0.350286 0.762416 0.208701
O O10 0.293637 0.749560 0.278740
O O11 0.427771 0.500000 0.216172
O O12 0.523837 0.285996 0.320637
O O13 0.082509 0.500000 0.381075
O O14 0.127676 0.252818 0.466219
O O15 0.200388 0.280613 0.414736
O O16 0.783060 0.500000 0.449457
O O17 0.813642 0.734440 0.398553
O O18 0.237278 0.000000 0.677507
#
# Coordination Sequence:
#
# PCOD9178272 Si02
#       7
#     8   8   8   8   8   8   8
#     4   9  17  29  49  75  98 124 163 205 242 286
#     4   8  14  29  54  78  98 126 166 204 235 282
#     4   8  17  31  47  71 100 131 166 202 242 287
#     4  11  20  31  48  71 101 132 165 204 244 292
#     4  10  20  32  46  67  98 131 163 204 248 292
#     4  10  19  30  47  72  96 122 164 211 251 289
#     4   9  16  30  50  68  93 129 167 207 243 284
#
# _framework density 18.634266
#
# number of rings (size 3 to 8) (size 9 to 14) (size 15 to 20)
#    0.000    2.714    1.429    3.000    0.000    1.714 
#    0.000    2.857    0.000    6.429    0.000    0.000 
#    0.000    0.000    0.000    0.000    0.000    0.000 
#
# Total GULP energy -156081.935242 kJ/mol
# GULP energy per Si atom -5574.354830 kJ/mol
# Density = 1.859185 g / cm^3
# Si number density = 18.634266 Si / 1000 Ang^3
#
#
#
# Elastic Constant Matrix: (Units=GPa)
#
#
# Indices 1 2 3 4 5 6 
#
# 1 123.5666 -0.0872 56.5932 0.0000 -20.2210 0.0000
# 2 -0.0872 6.1796 0.2632 0.0000 -4.2915 0.0000
# 3 56.5932 0.2632 125.3476 0.0000 -26.2789 0.0000
# 4 0.0000 0.0000 0.0000 11.0858 0.0000 -4.4634
# 5 -20.2210 -4.2915 -26.2789 0.0000 19.9969 0.0000
# 6 0.0000 0.0000 0.0000 -4.4634 0.0000 18.7978
#
#
#
# Elastic Compliance Matrix: (Units=1/GPa)
#
#
# Indices 1 2 3 4 5 6 
#
# 1 0.010896 0.005844 -0.003256 0.000000 0.007994 0.000000
# 2 0.005844 0.205549 0.010237 0.000000 0.063475 0.000000
# 3 -0.003256 0.010237 0.012694 0.000000 0.015586 0.000000
# 4 0.000000 0.000000 0.000000 0.099741 0.000000 0.023682
# 5 0.007994 0.063475 0.015586 0.000000 0.092196 0.000000
# 6 0.000000 0.000000 0.000000 0.023682 0.000000 0.058821
#
#
# Mechanical properties :
#
#
# Convention : Reuss Voigt Hill
#
# Bulk Modulus (GPa) = 3.92481 40.95914 22.44197
# Shear Modulus (GPa) = 9.27341 23.19775 16.23558
#
# Velocity S-wave (km/s) = 2.23324 3.53214 2.95494
# Velocity P-wave (km/s) = 2.95983 6.21795 4.86947
#
# Compressibility (1/GPa) = 0.25478933
#
# Stress axis : x y z
#
# Youngs Moduli (GPa) = 91.77448 4.86502 78.77736
#
# Poissons Ratio (x) = -0.02843 0.25650
# Poissons Ratio (y) = -0.53629 -0.80648
# Poissons Ratio (z) = 0.29882 -0.04981
#
# Static dielectric constant tensor:
#      x y z
#    x 1.652710 0.000000 -0.017890 
#    y 0.000000 1.667520 0.000000 
#    z -0.017890 0.000000 1.645870 
# 
# From -- ./inp_files/342023.got.cif
#   From: 2010.05.17/outbox.cif.g08.bks.cpg/sg12_172_cif.got.tgz:342023.got - 2010.06.03 13:09:07.
