data_PCOD9178911
_publ_section_title
;
Structure prediction by ZEFSAII (Michael W. Deem and Ramdas Pophale) SiO2 
 PCOD9178911
Probable space group: C 2/M
;
_chemical_formula_sum "Si O2"
_cell_formula_units_Z 64
_cell_length_a 24.427499
_cell_length_b 7.530099
_cell_length_c 16.887412
_cell_angle_alpha 90.000000
_cell_angle_beta 73.664035
_cell_angle_gamma 90.000000
_cell_volume 2980.891164
_symmetry_space_group_name_H-M "C 2/M"
_symmetry_group_IT_number 12
_symmetry_cell_setting 'monoclinic'
loop_
_space_group_symop_operation_xyz
x,y,z
-x,y,-z
-x,-y,-z
x,-y,z
1/2+x,1/2+y,z
1/2-x,1/2+y,-z
1/2-x,1/2-y,-z
1/2+x,1/2-y,z
loop_
_atom_site_type_symbol
_atom_site_label
_atom_site_fract_x
_atom_site_fract_y
_atom_site_fract_z
Si Si1 0.879850 0.791988 0.860340
Si Si2 0.504508 0.294797 0.251209
Si Si3 0.227911 0.216103 0.198932
Si Si4 0.694768 0.789997 0.968311
Si Si5 0.643178 0.215300 0.475627
Si Si6 0.457618 0.214575 0.588831
Si Si7 0.257582 0.707371 0.364438
Si Si8 0.617126 0.708867 0.662539
O O1 0.942243 0.714262 0.818287
O O2 0.829228 0.720886 0.823811
O O3 0.883575 0.000000 0.838667
O O4 0.858020 0.780016 0.959448
O O5 0.498524 0.500000 0.228108
O O6 0.524370 0.291137 0.334730
O O7 0.440823 0.214767 0.276441
O O8 0.283815 0.274785 0.125845
O O9 0.233275 0.279454 0.285783
O O10 0.227273 0.000000 0.198404
O O11 0.687019 0.000000 0.966272
O O12 0.750000 0.750000 0.000000
O O13 0.604799 0.268874 0.416409
O O14 0.707774 0.282311 0.440562
O O15 0.614460 0.274897 0.568570
O O16 0.643695 0.000000 0.476476
O O17 0.500000 0.262642 0.500000
O O18 0.459341 0.000000 0.595948
O O19 0.263528 0.500000 0.383239
O O20 0.320917 0.786972 0.341417
O O21 0.618077 0.500000 0.682647
#
# Coordination Sequence:
#
# PCOD9178911 Si02
#       8
#     8   8   8   8   8   8   8   8
#     4   9  18  32  50  76 104 128 158 197 240 291
#     4  10  20  33  50  71  98 130 164 201 243 290
#     4   9  18  32  50  74 101 124 153 193 237 286
#     4   9  17  30  50  77 106 131 156 192 238 291
#     4  10  20  34  50  69  94 125 162 205 248 289
#     4  10  19  31  47  69  97 125 158 200 244 294
#     4  10  21  34  49  70  95 125 165 206 242 284
#     4  10  21  35  49  68  94 127 167 207 242 283
#
# _framework density 21.470091
#
# number of rings (size 3 to 8) (size 9 to 14) (size 15 to 20)
#    0.000    2.375    1.250    2.250    0.000    4.750 
#    0.000    0.000    0.000    0.750    0.000    5.250 
#    0.000    0.000    0.000    0.000    0.000    0.000 
#
# Total GULP energy -178525.137555 kJ/mol
# GULP energy per Si atom -5578.910549 kJ/mol
# Density = 2.142122 g / cm^3
# Si number density = 21.470091 Si / 1000 Ang^3
#
#
#
# Elastic Constant Matrix: (Units=GPa)
#
#
# Indices 1 2 3 4 5 6 
#
# 1 140.4177 11.3345 26.4819 0.0000 -47.4537 0.0000
# 2 11.3345 54.6692 -7.2396 0.0000 -4.3726 0.0000
# 3 26.4819 -7.2396 55.6708 0.0000 -38.4459 0.0000
# 4 0.0000 0.0000 0.0000 8.9740 0.0000 3.3091
# 5 -47.4537 -4.3726 -38.4459 0.0000 43.7958 0.0000
# 6 0.0000 0.0000 0.0000 3.3091 0.0000 4.2482
#
#
#
# Elastic Compliance Matrix: (Units=1/GPa)
#
#
# Indices 1 2 3 4 5 6 
#
# 1 0.012743 0.000281 0.008964 0.000000 0.021704 0.000000
# 2 0.000281 0.020568 0.010588 0.000000 0.011653 0.000000
# 3 0.008964 0.010588 0.057173 0.000000 0.060959 0.000000
# 4 0.000000 0.000000 0.000000 0.156338 0.000000 -0.121778
# 5 0.021704 0.011653 0.060959 0.000000 0.101026 0.000000
# 6 0.000000 0.000000 0.000000 -0.121778 0.000000 0.330251
#
#
# Mechanical properties :
#
#
# Convention : Reuss Voigt Hill
#
# Bulk Modulus (GPa) = 7.68341 34.65681 21.17011
# Shear Modulus (GPa) = 7.33334 26.08234 16.70784
#
# Velocity S-wave (km/s) = 1.85014 3.48921 2.79263
# Velocity P-wave (km/s) = 2.85490 5.69295 4.50334
#
# Compressibility (1/GPa) = 0.13015053
#
# Stress axis : x y z
#
# Youngs Moduli (GPa) = 78.47205 48.61970 17.49063
#
# Poissons Ratio (x) = -0.01366 -0.15678
# Poissons Ratio (y) = -0.02204 -0.18520
# Poissons Ratio (z) = -0.70339 -0.51481
#
# Static dielectric constant tensor:
#      x y z
#    x 1.838460 0.000000 -0.052240 
#    y 0.000000 1.798180 0.000000 
#    z -0.052240 0.000000 1.760460 
# 
# From -- ./inp_files/287537.got.cif
#   From: 2010.05.17/outbox.cif.g08.bks.cpg/sg12_144_cif.got.tgz:287537.got - 2010.06.03 13:09:07.
