data_PCOD9178327
_publ_section_title
;
Structure prediction by ZEFSAII (Michael W. Deem and Ramdas Pophale) SiO2 
 PCOD9178327
Probable space group: C 2/M
;
_chemical_formula_sum "Si O2"
_cell_formula_units_Z 56
_cell_length_a 22.633495
_cell_length_b 7.493216
_cell_length_c 19.647843
_cell_angle_alpha 90.000000
_cell_angle_beta 134.452186
_cell_angle_gamma 90.000000
_cell_volume 2378.661604
_symmetry_space_group_name_H-M "C 2/M"
_symmetry_group_IT_number 12
_symmetry_cell_setting 'monoclinic'
loop_
_space_group_symop_operation_xyz
x,y,z
-x,y,-z
-x,-y,-z
x,-y,z
1/2+x,1/2+y,z
1/2-x,1/2+y,-z
1/2-x,1/2-y,-z
1/2+x,1/2-y,z
loop_
_atom_site_type_symbol
_atom_site_label
_atom_site_fract_x
_atom_site_fract_y
_atom_site_fract_z
Si Si1 0.485143 0.715263 0.067564
Si Si2 0.490599 0.787723 0.284606
Si Si3 0.818947 0.286861 0.111077
Si Si4 0.620566 0.792897 0.290539
Si Si5 0.244529 0.208289 0.697028
Si Si6 0.068452 0.784922 0.609841
Si Si7 0.190239 0.216005 0.109963
O O1 0.491116 0.500000 0.076805
O O2 0.549085 0.787591 0.174312
O O3 0.500000 0.761906 0.000000
O O4 0.389199 0.772161 0.998015
O O5 0.411010 0.714338 0.179017
O O6 0.575556 0.714884 0.321160
O O7 0.464928 0.764821 0.342298
O O8 0.495903 0.000000 0.277351
O O9 0.826206 0.500000 0.122186
O O10 0.775115 0.220574 0.144508
O O11 0.750000 0.250000 0.000000
O O12 0.704239 0.713158 0.325212
O O13 0.640577 0.000000 0.320018
O O14 0.157841 0.284444 0.655377
O O15 0.307921 0.220856 0.811522
O O16 0.228809 0.000000 0.669828
O O17 0.000000 0.729349 0.500000
O O18 0.073410 0.000000 0.614403
O O19 0.188816 0.000000 0.110100
#
# Coordination Sequence:
#
# PCOD9178327 Si02
#       7
#     8   8   8   8   8   8   8
#     4  10  19  30  47  74 111 154 193 228 267 317
#     4  10  21  38  58  83 115 147 183 230 281 335
#     4  10  20  32  49  74 108 147 185 225 267 316
#     4  10  21  35  53  80 114 149 184 226 276 329
#     4  10  20  35  56  80 106 140 179 223 275 329
#     4  10  22  41  64  87 109 139 184 236 288 342
#     4  10  19  32  49  73 106 143 186 231 267 310
#
# _framework density 23.542652
#
# number of rings (size 3 to 8) (size 9 to 14) (size 15 to 20)
#    0.000    2.000    2.857    0.857    0.000    2.857 
#    0.000    0.714    0.000    0.000    0.000    0.000 
#    0.000    0.000    0.000    0.000    0.000    0.000 
#
# Total GULP energy -156248.233066 kJ/mol
# GULP energy per Si atom -5580.294038 kJ/mol
# Density = 2.348907 g / cm^3
# Si number density = 23.542652 Si / 1000 Ang^3
#
#
#
# Elastic Constant Matrix: (Units=GPa)
#
#
# Indices 1 2 3 4 5 6 
#
# 1 224.9887 4.8108 47.3870 0.0000 7.6942 0.0000
# 2 4.8108 67.1808 -11.5542 0.0001 3.6320 -0.0002
# 3 47.3870 -11.5542 66.0963 0.0000 1.9929 0.0000
# 4 0.0000 0.0001 0.0000 -9.8125 0.0000 -3.1877
# 5 7.6942 3.6320 1.9929 0.0000 20.6555 0.0000
# 6 0.0000 -0.0002 0.0000 -3.1877 0.0000 11.2409
#
#
#
# Elastic Compliance Matrix: (Units=1/GPa)
#
#
# Indices 1 2 3 4 5 6 
#
# 1 0.005350 -0.000987 -0.003965 0.000000 -0.001437 0.000000
# 2 -0.000987 0.015712 0.003537 0.000000 -0.002736 0.000000
# 3 -0.003965 0.003537 0.018619 0.000000 -0.000941 0.000000
# 4 0.000000 0.000000 0.000000 -0.093314 0.000000 -0.026462
# 5 -0.001437 -0.002736 -0.000941 0.000000 0.049520 0.000000
# 6 0.000000 0.000000 0.000000 -0.026462 0.000000 0.081457
#
#
# Mechanical properties :
#
#
# Convention : Reuss Voigt Hill
#
# Bulk Modulus (GPa) = 27.13681 48.83923 37.98802
# Shear Modulus (GPa) = 54.07866 25.59158 39.83512
#
# Velocity S-wave (km/s) = 4.79795 3.30059 4.11790
# Velocity P-wave (km/s) = 6.49965 5.94266 6.22739
#
# Compressibility (1/GPa) = 0.03685032
#
# Stress axis : x y z
#
# Youngs Moduli (GPa) = 186.91593 63.64503 53.70942
#
# Poissons Ratio (x) = 0.06284 0.21295
# Poissons Ratio (y) = 0.18455 -0.18997
# Poissons Ratio (z) = 0.74110 -0.22511
#
# Static dielectric constant tensor:
#      x y z
#    x 2.033280 0.000000 0.031630 
#    y 0.000000 1.881580 0.000000 
#    z 0.031630 0.000000 1.885300 
# 
# From -- ./inp_files/320207.got.cif
#   From: 2010.05.17/outbox.cif.g08.bks.cpg/sg12_161_cif.got.tgz:320207.got - 2010.06.03 13:09:07.
