data_PCOD9178298
_publ_section_title
;
Structure prediction by ZEFSAII (Michael W. Deem and Ramdas Pophale) SiO2 
 PCOD9178298
Probable space group: C 2/M
;
_chemical_formula_sum "Si O2"
_cell_formula_units_Z 40
_cell_length_a 5.089542
_cell_length_b 25.735647
_cell_length_c 18.300080
_cell_angle_alpha 90.000000
_cell_angle_beta 106.088477
_cell_angle_gamma 90.000000
_cell_volume 2303.114631
_symmetry_space_group_name_H-M "C 2/M"
_symmetry_group_IT_number 12
_symmetry_cell_setting 'monoclinic'
loop_
_space_group_symop_operation_xyz
x,y,z
-x,y,-z
-x,-y,-z
x,-y,z
1/2+x,1/2+y,z
1/2-x,1/2+y,-z
1/2-x,1/2-y,-z
1/2+x,1/2-y,z
loop_
_atom_site_type_symbol
_atom_site_label
_atom_site_fract_x
_atom_site_fract_y
_atom_site_fract_z
Si Si1 0.405034 0.562755 0.322199
Si Si2 0.491661 0.561729 0.913715
Si Si3 0.380617 0.215588 0.911983
Si Si4 0.997418 0.437161 0.416683
Si Si5 0.582652 0.892026 0.160918
O O1 0.387188 0.500000 0.309245
O O2 0.721229 0.577969 0.353254
O O3 0.245222 0.590930 0.245350
O O4 0.259101 0.575186 0.387912
O O5 0.452818 0.500000 0.903457
O O6 0.767765 0.578106 0.894328
O O7 0.231778 0.590601 0.858993
O O8 0.500000 0.575079 0.000000
O O9 0.578858 0.262184 0.901907
O O10 0.393275 0.168369 0.856978
O O11 0.500000 0.197772 0.000000
O O12 0.988208 0.500000 0.420557
O O13 0.000000 0.417478 0.500000
#
# Coordination Sequence:
#
# PCOD9178298 Si02
#       5
#     8   8   8   8   8
#     4  10  19  30  47  73 103 133 163 198 244 297
#     4  11  22  34  49  71 101 139 175 202 239 301
#     4  10  21  37  55  73  94 126 172 222 267 307
#     4   9  17  30  47  68  99 137 169 195 229 284
#     4  12  22  35  53  74 103 133 169 216 265 301
#
# _framework density 17.367787
#
# number of rings (size 3 to 8) (size 9 to 14) (size 15 to 20)
#    0.000    1.600    0.000    6.600    0.000    7.200 
#    0.000    0.000    0.000    0.000    0.000    0.000 
#    0.000   16.000    0.000    0.000    0.000    0.000 
#
# Total GULP energy -111734.034464 kJ/mol
# GULP energy per Si atom -5586.701723 kJ/mol
# Density = 1.732826 g / cm^3
# Si number density = 17.367787 Si / 1000 Ang^3
#
#
#
# Elastic Constant Matrix: (Units=GPa)
#
#
# Indices 1 2 3 4 5 6 
#
# 1 45.4401 -9.0181 -20.4437 0.0000 0.8220 0.0000
# 2 -9.0181 31.3041 17.0645 0.0000 1.0446 0.0000
# 3 -20.4437 17.0645 47.6326 0.0000 -1.3146 0.0000
# 4 0.0000 0.0000 0.0000-2119.8440 0.0000-1819.9480
# 5 0.8220 1.0446 -1.3146 0.0000 20.6769 0.0000
# 6 0.0000 0.0000 0.0000-1819.9480 0.0000-1528.5393
#
#
#
# Elastic Compliance Matrix: (Units=1/GPa)
#
#
# Indices 1 2 3 4 5 6 
#
# 1 0.027363 0.001869 0.011061 0.000000 -0.000479 0.000000
# 2 0.001869 0.040001 -0.013610 0.000000 -0.002961 0.000000
# 3 0.011061 -0.013610 0.030678 0.000000 0.002198 0.000000
# 4 0.000000 0.000000 0.000000 0.021246 0.000000 -0.025296
# 5 -0.000479 -0.002961 0.002198 0.000000 0.048671 0.000000
# 6 0.000000 0.000000 0.000000 -0.025296 0.000000 0.029464
#
#
# Mechanical properties :
#
#
# Convention : Reuss Voigt Hill
#
# Bulk Modulus (GPa) = 10.34310 11.06469 10.70390
# Shear Modulus (GPa) = 21.64402 -716.42301 -347.38950
#
# Velocity S-wave (km/s) = 3.53401 -20.33216 -14.15817
# Velocity P-wave (km/s) = 4.75611 23.34118 16.15844
#
# Compressibility (1/GPa) = 0.09668281
#
# Stress axis : x y z
#
# Youngs Moduli (GPa) = 36.54552 24.99937 32.59662
#
# Poissons Ratio (x) = -0.04672 -0.36056
# Poissons Ratio (y) = -0.06830 0.44364
# Poissons Ratio (z) = -0.40424 0.34024
#
# Static dielectric constant tensor:
#      x y z
#    x 1.590000 0.000000 -0.009050 
#    y 0.000000 1.562530 0.000000 
#    z -0.009050 0.000000 1.591090 
# 
# From -- ./inp_files/191471.got.cif
#   From: 2010.05.17/outbox.cif.g08.bks.cpg/sg12_96_cif.got.tgz:191471.got - 2010.06.03 13:09:07.
