data_PCOD9178476
_publ_section_title
;
Structure prediction by ZEFSAII (Michael W. Deem and Ramdas Pophale) SiO2 
 PCOD9178476
Probable space group: C 2/M
;
_chemical_formula_sum "Si O2"
_cell_formula_units_Z 64
_cell_length_a 28.238386
_cell_length_b 13.949939
_cell_length_c 13.288554
_cell_angle_alpha 90.000000
_cell_angle_beta 35.016717
_cell_angle_gamma 90.000000
_cell_volume 3003.738452
_symmetry_space_group_name_H-M "C 2/M"
_symmetry_group_IT_number 12
_symmetry_cell_setting 'monoclinic'
loop_
_space_group_symop_operation_xyz
x,y,z
-x,y,-z
-x,-y,-z
x,-y,z
1/2+x,1/2+y,z
1/2-x,1/2+y,-z
1/2-x,1/2-y,-z
1/2+x,1/2-y,z
loop_
_atom_site_type_symbol
_atom_site_label
_atom_site_fract_x
_atom_site_fract_y
_atom_site_fract_z
Si Si1 0.508147 0.273015 0.594459
Si Si2 0.822159 0.885697 0.728875
Si Si3 0.057089 0.103210 0.998129
Si Si4 0.293741 0.615599 0.559634
Si Si5 0.835194 0.883130 0.925717
Si Si6 0.237996 0.110455 0.735648
Si Si7 0.050761 0.253418 0.729589
Si Si8 0.658522 0.885306 0.630196
O O1 0.500000 0.223094 0.500000
O O2 0.585432 0.345164 0.446156
O O3 0.424561 0.332246 0.762817
O O4 0.535124 0.210496 0.643274
O O5 0.773682 0.859828 0.711209
O O6 0.792388 0.859236 0.892789
O O7 0.827260 0.000000 0.719577
O O8 0.031388 0.195672 0.102600
O O9 0.043204 0.000000 0.075592
O O10 0.154621 0.108622 0.813578
O O11 0.000000 0.102035 0.000000
O O12 0.305831 0.500000 0.529502
O O13 0.378652 0.670325 0.387717
O O14 0.220364 0.642425 0.611586
O O15 0.845098 0.000000 0.914302
O O16 0.785645 0.852267 0.112441
O O17 0.305120 0.149787 0.541728
O O18 0.262441 0.000000 0.710745
O O19 0.072223 0.331360 0.775947
O O20 0.651968 0.000000 0.642172
#
# Coordination Sequence:
#
# PCOD9178476 Si02
#       8
#     8   8   8   8   8   8   8   8
#     4   9  16  25  41  68 100 125 158 210 252 295
#     4   8  14  22  38  64  95 129 156 186 239 310
#     4  10  19  30  48  79 112 134 159 200 255 311
#     4   9  17  29  45  68  99 127 158 199 248 304
#     4   9  14  23  41  68 100 130 156 187 246 314
#     4   9  17  29  45  68 103 135 158 197 254 307
#     4  11  19  30  51  75  98 136 174 206 246 304
#     4  10  21  35  49  70 102 139 175 212 248 289
#
# _framework density 21.306782999999999
#
# number of rings (size 3 to 8) (size 9 to 14) (size 15 to 20)
#    0.000    2.625    1.250    1.875    0.000    4.500 
#    0.000    0.000    0.000    7.500    0.000    1.750 
#    0.000    0.000    0.000    0.000    0.000    0.000 
#
# Total GULP energy -178291.594025 kJ/mol
# GULP energy per Si atom -5571.612313 kJ/mol
# Density = 2.125829 g / cm^3
# Si number density = 21.306783 Si / 1000 Ang^3
#
#
#
# Elastic Constant Matrix: (Units=GPa)
#
#
# Indices 1 2 3 4 5 6 
#
# 1 133.8390 13.6462 15.3118 0.0000 21.8373 0.0000
# 2 13.6462 35.0757 8.6585 0.0000 -1.4805 0.0000
# 3 15.3118 8.6585 25.9030 0.0000 11.6516 0.0000
# 4 0.0000 0.0000 0.0000 4.6318 0.0000 1.1100
# 5 21.8373 -1.4805 11.6516 0.0000 21.6006 0.0000
# 6 0.0000 0.0000 0.0000 1.1100 0.0000 18.5310
#
#
#
# Elastic Compliance Matrix: (Units=1/GPa)
#
#
# Indices 1 2 3 4 5 6 
#
# 1 0.009507 -0.004201 0.000313 0.000000 -0.010068 0.000000
# 2 -0.004201 0.034735 -0.015988 0.000000 0.015252 0.000000
# 3 0.000313 -0.015988 0.058624 0.000000 -0.033035 0.000000
# 4 0.000000 0.000000 0.000000 0.219042 0.000000 -0.013121
# 5 -0.010068 0.015252 -0.033035 0.000000 0.075338 0.000000
# 6 0.000000 0.000000 0.000000 -0.013121 0.000000 0.054750
#
#
# Mechanical properties :
#
#
# Convention : Reuss Voigt Hill
#
# Bulk Modulus (GPa) = 15.84421 30.00564 22.92493
# Shear Modulus (GPa) = 9.75070 19.43276 14.59173
#
# Velocity S-wave (km/s) = 2.14156 3.02329 2.61978
# Velocity P-wave (km/s) = 3.68340 5.12838 4.46473
#
# Compressibility (1/GPa) = 0.06311452
#
# Stress axis : x y z
#
# Youngs Moduli (GPa) = 105.18730 28.78980 17.05785
#
# Poissons Ratio (x) = 0.12094 -0.00534
# Poissons Ratio (y) = 0.44188 0.27272
# Poissons Ratio (z) = -0.03295 0.46028
#
# Static dielectric constant tensor:
#      x y z
#    x 1.824020 0.000000 0.076110 
#    y 0.000000 1.768860 0.000000 
#    z 0.076110 0.000000 1.788720 
# 
# From -- ./inp_files/246318.got.cif
#   From: 2010.05.17/outbox.cif.g08.bks.cpg/sg12_124_cif.got.tgz:246318.got - 2010.06.03 13:09:07.
