data_PCOD9178125
_publ_section_title
;
Structure prediction by ZEFSAII (Michael W. Deem and Ramdas Pophale) SiO2 
 PCOD9178125
Probable space group: C 2/M
;
_chemical_formula_sum "Si O2"
_cell_formula_units_Z 40
_cell_length_a 18.324110
_cell_length_b 14.727041
_cell_length_c 7.027982
_cell_angle_alpha 90.000000
_cell_angle_beta 116.316191
_cell_angle_gamma 90.000000
_cell_volume 1700.012327
_symmetry_space_group_name_H-M "C 2/M"
_symmetry_group_IT_number 12
_symmetry_cell_setting 'monoclinic'
loop_
_space_group_symop_operation_xyz
x,y,z
-x,y,-z
-x,-y,-z
x,-y,z
1/2+x,1/2+y,z
1/2-x,1/2+y,-z
1/2-x,1/2-y,-z
1/2+x,1/2-y,z
loop_
_atom_site_type_symbol
_atom_site_label
_atom_site_fract_x
_atom_site_fract_y
_atom_site_fract_z
Si Si1 0.137883 0.709574 0.368527
Si Si2 0.084244 0.096737 0.711555
Si Si3 0.157609 0.273988 0.847948
Si Si4 0.480673 0.103945 0.249528
Si Si5 0.298931 0.602298 0.514022
O O1 0.151122 0.713370 0.613051
O O2 0.208604 0.641953 0.381058
O O3 0.155074 0.813854 0.326901
O O4 0.049420 0.667743 0.237061
O O5 0.102286 0.187980 0.842172
O O6 0.154630 0.093622 0.632959
O O7 0.000000 0.105648 0.500000
O O8 0.082995 0.000000 0.814267
O O9 0.111046 0.359681 0.881683
O O10 0.250000 0.250000 0.000000
O O11 0.500000 0.107550 0.500000
O O12 0.489272 0.000000 0.201255
O O13 0.297932 0.500000 0.597819
#
# Coordination Sequence:
#
# PCOD9178125 Si02
#       5
#     8   8   8   8   8
#     4   9  17  30  48  71  96 126 163 202 241 285
#     4   9  17  31  51  70  89 120 164 207 242 282
#     4  10  19  30  46  71 101 129 154 190 239 294
#     4   9  17  30  48  69  94 125 162 199 236 282
#     4   9  16  27  48  73  93 118 161 214 251 277
#
# _framework density 23.529240999999999
#
# number of rings (size 3 to 8) (size 9 to 14) (size 15 to 20)
#    0.000    2.800    0.000    3.600    0.000    1.600 
#    0.000    0.000    0.000   19.200    0.000   28.000 
#    0.000    0.000    0.000    0.000    0.000    0.000 
#
# Total GULP energy -111640.045614 kJ/mol
# GULP energy per Si atom -5582.002281 kJ/mol
# Density = 2.347569 g / cm^3
# Si number density = 23.529241 Si / 1000 Ang^3
#
#
#
# Elastic Constant Matrix: (Units=GPa)
#
#
# Indices 1 2 3 4 5 6 
#
# 1 83.4556 40.2370 41.4635 0.0000 18.0699 0.0000
# 2 40.2370 194.0958 41.0192 0.0000 37.2789 0.0000
# 3 41.4635 41.0192 103.8688 0.0000 15.3478 0.0000
# 4 0.0000 0.0000 0.0000 9.0094 0.0000 26.6768
# 5 18.0699 37.2789 15.3478 0.0000 42.3177 0.0000
# 6 0.0000 0.0000 0.0000 26.6768 0.0000 30.1352
#
#
#
# Elastic Compliance Matrix: (Units=1/GPa)
#
#
# Indices 1 2 3 4 5 6 
#
# 1 0.016139 -0.001529 -0.005303 0.000000 -0.003621 0.000000
# 2 -0.001529 0.006657 -0.001319 0.000000 -0.004733 0.000000
# 3 -0.005303 -0.001319 0.012425 0.000000 -0.001080 0.000000
# 4 0.000000 0.000000 0.000000 -0.068466 0.000000 0.060608
# 5 -0.003621 -0.004733 -0.001080 0.000000 0.029738 0.000000
# 6 0.000000 0.000000 0.000000 0.060608 0.000000 -0.020469
#
#
# Mechanical properties :
#
#
# Convention : Reuss Voigt Hill
#
# Bulk Modulus (GPa) = 52.86309 69.65108 61.25708
# Shear Modulus (GPa) = -3658.29600 33.53918 -1812.37841
#
# Velocity S-wave (km/s) = -39.47357 3.77958 -27.78378
# Velocity P-wave (km/s) = 45.33248 6.97948 31.67271
#
# Compressibility (1/GPa) = 0.01891679
#
# Stress axis : x y z
#
# Youngs Moduli (GPa) = 61.96305 150.21964 80.48255
#
# Poissons Ratio (x) = 0.22975 0.42683
# Poissons Ratio (y) = 0.09477 0.10616
# Poissons Ratio (z) = 0.32862 0.19815
#
# Static dielectric constant tensor:
#      x y z
#    x 1.930790 0.000000 -0.058420 
#    y 0.000000 1.953910 0.000000 
#    z -0.058420 0.000000 1.907710 
# 
# From -- ./inp_files/142210.got.cif
#   From: 2010.05.17/outbox.cif.g08.bks.cpg/sg12_72_cif.got.tgz:142210.got - 2010.06.03 13:09:07.
