data_PCOD9178554
_publ_section_title
;
Structure prediction by ZEFSAII (Michael W. Deem and Ramdas Pophale) SiO2 
 PCOD9178554
Probable space group: C 2/M
;
_chemical_formula_sum "Si O2"
_cell_formula_units_Z 56
_cell_length_a 20.106269
_cell_length_b 9.073632
_cell_length_c 19.984327
_cell_angle_alpha 90.000000
_cell_angle_beta 121.303577
_cell_angle_gamma 90.000000
_cell_volume 3115.134722
_symmetry_space_group_name_H-M "C 2/M"
_symmetry_group_IT_number 12
_symmetry_cell_setting 'monoclinic'
loop_
_space_group_symop_operation_xyz
x,y,z
-x,y,-z
-x,-y,-z
x,-y,z
1/2+x,1/2+y,z
1/2-x,1/2+y,-z
1/2-x,1/2-y,-z
1/2+x,1/2-y,z
loop_
_atom_site_type_symbol
_atom_site_label
_atom_site_fract_x
_atom_site_fract_y
_atom_site_fract_z
Si Si1 0.654383 0.824573 0.664045
Si Si2 0.030120 0.324177 0.089875
Si Si3 0.009871 0.178229 0.665042
Si Si4 0.549198 0.328439 0.831065
Si Si5 0.766713 0.827645 0.079009
Si Si6 0.305028 0.676414 0.828702
Si Si7 0.084286 0.829795 0.506726
O O1 0.587255 0.750477 0.674382
O O2 0.738060 0.789182 0.739413
O O3 0.641114 0.765355 0.582116
O O4 0.643877 0.000000 0.660127
O O5 0.038515 0.500000 0.096548
O O6 0.112410 0.246346 0.145747
O O7 0.971382 0.269102 0.116095
O O8 0.000000 0.283498 0.000000
O O9 0.003785 0.215934 0.739839
O O10 0.937341 0.219571 0.579597
O O11 0.018369 0.000000 0.664671
O O12 0.531598 0.500000 0.837149
O O13 0.640484 0.319552 0.861516
O O14 0.722868 0.745219 0.115682
O O15 0.744045 0.000000 0.065461
O O16 0.750000 0.750000 0.000000
O O17 0.311262 0.500000 0.837789
O O18 0.000000 0.825698 0.500000
O O19 0.109823 0.000000 0.519461
#
# Coordination Sequence:
#
# PCOD9178554 Si02
#       7
#     8   8   8   8   8   8   8
#     4  10  19  30  49  80 113 143 179 225 271 316
#     4  11  25  42  59  80 107 143 186 232 281 334
#     4   9  17  32  52  78 110 145 183 219 267 328
#     4  10  21  37  58  81 109 145 182 225 275 329
#     4  11  22  36  57  83 111 143 179 226 280 330
#     4  11  23  38  57  81 111 147 186 228 274 327
#     4   8  15  27  47  74 108 146 179 216 264 324
#
# _framework density 17.976751
#
# number of rings (size 3 to 8) (size 9 to 14) (size 15 to 20)
#    0.000    2.000    1.429    3.429    0.000    9.429 
#    0.000    0.000    0.000    0.857    0.000    0.000 
#    0.000    0.000    0.000    0.000    0.000    0.000 
#
# Total GULP energy -156278.485528 kJ/mol
# GULP energy per Si atom -5581.374483 kJ/mol
# Density = 1.793584 g / cm^3
# Si number density = 17.976751 Si / 1000 Ang^3
#
#
#
# Elastic Constant Matrix: (Units=GPa)
#
#
# Indices 1 2 3 4 5 6 
#
# 1 18.7437 3.2391 -16.5120 0.0000 -0.4223 0.0000
# 2 3.2391 41.4349 24.1534 0.0000 2.1488 0.0000
# 3 -16.5120 24.1534 83.9348 0.0000 -11.4884 0.0000
# 4 0.0000 0.0000 0.0000 30.1243 0.0000 1.2718
# 5 -0.4223 2.1488 -11.4884 0.0000 24.1561 0.0000
# 6 0.0000 0.0000 0.0000 1.2718 0.0000 22.6035
#
#
#
# Elastic Compliance Matrix: (Units=1/GPa)
#
#
# Indices 1 2 3 4 5 6 
#
# 1 0.077359 -0.020149 0.022940 0.000000 0.014055 0.000000
# 2 -0.020149 0.035398 -0.015648 0.000000 -0.010943 0.000000
# 3 0.022940 -0.015648 0.022650 0.000000 0.012565 0.000000
# 4 0.000000 0.000000 0.000000 0.033275 0.000000 -0.001872
# 5 0.014055 -0.010943 0.012565 0.000000 0.048592 0.000000
# 6 0.000000 0.000000 0.000000 -0.001872 0.000000 0.044346
#
#
# Mechanical properties :
#
#
# Convention : Reuss Voigt Hill
#
# Bulk Modulus (GPa) = 9.11628 18.43049 13.77339
# Shear Modulus (GPa) = 15.43696 24.25897 19.84796
#
# Velocity S-wave (km/s) = 2.93357 3.67749 3.32639
# Velocity P-wave (km/s) = 4.06898 5.32039 4.73620
#
# Compressibility (1/GPa) = 0.10969387
#
# Stress axis : x y z
#
# Youngs Moduli (GPa) = 12.92679 28.24985 44.15080
#
# Poissons Ratio (x) = 0.56920 -1.01283
# Poissons Ratio (y) = 0.26046 0.69087
# Poissons Ratio (z) = -0.29654 0.44205
#
# Static dielectric constant tensor:
#      x y z
#    x 1.591830 0.000000 -0.001630 
#    y 0.000000 1.602010 0.000000 
#    z -0.001630 0.000000 1.648960 
# 
# From -- ./inp_files/320252.got.cif
#   From: 2010.05.17/outbox.cif.g08.bks.cpg/sg12_161_cif.got.tgz:320252.got - 2010.06.03 13:09:07.
