data_PCOD9178822
_publ_section_title
;
Structure prediction by ZEFSAII (Michael W. Deem and Ramdas Pophale) SiO2 
 PCOD9178822
Probable space group: C 2/M
;
_chemical_formula_sum "Si O2"
_cell_formula_units_Z 50
_cell_length_a 16.351525
_cell_length_b 16.338770
_cell_length_c 13.806400
_cell_angle_alpha 90.000000
_cell_angle_beta 144.728688
_cell_angle_gamma 90.000000
_cell_volume 2129.960948
_symmetry_space_group_name_H-M "C 2/M"
_symmetry_group_IT_number 12
_symmetry_cell_setting 'monoclinic'
loop_
_space_group_symop_operation_xyz
x,y,z
-x,y,-z
-x,-y,-z
x,-y,z
1/2+x,1/2+y,z
1/2-x,1/2+y,-z
1/2-x,1/2-y,-z
1/2+x,1/2-y,z
loop_
_atom_site_type_symbol
_atom_site_label
_atom_site_fract_x
_atom_site_fract_y
_atom_site_fract_z
Si Si1 0.500000 0.500000 0.500000
Si Si2 0.492283 0.590604 0.108230
Si Si3 0.550281 0.729356 0.791245
Si Si4 0.804952 0.589054 0.371465
Si Si5 0.339340 0.251683 0.303142
Si Si6 0.317576 0.635891 0.443222
Si Si7 0.463308 0.908940 0.718093
O O1 0.426047 0.571435 0.499135
O O2 0.435868 0.500000 0.078237
O O3 0.422852 0.663905 0.099070
O O4 0.660087 0.591078 0.292637
O O5 0.500000 0.598971 0.000000
O O6 0.658498 0.725354 0.806326
O O7 0.402726 0.697700 0.597449
O O8 0.538920 0.823089 0.814387
O O9 0.815590 0.500000 0.335643
O O10 0.799594 0.659277 0.287929
O O11 0.928184 0.598587 0.569275
O O12 0.500000 0.258504 0.500000
O O13 0.255221 0.310901 0.293403
O O14 0.185593 0.595030 0.368884
O O15 0.526684 0.000000 0.796356
#
# Coordination Sequence:
#
# PCOD9178822 Si02
#       7
#     2   8   8   8   8   8   8
#     4  12  20  28  44  68 112 138 166 200 256 328
#     4  10  22  38  57  77  97 132 184 226 260 299
#     4  11  20  33  51  76 108 137 170 214 257 314
#     4  10  19  32  52  76 107 141 168 212 254 303
#     4  10  19  31  46  77 112 137 162 198 262 322
#     4  11  19  30  44  73 108 139 164 203 259 322
#     4  11  20  30  51  79 108 141 173 204 261 322
#
# _framework density 23.474609000000001
#
# number of rings (size 3 to 8) (size 9 to 14) (size 15 to 20)
#    0.000    1.440    8.000    1.440    1.120    0.960 
#    0.000    0.800    0.000    0.480    0.000    0.000 
#    0.000    0.000    0.000    0.000    0.000    0.000 
#
# Total GULP energy -139387.510992 kJ/mol
# GULP energy per Si atom -5575.500440 kJ/mol
# Density = 2.342118 g / cm^3
# Si number density = 23.474609 Si / 1000 Ang^3
#
#
#
# Elastic Constant Matrix: (Units=GPa)
#
#
# Indices 1 2 3 4 5 6 
#
# 1 58.7296 47.4597 35.6678 0.0000 -21.6182 0.0000
# 2 47.4597 241.8557 57.8021 0.0000 -36.5821 0.0000
# 3 35.6678 57.8021 44.3597 0.0000 -18.1081 0.0000
# 4 0.0000 0.0000 0.0000 14.7261 0.0000 -16.9179
# 5 -21.6182 -36.5821 -18.1081 0.0000 33.6585 0.0000
# 6 0.0000 0.0000 0.0000 -16.9179 0.0000 41.9798
#
#
#
# Elastic Compliance Matrix: (Units=1/GPa)
#
#
# Indices 1 2 3 4 5 6 
#
# 1 0.035569 0.000557 -0.025311 0.000000 0.009833 0.000000
# 2 0.000557 0.006254 -0.007274 0.000000 0.003242 0.000000
# 3 -0.025311 -0.007274 0.054472 0.000000 0.005143 0.000000
# 4 0.000000 0.000000 0.000000 0.126452 0.000000 0.050961
# 5 0.009833 0.003242 0.005143 0.000000 0.042316 0.000000
# 6 0.000000 0.000000 0.000000 0.050961 0.000000 0.044358
#
#
# Mechanical properties :
#
#
# Convention : Reuss Voigt Hill
#
# Bulk Modulus (GPa) = 31.01824 69.64492 50.33158
# Shear Modulus (GPa) = 13.01329 31.67390 22.34359
#
# Velocity S-wave (km/s) = 2.35703 3.67724 3.08850
# Velocity P-wave (km/s) = 4.54419 6.91101 5.84858
#
# Compressibility (1/GPa) = 0.03223910
#
# Stress axis : x y z
#
# Youngs Moduli (GPa) = 28.11471 159.89378 18.35817
#
# Poissons Ratio (x) = -0.08902 0.46466
# Poissons Ratio (y) = -0.01565 0.13353
# Poissons Ratio (z) = 0.71160 1.16302
#
# Static dielectric constant tensor:
#      x y z
#    x 1.916600 0.000000 0.043210 
#    y 0.000000 1.916670 0.000000 
#    z 0.043210 0.000000 1.950980 
# 
# From -- ./inp_files/156227.got.cif
#   From: 2010.05.17/outbox.cif.g08.bks.cpg/sg12_79_cif.got.tgz:156227.got - 2010.06.03 13:09:07.
