data_PCOD9178041
_publ_section_title
;
Structure prediction by ZEFSAII (Michael W. Deem and Ramdas Pophale) SiO2 
 PCOD9178041
Probable space group: C 2/M
;
_chemical_formula_sum "Si O2"
_cell_formula_units_Z 64
_cell_length_a 29.410221
_cell_length_b 7.664393
_cell_length_c 21.754245
_cell_angle_alpha 90.000000
_cell_angle_beta 134.994843
_cell_angle_gamma 90.000000
_cell_volume 3467.721067
_symmetry_space_group_name_H-M "C 2/M"
_symmetry_group_IT_number 12
_symmetry_cell_setting 'monoclinic'
loop_
_space_group_symop_operation_xyz
x,y,z
-x,y,-z
-x,-y,-z
x,-y,z
1/2+x,1/2+y,z
1/2-x,1/2+y,-z
1/2-x,1/2-y,-z
1/2+x,1/2-y,z
loop_
_atom_site_type_symbol
_atom_site_label
_atom_site_fract_x
_atom_site_fract_y
_atom_site_fract_z
Si Si1 0.928175 0.205350 0.142889
Si Si2 0.289787 0.790756 0.598559
Si Si3 0.772554 0.286746 0.715988
Si Si4 0.759671 0.204898 0.186424
Si Si5 0.934303 0.701270 0.748560
Si Si6 0.192307 0.789233 0.897079
Si Si7 0.422206 0.298762 0.874282
Si Si8 0.609911 0.287143 0.027305
O O1 0.875311 0.275574 0.139691
O O2 0.003810 0.223772 0.226631
O O3 0.914637 0.000000 0.125966
O O4 0.914771 0.276327 0.061815
O O5 0.250000 0.750000 0.500000
O O6 0.256162 0.734985 0.630534
O O7 0.363430 0.721520 0.667665
O O8 0.295102 0.000000 0.607951
O O9 0.776433 0.500000 0.722499
O O10 0.730730 0.227416 0.734618
O O11 0.844478 0.214386 0.794423
O O12 0.792768 0.280300 0.157098
O O13 0.683228 0.225151 0.102780
O O14 0.775872 0.000000 0.203733
O O15 0.932002 0.500000 0.729539
O O16 0.944949 0.715273 0.832532
O O17 0.190190 0.000000 0.890398
O O18 0.250000 0.750000 0.000000
O O19 0.443429 0.500000 0.891920
O O20 0.431158 0.229921 0.952346
O O21 0.609832 0.500000 0.029287
#
# Coordination Sequence:
#
# PCOD9178041 Si02
#       8
#     8   8   8   8   8   8   8   8
#     4  10  20  32  44  62  91 124 159 197 232 266
#     4   9  18  32  51  73  95 116 140 178 226 280
#     4   8  15  28  44  67  97 121 146 183 225 270
#     4   9  16  27  45  66  90 123 159 194 231 267
#     4  10  21  35  47  64  91 120 150 187 229 273
#     4  10  19  30  46  67  91 123 164 204 236 265
#     4   9  16  27  44  63  86 120 156 187 224 266
#     4   9  17  28  42  62  89 121 156 195 231 263
#
# _framework density 18.455926000000002
#
# number of rings (size 3 to 8) (size 9 to 14) (size 15 to 20)
#    0.000    2.750    1.250    1.500    0.000    4.500 
#    0.000    2.500    0.000    0.000    0.000    0.875 
#    0.000    7.000    0.000    0.000    0.000    0.000 
#
# Total GULP energy -178224.836083 kJ/mol
# GULP energy per Si atom -5569.526128 kJ/mol
# Density = 1.841392 g / cm^3
# Si number density = 18.455926 Si / 1000 Ang^3
#
#
#
# Elastic Constant Matrix: (Units=GPa)
#
#
# Indices 1 2 3 4 5 6 
#
# 1 171.2191 0.8066 69.6334 0.0000 -18.4240 0.0000
# 2 0.8066 28.8945 -1.2136 0.0003 -2.2104 -0.0001
# 3 69.6334 -1.2136 88.5917 0.0000 -22.2403 0.0000
# 4 0.0000 0.0003 0.0000 12.5287 0.0000 2.7732
# 5 -18.4240 -2.2104 -22.2403 0.0000 23.8454 0.0000
# 6 0.0000 -0.0001 0.0000 2.7732 0.0000 14.6367
#
#
#
# Elastic Compliance Matrix: (Units=1/GPa)
#
#
# Indices 1 2 3 4 5 6 
#
# 1 0.008595 -0.000491 -0.006668 0.000000 0.000376 0.000000
# 2 -0.000491 0.035077 0.002073 -0.000001 0.004805 0.000001
# 3 -0.006668 0.002073 0.019993 0.000000 0.013688 0.000000
# 4 0.000000 -0.000001 0.000000 0.083311 0.000000 -0.015785
# 5 0.000376 0.004805 0.013688 0.000000 0.055439 0.000000
# 6 0.000000 0.000001 0.000000 -0.015785 0.000000 0.071312
#
#
# Mechanical properties :
#
#
# Convention : Reuss Voigt Hill
#
# Bulk Modulus (GPa) = 18.69402 47.46202 33.07802
# Shear Modulus (GPa) = 16.57102 24.83408 20.70255
#
# Velocity S-wave (km/s) = 2.99970 3.67221 3.35286
# Velocity P-wave (km/s) = 4.70623 6.61456 5.74025
#
# Compressibility (1/GPa) = 0.05349303
#
# Stress axis : x y z
#
# Youngs Moduli (GPa) = 116.34508 28.50866 50.01626
#
# Poissons Ratio (x) = 0.01400 0.33351
# Poissons Ratio (y) = 0.05715 -0.10368
# Poissons Ratio (z) = 0.77580 -0.05910
#
# Static dielectric constant tensor:
#      x y z
#    x 1.694860 0.000000 -0.024830 
#    y 0.000000 1.694310 0.000000 
#    z -0.024830 0.000000 1.646580 
# 
# From -- ./inp_files/326786.got.cif
#   From: 2010.05.17/outbox.cif.g08.bks.cpg/sg12_164_cif.got.tgz:326786.got - 2010.06.03 13:09:07.
