data_PCOD9178081
_publ_section_title
;
Structure prediction by ZEFSAII (Michael W. Deem and Ramdas Pophale) SiO2 
 PCOD9178081
Probable space group: C 2/M
;
_chemical_formula_sum "Si O2"
_cell_formula_units_Z 56
_cell_length_a 28.196183
_cell_length_b 9.067753
_cell_length_c 18.679869
_cell_angle_alpha 90.000000
_cell_angle_beta 132.060026
_cell_angle_gamma 90.000000
_cell_volume 3545.905691
_symmetry_space_group_name_H-M "C 2/M"
_symmetry_group_IT_number 12
_symmetry_cell_setting 'monoclinic'
loop_
_space_group_symop_operation_xyz
x,y,z
-x,y,-z
-x,-y,-z
x,-y,z
1/2+x,1/2+y,z
1/2-x,1/2+y,-z
1/2-x,1/2-y,-z
1/2+x,1/2-y,z
loop_
_atom_site_type_symbol
_atom_site_label
_atom_site_fract_x
_atom_site_fract_y
_atom_site_fract_z
Si Si1 0.755541 0.175553 0.928195
Si Si2 0.570423 0.668791 0.534702
Si Si3 0.069082 0.169950 0.109404
Si Si4 0.872150 0.674841 0.963563
Si Si5 0.008687 0.325064 0.179891
Si Si6 0.000010 0.177613 0.324660
Si Si7 0.880854 0.325965 0.283160
O O1 0.814082 0.246761 0.944684
O O2 0.689229 0.199975 0.819169
O O3 0.765059 0.000000 0.945366
O O4 0.750000 0.250000 0.000000
O O5 0.500000 0.667896 0.500000
O O6 0.593922 0.500000 0.559432
O O7 0.555344 0.715837 0.438414
O O8 0.612470 0.769539 0.628655
O O9 0.115248 0.254197 0.101361
O O10 0.056930 0.253437 0.171421
O O11 0.088184 0.000000 0.139282
O O12 0.000000 0.169513 0.000000
O O13 0.861306 0.500000 0.946684
O O14 0.937184 0.696067 0.075403
O O15 0.019314 0.500000 0.196853
O O16 0.012284 0.246480 0.259897
O O17 0.933734 0.240891 0.289453
O O18 0.996070 0.000000 0.317634
O O19 0.894853 0.500000 0.293783
#
# Coordination Sequence:
#
# PCOD9178081 Si02
#       7
#     8   8   8   8   8   8   8
#     4  11  23  35  47  67  94 125 161 195 227 268
#     4   8  16  30  46  65  89 118 152 188 228 276
#     4   9  17  30  48  68  91 121 154 188 230 276
#     4  10  20  33  48  67  93 125 159 193 228 269
#     4  10  19  30  46  70  97 122 152 191 232 273
#     4  10  19  30  46  69  95 122 153 189 231 278
#     4  10  20  32  46  66  92 122 157 194 230 271
#
# _framework density 15.792862
#
# number of rings (size 3 to 8) (size 9 to 14) (size 15 to 20)
#    0.000    2.286    0.000    4.286    0.000   12.286 
#    0.000    0.000    0.000    0.000    0.000    1.000 
#    0.000    0.000    0.000    0.000    0.000    0.000 
#
# Total GULP energy -156170.530259 kJ/mol
# GULP energy per Si atom -5577.518938 kJ/mol
# Density = 1.575692 g / cm^3
# Si number density = 15.792862 Si / 1000 Ang^3
#
#
#
# Elastic Constant Matrix: (Units=GPa)
#
#
# Indices 1 2 3 4 5 6 
#
# 1 126.6062 75.8064 64.0876 0.0000 -26.7244 0.0000
# 2 75.8064 116.3052 82.0419 0.0000 -16.0238 0.0000
# 3 64.0876 82.0419 97.3684 0.0000 -26.5481 0.0000
# 4 0.0000 0.0000 0.0000 27.2060 0.0000 -5.4627
# 5 -26.7244 -16.0238 -26.5481 0.0000 26.6485 0.0000
# 6 0.0000 0.0000 0.0000 -5.4627 0.0000 28.8756
#
#
#
# Elastic Compliance Matrix: (Units=1/GPa)
#
#
# Indices 1 2 3 4 5 6 
#
# 1 0.015073 -0.008298 -0.000231 0.000000 0.009896 0.000000
# 2 -0.008298 0.026740 -0.020531 0.000000 -0.012696 0.000000
# 3 -0.000231 -0.020531 0.033351 0.000000 0.020649 0.000000
# 4 0.000000 0.000000 0.000000 0.038208 0.000000 0.007228
# 5 0.009896 -0.012696 0.020649 0.000000 0.060387 0.000000
# 6 0.000000 0.000000 0.000000 0.007228 0.000000 0.035999
#
#
# Mechanical properties :
#
#
# Convention : Reuss Voigt Hill
#
# Bulk Modulus (GPa) = 58.66894 87.12798 72.89846
# Shear Modulus (GPa) = 18.27764 24.43560 21.35662
#
# Velocity S-wave (km/s) = 3.40565 3.93779 3.68135
# Velocity P-wave (km/s) = 7.25908 8.71572 8.02054
#
# Compressibility (1/GPa) = 0.01704479
#
# Stress axis : x y z
#
# Youngs Moduli (GPa) = 66.34496 37.39727 29.98384
#
# Poissons Ratio (x) = 0.31033 0.00692
# Poissons Ratio (y) = 0.55054 0.61559
# Poissons Ratio (z) = 0.01530 0.76780
#
# Static dielectric constant tensor:
#      x y z
#    x 1.501910 0.000000 -0.012660 
#    y 0.000000 1.528600 0.000000 
#    z -0.012660 0.000000 1.526320 
# 
# From -- ./inp_files/291846.got.cif
#   From: 2010.05.17/outbox.cif.g08.bks.cpg/sg12_146_cif.got.tgz:291846.got - 2010.06.03 13:09:07.
