data_PCOD9178985
_publ_section_title
;
Structure prediction by ZEFSAII (Michael W. Deem and Ramdas Pophale) SiO2 
 PCOD9178985
Probable space group: C 2/M
;
_chemical_formula_sum "Si O2"
_cell_formula_units_Z 44
_cell_length_a 12.382778
_cell_length_b 14.037225
_cell_length_c 18.244458
_cell_angle_alpha 90.000000
_cell_angle_beta 122.174379
_cell_angle_gamma 90.000000
_cell_volume 2684.244450
_symmetry_space_group_name_H-M "C 2/M"
_symmetry_group_IT_number 12
_symmetry_cell_setting 'monoclinic'
loop_
_space_group_symop_operation_xyz
x,y,z
-x,y,-z
-x,-y,-z
x,-y,z
1/2+x,1/2+y,z
1/2-x,1/2+y,-z
1/2-x,1/2-y,-z
1/2+x,1/2-y,z
loop_
_atom_site_type_symbol
_atom_site_label
_atom_site_fract_x
_atom_site_fract_y
_atom_site_fract_z
Si Si1 0.000000 0.678934 0.000000
Si Si2 0.467145 0.389828 0.261470
Si Si3 0.614697 0.391399 0.598242
Si Si4 0.239735 0.262482 0.849528
Si Si5 0.678387 0.249622 0.282159
Si Si6 0.459789 0.108943 0.145063
O O1 0.035425 0.619191 0.940913
O O2 0.876955 0.740713 0.933346
O O3 0.472392 0.500000 0.239922
O O4 0.438892 0.388035 0.338101
O O5 0.350362 0.331860 0.181964
O O6 0.596188 0.332231 0.290258
O O7 0.500000 0.377369 0.500000
O O8 0.665624 0.500000 0.605657
O O9 0.719421 0.307870 0.632403
O O10 0.256984 0.286566 0.769716
O O11 0.166179 0.343055 0.867477
O O12 0.577603 0.169806 0.218872
O O13 0.471203 0.000000 0.170713
#
# Coordination Sequence:
#
# PCOD9178985 Si02
#       6
#     4   8   8   8   8   8
#     4  10  19  32  47  66  92 122 151 188 229 268
#     4   9  18  32  49  68  91 121 155 186 222 270
#     4   9  17  30  49  72  95 119 150 187 225 267
#     4   9  19  33  47  66  93 120 151 189 227 268
#     4   9  18  32  49  68  92 122 151 186 227 267
#     4  10  19  31  48  69  91 118 153 189 226 269
#
# _framework density 16.391950000000001
#
# number of rings (size 3 to 8) (size 9 to 14) (size 15 to 20)
#    0.000    2.727    0.000    1.364    0.000    6.545 
#    0.000    0.455    0.000    0.545    0.000    0.000 
#    0.000    0.000    0.000    0.000    0.000    0.000 
#
# Total GULP energy -122589.112963 kJ/mol
# GULP energy per Si atom -5572.232407 kJ/mol
# Density = 1.635464 g / cm^3
# Si number density = 16.391950 Si / 1000 Ang^3
#
#
#
# Elastic Constant Matrix: (Units=GPa)
#
#
# Indices 1 2 3 4 5 6 
#
# 1 71.4205 26.8193 4.9703 0.0000 9.1024 0.0000
# 2 26.8193 45.1274 -1.0954 0.0000 -8.8945 0.0000
# 3 4.9703 -1.0954 51.6170 0.0000 8.1749 0.0000
# 4 0.0000 0.0000 0.0000 12.5564 0.0000 -1.0028
# 5 9.1024 -8.8945 8.1749 0.0000 12.2235 0.0000
# 6 0.0000 0.0000 0.0000 -1.0028 0.0000 14.7723
#
#
#
# Elastic Compliance Matrix: (Units=1/GPa)
#
#
# Indices 1 2 3 4 5 6 
#
# 1 0.028499 -0.025074 0.003327 0.000000 -0.041693 0.000000
# 2 -0.025074 0.048276 -0.005684 0.000000 0.057602 0.000000
# 3 0.003327 -0.005684 0.022347 0.000000 -0.021558 0.000000
# 4 0.000000 0.000000 0.000000 0.080075 0.000000 0.005436
# 5 -0.041693 0.057602 -0.021558 0.000000 0.169190 0.000000
# 6 0.000000 0.000000 0.000000 0.005436 0.000000 0.068063
#
#
# Mechanical properties :
#
#
# Convention : Reuss Voigt Hill
#
# Bulk Modulus (GPa) = 22.59362 25.50593 24.04978
# Shear Modulus (GPa) = 10.28668 17.07515 13.68091
#
# Velocity S-wave (km/s) = 2.50780 3.23101 2.89210
# Velocity P-wave (km/s) = 4.71155 5.43259 5.08487
#
# Compressibility (1/GPa) = 0.04426028
#
# Stress axis : x y z
#
# Youngs Moduli (GPa) = 35.08852 20.71410 44.74906
#
# Poissons Ratio (x) = 0.51939 -0.14887
# Poissons Ratio (y) = 0.87981 0.25434
# Poissons Ratio (z) = -0.11673 0.11773
#
# Static dielectric constant tensor:
#      x y z
#    x 1.559440 0.000000 0.000060 
#    y 0.000000 1.532240 0.000000 
#    z 0.000060 0.000000 1.537750 
# 
# From -- ./inp_files/203867.got.cif
#   From: 2010.05.17/outbox.cif.g08.bks.cpg/sg12_102_cif.got.tgz:203867.got - 2010.06.03 13:09:07.
