data_PCOD9178992
_publ_section_title
;
Structure prediction by ZEFSAII (Michael W. Deem and Ramdas Pophale) SiO2 
 PCOD9178992
Probable space group: C 2/M
;
_chemical_formula_sum "Si O2"
_cell_formula_units_Z 48
_cell_length_a 15.336417
_cell_length_b 8.947982
_cell_length_c 16.399844
_cell_angle_alpha 90.000000
_cell_angle_beta 103.444339
_cell_angle_gamma 90.000000
_cell_volume 2188.876791
_symmetry_space_group_name_H-M "C 2/M"
_symmetry_group_IT_number 12
_symmetry_cell_setting 'monoclinic'
loop_
_space_group_symop_operation_xyz
x,y,z
-x,y,-z
-x,-y,-z
x,-y,z
1/2+x,1/2+y,z
1/2-x,1/2+y,-z
1/2-x,1/2-y,-z
1/2+x,1/2-y,z
loop_
_atom_site_type_symbol
_atom_site_label
_atom_site_fract_x
_atom_site_fract_y
_atom_site_fract_z
Si Si1 0.296027 0.829379 0.799104
Si Si2 0.019217 0.679383 0.698143
Si Si3 0.390012 0.669518 0.140234
Si Si4 0.893125 0.327287 0.973909
Si Si5 0.684261 0.320179 0.633547
Si Si6 0.404475 0.827117 0.528597
O O1 0.200596 0.833474 0.825695
O O2 0.360614 0.759836 0.880849
O O3 0.270097 0.767010 0.704872
O O4 0.328825 0.000000 0.792086
O O5 0.026623 0.500000 0.698677
O O6 0.035356 0.738515 0.792754
O O7 0.100190 0.752234 0.664520
O O8 0.931507 0.719048 0.626003
O O9 0.420981 0.500000 0.136269
O O10 0.365023 0.740738 0.048535
O O11 0.860423 0.500000 0.970830
O O12 0.000000 0.329547 0.000000
O O13 0.682558 0.500000 0.637195
O O14 0.666555 0.267543 0.537966
O O15 0.500000 0.821880 0.500000
O O16 0.375662 0.000000 0.523594
#
# Coordination Sequence:
#
# PCOD9178992 Si02
#       6
#     8   8   8   8   8   8
#     4   8  16  30  46  68  94 120 153 188 224 267
#     4   9  16  26  40  60  89 121 152 184 219 265
#     4  10  19  31  48  69  94 120 149 190 232 270
#     4  10  20  34  51  68  89 120 155 188 225 273
#     4   9  15  23  38  61  90 120 149 184 224 265
#     4   8  14  23  35  56  88 121 149 180 218 263
#
# _framework density 21.929055999999999
#
# number of rings (size 3 to 8) (size 9 to 14) (size 15 to 20)
#    0.000    3.000    0.000    4.000    0.000    4.000 
#    0.000    4.167    0.000    0.000    0.000    1.167 
#    0.000    0.000    0.000    0.000    0.000    0.000 
#
# Total GULP energy -133781.126765 kJ/mol
# GULP energy per Si atom -5574.213615 kJ/mol
# Density = 2.187914 g / cm^3
# Si number density = 21.929056 Si / 1000 Ang^3
#
#
#
# Elastic Constant Matrix: (Units=GPa)
#
#
# Indices 1 2 3 4 5 6 
#
# 1 37.2073 14.7285 49.7743 0.0000 -17.5999 0.0000
# 2 14.7285 61.3899 58.5212 0.0000 12.9511 0.0000
# 3 49.7743 58.5212 210.9987 0.0000 69.9840 0.0000
# 4 0.0000 0.0000 0.0000 23.1349 0.0000 -3.5481
# 5 -17.5999 12.9511 69.9840 0.0000 19.1349 0.0000
# 6 0.0000 0.0000 0.0000 -3.5481 0.0000 -8.3095
#
#
#
# Elastic Compliance Matrix: (Units=1/GPa)
#
#
# Indices 1 2 3 4 5 6 
#
# 1 0.003902 -0.003872 0.008946 0.000000 -0.026509 0.000000
# 2 -0.003872 0.021895 -0.004397 0.000000 -0.002298 0.000000
# 3 0.008946 -0.004397 -0.000621 0.000000 0.013476 0.000000
# 4 0.000000 0.000000 0.000000 0.040568 0.000000 -0.017322
# 5 -0.026509 -0.002298 0.013476 0.000000 -0.019854 0.000000
# 6 0.000000 0.000000 0.000000 -0.017322 0.000000 -0.112948
#
#
# Mechanical properties :
#
#
# Convention : Reuss Voigt Hill
#
# Bulk Modulus (GPa) = 37.69316 61.73822 49.71569
# Shear Modulus (GPa) = -83.93537 19.23019 -32.35259
#
# Velocity S-wave (km/s) = -6.19346 2.96451 -3.84517
# Velocity P-wave (km/s) = 5.82403 6.31921 1.73395
#
# Compressibility (1/GPa) = 0.02653001
#
# Stress axis : x y z
#
# Youngs Moduli (GPa) = 256.27376 45.67339 -1610.10321
#
# Poissons Ratio (x) = 0.17683 14.40380
# Poissons Ratio (y) = 0.99217 -7.07988
# Poissons Ratio (z) = -2.29260 0.20083
#
# Static dielectric constant tensor:
#      x y z
#    x 1.861870 0.000000 -0.025820 
#    y 0.000000 1.750850 0.000000 
#    z -0.025820 0.000000 1.898410 
# 
# From -- ./inp_files/280524.got.cif
#   From: 2010.05.17/outbox.cif.g08.bks.cpg/sg12_141_cif.got.tgz:280524.got - 2010.06.03 13:09:07.
