data_PCOD9178405
_publ_section_title
;
Structure prediction by ZEFSAII (Michael W. Deem and Ramdas Pophale) SiO2 
 PCOD9178405
Probable space group: C 2/M
;
_chemical_formula_sum "Si O2"
_cell_formula_units_Z 40
_cell_length_a 5.172765
_cell_length_b 34.668248
_cell_length_c 13.894046
_cell_angle_alpha 90.000000
_cell_angle_beta 71.431624
_cell_angle_gamma 90.000000
_cell_volume 2361.925534
_symmetry_space_group_name_H-M "C 2/M"
_symmetry_group_IT_number 12
_symmetry_cell_setting 'monoclinic'
loop_
_space_group_symop_operation_xyz
x,y,z
-x,y,-z
-x,-y,-z
x,-y,z
1/2+x,1/2+y,z
1/2-x,1/2+y,-z
1/2-x,1/2-y,-z
1/2+x,1/2-y,z
loop_
_atom_site_type_symbol
_atom_site_label
_atom_site_fract_x
_atom_site_fract_y
_atom_site_fract_z
Si Si1 0.219353 0.860800 0.310078
Si Si2 0.346768 0.911054 0.114703
Si Si3 0.911935 0.224800 0.621067
Si Si4 0.657552 0.904094 0.385265
Si Si5 0.786328 0.045647 0.189235
O O1 0.286494 0.876225 0.195319
O O2 0.173516 0.815417 0.322181
O O3 0.463370 0.874377 0.350530
O O4 0.942294 0.882897 0.373667
O O5 0.542555 0.940414 0.149425
O O6 0.063412 0.932583 0.126566
O O7 0.500000 0.899002 0.000000
O O8 0.664366 0.254907 0.643434
O O9 0.000000 0.216464 0.500000
O O10 0.500000 0.915968 0.500000
O O11 0.717237 0.938972 0.304754
O O12 0.819770 0.000000 0.182462
#
# Coordination Sequence:
#
# PCOD9178405 Si02
#       5
#     8   8   8   8   8
#     4  10  20  34  51  73 101 130 167 204 237 291
#     4  10  21  36  54  73  95 130 169 207 250 288
#     4  10  19  30  48  74 101 128 156 192 241 289
#     4  10  19  32  51  72  99 136 167 196 240 293
#     4  10  21  34  50  76 102 126 164 208 250 295
#
# _framework density 16.935334999999998
#
# number of rings (size 3 to 8) (size 9 to 14) (size 15 to 20)
#    0.000    2.000    0.000    4.200    0.000    4.400 
#    0.000    0.000    0.000    8.400    0.000    0.000 
#    0.000    0.000    0.000    0.000    0.000    0.000 
#
# Total GULP energy -111684.781546 kJ/mol
# GULP energy per Si atom -5584.239077 kJ/mol
# Density = 1.689679 g / cm^3
# Si number density = 16.935335 Si / 1000 Ang^3
#
#
#
# Elastic Constant Matrix: (Units=GPa)
#
#
# Indices 1 2 3 4 5 6 
#
# 1 61.1951 9.7010 8.9724 0.0000 -15.8149 0.0000
# 2 9.7010 86.1360 22.4335 0.0000 -8.9058 0.0000
# 3 8.9724 22.4335 89.1022 0.0000 -25.4501 0.0000
# 4 0.0000 0.0000 0.0000 3.2600 0.0000 -0.9514
# 5 -15.8149 -8.9058 -25.4501 0.0000 21.7341 0.0000
# 6 0.0000 0.0000 0.0000 -0.9514 0.0000 9.7204
#
#
#
# Elastic Compliance Matrix: (Units=1/GPa)
#
#
# Indices 1 2 3 4 5 6 
#
# 1 0.020912 -0.001346 0.003639 0.000000 0.018926 0.000000
# 2 -0.001346 0.012578 -0.002763 0.000000 0.000939 0.000000
# 3 0.003639 -0.002763 0.018008 0.000000 0.022603 0.000000
# 4 0.000000 0.000000 0.000000 0.315763 0.000000 0.030905
# 5 0.018926 0.000939 0.022603 0.000000 0.086635 0.000000
# 6 0.000000 0.000000 0.000000 0.030905 0.000000 0.105901
#
#
# Mechanical properties :
#
#
# Convention : Reuss Voigt Hill
#
# Bulk Modulus (GPa) = 19.77919 35.40526 27.59222
# Shear Modulus (GPa) = 8.65664 19.96467 14.31066
#
# Velocity S-wave (km/s) = 2.26333 3.43720 2.91007
# Velocity P-wave (km/s) = 4.30521 6.05838 5.25542
#
# Compressibility (1/GPa) = 0.05055819
#
# Stress axis : x y z
#
# Youngs Moduli (GPa) = 47.81882 79.50492 55.52990
#
# Poissons Ratio (x) = 0.10702 -0.20207
# Poissons Ratio (y) = 0.06437 0.15343
# Poissons Ratio (z) = -0.17401 0.21967
#
# Static dielectric constant tensor:
#      x y z
#    x 1.573550 0.000000 -0.004050 
#    y 0.000000 1.525610 0.000000 
#    z -0.004050 0.000000 1.568820 
# 
# From -- ./inp_files/115858.got.cif
#   From: 2010.05.17/outbox.cif.g08.bks.cpg/sg12_58_cif.got.tgz:115858.got - 2010.06.03 13:09:07.
