data_PCOD9178932
_publ_section_title
;
Structure prediction by ZEFSAII (Michael W. Deem and Ramdas Pophale) SiO2 
 PCOD9178932
Probable space group: C 2/M
;
_chemical_formula_sum "Si O2"
_cell_formula_units_Z 64
_cell_length_a 8.445539
_cell_length_b 30.351870
_cell_length_c 13.692681
_cell_angle_alpha 90.000000
_cell_angle_beta 76.070349
_cell_angle_gamma 90.000000
_cell_volume 3406.732528
_symmetry_space_group_name_H-M "C 2/M"
_symmetry_group_IT_number 12
_symmetry_cell_setting 'monoclinic'
loop_
_space_group_symop_operation_xyz
x,y,z
-x,y,-z
-x,-y,-z
x,-y,z
1/2+x,1/2+y,z
1/2-x,1/2+y,-z
1/2-x,1/2-y,-z
1/2+x,1/2-y,z
loop_
_atom_site_type_symbol
_atom_site_label
_atom_site_fract_x
_atom_site_fract_y
_atom_site_fract_z
Si Si1 0.189092 0.299547 0.996072
Si Si2 0.875658 0.883726 0.609335
Si Si3 0.112567 0.952930 0.662821
Si Si4 0.352096 0.362414 0.813949
Si Si5 0.150864 0.451193 0.549653
Si Si6 0.368789 0.051393 0.109268
Si Si7 0.143498 0.866162 0.900233
Si Si8 0.323796 0.049554 0.819818
O O1 0.275227 0.324809 0.893830
O O2 0.250000 0.250000 0.000000
O O3 0.235126 0.327548 0.086203
O O4 0.000000 0.300026 0.000000
O O5 0.830099 0.850296 0.702786
O O6 0.712422 0.909102 0.599940
O O7 0.000000 0.872339 0.500000
O O8 0.974167 0.918072 0.663521
O O9 0.197282 0.956443 0.545957
O O10 0.255703 0.944834 0.720189
O O11 0.037676 0.000000 0.701556
O O12 0.261499 0.408710 0.861107
O O13 0.544330 0.362740 0.814332
O O14 0.124635 0.500000 0.600535
O O15 0.000000 0.442803 0.500000
O O16 0.484988 0.053973 0.187964
O O17 0.309287 0.000000 0.109781
O O18 0.500000 0.057718 0.000000
O O19 0.233768 0.912549 0.891897
O O20 0.000000 0.865720 0.000000
O O21 0.279155 0.000000 0.857851
#
# Coordination Sequence:
#
# PCOD9178932 Si02
#       8
#     8   8   8   8   8   8   8   8
#     4  11  23  43  67  93 117 140 176 231 287 349
#     4  10  20  34  50  74 109 151 193 236 286 332
#     4   9  17  30  45  65  98 143 195 241 281 318
#     4  11  21  35  57  86 115 153 194 236 287 340
#     4   9  18  30  46  68  99 142 199 256 290 320
#     4  10  21  34  48  73 114 159 199 242 293 346
#     4  10  20  34  55  82 111 144 187 233 279 343
#     4  10  19  31  47  70 108 152 193 236 282 333
#
# _framework density 18.786331000000001
#
# number of rings (size 3 to 8) (size 9 to 14) (size 15 to 20)
#    0.000    2.000    1.250    4.125    1.750    3.250 
#    0.000    0.000    0.000    0.000    0.000    3.500 
#    0.000    0.000    0.000    0.000    0.000    0.000 
#
# Total GULP energy -178143.913179 kJ/mol
# GULP energy per Si atom -5566.997287 kJ/mol
# Density = 1.874357 g / cm^3
# Si number density = 18.786331 Si / 1000 Ang^3
#
#
#
# Elastic Constant Matrix: (Units=GPa)
#
#
# Indices 1 2 3 4 5 6 
#
# 1 87.2308 47.2334 13.8025 0.0000 13.6143 0.0000
# 2 47.2334 100.2739 24.7774 0.0000 3.2022 0.0000
# 3 13.8025 24.7774 79.2037 0.0000 4.6484 0.0000
# 4 0.0000 0.0000 0.0000 7.8011 0.0000 7.7367
# 5 13.6143 3.2022 4.6484 0.0000 28.8027 0.0000
# 6 0.0000 0.0000 0.0000 7.7367 0.0000 29.0819
#
#
#
# Elastic Compliance Matrix: (Units=1/GPa)
#
#
# Indices 1 2 3 4 5 6 
#
# 1 0.016702 -0.007614 -0.000116 0.000000 -0.007029 0.000000
# 2 -0.007614 0.014292 -0.003293 0.000000 0.002542 0.000000
# 3 -0.000116 -0.003293 0.013782 0.000000 -0.001803 0.000000
# 4 0.000000 0.000000 0.000000 0.174129 0.000000 -0.046324
# 5 -0.007029 0.002542 -0.001803 0.000000 0.038050 0.000000
# 6 0.000000 0.000000 0.000000 -0.046324 0.000000 0.046709
#
#
# Mechanical properties :
#
#
# Convention : Reuss Voigt Hill
#
# Bulk Modulus (GPa) = 43.99681 48.70391 46.35036
# Shear Modulus (GPa) = 15.00203 25.19679 20.09941
#
# Velocity S-wave (km/s) = 2.82895 3.66625 3.27447
# Velocity P-wave (km/s) = 5.84303 6.62596 6.24677
#
# Compressibility (1/GPa) = 0.02272892
#
# Stress axis : x y z
#
# Youngs Moduli (GPa) = 59.87192 69.96936 72.55860
#
# Poissons Ratio (x) = 0.53277 0.00842
# Poissons Ratio (y) = 0.45589 0.23895
# Poissons Ratio (z) = 0.00695 0.23043
#
# Static dielectric constant tensor:
#      x y z
#    x 1.710920 0.000000 0.013290 
#    y 0.000000 1.708880 0.000000 
#    z 0.013290 0.000000 1.781620 
# 
# From -- ./inp_files/199831.got.cif
#   From: 2010.05.17/outbox.cif.g08.bks.cpg/sg12_100_cif.got.tgz:199831.got - 2010.06.03 13:09:07.
