data_PCOD9178472
_publ_section_title
;
Structure prediction by ZEFSAII (Michael W. Deem and Ramdas Pophale) SiO2 
 PCOD9178472
Probable space group: C 2/M
;
_chemical_formula_sum "Si O2"
_cell_formula_units_Z 64
_cell_length_a 21.150803
_cell_length_b 7.636091
_cell_length_c 24.029390
_cell_angle_alpha 90.000000
_cell_angle_beta 123.118054
_cell_angle_gamma 90.000000
_cell_volume 3250.496331
_symmetry_space_group_name_H-M "C 2/M"
_symmetry_group_IT_number 12
_symmetry_cell_setting 'monoclinic'
loop_
_space_group_symop_operation_xyz
x,y,z
-x,y,-z
-x,-y,-z
x,-y,z
1/2+x,1/2+y,z
1/2-x,1/2+y,-z
1/2-x,1/2-y,-z
1/2+x,1/2-y,z
loop_
_atom_site_type_symbol
_atom_site_label
_atom_site_fract_x
_atom_site_fract_y
_atom_site_fract_z
Si Si1 0.661163 0.789514 0.956157
Si Si2 0.278548 0.211512 0.826130
Si Si3 0.085971 0.285361 0.034698
Si Si4 0.372359 0.703453 0.582055
Si Si5 0.372659 0.207173 0.180982
Si Si6 0.960526 0.796353 0.331335
Si Si7 0.687309 0.711988 0.677333
Si Si8 0.722867 0.792515 0.567544
O O1 0.625669 0.724015 0.881168
O O2 0.653842 0.000000 0.951871
O O3 0.750000 0.750000 0.000000
O O4 0.621158 0.726562 0.992944
O O5 0.358060 0.271867 0.888954
O O6 0.211832 0.262812 0.836425
O O7 0.250877 0.271866 0.752146
O O8 0.280363 0.000000 0.825691
O O9 0.086346 0.500000 0.034882
O O10 0.000000 0.228707 0.000000
O O11 0.380446 0.500000 0.602672
O O12 0.455949 0.782872 0.624978
O O13 0.338941 0.712875 0.503770
O O14 0.305412 0.777440 0.588762
O O15 0.428579 0.287941 0.253270
O O16 0.387540 0.000000 0.187735
O O17 0.893565 0.722519 0.338099
O O18 0.967450 0.000000 0.351284
O O19 0.685730 0.500000 0.679104
O O20 0.704629 0.763031 0.622927
O O21 0.722399 0.000000 0.555997
#
# Coordination Sequence:
#
# PCOD9178472 Si02
#       8
#     8   8   8   8   8   8   8   8
#     4  10  19  31  51  76  99 130 170 211 254 299
#     4   9  17  32  53  73  96 137 177 204 245 301
#     4   9  17  31  51  73  99 131 171 215 251 291
#     4   9  19  37  57  75 100 135 173 207 241 292
#     4  10  19  30  48  78 106 128 161 211 264 300
#     4   9  19  36  56  75  99 135 174 207 243 293
#     4   9  18  32  51  76 100 130 173 210 244 293
#     4  10  20  34  54  78 104 135 166 201 253 302
#
# _framework density 19.689302000000001
#
# number of rings (size 3 to 8) (size 9 to 14) (size 15 to 20)
#    0.000    2.625    1.250    1.500    0.000    4.000 
#    2.250    2.500    0.000    1.500    0.000    0.000 
#    0.000    0.000    0.000    0.000    0.000    0.000 
#
# Total GULP energy -178460.588250 kJ/mol
# GULP energy per Si atom -5576.893383 kJ/mol
# Density = 1.964449 g / cm^3
# Si number density = 19.689302 Si / 1000 Ang^3
#
#
#
# Elastic Constant Matrix: (Units=GPa)
#
#
# Indices 1 2 3 4 5 6 
#
# 1 145.1325 0.8869 102.1524 0.0000 12.0463 0.0000
# 2 0.8869 35.4826 -5.8742 0.0000 4.4735 0.0000
# 3 102.1524 -5.8742 123.2827 0.0000 0.2582 0.0000
# 4 0.0000 0.0000 0.0000 14.9824 0.0000 -4.1847
# 5 12.0463 4.4735 0.2582 0.0000 34.6680 0.0000
# 6 0.0000 0.0000 0.0000 -4.1847 0.0000 13.7255
#
#
#
# Elastic Compliance Matrix: (Units=1/GPa)
#
#
# Indices 1 2 3 4 5 6 
#
# 1 0.017878 -0.002181 -0.014905 0.000000 -0.005820 0.000000
# 2 -0.002181 0.029149 0.003202 0.000000 -0.003027 0.000000
# 3 -0.014905 0.003202 0.020605 0.000000 0.004613 0.000000
# 4 0.000000 0.000000 0.000000 0.072958 0.000000 0.022244
# 5 -0.005820 -0.003027 0.004613 0.000000 0.031224 0.000000
# 6 0.000000 0.000000 0.000000 0.022244 0.000000 0.079639
#
#
# Mechanical properties :
#
#
# Convention : Reuss Voigt Hill
#
# Bulk Modulus (GPa) = 25.08517 55.35868 40.22192
# Shear Modulus (GPa) = 17.09355 26.45736 21.77546
#
# Velocity S-wave (km/s) = 2.94966 3.66969 3.32920
# Velocity P-wave (km/s) = 4.93648 6.79210 5.93723
#
# Compressibility (1/GPa) = 0.03986419
#
# Stress axis : x y z
#
# Youngs Moduli (GPa) = 55.93499 34.30632 48.53184
#
# Poissons Ratio (x) = 0.07481 0.72339
# Poissons Ratio (y) = 0.12198 -0.15541
# Poissons Ratio (z) = 0.83373 -0.10986
#
# Static dielectric constant tensor:
#      x y z
#    x 1.684130 0.000000 0.006840 
#    y 0.000000 1.747800 0.000000 
#    z 0.006840 0.000000 1.684930 
# 
# From -- ./inp_files/320160.got.cif
#   From: 2010.05.17/outbox.cif.g08.bks.cpg/sg12_161_cif.got.tgz:320160.got - 2010.06.03 13:09:07.
