data_PCOD9178907
_publ_section_title
;
Structure prediction by ZEFSAII (Michael W. Deem and Ramdas Pophale) SiO2 
 PCOD9178907
Probable space group: C 2/M
;
_chemical_formula_sum "Si O2"
_cell_formula_units_Z 64
_cell_length_a 22.230267
_cell_length_b 7.413138
_cell_length_c 17.544252
_cell_angle_alpha 90.000000
_cell_angle_beta 91.965184
_cell_angle_gamma 90.000000
_cell_volume 2889.522728
_symmetry_space_group_name_H-M "C 2/M"
_symmetry_group_IT_number 12
_symmetry_cell_setting 'monoclinic'
loop_
_space_group_symop_operation_xyz
x,y,z
-x,y,-z
-x,-y,-z
x,-y,z
1/2+x,1/2+y,z
1/2-x,1/2+y,-z
1/2-x,1/2-y,-z
1/2+x,1/2-y,z
loop_
_atom_site_type_symbol
_atom_site_label
_atom_site_fract_x
_atom_site_fract_y
_atom_site_fract_z
Si Si1 0.607426 0.207608 0.752443
Si Si2 0.424173 0.220322 0.919906
Si Si3 0.332960 0.291769 0.394678
Si Si4 0.936762 0.279877 0.090611
Si Si5 0.798709 0.720858 0.621937
Si Si6 0.019872 0.218019 0.329475
Si Si7 0.585979 0.293438 0.476267
Si Si8 0.136142 0.290152 0.230893
O O1 0.652839 0.290882 0.694029
O O2 0.598807 0.284370 0.836746
O O3 0.542004 0.219200 0.709682
O O4 0.624993 0.000000 0.760647
O O5 0.492860 0.273713 0.902745
O O6 0.379014 0.286427 0.852755
O O7 0.423777 0.000000 0.918334
O O8 0.412661 0.274663 0.006592
O O9 0.330116 0.500000 0.418874
O O10 0.266929 0.214879 0.406211
O O11 0.388833 0.210657 0.444390
O O12 0.936654 0.500000 0.092893
O O13 0.800213 0.500000 0.620072
O O14 0.853071 0.788005 0.572168
O O15 0.813847 0.781539 0.708909
O O16 0.035804 0.281831 0.416217
O O17 0.074178 0.277198 0.276691
O O18 0.019246 0.000000 0.331519
O O19 0.567858 0.500000 0.491250
O O20 0.150690 0.500000 0.220146
#
# Coordination Sequence:
#
# PCOD9178907 Si02
#       8
#     8   8   8   8   8   8   8   8
#     4  11  21  33  49  69  94 125 161 197 228 274
#     4   8  12  22  44  71  96 118 146 187 230 272
#     4  10  21  36  49  66  94 129 161 191 233 283
#     4   8  14  24  42  69  95 120 150 187 228 271
#     4   9  18  31  51  75  96 118 153 200 241 269
#     4  10  19  31  47  69  96 126 153 186 237 285
#     4   9  19  34  52  70  92 123 158 193 233 283
#     4   9  15  27  49  75  97 119 151 194 233 272
#
# _framework density 22.148986000000001
#
# number of rings (size 3 to 8) (size 9 to 14) (size 15 to 20)
#    0.000    2.750    1.250    1.875    0.000    2.000 
#    0.000    2.500    0.000    3.000    0.000    0.000 
#    0.000    0.000    0.000    0.000    0.000    0.125 
#
# Total GULP energy -178551.123326 kJ/mol
# GULP energy per Si atom -5579.722604 kJ/mol
# Density = 2.209857 g / cm^3
# Si number density = 22.148986 Si / 1000 Ang^3
#
#
#
# Elastic Constant Matrix: (Units=GPa)
#
#
# Indices 1 2 3 4 5 6 
#
# 1 51.5352 -2.8092 14.7976 0.0000 1.5402 0.0000
# 2 -2.8092 79.0553 3.1225 0.0000 6.0922 0.0000
# 3 14.7976 3.1225 155.1216 0.0000 8.9768 0.0000
# 4 0.0000 0.0000 0.0000 9.1897 0.0000 -4.6089
# 5 1.5402 6.0922 8.9768 0.0000 21.4776 0.0000
# 6 0.0000 0.0000 0.0000 -4.6089 0.0000 3.8789
#
#
#
# Elastic Compliance Matrix: (Units=1/GPa)
#
#
# Indices 1 2 3 4 5 6 
#
# 1 0.020016 0.000854 -0.001875 0.000000 -0.000894 0.000000
# 2 0.000854 0.012969 -0.000129 0.000000 -0.003686 0.000000
# 3 -0.001875 -0.000129 0.006782 0.000000 -0.002664 0.000000
# 4 0.000000 0.000000 0.000000 0.269295 0.000000 0.319979
# 5 -0.000894 -0.003686 -0.002664 0.000000 0.048783 0.000000
# 6 0.000000 0.000000 0.000000 0.319979 0.000000 0.638008
#
#
# Mechanical properties :
#
#
# Convention : Reuss Voigt Hill
#
# Bulk Modulus (GPa) = 26.69008 35.10376 30.89692
# Shear Modulus (GPa) = 4.94735 24.94932 14.94833
#
# Velocity S-wave (km/s) = 1.49617 3.35988 2.60070
# Velocity P-wave (km/s) = 3.88086 5.56193 4.79563
#
# Compressibility (1/GPa) = 0.03746710
#
# Stress axis : x y z
#
# Youngs Moduli (GPa) = 49.96042 77.10763 147.44596
#
# Poissons Ratio (x) = -0.06586 0.27644
# Poissons Ratio (y) = -0.04268 0.01906
# Poissons Ratio (z) = 0.09367 0.00997
#
# Static dielectric constant tensor:
#      x y z
#    x 1.782460 0.000000 0.028180 
#    y 0.000000 1.900470 0.000000 
#    z 0.028180 0.000000 1.865730 
# 
# From -- ./inp_files/287651.got.cif
#   From: 2010.05.17/outbox.cif.g08.bks.cpg/sg12_144_cif.got.tgz:287651.got - 2010.06.03 13:09:07.
