data_PCOD9178426
_publ_section_title
;
Structure prediction by ZEFSAII (Michael W. Deem and Ramdas Pophale) SiO2 
 PCOD9178426
Probable space group: C 2/M
;
_chemical_formula_sum "Si O2"
_cell_formula_units_Z 40
_cell_length_a 25.083223
_cell_length_b 8.794728
_cell_length_c 21.420597
_cell_angle_alpha 90.000000
_cell_angle_beta 31.352540
_cell_angle_gamma 90.000000
_cell_volume 2458.629993
_symmetry_space_group_name_H-M "C 2/M"
_symmetry_group_IT_number 12
_symmetry_cell_setting 'monoclinic'
loop_
_space_group_symop_operation_xyz
x,y,z
-x,y,-z
-x,-y,-z
x,-y,z
1/2+x,1/2+y,z
1/2-x,1/2+y,-z
1/2-x,1/2-y,-z
1/2+x,1/2-y,z
loop_
_atom_site_type_symbol
_atom_site_label
_atom_site_fract_x
_atom_site_fract_y
_atom_site_fract_z
Si Si1 0.668002 0.181711 0.993760
Si Si2 0.113320 0.817349 0.182982
Si Si3 0.386679 0.317349 0.409622
Si Si4 0.168001 0.681711 0.670237
Si Si5 0.999999 0.817965 0.927758
O O1 0.628294 0.238339 0.100970
O O2 0.599203 0.256214 0.009486
O O3 0.657822 0.000000 0.000444
O O4 0.788814 0.222768 0.872606
O O5 0.999999 0.780022 0.320859
O O6 0.117895 0.000000 0.168500
O O7 0.382104 0.500000 0.404291
O O8 0.288813 0.277234 0.549768
O O9 0.371705 0.238337 0.357559
O O10 0.157819 0.500000 0.683916
O O11 0.099202 0.756216 0.792109
O O12 0.999998 0.000000 0.924563
O O13 0.000000 0.770650 0.000000
#
# Coordination Sequence:
#
# PCOD9178426 Si02
#       5
#     8   8   8   8   8
#     4  10  19  30  48  75 100 126 165 203 241 290
#     4   9  17  30  49  73 104 133 154 191 246 300
#     4   9  17  30  49  73 104 133 154 191 246 300
#     4  10  19  30  48  75 100 126 165 203 241 290
#     4  11  23  37  51  67  95 135 172 207 250 295
#
# _framework density 16.269221999999999
#
# number of rings (size 3 to 8) (size 9 to 14) (size 15 to 20)
#    0.000    2.200    2.000    1.800    0.000    3.200 
#    0.000    0.000    0.000    1.200    0.000    8.400 
#    0.000    0.000    0.000    0.000    0.000    0.000 
#
# Total GULP energy -111497.111556 kJ/mol
# GULP energy per Si atom -5574.855578 kJ/mol
# Density = 1.623219 g / cm^3
# Si number density = 16.269222 Si / 1000 Ang^3
#
#
#
# Elastic Constant Matrix: (Units=GPa)
#
#
# Indices 1 2 3 4 5 6 
#
# 1 113.3022 38.6493 90.4451 -0.0005 -15.6347 0.0003
# 2 38.6493 31.2650 41.9576 -0.0005 -4.8237 0.0002
# 3 90.4451 41.9576 142.1652 -0.0009 -26.4312 0.0006
# 4 -0.0005 -0.0005 -0.0009 20.3527 0.0009 0.5292
# 5 -15.6347 -4.8237 -26.4312 0.0009 32.5216 -0.0005
# 6 0.0003 0.0002 0.0006 0.5292 -0.0005 20.7160
#
#
#
# Elastic Compliance Matrix: (Units=1/GPa)
#
#
# Indices 1 2 3 4 5 6 
#
# 1 0.020759 -0.013229 -0.009202 0.000000 0.000539 0.000000
# 2 -0.013229 0.062308 -0.011117 0.000001 -0.006153 0.000000
# 3 -0.009202 -0.011117 0.017717 0.000000 0.008327 0.000000
# 4 0.000000 0.000001 0.000000 0.049166 -0.000001 -0.001256
# 5 0.000539 -0.006153 0.008327 -0.000001 0.036862 0.000001
# 6 0.000000 0.000000 0.000000 -0.001256 0.000001 0.048304
#
#
# Mechanical properties :
#
#
# Convention : Reuss Voigt Hill
#
# Bulk Modulus (GPa) = 29.68432 69.87073 49.77752
# Shear Modulus (GPa) = 15.95194 22.43009 19.19101
#
# Velocity S-wave (km/s) = 3.13469 3.71709 3.43824
# Velocity P-wave (km/s) = 5.60241 7.83978 6.81356
#
# Compressibility (1/GPa) = 0.03368782
#
# Stress axis : x y z
#
# Youngs Moduli (GPa) = 48.17250 16.04939 56.44190
#
# Poissons Ratio (x) = 0.21232 0.51938
# Poissons Ratio (y) = 0.63729 0.62744
# Poissons Ratio (z) = 0.44329 0.17841
#
# Static dielectric constant tensor:
#      x y z
#    x 1.527860 0.000000 -0.050630 
#    y 0.000000 1.543650 0.000000 
#    z -0.050630 0.000000 1.562610 
# 
# From -- ./inp_files/60845.got.cif
#   From: 2010.05.17/outbox.cif.g08.bks.cpg/sg12_31_cif.got.tgz:60845.got - 2010.06.03 13:09:07.
