data_PCOD9178382
_publ_section_title
;
Structure prediction by ZEFSAII (Michael W. Deem and Ramdas Pophale) SiO2 
 PCOD9178382
Probable space group: C 2/M
;
_chemical_formula_sum "Si O2"
_cell_formula_units_Z 48
_cell_length_a 23.363496
_cell_length_b 8.549613
_cell_length_c 14.505760
_cell_angle_alpha 90.000000
_cell_angle_beta 101.883179
_cell_angle_gamma 90.000000
_cell_volume 2835.413746
_symmetry_space_group_name_H-M "C 2/M"
_symmetry_group_IT_number 12
_symmetry_cell_setting 'monoclinic'
loop_
_space_group_symop_operation_xyz
x,y,z
-x,y,-z
-x,-y,-z
x,-y,z
1/2+x,1/2+y,z
1/2-x,1/2+y,-z
1/2-x,1/2-y,-z
1/2+x,1/2-y,z
loop_
_atom_site_type_symbol
_atom_site_label
_atom_site_fract_x
_atom_site_fract_y
_atom_site_fract_z
Si Si1 0.642017 0.189427 0.315353
Si Si2 0.202668 0.187324 0.911993
Si Si3 0.811614 0.311551 0.481694
Si Si4 0.043750 0.687436 0.141247
Si Si5 0.078661 0.812701 0.955008
Si Si6 0.765376 0.687849 0.278029
O O1 0.642834 0.237280 0.423716
O O2 0.585536 0.238576 0.238577
O O3 0.701040 0.253568 0.287323
O O4 0.644875 0.000000 0.312360
O O5 0.138058 0.235875 0.924195
O O6 0.217173 0.247325 0.815032
O O7 0.204825 0.000000 0.912832
O O8 0.250000 0.250000 0.000000
O O9 0.811103 0.500000 0.481213
O O10 0.750000 0.250000 0.500000
O O11 0.810673 0.262223 0.374535
O O12 0.037965 0.500000 0.141030
O O13 0.979495 0.761962 0.118718
O O14 0.073413 0.736739 0.054418
O O15 0.078544 0.000000 0.966012
O O16 0.764007 0.500000 0.273783
#
# Coordination Sequence:
#
# PCOD9178382 Si02
#       6
#     8   8   8   8   8   8
#     4   9  17  30  49  73 100 127 158 197 237 279
#     4  11  23  36  51  71  96 127 160 194 235 283
#     4   8  15  28  45  68  97 126 157 193 234 278
#     4  10  19  31  51  74  94 121 156 195 236 277
#     4  10  21  35  49  67  94 126 157 192 235 281
#     4  10  19  30  48  73 100 130 160 193 236 283
#
# _framework density 16.928747000000001
#
# number of rings (size 3 to 8) (size 9 to 14) (size 15 to 20)
#    0.000    2.333    0.000    4.000    0.000    7.333 
#    0.000    0.000    0.000    1.000    0.000    7.000 
#    0.000    0.000    0.000    0.000    0.000    0.000 
#
# Total GULP energy -133773.712921 kJ/mol
# GULP energy per Si atom -5573.904705 kJ/mol
# Density = 1.689022 g / cm^3
# Si number density = 16.928747 Si / 1000 Ang^3
#
#
#
# Elastic Constant Matrix: (Units=GPa)
#
#
# Indices 1 2 3 4 5 6 
#
# 1 85.7183 16.6355 78.0451 0.0000 7.2072 0.0000
# 2 16.6355 20.4199 21.3720 0.0000 1.6031 0.0000
# 3 78.0451 21.3720 176.1416 0.0000 20.6732 0.0000
# 4 0.0000 0.0000 0.0000 20.3865 0.0000 -1.7123
# 5 7.2072 1.6031 20.6732 0.0000 29.3480 0.0000
# 6 0.0000 0.0000 0.0000 -1.7123 0.0000 21.2170
#
#
#
# Elastic Compliance Matrix: (Units=1/GPa)
#
#
# Indices 1 2 3 4 5 6 
#
# 1 0.020763 -0.008284 -0.008338 0.000000 0.001227 0.000000
# 2 -0.008284 0.059496 -0.003713 0.000000 0.001400 0.000000
# 3 -0.008338 -0.003713 0.010420 0.000000 -0.005089 0.000000
# 4 0.000000 0.000000 0.000000 0.049387 0.000000 0.003986
# 5 0.001227 0.001400 -0.005089 0.000000 0.037281 0.000000
# 6 0.000000 0.000000 0.000000 0.003986 0.000000 0.047454
#
#
# Mechanical properties :
#
#
# Convention : Reuss Voigt Hill
#
# Bulk Modulus (GPa) = 19.99661 57.15389 38.57525
# Shear Modulus (GPa) = 17.72171 25.27212 21.49691
#
# Velocity S-wave (km/s) = 3.23900 3.86794 3.56736
# Velocity P-wave (km/s) = 5.08193 7.33367 6.30907
#
# Compressibility (1/GPa) = 0.05000847
#
# Stress axis : x y z
#
# Youngs Moduli (GPa) = 48.16347 16.80776 95.97215
#
# Poissons Ratio (x) = 0.13923 0.80026
# Poissons Ratio (y) = 0.39897 0.35633
# Poissons Ratio (z) = 0.40161 0.06240
#
# Static dielectric constant tensor:
#      x y z
#    x 1.544470 0.000000 0.027060 
#    y 0.000000 1.581010 0.000000 
#    z 0.027060 0.000000 1.604020 
# 
# From -- ./inp_files/172392.got.cif
#   From: 2010.05.17/outbox.cif.g08.bks.cpg/sg12_87_cif.got.tgz:172392.got - 2010.06.03 13:09:07.
