data_PCOD9178031
_publ_section_title
;
Structure prediction by ZEFSAII (Michael W. Deem and Ramdas Pophale) SiO2 
 PCOD9178031
Probable space group: C 2/M
;
_chemical_formula_sum "Si O2"
_cell_formula_units_Z 64
_cell_length_a 13.940697
_cell_length_b 9.297616
_cell_length_c 23.345226
_cell_angle_alpha 90.000000
_cell_angle_beta 70.077606
_cell_angle_gamma 90.000000
_cell_volume 2844.812480
_symmetry_space_group_name_H-M "C 2/M"
_symmetry_group_IT_number 12
_symmetry_cell_setting 'monoclinic'
loop_
_space_group_symop_operation_xyz
x,y,z
-x,y,-z
-x,-y,-z
x,-y,z
1/2+x,1/2+y,z
1/2-x,1/2+y,-z
1/2-x,1/2-y,-z
1/2+x,1/2-y,z
loop_
_atom_site_type_symbol
_atom_site_label
_atom_site_fract_x
_atom_site_fract_y
_atom_site_fract_z
Si Si1 0.479797 0.828546 0.136448
Si Si2 0.198421 0.172439 0.891560
Si Si3 0.596241 0.667843 0.613182
Si Si4 0.324137 0.158506 0.757354
Si Si5 0.849132 0.167415 0.644486
Si Si6 0.600165 0.334866 0.022425
Si Si7 0.563413 0.837637 0.728850
Si Si8 0.877388 0.171226 0.515855
O O1 0.384294 0.779813 0.118166
O O2 0.574375 0.761668 0.082454
O O3 0.449557 0.771086 0.205449
O O4 0.493577 0.000000 0.137881
O O5 0.291901 0.193830 0.829006
O O6 0.172003 0.000000 0.892565
O O7 0.192408 0.202188 0.960420
O O8 0.623780 0.500000 0.613317
O O9 0.472482 0.672315 0.629415
O O10 0.617269 0.752183 0.667206
O O11 0.641905 0.729394 0.544269
O O12 0.297159 0.263053 0.710784
O O13 0.445692 0.150472 0.733290
O O14 0.281578 0.000000 0.753250
O O15 0.832322 0.232773 0.584267
O O16 0.823442 0.000000 0.647175
O O17 0.610739 0.500000 0.039197
O O18 0.500000 0.328898 0.000000
O O19 0.603435 0.000000 0.726165
O O20 0.000000 0.180881 0.500000
O O21 0.853924 0.000000 0.518542
#
# Coordination Sequence:
#
# PCOD9178031 Si02
#       8
#     8   8   8   8   8   8   8   8
#     4  10  19  30  46  67  89 112 139 174 215 255
#     4   9  18  32  49  66  84 111 145 178 210 247
#     4   8  13  22  38  58  80 111 147 176 204 244
#     4   9  17  30  45  61  87 119 145 170 207 256
#     4   8  13  22  37  58  84 111 140 175 212 248
#     4   8  15  29  47  65  84 108 141 177 211 247
#     4   9  18  30  42  61  91 120 140 167 214 260
#     4   7  10  18  33  54  80 108 138 173 210 245
#
# _framework density 22.497088999999999
#
# number of rings (size 3 to 8) (size 9 to 14) (size 15 to 20)
#    0.000    3.500    0.000    2.625    0.000    3.750 
#    0.000    1.250    0.000    3.750    0.000    0.875 
#    0.000    0.000    0.000    0.000    0.000    0.000 
#
# Total GULP energy -178280.124112 kJ/mol
# GULP energy per Si atom -5571.253878 kJ/mol
# Density = 2.244589 g / cm^3
# Si number density = 22.497089 Si / 1000 Ang^3
#
#
#
# Elastic Constant Matrix: (Units=GPa)
#
#
# Indices 1 2 3 4 5 6 
#
# 1 36.2984 0.8196 25.5248 0.0000 -6.8869 0.0000
# 2 0.8196 39.9061 79.8425 0.0000 10.4453 0.0000
# 3 25.5248 79.8425 250.1365 0.0000 3.8397 0.0000
# 4 0.0000 0.0000 0.0000 40.5543 0.0000 3.9307
# 5 -6.8869 10.4453 3.8397 0.0000 44.2768 0.0000
# 6 0.0000 0.0000 0.0000 3.9307 0.0000 -0.3860
#
#
#
# Elastic Compliance Matrix: (Units=1/GPa)
#
#
# Indices 1 2 3 4 5 6 
#
# 1 0.033563 0.015602 -0.008440 0.000000 0.002272 0.000000
# 2 0.015602 0.087264 -0.029206 0.000000 -0.015627 0.000000
# 3 -0.008440 -0.029206 0.014115 0.000000 0.004353 0.000000
# 4 0.000000 0.000000 0.000000 0.012409 0.000000 0.126378
# 5 0.002272 -0.015627 0.004353 0.000000 0.026247 0.000000
# 6 0.000000 0.000000 0.000000 0.126378 0.000000 -1.303896
#
#
# Mechanical properties :
#
#
# Convention : Reuss Voigt Hill
#
# Bulk Modulus (GPa) = 11.00673 59.85720 35.43196
# Shear Modulus (GPa) = -4.73518 31.56597 13.41539
#
# Velocity S-wave (km/s) = -1.45237 3.74988 2.44461
# Velocity P-wave (km/s) = 1.44591 6.73893 4.87359
#
# Compressibility (1/GPa) = 0.09085350
#
# Stress axis : x y z
#
# Youngs Moduli (GPa) = 29.79470 11.45952 70.84758
#
# Poissons Ratio (x) = -0.17880 0.59795
# Poissons Ratio (y) = -0.46487 2.06921
# Poissons Ratio (z) = 0.25147 0.33469
#
# Static dielectric constant tensor:
#      x y z
#    x 1.940450 0.000000 -0.031820 
#    y 0.000000 1.782740 0.000000 
#    z -0.031820 0.000000 1.896330 
# 
# From -- ./inp_files/345538.got.cif
#   From: 2010.05.17/outbox.cif.g08.bks.cpg/sg12_173_cif.got.tgz:345538.got - 2010.06.03 13:09:07.
