data_PCOD9178580
_publ_section_title
;
Structure prediction by ZEFSAII (Michael W. Deem and Ramdas Pophale) SiO2 
 PCOD9178580
Probable space group: C 2/M
;
_chemical_formula_sum "Si O2"
_cell_formula_units_Z 56
_cell_length_a 25.973148
_cell_length_b 7.619592
_cell_length_c 25.895137
_cell_angle_alpha 90.000000
_cell_angle_beta 144.832121
_cell_angle_gamma 90.000000
_cell_volume 2951.735853
_symmetry_space_group_name_H-M "C 2/M"
_symmetry_group_IT_number 12
_symmetry_cell_setting 'monoclinic'
loop_
_space_group_symop_operation_xyz
x,y,z
-x,y,-z
-x,-y,-z
x,-y,z
1/2+x,1/2+y,z
1/2-x,1/2+y,-z
1/2-x,1/2-y,-z
1/2+x,1/2-y,z
loop_
_atom_site_type_symbol
_atom_site_label
_atom_site_fract_x
_atom_site_fract_y
_atom_site_fract_z
Si Si1 0.077064 0.787872 0.895053
Si Si2 0.783746 0.709157 0.602510
Si Si3 0.600170 0.205949 0.085745
Si Si4 0.274285 0.792486 0.900920
Si Si5 0.110372 0.209337 0.209987
Si Si6 0.893922 0.796864 0.593632
Si Si7 0.083192 0.783908 0.780575
O O1 0.079558 0.730365 0.837689
O O2 0.986504 0.725755 0.849173
O O3 0.075399 0.000000 0.893884
O O4 0.163167 0.729915 0.997763
O O5 0.784347 0.500000 0.593863
O O6 0.817273 0.744663 0.687314
O O7 0.852960 0.788699 0.617932
O O8 0.684848 0.777797 0.506942
O O9 0.669784 0.282024 0.101559
O O10 0.630182 0.220801 0.169389
O O11 0.591666 0.000000 0.065244
O O12 0.500000 0.283158 0.000000
O O13 0.175416 0.722523 0.830813
O O14 0.262053 0.000000 0.881689
O O15 0.105091 0.000000 0.201928
O O16 0.993256 0.721702 0.678338
O O17 0.903890 0.000000 0.586644
O O18 0.081833 0.000000 0.779567
#
# Coordination Sequence:
#
# PCOD9178580 Si02
#       7
#     8   8   8   8   8   8   8
#     4  10  19  31  48  71 101 132 162 200 242 293
#     4  10  19  30  50  77 102 129 161 203 250 293
#     4  10  20  34  50  72 100 128 165 213 250 282
#     4  10  20  33  51  71  97 134 168 202 244 289
#     4  11  21  33  52  73  99 134 166 201 247 297
#     4   9  17  32  51  73 103 132 161 199 245 298
#     4   9  17  32  51  72 100 133 165 197 240 294
#
# _framework density 18.971886999999999
#
# number of rings (size 3 to 8) (size 9 to 14) (size 15 to 20)
#    0.000    2.143    2.857    1.286    0.000    2.000 
#    0.000    0.714    0.000    0.857    0.000    6.000 
#    0.000    0.000    0.000    0.000    0.000    0.000 
#
# Total GULP energy -156270.510368 kJ/mol
# GULP energy per Si atom -5581.089656 kJ/mol
# Density = 1.892871 g / cm^3
# Si number density = 18.971887 Si / 1000 Ang^3
#
#
#
# Elastic Constant Matrix: (Units=GPa)
#
#
# Indices 1 2 3 4 5 6 
#
# 1 99.3863 2.0780 65.7518 0.0000 27.8530 0.0000
# 2 2.0780 38.2862 -14.9506 0.0000 8.6555 -0.0001
# 3 65.7518 -14.9506 145.2532 0.0000 25.2867 0.0000
# 4 0.0000 0.0000 0.0000 16.6954 0.0000 -4.3851
# 5 27.8530 8.6555 25.2867 0.0000 28.6610 0.0000
# 6 0.0000 -0.0001 0.0000 -4.3851 0.0000 5.6244
#
#
#
# Elastic Compliance Matrix: (Units=1/GPa)
#
#
# Indices 1 2 3 4 5 6 
#
# 1 0.017100 -0.000668 -0.005850 0.000000 -0.011255 0.000000
# 2 -0.000668 0.031749 0.006057 0.000000 -0.014282 0.000001
# 3 -0.005850 0.006057 0.011206 0.000000 -0.006030 0.000000
# 4 0.000000 0.000000 0.000000 0.075321 0.000000 0.058724
# 5 -0.011255 -0.014282 -0.006030 0.000000 0.055462 0.000000
# 6 0.000000 0.000001 0.000000 0.058724 0.000000 0.223580
#
#
# Mechanical properties :
#
#
# Convention : Reuss Voigt Hill
#
# Bulk Modulus (GPa) = 16.91124 43.18713 30.04918
# Shear Modulus (GPa) = 11.49285 25.53259 18.51272
#
# Velocity S-wave (km/s) = 2.46394 3.67251 3.12716
# Velocity P-wave (km/s) = 4.12648 6.38720 5.37699
#
# Compressibility (1/GPa) = 0.05913228
#
# Stress axis : x y z
#
# Youngs Moduli (GPa) = 58.47842 31.49672 89.23798
#
# Poissons Ratio (x) = 0.02105 0.52206
# Poissons Ratio (y) = 0.03908 -0.54049
# Poissons Ratio (z) = 0.34211 -0.19077
#
# Static dielectric constant tensor:
#      x y z
#    x 1.648870 0.000000 0.025630 
#    y 0.000000 1.730690 0.000000 
#    z 0.025630 0.000000 1.659760 
# 
# From -- ./inp_files/237380.got.cif
#   From: 2010.05.17/outbox.cif.g08.bks.cpg/sg12_119_cif.got.tgz:237380.got - 2010.06.03 13:09:07.
