data_PCOD9178630
_publ_section_title
;
Structure prediction by ZEFSAII (Michael W. Deem and Ramdas Pophale) SiO2 
 PCOD9178630
Probable space group: C 2/M
;
_chemical_formula_sum "Si O2"
_cell_formula_units_Z 56
_cell_length_a 14.977675
_cell_length_b 13.291120
_cell_length_c 20.277910
_cell_angle_alpha 90.000000
_cell_angle_beta 125.239178
_cell_angle_gamma 90.000000
_cell_volume 3296.997435
_symmetry_space_group_name_H-M "C 2/M"
_symmetry_group_IT_number 12
_symmetry_cell_setting 'monoclinic'
loop_
_space_group_symop_operation_xyz
x,y,z
-x,y,-z
-x,-y,-z
x,-y,z
1/2+x,1/2+y,z
1/2-x,1/2+y,-z
1/2-x,1/2-y,-z
1/2+x,1/2-y,z
loop_
_atom_site_type_symbol
_atom_site_label
_atom_site_fract_x
_atom_site_fract_y
_atom_site_fract_z
Si Si1 0.099238 0.384749 0.130465
Si Si2 0.204788 0.878874 0.697535
Si Si3 0.819032 0.879234 0.577453
Si Si4 0.463164 0.378637 0.257814
Si Si5 0.877428 0.688572 0.004215
Si Si6 0.867099 0.118608 0.074863
Si Si7 0.373732 0.265795 0.465926
O O1 0.130201 0.500000 0.128055
O O2 0.174172 0.355151 0.223476
O O3 0.969796 0.375604 0.081184
O O4 0.120735 0.322961 0.073491
O O5 0.121175 0.847879 0.720475
O O6 0.176190 0.822974 0.618382
O O7 0.195463 0.000000 0.684217
O O8 0.704209 0.828436 0.548717
O O9 0.861717 0.837583 0.525067
O O10 0.914267 0.849179 0.669895
O O11 0.810588 0.000000 0.571579
O O12 0.460157 0.500000 0.256912
O O13 0.422906 0.349759 0.168042
O O14 0.902704 0.803199 0.034423
O O15 0.761088 0.643765 0.974475
O O16 0.885472 0.000000 0.071632
O O17 0.500000 0.243216 0.500000
#
# Coordination Sequence:
#
# PCOD9178630 Si02
#       7
#     8   8   8   8   8   8   8
#     4  10  19  33  50  74 103 133 176 222 263 311
#     4  10  19  32  55  80 106 137 174 226 271 310
#     4  10  22  38  57  82 113 146 179 219 273 331
#     4   9  17  32  53  76 103 137 175 218 264 314
#     4  10  19  30  51  73  97 138 174 216 264 310
#     4  10  19  32  49  75 104 136 176 216 261 312
#     4  11  22  36  58  87 110 141 181 228 271 325
#
# _framework density 16.985150999999998
#
# number of rings (size 3 to 8) (size 9 to 14) (size 15 to 20)
#    0.000    2.000    2.857    2.143    2.000    0.857 
#    0.000    1.429    0.000    0.857    0.000    0.000 
#    0.000    0.000    0.000    0.000    0.000    0.000 
#
# Total GULP energy -155955.722017 kJ/mol
# GULP energy per Si atom -5569.847215 kJ/mol
# Density = 1.694649 g / cm^3
# Si number density = 16.985151 Si / 1000 Ang^3
#
#
#
# Elastic Constant Matrix: (Units=GPa)
#
#
# Indices 1 2 3 4 5 6 
#
# 1 82.1623 26.3143 44.6202 0.0000 10.7207 0.0000
# 2 26.3143 73.0293 39.9919 0.0000 -9.7801 0.0000
# 3 44.6202 39.9919 118.5504 0.0000 1.4645 0.0000
# 4 0.0000 0.0000 0.0000 27.0325 0.0000 -4.5209
# 5 10.7207 -9.7801 1.4645 0.0000 15.0810 0.0000
# 6 0.0000 0.0000 0.0000 -4.5209 0.0000 15.4502
#
#
#
# Elastic Compliance Matrix: (Units=1/GPa)
#
#
# Indices 1 2 3 4 5 6 
#
# 1 0.019158 -0.006637 -0.004756 0.000000 -0.017461 0.000000
# 2 -0.006637 0.021336 -0.004935 0.000000 0.019034 0.000000
# 3 -0.004756 -0.004935 0.011902 0.000000 -0.000975 0.000000
# 4 0.000000 0.000000 0.000000 0.038896 0.000000 0.011381
# 5 -0.017461 0.019034 -0.000975 0.000000 0.091160 0.000000
# 6 0.000000 0.000000 0.000000 0.011381 0.000000 0.068054
#
#
# Mechanical properties :
#
#
# Convention : Reuss Voigt Hill
#
# Bulk Modulus (GPa) = 50.65714 55.06609 52.86162
# Shear Modulus (GPa) = 17.25680 22.36711 19.81195
#
# Velocity S-wave (km/s) = 3.19092 3.63280 3.41901
# Velocity P-wave (km/s) = 6.59281 7.07720 6.83929
#
# Compressibility (1/GPa) = 0.01974055
#
# Stress axis : x y z
#
# Youngs Moduli (GPa) = 52.19765 46.86956 84.01961
#
# Poissons Ratio (x) = 0.31107 0.39960
# Poissons Ratio (y) = 0.34644 0.41460
# Poissons Ratio (z) = 0.24826 0.23128
#
# Static dielectric constant tensor:
#      x y z
#    x 1.620100 0.000000 0.022970 
#    y 0.000000 1.577970 0.000000 
#    z 0.022970 0.000000 1.577620 
# 
# From -- ./inp_files/269388.got.cif
#   From: 2010.05.17/outbox.cif.g08.bks.cpg/sg12_135_cif.got.tgz:269388.got - 2010.06.03 13:09:07.
