data_PCOD9178897
_publ_section_title
;
Structure prediction by ZEFSAII (Michael W. Deem and Ramdas Pophale) SiO2 
 PCOD9178897
Probable space group: C 2/M
;
_chemical_formula_sum "Si O2"
_cell_formula_units_Z 64
_cell_length_a 25.160838
_cell_length_b 21.455199
_cell_length_c 9.563296
_cell_angle_alpha 90.000000
_cell_angle_beta 48.915296
_cell_angle_gamma 90.000000
_cell_volume 3891.223305
_symmetry_space_group_name_H-M "C 2/M"
_symmetry_group_IT_number 12
_symmetry_cell_setting 'monoclinic'
loop_
_space_group_symop_operation_xyz
x,y,z
-x,y,-z
-x,-y,-z
x,-y,z
1/2+x,1/2+y,z
1/2-x,1/2+y,-z
1/2-x,1/2-y,-z
1/2+x,1/2-y,z
loop_
_atom_site_type_symbol
_atom_site_label
_atom_site_fract_x
_atom_site_fract_y
_atom_site_fract_z
Si Si1 0.336120 0.069291 0.001946
Si Si2 0.662721 0.790610 0.045316
Si Si3 0.580321 0.227602 0.911967
Si Si4 0.734799 0.067232 0.569842
Si Si5 0.811317 0.802424 0.424511
Si Si6 0.126873 0.367712 0.595423
Si Si7 0.686460 0.238977 0.305020
Si Si8 0.500006 0.928165 0.338485
O O1 0.300845 0.070482 0.215385
O O2 0.318871 0.000000 0.969443
O O3 0.316859 0.136188 0.967954
O O4 0.421131 0.071708 0.857861
O O5 0.647796 0.762118 0.223012
O O6 0.600574 0.786093 0.037905
O O7 0.731502 0.754616 0.866743
O O8 0.625100 0.288003 0.789298
O O9 0.613244 0.172984 0.758227
O O10 0.500000 0.232953 0.000000
O O11 0.781196 0.128616 0.467787
O O12 0.672453 0.073978 0.565136
O O13 0.770518 0.000000 0.495237
O O14 0.750000 0.750000 0.500000
O O15 0.836407 0.789076 0.539491
O O16 0.170134 0.326158 0.410084
O O17 0.052872 0.387056 0.658828
O O18 0.500000 0.906999 0.500000
O O19 0.474915 0.000000 0.382311
#
# Coordination Sequence:
#
# PCOD9178897 Si02
#       8
#     8   8   8   8   8   8   8   8
#     4  10  19  31  47  68  98 134 169 207 247 300
#     4  11  18  34  50  75 103 129 173 211 260 304
#     4  11  21  32  54  77 103 136 172 215 259 306
#     4  11  20  31  53  77  98 129 174 220 254 298
#     4  11  17  38  54  74 105 135 173 216 257 304
#     4  11  19  32  47  71  98 133 173 208 251 298
#     4  10  20  30  55  74  95 140 167 216 257 298
#     4  10  21  33  43  62 101 143 171 204 251 304
#
# _framework density 16.44727
#
# number of rings (size 3 to 8) (size 9 to 14) (size 15 to 20)
#    0.000    1.375    6.250    1.875    0.000    0.000 
#    0.000    4.375    0.000    0.375    0.000    0.000 
#    0.000    1.000    0.000    0.000    0.000    0.000 
#
# Total GULP energy -178272.464325 kJ/mol
# GULP energy per Si atom -5571.014510 kJ/mol
# Density = 1.640984 g / cm^3
# Si number density = 16.447270 Si / 1000 Ang^3
#
#
#
# Elastic Constant Matrix: (Units=GPa)
#
#
# Indices 1 2 3 4 5 6 
#
# 1 76.7754 27.8884 25.0146 0.0000 16.8348 0.0000
# 2 27.8884 96.0002 28.0237 0.0000 -4.8152 0.0000
# 3 25.0146 28.0237 35.4990 0.0000 7.9789 0.0000
# 4 0.0000 0.0000 0.0000 9.3480 0.0000 -9.2857
# 5 16.8348 -4.8152 7.9789 0.0000 27.4148 0.0000
# 6 0.0000 0.0000 0.0000 -9.2857 0.0000 18.6718
#
#
#
# Elastic Compliance Matrix: (Units=1/GPa)
#
#
# Indices 1 2 3 4 5 6 
#
# 1 0.019308 -0.003636 -0.008481 0.000000 -0.010027 0.000000
# 2 -0.003636 0.015166 -0.011246 0.000000 0.008170 0.000000
# 3 -0.008481 -0.011246 0.045258 0.000000 -0.009939 0.000000
# 4 0.000000 0.000000 0.000000 0.211413 0.000000 0.105138
# 5 -0.010027 0.008170 -0.009939 0.000000 0.046961 0.000000
# 6 0.000000 0.000000 0.000000 0.105138 0.000000 0.105843
#
#
# Mechanical properties :
#
#
# Convention : Reuss Voigt Hill
#
# Bulk Modulus (GPa) = 30.29894 41.12534 35.71214
# Shear Modulus (GPa) = 9.96656 19.57678 14.77167
#
# Velocity S-wave (km/s) = 2.46432 3.45378 3.00012
# Velocity P-wave (km/s) = 5.15354 6.40027 5.81044
#
# Compressibility (1/GPa) = 0.03300446
#
# Stress axis : x y z
#
# Youngs Moduli (GPa) = 51.79282 65.93868 22.09553
#
# Poissons Ratio (x) = 0.23976 0.18740
# Poissons Ratio (y) = 0.18832 0.24849
# Poissons Ratio (z) = 0.43927 0.74155
#
# Static dielectric constant tensor:
#      x y z
#    x 1.576630 0.000000 0.019320 
#    y 0.000000 1.594150 0.000000 
#    z 0.019320 0.000000 1.572870 
# 
# From -- ./inp_files/106378.got.cif
#   From: 2010.05.17/outbox.cif.g08.bks.cpg/sg12_54_cif.got.tgz:106378.got - 2010.06.03 13:09:07.
