data_PCOD9178256
_publ_section_title
;
Structure prediction by ZEFSAII (Michael W. Deem and Ramdas Pophale) SiO2 
 PCOD9178256
Probable space group: C 2/M
;
_chemical_formula_sum "Si O2"
_cell_formula_units_Z 64
_cell_length_a 17.382399
_cell_length_b 13.529921
_cell_length_c 20.679514
_cell_angle_alpha 90.000000
_cell_angle_beta 46.958093
_cell_angle_gamma 90.000000
_cell_volume 3554.482144
_symmetry_space_group_name_H-M "C 2/M"
_symmetry_group_IT_number 12
_symmetry_cell_setting 'monoclinic'
loop_
_space_group_symop_operation_xyz
x,y,z
-x,y,-z
-x,-y,-z
x,-y,z
1/2+x,1/2+y,z
1/2-x,1/2+y,-z
1/2-x,1/2-y,-z
1/2+x,1/2-y,z
loop_
_atom_site_type_symbol
_atom_site_label
_atom_site_fract_x
_atom_site_fract_y
_atom_site_fract_z
Si Si1 0.552381 0.245829 0.535953
Si Si2 0.863695 0.754798 0.825738
Si Si3 0.162924 0.192105 0.297283
Si Si4 0.238437 0.886521 0.382017
Si Si5 0.953345 0.383339 0.336173
Si Si6 0.285424 0.612856 0.230668
Si Si7 0.682724 0.387827 0.941044
Si Si8 0.013287 0.883365 0.141790
O O1 0.500000 0.205270 0.500000
O O2 0.460445 0.317884 0.616118
O O3 0.655198 0.309136 0.459578
O O4 0.572212 0.164685 0.579484
O O5 0.822466 0.818047 0.787796
O O6 0.768512 0.693215 0.911126
O O7 0.924166 0.821968 0.841456
O O8 0.946106 0.674982 0.749340
O O9 0.229766 0.128795 0.309510
O O10 0.196177 0.306276 0.291971
O O11 0.353586 0.869415 0.345924
O O12 0.209149 0.000000 0.414020
O O13 0.975411 0.500000 0.328929
O O14 0.254915 0.500000 0.263752
O O15 0.318297 0.614692 0.136166
O O16 0.390450 0.642372 0.208734
O O17 0.714688 0.500000 0.941079
O O18 0.572177 0.368670 0.039360
O O19 0.018548 0.000000 0.152858
#
# Coordination Sequence:
#
# PCOD9178256 Si02
#       8
#     8   8   8   8   8   8   8   8
#     4   9  19  34  52  74  97 121 153 195 240 285
#     4  10  19  32  49  71 101 130 161 200 240 283
#     4   9  19  32  49  71  93 125 161 194 235 282
#     4  10  20  35  53  71  95 128 163 196 232 281
#     4  10  20  34  53  74  96 125 159 197 240 285
#     4   9  17  31  50  71  97 126 159 201 245 288
#     4   9  17  30  49  72  97 128 165 201 241 286
#     4  10  19  30  47  72 100 130 162 199 242 285
#
# _framework density 18.005436
#
# number of rings (size 3 to 8) (size 9 to 14) (size 15 to 20)
#    0.000    2.500    0.000    2.250    0.000    7.500 
#    0.000    3.750    0.000   13.500    0.000    0.000 
#    0.000   18.000    0.000    0.000    0.000    0.000 
#
# Total GULP energy -178364.407696 kJ/mol
# GULP energy per Si atom -5573.887740 kJ/mol
# Density = 1.796446 g / cm^3
# Si number density = 18.005436 Si / 1000 Ang^3
#
#
#
# Elastic Constant Matrix: (Units=GPa)
#
#
# Indices 1 2 3 4 5 6 
#
# 1 78.4706 23.3569 -0.4607 0.0000 0.4895 0.0000
# 2 23.3569 32.7311 13.3786 0.0000 -2.5348 0.0000
# 3 -0.4607 13.3786 37.3369 0.0000 -3.2859 0.0000
# 4 0.0000 0.0000 0.0000 23.2740 0.0000 -1.7749
# 5 0.4895 -2.5348 -3.2859 0.0000 24.4272 0.0000
# 6 0.0000 0.0000 0.0000 -1.7749 0.0000 18.9138
#
#
#
# Elastic Compliance Matrix: (Units=1/GPa)
#
#
# Indices 1 2 3 4 5 6 
#
# 1 0.017078 -0.014434 0.005283 0.000000 -0.001129 0.000000
# 2 -0.014434 0.048091 -0.017149 0.000000 0.002973 0.000000
# 3 0.005283 -0.017149 0.033220 0.000000 0.002583 0.000000
# 4 0.000000 0.000000 0.000000 0.043276 0.000000 0.004061
# 5 -0.001129 0.002973 0.002583 0.000000 0.041617 0.000000
# 6 0.000000 0.000000 0.000000 0.004061 0.000000 0.053253
#
#
# Mechanical properties :
#
#
# Convention : Reuss Voigt Hill
#
# Bulk Modulus (GPa) = 21.83808 24.56535 23.20171
# Shear Modulus (GPa) = 16.42593 20.80726 18.61659
#
# Velocity S-wave (km/s) = 3.02367 3.40311 3.21899
# Velocity P-wave (km/s) = 4.93407 5.39578 5.17008
#
# Compressibility (1/GPa) = 0.04579158
#
# Stress axis : x y z
#
# Youngs Moduli (GPa) = 58.55526 20.79376 30.10199
#
# Poissons Ratio (x) = 0.30013 -0.15903
# Poissons Ratio (y) = 0.84517 0.51621
# Poissons Ratio (z) = -0.30936 0.35658
#
# Static dielectric constant tensor:
#      x y z
#    x 1.630060 0.000000 0.013410 
#    y 0.000000 1.598600 0.000000 
#    z 0.013410 0.000000 1.625520 
# 
# From -- ./inp_files/276569.got.cif
#   From: 2010.05.17/outbox.cif.g08.bks.cpg/sg12_139_cif.got.tgz:276569.got - 2010.06.03 13:09:07.
