data_PCOD9178698
_publ_section_title
;
Structure prediction by ZEFSAII (Michael W. Deem and Ramdas Pophale) SiO2 
 PCOD9178698
Probable space group: C 2/M
;
_chemical_formula_sum "Si O2"
_cell_formula_units_Z 56
_cell_length_a 11.641899
_cell_length_b 14.217566
_cell_length_c 14.834156
_cell_angle_alpha 90.000000
_cell_angle_beta 68.184135
_cell_angle_gamma 90.000000
_cell_volume 2279.497305
_symmetry_space_group_name_H-M "C 2/M"
_symmetry_group_IT_number 12
_symmetry_cell_setting 'monoclinic'
loop_
_space_group_symop_operation_xyz
x,y,z
-x,y,-z
-x,-y,-z
x,-y,z
1/2+x,1/2+y,z
1/2-x,1/2+y,-z
1/2-x,1/2-y,-z
1/2+x,1/2-y,z
loop_
_atom_site_type_symbol
_atom_site_label
_atom_site_fract_x
_atom_site_fract_y
_atom_site_fract_z
Si Si1 0.121230 0.385234 0.910958
Si Si2 0.749389 0.385432 0.836368
Si Si3 0.116977 0.642432 0.524016
Si Si4 0.929819 0.886609 0.254749
Si Si5 0.529725 0.113715 0.751223
Si Si6 0.134879 0.885377 0.053039
Si Si7 0.604208 0.354843 0.536321
O O1 0.120057 0.500000 0.911620
O O2 0.241864 0.358375 0.929622
O O3 0.114601 0.354502 0.809428
O O4 0.000000 0.354581 0.000000
O O5 0.749140 0.500000 0.840897
O O6 0.702231 0.361835 0.750416
O O7 0.889335 0.354576 0.810260
O O8 0.657602 0.354757 0.943572
O O9 0.258003 0.602981 0.485409
O O10 0.129815 0.750888 0.489887
O O11 0.000000 0.603581 0.500000
O O12 0.075187 0.640220 0.639868
O O13 0.952784 0.848698 0.347040
O O14 0.024904 0.855230 0.150033
O O15 0.938105 0.000000 0.259855
O O16 0.527853 0.000000 0.753866
O O17 0.124482 0.000000 0.051850
O O18 0.500000 0.397056 0.500000
#
# Coordination Sequence:
#
# PCOD9178698 Si02
#       7
#     8   8   8   8   8   8   8
#     4   9  15  26  44  72 109 141 166 201 248 304
#     4   9  16  29  49  79 111 137 167 207 255 309
#     4  10  22  41  60  75  99 139 179 216 266 321
#     4  10  20  32  52  79 106 136 173 215 256 299
#     4  10  19  30  54  84 105 130 171 219 261 298
#     4   9  16  27  46  74 109 141 167 199 250 310
#     4  10  23  41  57  75 102 139 179 216 263 321
#
# _framework density 24.566818999999999
#
# number of rings (size 3 to 8) (size 9 to 14) (size 15 to 20)
#    0.000    2.429    1.429    1.286    2.000    2.857 
#    0.000    0.000    0.000    2.571    0.000    0.000 
#    0.000    0.000    0.000    0.000    0.000    0.000 
#
# Total GULP energy -156434.216419 kJ/mol
# GULP energy per Si atom -5586.936301 kJ/mol
# Density = 2.451090 g / cm^3
# Si number density = 24.566819 Si / 1000 Ang^3
#
#
#
# Elastic Constant Matrix: (Units=GPa)
#
#
# Indices 1 2 3 4 5 6 
#
# 1 149.2242 4.9990 61.1024 0.0000 26.4541 0.0000
# 2 4.9990 93.8616 -12.3483 0.0000 0.8239 0.0000
# 3 61.1024 -12.3483 166.6298 0.0000 29.7497 0.0000
# 4 0.0000 0.0000 0.0000 23.3584 0.0000 -1.4059
# 5 26.4541 0.8239 29.7497 0.0000 49.3654 0.0000
# 6 0.0000 0.0000 0.0000 -1.4059 0.0000 -1.3427
#
#
#
# Elastic Compliance Matrix: (Units=1/GPa)
#
#
# Indices 1 2 3 4 5 6 
#
# 1 0.008295 -0.000757 -0.002584 0.000000 -0.002875 0.000000
# 2 -0.000757 0.010852 0.001167 0.000000 -0.000479 0.000000
# 3 -0.002584 0.001167 0.007611 0.000000 -0.003221 0.000000
# 4 0.000000 0.000000 0.000000 0.040273 0.000000 -0.042170
# 5 -0.002875 -0.000479 -0.003221 0.000000 0.023747 0.000000
# 6 0.000000 0.000000 0.000000 -0.042170 0.000000 -0.700635
#
#
# Mechanical properties :
#
#
# Convention : Reuss Voigt Hill
#
# Bulk Modulus (GPa) = 44.62361 57.46908 51.04635
# Shear Modulus (GPa) = -8.36063 38.00707 14.82322
#
# Velocity S-wave (km/s) = -1.84678 3.93757 2.45905
# Velocity P-wave (km/s) = 3.69542 6.64202 5.37459
#
# Compressibility (1/GPa) = 0.02240966
#
# Stress axis : x y z
#
# Youngs Moduli (GPa) = 120.56149 92.14862 131.39626
#
# Poissons Ratio (x) = 0.06971 0.33958
# Poissons Ratio (y) = 0.09121 -0.15336
# Poissons Ratio (z) = 0.31157 -0.10755
#
# Static dielectric constant tensor:
#      x y z
#    x 1.947690 0.000000 -0.007120 
#    y 0.000000 1.994680 0.000000 
#    z -0.007120 0.000000 1.867310 
# 
# From -- ./inp_files/133146.got.cif
#   From: 2010.05.17/outbox.cif.g08.bks.cpg/sg12_67_cif.got.tgz:133146.got - 2010.06.03 13:09:07.
