data_PCOD9178368
_publ_section_title
;
Structure prediction by ZEFSAII (Michael W. Deem and Ramdas Pophale) SiO2 
 PCOD9178368
Probable space group: C 2/M
;
_chemical_formula_sum "Si O2"
_cell_formula_units_Z 48
_cell_length_a 5.149312
_cell_length_b 31.216870
_cell_length_c 14.096015
_cell_angle_alpha 90.000000
_cell_angle_beta 78.807116
_cell_angle_gamma 90.000000
_cell_volume 2222.771125
_symmetry_space_group_name_H-M "C 2/M"
_symmetry_group_IT_number 12
_symmetry_cell_setting 'monoclinic'
loop_
_space_group_symop_operation_xyz
x,y,z
-x,y,-z
-x,-y,-z
x,-y,z
1/2+x,1/2+y,z
1/2-x,1/2+y,-z
1/2-x,1/2-y,-z
1/2+x,1/2-y,z
loop_
_atom_site_type_symbol
_atom_site_label
_atom_site_fract_x
_atom_site_fract_y
_atom_site_fract_z
Si Si1 0.417807 0.221735 0.613959
Si Si2 0.184936 0.769354 0.106459
Si Si3 0.403511 0.365260 0.862457
Si Si4 0.224196 0.953791 0.124500
Si Si5 0.651456 0.953671 0.259447
Si Si6 0.029248 0.636267 0.266249
O O1 0.500000 0.210998 0.500000
O O2 0.623930 0.258567 0.631331
O O3 0.446105 0.178658 0.673338
O O4 0.414442 0.752468 0.157177
O O5 0.173417 0.819552 0.091496
O O6 0.250000 0.750000 0.000000
O O7 0.304713 0.407869 0.923867
O O8 0.718052 0.364109 0.823253
O O9 0.243313 0.365383 0.773577
O O10 0.481378 0.953072 0.173417
O O11 0.961136 0.952987 0.209600
O O12 0.221025 0.000000 0.073290
O O13 0.567698 0.909660 0.315794
O O14 0.594951 0.000000 0.309059
#
# Coordination Sequence:
#
# PCOD9178368 Si02
#       6
#     8   8   8   8   8   8
#     4  10  21  35  48  64  91 127 160 192 235 279
#     4  10  21  35  48  65  92 127 155 181 226 280
#     4  10  19  30  48  73  94 117 154 193 231 273
#     4   8  14  25  41  64  92 116 141 181 230 272
#     4   8  14  25  41  63  92 119 142 178 232 278
#     4  10  19  30  48  72  94 119 154 197 232 268
#
# _framework density 21.594667000000001
#
# number of rings (size 3 to 8) (size 9 to 14) (size 15 to 20)
#    0.000    2.667    0.000    2.000    0.000    4.000 
#    0.000    0.000    0.000    0.500    0.000    4.667 
#    0.000   17.333    0.000    0.000    0.000    2.667 
#
# Total GULP energy -133833.680638 kJ/mol
# GULP energy per Si atom -5576.403360 kJ/mol
# Density = 2.154552 g / cm^3
# Si number density = 21.594667 Si / 1000 Ang^3
#
#
#
# Elastic Constant Matrix: (Units=GPa)
#
#
# Indices 1 2 3 4 5 6 
#
# 1 129.1551 -1.9626 -1.9603 0.0000 6.9369 0.0000
# 2 -1.9626 222.1804 14.8698 0.0000 1.9339 0.0000
# 3 -1.9603 14.8698 38.9726 0.0000 7.1596 0.0000
# 4 0.0000 0.0000 0.0000 41.4192 0.0000 -1.9437
# 5 6.9369 1.9339 7.1596 0.0000 8.9323 0.0000
# 6 0.0000 0.0000 0.0000 -1.9437 0.0000 27.2706
#
#
#
# Elastic Compliance Matrix: (Units=1/GPa)
#
#
# Indices 1 2 3 4 5 6 
#
# 1 0.008192 0.000017 0.001847 0.000000 -0.007846 0.000000
# 2 0.000017 0.004621 -0.001848 0.000000 0.000468 0.000000
# 3 0.001847 -0.001848 0.031248 0.000000 -0.026081 0.000000
# 4 0.000000 0.000000 0.000000 0.024224 0.000000 0.001727
# 5 -0.007846 0.000468 -0.026081 0.000000 0.138850 0.000000
# 6 0.000000 0.000000 0.000000 0.001727 0.000000 0.036793
#
#
# Mechanical properties :
#
#
# Convention : Reuss Voigt Hill
#
# Bulk Modulus (GPa) = 22.67911 45.80022 34.23967
# Shear Modulus (GPa) = 19.33529 40.81518 30.07524
#
# Velocity S-wave (km/s) = 2.99553 4.35220 3.73596
# Velocity P-wave (km/s) = 4.74228 6.81987 5.87366
#
# Compressibility (1/GPa) = 0.04409343
#
# Stress axis : x y z
#
# Youngs Moduli (GPa) = 122.06509 216.42169 32.00164
#
# Poissons Ratio (x) = -0.00369 -0.05911
# Poissons Ratio (y) = -0.00208 0.05914
# Poissons Ratio (z) = -0.22546 0.39995
#
# Static dielectric constant tensor:
#      x y z
#    x 1.783130 0.000000 -0.072200 
#    y 0.000000 1.896600 0.000000 
#    z -0.072200 0.000000 1.589090 
# 
# From -- ./inp_files/192068.got.cif
#   From: 2010.05.17/outbox.cif.g08.bks.cpg/sg12_97_cif.got.tgz:192068.got - 2010.06.03 13:09:07.
