data_PCOD9178751
_publ_section_title
;
Structure prediction by ZEFSAII (Michael W. Deem and Ramdas Pophale) SiO2 
 PCOD9178751
Probable space group: C 2/M
;
_chemical_formula_sum "Si O2"
_cell_formula_units_Z 56
_cell_length_a 5.376230
_cell_length_b 35.244112
_cell_length_c 17.844999
_cell_angle_alpha 90.000000
_cell_angle_beta 90.029995
_cell_angle_gamma 90.000000
_cell_volume 3381.278018
_symmetry_space_group_name_H-M "C 2/M"
_symmetry_group_IT_number 12
_symmetry_cell_setting 'monoclinic'
loop_
_space_group_symop_operation_xyz
x,y,z
-x,y,-z
-x,-y,-z
x,-y,z
1/2+x,1/2+y,z
1/2-x,1/2+y,-z
1/2-x,1/2-y,-z
1/2+x,1/2-y,z
loop_
_atom_site_type_symbol
_atom_site_label
_atom_site_fract_x
_atom_site_fract_y
_atom_site_fract_z
Si Si1 0.000918 0.168931 0.367867
Si Si2 0.988307 0.079562 0.658633
Si Si3 0.996980 0.046038 0.175519
Si Si4 0.501143 0.792309 0.417512
Si Si5 0.003070 0.454024 0.914179
Si Si6 0.512154 0.955570 0.410373
Si Si7 0.999055 0.762204 0.730516
O O1 0.748812 0.182327 0.409057
O O2 0.003119 0.124691 0.352097
O O3 0.253049 0.182467 0.408901
O O4 0.000177 0.194107 0.292124
O O5 0.998877 0.066322 0.744578
O O6 0.730855 0.064160 0.624077
O O7 0.230365 0.062103 0.618270
O O8 0.244329 0.056426 0.128936
O O9 0.746732 0.056521 0.130428
O O10 0.997057 0.000000 0.186042
O O11 0.500000 0.774133 0.500000
O O12 0.501630 0.762208 0.348818
O O13 0.002568 0.500000 0.916979
O O14 0.000000 0.440368 0.000000
O O15 0.500000 0.952464 0.500000
O O16 0.507082 0.000000 0.389533
O O17 0.748898 0.750107 0.770319
#
# Coordination Sequence:
#
# PCOD9178751 Si02
#       7
#     8   8   8   8   8   8   8
#     4  10  21  31  43  64  88 111 141 185 232 270
#     4  12  23  36  52  71  93 119 159 205 249 291
#     4  10  19  31  49  70  93 124 155 185 227 279
#     4  10  19  31  46  63  85 114 148 185 234 295
#     4   9  17  30  49  74  99 119 145 181 219 269
#     4  11  24  40  53  63  81 116 163 215 262 292
#     4   8  16  29  43  60  82 110 141 170 219 278
#
# _framework density 16.561786000000001
#
# number of rings (size 3 to 8) (size 9 to 14) (size 15 to 20)
#    0.000    2.000    0.000    4.286    0.000   12.571 
#    0.000    0.000    0.000    0.000    0.000    0.000 
#    0.000    0.000    0.000    0.000    0.000  128.571 
#
# Total GULP energy -156233.192760 kJ/mol
# GULP energy per Si atom -5579.756884 kJ/mol
# Density = 1.652409 g / cm^3
# Si number density = 16.561786 Si / 1000 Ang^3
#
#
#
# Elastic Constant Matrix: (Units=GPa)
#
#
# Indices 1 2 3 4 5 6 
#
# 1 114.0987 7.1911 3.1544 0.0000 -3.7040 0.0000
# 2 7.1911 74.1858 7.6382 0.0000 -2.4407 0.0000
# 3 3.1544 7.6382 35.8588 0.0000 -2.1718 0.0000
# 4 0.0000 0.0000 0.0000 8.0539 0.0000 -0.8071
# 5 -3.7040 -2.4407 -2.1718 0.0000 21.1726 0.0000
# 6 0.0000 0.0000 0.0000 -0.8071 0.0000 20.2577
#
#
#
# Elastic Compliance Matrix: (Units=1/GPa)
#
#
# Indices 1 2 3 4 5 6 
#
# 1 0.008873 -0.000759 -0.000533 0.000000 0.001410 0.000000
# 2 -0.000759 0.013882 -0.002819 0.000000 0.001178 0.000000
# 3 -0.000533 -0.002819 0.028687 0.000000 0.002524 0.000000
# 4 0.000000 0.000000 0.000000 0.124661 0.000000 0.004967
# 5 0.001410 0.001178 0.002524 0.000000 0.047872 0.000000
# 6 0.000000 0.000000 0.000000 0.004967 0.000000 0.049562
#
#
# Mechanical properties :
#
#
# Convention : Reuss Voigt Hill
#
# Bulk Modulus (GPa) = 23.13741 28.90119 26.01930
# Shear Modulus (GPa) = 16.88240 23.64081 20.26161
#
# Velocity S-wave (km/s) = 3.19620 3.78223 3.50150
# Velocity P-wave (km/s) = 5.25563 6.04666 5.66497
#
# Compressibility (1/GPa) = 0.04322005
#
# Stress axis : x y z
#
# Youngs Moduli (GPa) = 112.70552 72.03459 34.85850
#
# Poissons Ratio (x) = 0.05466 0.01860
# Poissons Ratio (y) = 0.08551 0.09826
# Poissons Ratio (z) = 0.06013 0.20306
#
# Static dielectric constant tensor:
#      x y z
#    x 1.612590 0.000000 -0.000330 
#    y 0.000000 1.541670 0.000000 
#    z -0.000330 0.000000 1.533070 
# 
# From -- ./inp_files/192600.got.cif
#   From: 2010.05.17/outbox.cif.g08.bks.cpg/sg12_97_cif.got.tgz:192600.got - 2010.06.03 13:09:07.
