data_PCOD9178220
_publ_section_title
;
Structure prediction by ZEFSAII (Michael W. Deem and Ramdas Pophale) SiO2 
 PCOD9178220
Probable space group: C 2/M
;
_chemical_formula_sum "Si O2"
_cell_formula_units_Z 48
_cell_length_a 14.717754
_cell_length_b 8.274146
_cell_length_c 21.507514
_cell_angle_alpha 90.000000
_cell_angle_beta 110.777205
_cell_angle_gamma 90.000000
_cell_volume 2448.787846
_symmetry_space_group_name_H-M "C 2/M"
_symmetry_group_IT_number 12
_symmetry_cell_setting 'monoclinic'
loop_
_space_group_symop_operation_xyz
x,y,z
-x,y,-z
-x,-y,-z
x,-y,z
1/2+x,1/2+y,z
1/2-x,1/2+y,-z
1/2-x,1/2-y,-z
1/2+x,1/2-y,z
loop_
_atom_site_type_symbol
_atom_site_label
_atom_site_fract_x
_atom_site_fract_y
_atom_site_fract_z
Si Si1 0.703150 0.191666 0.631961
Si Si2 0.351895 0.694658 0.997362
Si Si3 0.604940 0.686565 0.489906
Si Si4 0.508697 0.304390 0.651758
Si Si5 0.400862 0.697772 0.743695
Si Si6 0.945776 0.802609 0.893210
O O1 0.681811 0.235798 0.555083
O O2 0.610891 0.248894 0.649576
O O3 0.801171 0.254621 0.687431
O O4 0.707720 0.000000 0.635750
O O5 0.352481 0.500000 0.997135
O O6 0.374880 0.748424 0.932216
O O7 0.250000 0.750000 0.000000
O O8 0.444991 0.746606 0.061029
O O9 0.500000 0.691960 0.500000
O O10 0.632897 0.500000 0.489546
O O11 0.576921 0.754958 0.415679
O O12 0.506503 0.500000 0.647506
O O13 0.485988 0.255801 0.716477
O O14 0.398914 0.500000 0.744812
O O15 0.415912 0.753967 0.817640
O O16 0.944827 0.000000 0.892226
#
# Coordination Sequence:
#
# PCOD9178220 Si02
#       6
#     8   8   8   8   8   8
#     4  10  19  30  47  71  94 119 157 203 243 276
#     4   9  17  31  54  78  97 124 160 192 227 273
#     4   8  15  29  47  65  89 122 158 196 238 284
#     4   9  18  33  50  66  89 126 164 194 234 288
#     4   9  18  32  49  69  96 129 160 190 231 285
#     4   8  16  32  50  70  99 131 159 186 224 284
#
# _framework density 19.601534000000001
#
# number of rings (size 3 to 8) (size 9 to 14) (size 15 to 20)
#    0.000    3.167    0.000    2.500    0.000    5.000 
#    0.000    3.333    0.000    4.000    0.000    0.000 
#    0.000    0.000    0.000    0.000    0.000    0.000 
#
# Total GULP energy -133775.383940 kJ/mol
# GULP energy per Si atom -5573.974331 kJ/mol
# Density = 1.955692 g / cm^3
# Si number density = 19.601534 Si / 1000 Ang^3
#
#
#
# Elastic Constant Matrix: (Units=GPa)
#
#
# Indices 1 2 3 4 5 6 
#
# 1 76.7502 5.4656 31.1737 0.0000 -8.5484 0.0000
# 2 5.4656 6.0434 12.7422 0.0000 -1.4243 0.0000
# 3 31.1737 12.7422 123.2104 0.0000 -17.8244 0.0000
# 4 0.0000 0.0000 0.0000 14.4849 0.0000 -0.4551
# 5 -8.5484 -1.4243 -17.8244 0.0000 19.3328 0.0000
# 6 0.0000 0.0000 0.0000 -0.4551 0.0000 18.3162
#
#
#
# Elastic Compliance Matrix: (Units=1/GPa)
#
#
# Indices 1 2 3 4 5 6 
#
# 1 0.014987 -0.007446 -0.002472 0.000000 0.003799 0.000000
# 2 -0.007446 0.215780 -0.021472 0.000000 -0.007192 0.000000
# 3 -0.002472 -0.021472 0.012203 0.000000 0.008576 0.000000
# 4 0.000000 0.000000 0.000000 0.069091 0.000000 0.001717
# 5 0.003799 -0.007192 0.008576 0.000000 0.060782 0.000000
# 6 0.000000 0.000000 0.000000 0.001717 0.000000 0.054639
#
#
# Mechanical properties :
#
#
# Convention : Reuss Voigt Hill
#
# Bulk Modulus (GPa) = 5.54971 33.86298 19.70635
# Shear Modulus (GPa) = 9.08553 20.86830 14.97691
#
# Velocity S-wave (km/s) = 2.15527 3.26640 2.76718
# Velocity P-wave (km/s) = 3.00516 5.61596 4.50389
#
# Compressibility (1/GPa) = 0.18018943
#
# Stress axis : x y z
#
# Youngs Moduli (GPa) = 66.72544 4.63435 81.94769
#
# Poissons Ratio (x) = 0.03451 0.20259
# Poissons Ratio (y) = 0.49684 1.75958
# Poissons Ratio (z) = 0.16496 0.09951
#
# Static dielectric constant tensor:
#      x y z
#    x 1.690620 0.000000 -0.007760 
#    y 0.000000 1.687350 0.000000 
#    z -0.007760 0.000000 1.705390 
# 
# From -- ./inp_files/308581.got.cif
#   From: 2010.05.17/outbox.cif.g08.bks.cpg/sg12_155_cif.got.tgz:308581.got - 2010.06.03 13:09:07.
