data_PCOD9178853
_publ_section_title
;
Structure prediction by ZEFSAII (Michael W. Deem and Ramdas Pophale) SiO2 
 PCOD9178853
Probable space group: C 2/M
;
_chemical_formula_sum "Si O2"
_cell_formula_units_Z 64
_cell_length_a 28.319304
_cell_length_b 8.958766
_cell_length_c 22.696279
_cell_angle_alpha 90.000000
_cell_angle_beta 47.108956
_cell_angle_gamma 90.000000
_cell_volume 4218.728393
_symmetry_space_group_name_H-M "C 2/M"
_symmetry_group_IT_number 12
_symmetry_cell_setting 'monoclinic'
loop_
_space_group_symop_operation_xyz
x,y,z
-x,y,-z
-x,-y,-z
x,-y,z
1/2+x,1/2+y,z
1/2-x,1/2+y,-z
1/2-x,1/2-y,-z
1/2+x,1/2-y,z
loop_
_atom_site_type_symbol
_atom_site_label
_atom_site_fract_x
_atom_site_fract_y
_atom_site_fract_z
Si Si1 0.905033 0.821619 0.847210
Si Si2 0.245290 0.171167 0.596209
Si Si3 0.349305 0.329653 0.437730
Si Si4 0.852455 0.822916 0.024371
Si Si5 0.044508 0.322007 0.725818
Si Si6 0.924134 0.322886 0.072017
Si Si7 0.779951 0.321387 0.915583
Si Si8 0.877527 0.179735 0.231998
O O1 0.849951 0.752308 0.851993
O O2 0.973869 0.746994 0.778734
O O3 0.907903 0.000000 0.837689
O O4 0.883116 0.792060 0.933787
O O5 0.307001 0.269041 0.527721
O O6 0.199295 0.171561 0.577237
O O7 0.196336 0.221125 0.688831
O O8 0.264945 0.000000 0.589846
O O9 0.370063 0.500000 0.429024
O O10 0.408793 0.228359 0.367131
O O11 0.887164 0.729793 0.045078
O O12 0.775674 0.792613 0.085280
O O13 0.861059 0.000000 0.028122
O O14 0.042075 0.500000 0.732446
O O15 0.076447 0.253599 0.757949
O O16 0.083516 0.500000 0.912602
O O17 0.897594 0.235723 0.151111
O O18 0.000000 0.291040 0.000000
O O19 0.785503 0.500000 0.917585
O O20 0.750000 0.250000 0.000000
O O21 0.882551 0.000000 0.232768
#
# Coordination Sequence:
#
# PCOD9178853 Si02
#       8
#     8   8   8   8   8   8   8   8
#     4  10  19  31  47  67  90 117 149 183 224 271
#     4   8  15  27  42  60  81 109 145 182 219 259
#     4   9  16  26  41  61  85 114 145 177 216 262
#     4   9  19  33  48  64  85 116 150 185 224 265
#     4  11  20  29  43  64  92 121 149 183 221 264
#     4  11  23  34  45  64  89 118 154 192 225 258
#     4   9  17  30  47  67  88 112 145 183 225 269
#     4  10  20  33  47  62  85 118 154 189 224 264
#
# _framework density 15.170448
#
# number of rings (size 3 to 8) (size 9 to 14) (size 15 to 20)
#    0.000    2.375    0.000    5.250    0.000    9.500 
#    0.000    0.000    0.000    0.000    0.000    0.000 
#    0.000    1.000    0.000   10.500    0.000    5.250 
#
# Total GULP energy -178355.701601 kJ/mol
# GULP energy per Si atom -5573.615675 kJ/mol
# Density = 1.513592 g / cm^3
# Si number density = 15.170448 Si / 1000 Ang^3
#
#
#
# Elastic Constant Matrix: (Units=GPa)
#
#
# Indices 1 2 3 4 5 6 
#
# 1 79.2225 51.0227 39.4040 -0.0024 -18.5900 0.0037
# 2 51.0227 89.5371 54.7810 0.0000 -14.1753 -0.0062
# 3 39.4040 54.7810 92.0133 -0.0024 -17.0077 -0.0052
# 4 -0.0024 0.0000 -0.0024 25.6503 0.0013 -5.2859
# 5 -18.5900 -14.1753 -17.0077 0.0013 18.0410 0.0038
# 6 0.0037 -0.0062 -0.0052 -5.2859 0.0038 21.7895
#
#
#
# Elastic Compliance Matrix: (Units=1/GPa)
#
#
# Indices 1 2 3 4 5 6 
#
# 1 0.023243 -0.010197 -0.001134 -0.000001 0.014869 -0.000010
# 2 -0.010197 0.022388 -0.009268 0.000000 -0.001654 0.000006
# 3 -0.001134 -0.009268 0.018540 0.000001 0.009027 0.000001
# 4 -0.000001 0.000000 0.000001 0.041037 -0.000005 0.009955
# 5 0.014869 -0.001654 0.009027 -0.000005 0.077962 -0.000015
# 6 -0.000010 0.000006 0.000001 0.009955 -0.000015 0.048309
#
#
# Mechanical properties :
#
#
# Convention : Reuss Voigt Hill
#
# Bulk Modulus (GPa) = 43.52975 61.24317 52.38646
# Shear Modulus (GPa) = 17.83580 20.80050 19.31815
#
# Velocity S-wave (km/s) = 3.43256 3.70688 3.57235
# Velocity P-wave (km/s) = 6.66828 7.66674 7.18488
#
# Compressibility (1/GPa) = 0.02297279
#
# Stress axis : x y z
#
# Youngs Moduli (GPa) = 43.02280 44.66732 53.93763
#
# Poissons Ratio (x) = 0.45548 0.06119
# Poissons Ratio (y) = 0.43871 0.49987
# Poissons Ratio (z) = 0.04881 0.41396
#
# Static dielectric constant tensor:
#      x y z
#    x 1.494830 0.000000 -0.021330 
#    y 0.000000 1.505830 0.000000 
#    z -0.021330 0.000000 1.517300 
# 
# From -- ./inp_files/326873.got.cif
#   From: 2010.05.17/outbox.cif.g08.bks.cpg/sg12_164_cif.got.tgz:326873.got - 2010.06.03 13:09:07.
