data_PCOD9178511
_publ_section_title
;
Structure prediction by ZEFSAII (Michael W. Deem and Ramdas Pophale) SiO2 
 PCOD9178511
Probable space group: C 2/M
;
_chemical_formula_sum "Si O2"
_cell_formula_units_Z 64
_cell_length_a 20.725861
_cell_length_b 7.356083
_cell_length_c 29.397737
_cell_angle_alpha 90.000000
_cell_angle_beta 137.883154
_cell_angle_gamma 90.000000
_cell_volume 3005.838396
_symmetry_space_group_name_H-M "C 2/M"
_symmetry_group_IT_number 12
_symmetry_cell_setting 'monoclinic'
loop_
_space_group_symop_operation_xyz
x,y,z
-x,y,-z
-x,-y,-z
x,-y,z
1/2+x,1/2+y,z
1/2-x,1/2+y,-z
1/2-x,1/2-y,-z
1/2+x,1/2-y,z
loop_
_atom_site_type_symbol
_atom_site_label
_atom_site_fract_x
_atom_site_fract_y
_atom_site_fract_z
Si Si1 0.448230 0.721647 0.306113
Si Si2 0.545613 0.714676 0.792865
Si Si3 0.609941 0.222027 0.054340
Si Si4 0.022139 0.778845 0.438806
Si Si5 0.259189 0.717198 0.058260
Si Si6 0.153924 0.778813 0.587495
Si Si7 0.727017 0.778751 0.204712
Si Si8 0.844993 0.718615 0.735224
O O1 0.452114 0.500000 0.308319
O O2 0.470409 0.785570 0.266725
O O3 0.514309 0.782336 0.382714
O O4 0.338366 0.773928 0.259780
O O5 0.562779 0.500000 0.796213
O O6 0.641106 0.787534 0.867700
O O7 0.450397 0.736089 0.772800
O O8 0.668340 0.282274 0.040295
O O9 0.669379 0.278293 0.129933
O O10 0.608322 0.000000 0.053177
O O11 0.500000 0.282454 0.000000
O O12 0.924944 0.728022 0.415457
O O13 0.111256 0.719292 0.516685
O O14 0.023670 0.000000 0.439385
O O15 0.260541 0.500000 0.064327
O O16 0.250000 0.750000 0.000000
O O17 0.259453 0.717043 0.657243
O O18 0.155062 0.000000 0.587600
O O19 0.678556 0.717501 0.226171
O O20 0.726310 0.000000 0.204522
O O21 0.839015 0.500000 0.733131
#
# Coordination Sequence:
#
# PCOD9178511 Si02
#       8
#     8   8   8   8   8   8   8   8
#     4   9  14  26  46  67  91 126 167 200 232 279
#     4  10  21  35  49  68 100 135 162 190 231 289
#     4   9  17  29  47  72  96 117 151 202 245 274
#     4   8  12  20  40  68  97 124 153 197 251 288
#     4  10  21  36  53  73  99 129 158 193 239 291
#     4   8  13  22  38  69 103 121 146 201 256 283
#     4   9  15  26  46  71  94 117 157 208 242 268
#     4  10  19  30  49  76 101 125 158 204 246 280
#
# _framework density 21.291895
#
# number of rings (size 3 to 8) (size 9 to 14) (size 15 to 20)
#    0.000    2.875    2.500    0.750    1.750    0.500 
#    0.000    0.625    0.000    1.875    0.000    1.750 
#    0.000    0.000    0.000    0.000    0.000    0.000 
#
# Total GULP energy -178631.205354 kJ/mol
# GULP energy per Si atom -5582.225167 kJ/mol
# Density = 2.124343 g / cm^3
# Si number density = 21.291895 Si / 1000 Ang^3
#
#
#
# Elastic Constant Matrix: (Units=GPa)
#
#
# Indices 1 2 3 4 5 6 
#
# 1 150.1214 -2.2645 77.8401 0.0001 -16.3524 -0.0002
# 2 -2.2645 76.9754 2.7430 0.0000 -1.8120 0.0001
# 3 77.8401 2.7430 147.1358 0.0001 -21.8364 0.0000
# 4 0.0001 0.0000 0.0001 -15.1512 -0.0001 -5.5043
# 5 -16.3524 -1.8120 -21.8364 -0.0001 36.4124 0.0002
# 6 -0.0002 0.0001 0.0000 -5.5043 0.0002 7.0949
#
#
#
# Elastic Compliance Matrix: (Units=1/GPa)
#
#
# Indices 1 2 3 4 5 6 
#
# 1 0.009255 0.000472 -0.004703 0.000000 0.001359 0.000000
# 2 0.000472 0.013034 -0.000401 0.000000 0.000620 0.000000
# 3 -0.004703 -0.000401 0.009853 0.000000 0.003776 0.000000
# 4 0.000000 0.000000 0.000000 -0.051489 0.000000 -0.039946
# 5 0.001359 0.000620 0.003776 0.000000 0.030369 -0.000001
# 6 0.000000 0.000000 0.000000 -0.039946 -0.000001 0.109956
#
#
# Mechanical properties :
#
#
# Convention : Reuss Voigt Hill
#
# Bulk Modulus (GPa) = 43.71088 58.98553 51.34820
# Shear Modulus (GPa) = 36.26670 25.39882 30.83276
#
# Velocity S-wave (km/s) = 4.13160 3.45757 3.80952
# Velocity P-wave (km/s) = 6.58286 6.61083 6.59686
#
# Compressibility (1/GPa) = 0.02287760
#
# Stress axis : x y z
#
# Youngs Moduli (GPa) = 108.04676 76.72286 101.49550
#
# Poissons Ratio (x) = -0.03620 0.47738
# Poissons Ratio (y) = -0.05099 0.04066
# Poissons Ratio (z) = 0.50819 0.03073
#
# Static dielectric constant tensor:
#      x y z
#    x 1.720280 0.000000 -0.015650 
#    y 0.000000 1.968970 0.000000 
#    z -0.015650 0.000000 1.757890 
# 
# From -- ./inp_files/365740.got.cif
#   From: 2010.05.17/outbox.cif.g08.bks.cpg/sg12_183_cif.got.tgz:365740.got - 2010.06.03 13:09:07.
