data_PCOD9178344
_publ_section_title
;
Structure prediction by ZEFSAII (Michael W. Deem and Ramdas Pophale) SiO2 
 PCOD9178344
Probable space group: C 2/M
;
_chemical_formula_sum "Si O2"
_cell_formula_units_Z 48
_cell_length_a 17.781190
_cell_length_b 25.850203
_cell_length_c 13.714014
_cell_angle_alpha 90.000000
_cell_angle_beta 155.391340
_cell_angle_gamma 90.000000
_cell_volume 2624.938222
_symmetry_space_group_name_H-M "C 2/M"
_symmetry_group_IT_number 12
_symmetry_cell_setting 'monoclinic'
loop_
_space_group_symop_operation_xyz
x,y,z
-x,y,-z
-x,-y,-z
x,-y,z
1/2+x,1/2+y,z
1/2-x,1/2+y,-z
1/2-x,1/2-y,-z
1/2+x,1/2-y,z
loop_
_atom_site_type_symbol
_atom_site_label
_atom_site_fract_x
_atom_site_fract_y
_atom_site_fract_z
Si Si1 0.487738 0.060615 0.868290
Si Si2 0.242713 0.351410 0.485262
Si Si3 0.500858 0.790059 0.343176
Si Si4 0.180272 0.130940 0.769399
Si Si5 0.200171 0.717661 0.240347
Si Si6 0.887146 0.813081 0.105036
O O1 0.319440 0.092937 0.627279
O O2 0.475634 0.000000 0.833060
O O3 0.500000 0.067570 0.000000
O O4 0.671266 0.086528 0.044366
O O5 0.108642 0.333667 0.411998
O O6 0.215192 0.312957 0.360412
O O7 0.450424 0.341164 0.759522
O O8 0.641897 0.759348 0.575667
O O9 0.440993 0.746182 0.193087
O O10 0.317189 0.810933 0.173841
O O11 0.269772 0.175900 0.808923
O O12 0.125670 0.156714 0.806766
O O13 0.000000 0.113536 0.500000
O O14 0.000000 0.740398 0.000000
#
# Coordination Sequence:
#
# PCOD9178344 Si02
#       6
#     8   8   8   8   8   8
#     4  11  21  34  50  68  95 136 180 217 245 276
#     4  11  18  34  49  66  97 131 167 207 245 287
#     4  10  20  30  46  71  96 126 168 198 243 304
#     4  12  18  31  47  67 101 133 170 207 241 284
#     4  11  18  29  47  68  94 135 162 194 245 292
#     4  10  19  30  48  69  94 131 165 200 247 295
#
# _framework density 18.286145000000001
#
# number of rings (size 3 to 8) (size 9 to 14) (size 15 to 20)
#    0.000    1.167    8.333    2.000    0.000    1.667 
#    0.000    0.833    0.000    0.000    0.000    0.000 
#    0.000    0.667    0.000    4.500    0.000    0.000 
#
# Total GULP energy -134066.246805 kJ/mol
# GULP energy per Si atom -5586.093617 kJ/mol
# Density = 1.824452 g / cm^3
# Si number density = 18.286145 Si / 1000 Ang^3
#
#
#
# Elastic Constant Matrix: (Units=GPa)
#
#
# Indices 1 2 3 4 5 6 
#
# 1 32.1367 19.5847 14.4783 0.0000 10.2499 0.0000
# 2 19.5847 96.8318 52.9238 0.0000 6.5702 0.0000
# 3 14.4783 52.9238 155.8067 0.0000 33.7631 0.0000
# 4 0.0000 0.0000 0.0000 20.8538 0.0000 -2.8164
# 5 10.2499 6.5702 33.7631 0.0000 20.6926 0.0000
# 6 0.0000 0.0000 0.0000 -2.8164 0.0000 13.0040
#
#
#
# Elastic Compliance Matrix: (Units=1/GPa)
#
#
# Indices 1 2 3 4 5 6 
#
# 1 0.043218 -0.009686 0.005023 0.000000 -0.026527 0.000000
# 2 -0.009686 0.015148 -0.006563 0.000000 0.010697 0.000000
# 3 0.005023 -0.006563 0.012791 0.000000 -0.021274 0.000000
# 4 0.000000 0.000000 0.000000 0.049398 0.000000 0.010699
# 5 -0.026527 0.010697 -0.021274 0.000000 0.092782 0.000000
# 6 0.000000 0.000000 0.000000 0.010699 0.000000 0.079217
#
#
# Mechanical properties :
#
#
# Convention : Reuss Voigt Hill
#
# Bulk Modulus (GPa) = 20.53269 50.97209 35.75239
# Shear Modulus (GPa) = 15.09472 24.09598 19.59535
#
# Velocity S-wave (km/s) = 2.87622 3.63398 3.27707
# Velocity P-wave (km/s) = 4.72050 6.74855 5.82349
#
# Compressibility (1/GPa) = 0.04870282
#
# Stress axis : x y z
#
# Youngs Moduli (GPa) = 23.13846 66.01696 78.17987
#
# Poissons Ratio (x) = 0.63946 -0.39266
# Poissons Ratio (y) = 0.22412 0.51312
# Poissons Ratio (z) = -0.11621 0.43329
#
# Static dielectric constant tensor:
#      x y z
#    x 1.649700 0.000000 0.009630 
#    y 0.000000 1.591600 0.000000 
#    z 0.009630 0.000000 1.713470 
# 
# From -- ./inp_files/106805.got.cif
#   From: 2010.05.17/outbox.cif.g08.bks.cpg/sg12_54_cif.got.tgz:106805.got - 2010.06.03 13:09:07.
