data_PCOD9178116
_publ_section_title
;
Structure prediction by ZEFSAII (Michael W. Deem and Ramdas Pophale) SiO2 
 PCOD9178116
Probable space group: C 2/M
;
_chemical_formula_sum "Si O2"
_cell_formula_units_Z 56
_cell_length_a 30.671968
_cell_length_b 7.424547
_cell_length_c 20.568150
_cell_angle_alpha 90.000000
_cell_angle_beta 147.370796
_cell_angle_gamma 90.000000
_cell_volume 2525.554895
_symmetry_space_group_name_H-M "C 2/M"
_symmetry_group_IT_number 12
_symmetry_cell_setting 'monoclinic'
loop_
_space_group_symop_operation_xyz
x,y,z
-x,y,-z
-x,-y,-z
x,-y,z
1/2+x,1/2+y,z
1/2-x,1/2+y,-z
1/2-x,1/2-y,-z
1/2+x,1/2-y,z
loop_
_atom_site_type_symbol
_atom_site_label
_atom_site_fract_x
_atom_site_fract_y
_atom_site_fract_z
Si Si1 0.901256 0.282050 0.052308
Si Si2 0.075206 0.720232 0.639680
Si Si3 0.208238 0.784281 0.294999
Si Si4 0.144756 0.280723 0.435555
Si Si5 0.476070 0.781124 0.282818
Si Si6 0.262367 0.791083 0.223298
Si Si7 0.932906 0.285655 0.795460
O O1 0.898216 0.500000 0.047460
O O2 0.925849 0.225858 0.156057
O O3 0.975385 0.220961 0.098914
O O4 0.815207 0.216367 0.920408
O O5 0.077293 0.500000 0.644673
O O6 0.059342 0.781251 0.693408
O O7 0.158607 0.784951 0.712511
O O8 0.000000 0.770454 0.500000
O O9 0.271227 0.716828 0.428772
O O10 0.235323 0.713296 0.258847
O O11 0.116840 0.747423 0.201929
O O12 0.215216 0.000000 0.302213
O O13 0.147639 0.500000 0.437043
O O14 0.120158 0.217367 0.332664
O O15 0.069490 0.230740 0.387561
O O16 0.475213 0.000000 0.282185
O O17 0.282717 0.000000 0.261712
O O18 0.937725 0.500000 0.793598
#
# Coordination Sequence:
#
# PCOD9178116 Si02
#       7
#     8   8   8   8   8   8   8
#     4   9  19  35  51  68  93 127 164 197 231 274
#     4   9  16  28  49  76 101 123 151 190 236 284
#     4  10  19  30  46  70  99 127 153 191 245 286
#     4   8  14  27  47  71  97 121 151 195 241 283
#     4   8  14  27  49  72  94 124 159 193 231 278
#     4  10  21  33  47  72 101 125 155 196 235 276
#     4   9  18  32  50  70  91 121 163 201 231 276
#
# _framework density 22.173347
#
# number of rings (size 3 to 8) (size 9 to 14) (size 15 to 20)
#    0.000    3.000    0.000    3.000    0.000    5.714 
#    0.000    2.857    0.000    1.286    0.000    0.000 
#    0.000    0.000    0.000    0.000    0.000    0.000 
#
# Total GULP energy -156329.052418 kJ/mol
# GULP energy per Si atom -5583.180443 kJ/mol
# Density = 2.212288 g / cm^3
# Si number density = 22.173347 Si / 1000 Ang^3
#
#
#
# Elastic Constant Matrix: (Units=GPa)
#
#
# Indices 1 2 3 4 5 6 
#
# 1 180.7456 -2.3094 56.7993 0.0000 37.5042 0.0000
# 2 -2.3094 68.3106 -10.5274 0.0000 1.3683 0.0000
# 3 56.7993 -10.5274 96.7994 0.0000 35.0464 0.0000
# 4 0.0000 0.0000 0.0000 9.7274 0.0000 3.2722
# 5 37.5042 1.3683 35.0464 0.0000 21.9798 0.0000
# 6 0.0000 0.0000 0.0000 3.2722 0.0000 5.2419
#
#
#
# Elastic Compliance Matrix: (Units=1/GPa)
#
#
# Indices 1 2 3 4 5 6 
#
# 1 0.008617 0.000748 0.000864 0.000000 -0.016128 0.000000
# 2 0.000748 0.015622 0.004907 0.000000 -0.010072 0.000000
# 3 0.000864 0.004907 0.026026 0.000000 -0.043278 0.000000
# 4 0.000000 0.000000 0.000000 0.130127 0.000000 -0.081230
# 5 -0.016128 -0.010072 -0.043278 0.000000 0.142647 0.000000
# 6 0.000000 0.000000 0.000000 -0.081230 0.000000 0.241477
#
#
# Mechanical properties :
#
#
# Convention : Reuss Voigt Hill
#
# Bulk Modulus (GPa) = 15.79715 48.19783 31.99749
# Shear Modulus (GPa) = 8.73241 27.51604 18.12422
#
# Velocity S-wave (km/s) = 1.98665 3.52654 2.86210
# Velocity P-wave (km/s) = 3.52168 6.19403 5.03826
#
# Compressibility (1/GPa) = 0.06330256
#
# Stress axis : x y z
#
# Youngs Moduli (GPa) = 116.04851 64.01117 38.42297
#
# Poissons Ratio (x) = -0.04785 -0.03320
# Poissons Ratio (y) = -0.08675 -0.18854
# Poissons Ratio (z) = -0.10027 -0.31410
#
# Static dielectric constant tensor:
#      x y z
#    x 1.814930 0.000000 -0.001580 
#    y 0.000000 1.902690 0.000000 
#    z -0.001580 0.000000 1.766230 
# 
# From -- ./inp_files/245700.got.cif
#   From: 2010.05.17/outbox.cif.g08.bks.cpg/sg12_123_cif.got.tgz:245700.got - 2010.06.03 13:09:07.
