data_PCOD9178854
_publ_section_title
;
Structure prediction by ZEFSAII (Michael W. Deem and Ramdas Pophale) SiO2 
 PCOD9178854
Probable space group: C 2/M
;
_chemical_formula_sum "Si O2"
_cell_formula_units_Z 56
_cell_length_a 19.902398
_cell_length_b 7.458104
_cell_length_c 19.456531
_cell_angle_alpha 90.000000
_cell_angle_beta 69.298538
_cell_angle_gamma 90.000000
_cell_volume 2701.549147
_symmetry_space_group_name_H-M "C 2/M"
_symmetry_group_IT_number 12
_symmetry_cell_setting 'monoclinic'
loop_
_space_group_symop_operation_xyz
x,y,z
-x,y,-z
-x,-y,-z
x,-y,z
1/2+x,1/2+y,z
1/2-x,1/2+y,-z
1/2-x,1/2-y,-z
1/2+x,1/2-y,z
loop_
_atom_site_type_symbol
_atom_site_label
_atom_site_fract_x
_atom_site_fract_y
_atom_site_fract_z
Si Si1 0.735046 0.785659 0.924664
Si Si2 0.577739 0.786979 0.997368
Si Si3 0.485313 0.294473 0.289653
Si Si4 0.891353 0.783054 0.853516
Si Si5 0.181309 0.714014 0.438375
Si Si6 0.659412 0.284004 0.604221
Si Si7 0.544504 0.217458 0.415946
O O1 0.810209 0.718838 0.864954
O O2 0.732355 0.000000 0.915342
O O3 0.750000 0.750000 0.000000
O O4 0.654159 0.716710 0.938602
O O5 0.587386 0.761414 0.075783
O O6 0.576817 0.000000 0.983583
O O7 0.500000 0.716020 0.000000
O O8 0.475830 0.500000 0.269624
O O9 0.546108 0.214050 0.218954
O O10 0.406044 0.212988 0.326665
O O11 0.514525 0.293584 0.356714
O O12 0.888708 0.000000 0.849409
O O13 0.185563 0.500000 0.429609
O O14 0.261820 0.785952 0.405346
O O15 0.151090 0.746348 0.526040
O O16 0.125381 0.777999 0.402381
O O17 0.659372 0.500000 0.610526
O O18 0.500000 0.267251 0.500000
O O19 0.541534 0.000000 0.411776
#
# Coordination Sequence:
#
# PCOD9178854 Si02
#       7
#     8   8   8   8   8   8   8
#     4   8  14  27  47  67  90 120 151 183 218 262
#     4   9  17  30  50  75  97 119 152 191 227 266
#     4  10  20  32  47  68  94 123 155 192 233 276
#     4   9  18  32  48  68  95 126 156 186 226 275
#     4   9  17  30  46  64  86 112 149 193 233 273
#     4   9  17  29  46  65  86 116 150 187 230 273
#     4  10  19  31  47  67  90 118 154 196 236 275
#
# _framework density 20.728846000000001
#
# number of rings (size 3 to 8) (size 9 to 14) (size 15 to 20)
#    0.000    2.857    1.429    0.000    0.000    1.714 
#    0.000    1.429    0.000    0.000    0.000    0.000 
#    0.000    0.000    0.000    0.000    0.000    0.000 
#
# Total GULP energy -155982.909899 kJ/mol
# GULP energy per Si atom -5570.818211 kJ/mol
# Density = 2.068167 g / cm^3
# Si number density = 20.728846 Si / 1000 Ang^3
#
#
#
# Elastic Constant Matrix: (Units=GPa)
#
#
# Indices 1 2 3 4 5 6 
#
# 1 149.8985 4.5254 52.2266 -0.0008 -47.4073 0.0026
# 2 4.5254 61.1924 -7.3424 -0.0017 -3.4046 0.0052
# 3 52.2266 -7.3424 87.9666 0.0003 -42.7016 -0.0010
# 4 -0.0008 -0.0017 0.0003 49.6166 -0.0001 -88.8020
# 5 -47.4073 -3.4046 -42.7016 -0.0001 38.7517 0.0006
# 6 0.0026 0.0052 -0.0010 -88.8020 0.0006 233.9141
#
#
#
# Elastic Compliance Matrix: (Units=1/GPa)
#
#
# Indices 1 2 3 4 5 6 
#
# 1 0.010881 -0.000067 -0.000015 0.000000 0.013290 0.000000
# 2 -0.000067 0.017276 0.004685 0.000000 0.006598 -0.000001
# 3 -0.000015 0.004685 0.025713 0.000000 0.028727 0.000000
# 4 0.000000 0.000000 0.000000 0.062876 -0.000001 0.023870
# 5 0.013290 0.006598 0.028727 -0.000001 0.074298 -0.000001
# 6 0.000000 -0.000001 0.000000 0.023870 -0.000001 0.013337
#
#
# Mechanical properties :
#
#
# Convention : Reuss Voigt Hill
#
# Bulk Modulus (GPa) = 15.85400 44.20852 30.03126
# Shear Modulus (GPa) = 23.12660 81.09967 52.11314
#
# Velocity S-wave (km/s) = 3.34379 6.26171 5.01946
# Velocity P-wave (km/s) = 4.75109 8.58208 6.93631
#
# Compressibility (1/GPa) = 0.06307557
#
# Stress axis : x y z
#
# Youngs Moduli (GPa) = 91.90009 57.88359 38.89134
#
# Poissons Ratio (x) = 0.00388 0.00058
# Poissons Ratio (y) = 0.00617 -0.18219
# Poissons Ratio (z) = 0.00136 -0.27116
#
# Static dielectric constant tensor:
#      x y z
#    x 1.801060 0.000000 -0.075370 
#    y 0.000000 1.714510 0.000000 
#    z -0.075370 0.000000 1.725900 
# 
# From -- ./inp_files/319014.got.cif
#   From: 2010.05.17/outbox.cif.g08.bks.cpg/sg12_160_cif.got.tgz:319014.got - 2010.06.03 13:09:07.
