data_PCOD9178488
_publ_section_title
;
Structure prediction by ZEFSAII (Michael W. Deem and Ramdas Pophale) SiO2 
 PCOD9178488
Probable space group: C 2/M
;
_chemical_formula_sum "Si O2"
_cell_formula_units_Z 64
_cell_length_a 22.996358
_cell_length_b 15.354355
_cell_length_c 8.474814
_cell_angle_alpha 90.000000
_cell_angle_beta 97.512458
_cell_angle_gamma 90.000000
_cell_volume 2966.722584
_symmetry_space_group_name_H-M "C 2/M"
_symmetry_group_IT_number 12
_symmetry_cell_setting 'monoclinic'
loop_
_space_group_symop_operation_xyz
x,y,z
-x,y,-z
-x,-y,-z
x,-y,z
1/2+x,1/2+y,z
1/2-x,1/2+y,-z
1/2-x,1/2-y,-z
1/2+x,1/2-y,z
loop_
_atom_site_type_symbol
_atom_site_label
_atom_site_fract_x
_atom_site_fract_y
_atom_site_fract_z
Si Si1 0.434896 0.779888 0.472754
Si Si2 0.832922 0.101366 0.743871
Si Si3 0.662126 0.904331 0.465523
Si Si4 0.855752 0.760091 0.163150
Si Si5 0.054552 0.898236 0.910780
Si Si6 0.549240 0.400865 0.351721
Si Si7 0.725118 0.332570 0.588022
Si Si8 0.283951 0.101587 0.156565
O O1 0.500000 0.818216 0.500000
O O2 0.387637 0.831689 0.560643
O O3 0.407967 0.779950 0.289213
O O4 0.439585 0.681567 0.535695
O O5 0.902538 0.114068 0.770743
O O6 0.815973 0.122207 0.556405
O O7 0.782491 0.138313 0.841064
O O8 0.822533 0.000000 0.763182
O O9 0.716489 0.888940 0.367660
O O10 0.690064 0.900700 0.653502
O O11 0.636920 0.000000 0.435202
O O12 0.810493 0.805276 0.270736
O O13 0.821543 0.676123 0.081179
O O14 0.889807 0.835032 0.080565
O O15 0.017393 0.899410 0.733066
O O16 0.069532 0.000000 0.947164
O O17 0.000000 0.869333 0.000000
O O18 0.560726 0.500000 0.413391
O O19 0.750000 0.250000 0.500000
O O20 0.286286 0.000000 0.100703
#
# Coordination Sequence:
#
# PCOD9178488 Si02
#       8
#     8   8   8   8   8   8   8   8
#     4  11  19  29  45  74 103 126 161 200 245 295
#     4   9  15  24  41  69  99 125 149 183 235 289
#     4   9  18  29  41  64 106 145 162 183 230 295
#     4  11  19  29  51  74 100 133 163 199 245 292
#     4  10  23  40  52  66  93 131 173 211 246 290
#     4  10  19  30  49  71  94 125 156 200 253 296
#     4  11  15  25  43  71 105 131 154 193 235 291
#     4   8  15  27  44  71 102 129 157 189 233 290
#
# _framework density 21.572627000000001
#
# number of rings (size 3 to 8) (size 9 to 14) (size 15 to 20)
#    0.000    2.125    6.250    1.125    0.000    2.000 
#    0.000    0.000    0.000    1.125    0.000    0.000 
#    0.000    0.000    0.000    0.000    0.000    0.000 
#
# Total GULP energy -178340.040909 kJ/mol
# GULP energy per Si atom -5573.126278 kJ/mol
# Density = 2.152353 g / cm^3
# Si number density = 21.572627 Si / 1000 Ang^3
#
#
#
# Elastic Constant Matrix: (Units=GPa)
#
#
# Indices 1 2 3 4 5 6 
#
# 1 140.4995 57.7662 28.6840 0.0000 -24.1294 0.0000
# 2 57.7662 106.8140 31.6725 0.0000 -21.4790 0.0000
# 3 28.6840 31.6725 41.4672 0.0000 -26.8426 0.0000
# 4 0.0000 0.0000 0.0000 20.1306 0.0000 -12.2464
# 5 -24.1294 -21.4790 -26.8426 0.0000 33.7244 0.0000
# 6 0.0000 0.0000 0.0000 -12.2464 0.0000 27.3631
#
#
#
# Elastic Compliance Matrix: (Units=1/GPa)
#
#
# Indices 1 2 3 4 5 6 
#
# 1 0.009664 -0.004158 -0.001541 0.000000 0.003039 0.000000
# 2 -0.004158 0.013901 -0.008119 0.000000 -0.000584 0.000000
# 3 -0.001541 -0.008119 0.056360 0.000000 0.038585 0.000000
# 4 0.000000 0.000000 0.000000 0.068261 0.000000 0.030550
# 5 0.003039 -0.000584 0.038585 0.000000 0.062166 0.000000
# 6 0.000000 0.000000 0.000000 0.030550 0.000000 0.050218
#
#
# Mechanical properties :
#
#
# Convention : Reuss Voigt Hill
#
# Bulk Modulus (GPa) = 19.12508 58.33624 38.73066
# Shear Modulus (GPa) = 16.35927 27.62082 21.99005
#
# Velocity S-wave (km/s) = 2.75678 3.58210 3.19619
# Velocity P-wave (km/s) = 4.36094 6.64899 5.62258
#
# Compressibility (1/GPa) = 0.05228736
#
# Stress axis : x y z
#
# Youngs Moduli (GPa) = 103.48053 71.93807 17.74297
#
# Poissons Ratio (x) = 0.29912 0.02735
# Poissons Ratio (y) = 0.43027 0.14406
# Poissons Ratio (z) = 0.15951 0.58409
#
# Static dielectric constant tensor:
#      x y z
#    x 1.865570 0.000000 0.023080 
#    y 0.000000 1.804750 0.000000 
#    z 0.023080 0.000000 1.887840 
# 
# From -- ./inp_files/176112.got.cif
#   From: 2010.05.17/outbox.cif.g08.bks.cpg/sg12_89_cif.got.tgz:176112.got - 2010.06.03 13:09:07.
