data_PCOD9178774
_publ_section_title
;
Structure prediction by ZEFSAII (Michael W. Deem and Ramdas Pophale) SiO2 
 PCOD9178774
Probable space group: C 2/M
;
_chemical_formula_sum "Si O2"
_cell_formula_units_Z 56
_cell_length_a 16.286022
_cell_length_b 17.993407
_cell_length_c 13.970223
_cell_angle_alpha 90.000000
_cell_angle_beta 114.240041
_cell_angle_gamma 90.000000
_cell_volume 3732.907813
_symmetry_space_group_name_H-M "C 2/M"
_symmetry_group_IT_number 12
_symmetry_cell_setting 'monoclinic'
loop_
_space_group_symop_operation_xyz
x,y,z
-x,y,-z
-x,-y,-z
x,-y,z
1/2+x,1/2+y,z
1/2-x,1/2+y,-z
1/2-x,1/2-y,-z
1/2+x,1/2-y,z
loop_
_atom_site_type_symbol
_atom_site_label
_atom_site_fract_x
_atom_site_fract_y
_atom_site_fract_z
Si Si1 0.638307 0.409823 0.112264
Si Si2 0.179352 0.411265 0.699223
Si Si3 0.500615 0.177316 0.616141
Si Si4 0.047422 0.910328 0.875048
Si Si5 0.677102 0.911900 0.470734
Si Si6 0.868143 0.911743 0.468659
Si Si7 0.468839 0.348326 0.338105
O O1 0.639597 0.500000 0.113836
O O2 0.732851 0.385033 0.201042
O O3 0.552728 0.388621 0.136522
O O4 0.615420 0.387568 0.992539
O O5 0.168647 0.500000 0.707519
O O6 0.193242 0.399263 0.591968
O O7 0.088584 0.369714 0.685973
O O8 0.500000 0.179527 0.500000
O O9 0.408516 0.136513 0.601091
O O10 0.509148 0.261377 0.654848
O O11 0.064426 0.876822 0.779712
O O12 0.049548 0.000000 0.869529
O O13 0.768090 0.894606 0.456994
O O14 0.657404 0.000000 0.450238
O O15 0.898456 0.866599 0.389366
O O16 0.940495 0.891204 0.585313
O O17 0.874641 0.000000 0.452318
#
# Coordination Sequence:
#
# PCOD9178774 Si02
#       7
#     8   8   8   8   8   8   8
#     4   8  15  28  47  72  89 109 149 192 231 267
#     4   9  16  29  49  68  88 117 153 192 231 267
#     4  10  19  32  43  66  97 122 153 187 226 272
#     4   9  16  28  47  68  93 117 147 188 227 271
#     4   9  18  31  49  69  90 121 157 191 224 263
#     4  10  19  31  46  65  92 125 160 184 215 270
#     4  11  19  30  42  68  96 125 148 178 230 275
#
# _framework density 15.001709
#
# number of rings (size 3 to 8) (size 9 to 14) (size 15 to 20)
#    0.000    2.571    1.429    3.857    0.000    4.571 
#    2.571    0.714    0.000    0.000    0.000    0.000 
#    0.000    5.714    0.000    0.000    0.000    0.000 
#
# Total GULP energy -156019.014548 kJ/mol
# GULP energy per Si atom -5572.107662 kJ/mol
# Density = 1.496756 g / cm^3
# Si number density = 15.001709 Si / 1000 Ang^3
#
#
#
# Elastic Constant Matrix: (Units=GPa)
#
#
# Indices 1 2 3 4 5 6 
#
# 1 96.0888 48.0207 44.9148 0.0000 15.1461 0.0000
# 2 48.0207 56.1535 35.9887 0.0000 9.3940 0.0000
# 3 44.9148 35.9887 89.2729 0.0000 13.2818 0.0000
# 4 0.0000 0.0000 0.0000 8.0542 0.0000 -1.8616
# 5 15.1461 9.3940 13.2818 0.0000 22.7603 0.0000
# 6 0.0000 0.0000 0.0000 -1.8616 0.0000 4.1496
#
#
#
# Elastic Compliance Matrix: (Units=1/GPa)
#
#
# Indices 1 2 3 4 5 6 
#
# 1 0.019807 -0.013704 -0.003637 0.000000 -0.005402 0.000000
# 2 -0.013704 0.033955 -0.006642 0.000000 -0.001019 0.000000
# 3 -0.003637 -0.006642 0.016362 0.000000 -0.004386 0.000000
# 4 0.000000 0.000000 0.000000 0.138522 0.000000 0.062144
# 5 -0.005402 -0.001019 -0.004386 0.000000 0.050511 0.000000
# 6 0.000000 0.000000 0.000000 0.062144 0.000000 0.268867
#
#
# Mechanical properties :
#
#
# Convention : Reuss Voigt Hill
#
# Bulk Modulus (GPa) = 45.13084 55.48484 50.30784
# Shear Modulus (GPa) = 8.57081 14.49889 11.53485
#
# Velocity S-wave (km/s) = 2.39283 3.11220 2.77592
# Velocity P-wave (km/s) = 6.14681 7.06968 6.62434
#
# Compressibility (1/GPa) = 0.02215780
#
# Stress axis : x y z
#
# Youngs Moduli (GPa) = 50.48677 29.45115 61.11828
#
# Poissons Ratio (x) = 0.40359 0.22230
# Poissons Ratio (y) = 0.69185 0.40595
# Poissons Ratio (z) = 0.18363 0.19561
#
# Static dielectric constant tensor:
#      x y z
#    x 1.493020 0.000000 0.004570 
#    y 0.000000 1.489880 0.000000 
#    z 0.004570 0.000000 1.488870 
# 
# From -- ./inp_files/216005.got.cif
#   From: 2010.05.17/outbox.cif.g08.bks.cpg/sg12_109_cif.got.tgz:216005.got - 2010.06.03 13:09:07.
