data_PCOD9178300
_publ_section_title
;
Structure prediction by ZEFSAII (Michael W. Deem and Ramdas Pophale) SiO2 
 PCOD9178300
Probable space group: C 2/M
;
_chemical_formula_sum "Si O2"
_cell_formula_units_Z 64
_cell_length_a 23.412062
_cell_length_b 8.519052
_cell_length_c 22.953089
_cell_angle_alpha 90.000000
_cell_angle_beta 126.653164
_cell_angle_gamma 90.000000
_cell_volume 3672.732736
_symmetry_space_group_name_H-M "C 2/M"
_symmetry_group_IT_number 12
_symmetry_cell_setting 'monoclinic'
loop_
_space_group_symop_operation_xyz
x,y,z
-x,y,-z
-x,-y,-z
x,-y,z
1/2+x,1/2+y,z
1/2-x,1/2+y,-z
1/2-x,1/2-y,-z
1/2+x,1/2-y,z
loop_
_atom_site_type_symbol
_atom_site_label
_atom_site_fract_x
_atom_site_fract_y
_atom_site_fract_z
Si Si1 0.064430 0.188329 0.386436
Si Si2 0.203344 0.311778 0.417445
Si Si3 0.721739 0.312352 0.656423
Si Si4 0.577085 0.188087 0.523263
Si Si5 0.260273 0.811737 0.208313
Si Si6 0.800667 0.812663 0.945779
Si Si7 0.652056 0.310072 0.906701
Si Si8 0.090017 0.810947 0.750192
O O1 0.123304 0.252809 0.378165
O O2 0.085348 0.246311 0.463322
O O3 0.984404 0.241980 0.322509
O O4 0.065910 0.000000 0.386259
O O5 0.205100 0.500000 0.420085
O O6 0.250000 0.250000 0.500000
O O7 0.236647 0.258829 0.376261
O O8 0.720216 0.500000 0.655600
O O9 0.641171 0.250520 0.601533
O O10 0.754166 0.253344 0.736552
O O11 0.500000 0.237954 0.500000
O O12 0.579663 0.000000 0.523464
O O13 0.205983 0.753379 0.124543
O O14 0.339886 0.760062 0.237216
O O15 0.258536 0.000000 0.208829
O O16 0.723583 0.770233 0.925804
O O17 0.808213 0.000000 0.946156
O O18 0.855017 0.760107 0.029926
O O19 0.662062 0.500000 0.912208
O O20 0.593875 0.274650 0.821892
O O21 0.094680 0.000000 0.746608
#
# Coordination Sequence:
#
# PCOD9178300 Si02
#       8
#     8   8   8   8   8   8   8   8
#     4  11  22  35  52  74  99 129 163 201 246 292
#     4  11  23  39  58  75  92 120 162 210 254 294
#     4  11  23  37  53  72  94 125 162 202 248 294
#     4  11  23  36  52  74  99 129 162 196 239 290
#     4  10  19  30  47  73 104 134 163 200 244 290
#     4   8  14  24  40  65  96 129 163 196 233 279
#     4   8  13  24  42  64  94 131 165 195 230 278
#     4   9  18  31  48  72 103 136 166 198 239 289
#
# _framework density 17.425716999999999
#
# number of rings (size 3 to 8) (size 9 to 14) (size 15 to 20)
#    0.000    2.125    1.250    2.625    0.000    6.000 
#    0.000    0.000    0.000    0.000    0.000    0.875 
#    0.000    7.000    0.000    0.000    0.000    0.000 
#
# Total GULP energy -178363.500879 kJ/mol
# GULP energy per Si atom -5573.859402 kJ/mol
# Density = 1.738605 g / cm^3
# Si number density = 17.425717 Si / 1000 Ang^3
#
#
#
# Elastic Constant Matrix: (Units=GPa)
#
#
# Indices 1 2 3 4 5 6 
#
# 1 55.3938 12.6473 12.2715 0.0000 -23.4918 0.0000
# 2 12.6473 21.2156 8.8378 0.0000 -8.0891 0.0000
# 3 12.2715 8.8378 96.0321 0.0000 -35.6926 0.0000
# 4 0.0000 0.0000 0.0000 20.2867 0.0000 -4.0447
# 5 -23.4918 -8.0891 -35.6926 0.0000 25.5438 0.0000
# 6 0.0000 0.0000 0.0000 -4.0447 0.0000 21.5699
#
#
#
# Elastic Compliance Matrix: (Units=1/GPa)
#
#
# Indices 1 2 3 4 5 6 
#
# 1 0.042150 -0.009354 0.018269 0.000000 0.061330 0.000000
# 2 -0.009354 0.056065 -0.001171 0.000000 0.007516 0.000000
# 3 0.018269 -0.001171 0.029737 0.000000 0.057983 0.000000
# 4 0.000000 0.000000 0.000000 0.051208 0.000000 0.009602
# 5 0.061330 0.007516 0.057983 0.000000 0.178952 0.000000
# 6 0.000000 0.000000 0.000000 0.009602 0.000000 0.048162
#
#
# Mechanical properties :
#
#
# Convention : Reuss Voigt Hill
#
# Bulk Modulus (GPa) = 6.97145 26.68386 16.82766
# Shear Modulus (GPa) = 11.39997 22.73907 17.06952
#
# Velocity S-wave (km/s) = 2.56052 3.61628 3.13319
# Velocity P-wave (km/s) = 3.57086 5.72563 4.77147
#
# Compressibility (1/GPa) = 0.14344209
#
# Stress axis : x y z
#
# Youngs Moduli (GPa) = 23.72461 17.83657 33.62802
#
# Poissons Ratio (x) = 0.16684 -0.61437
# Poissons Ratio (y) = 0.22191 0.03937
# Poissons Ratio (z) = -0.43344 0.02088
#
# Static dielectric constant tensor:
#      x y z
#    x 1.568550 0.000000 -0.026730 
#    y 0.000000 1.604100 0.000000 
#    z -0.026730 0.000000 1.641930 
# 
# From -- ./inp_files/320057.got.cif
#   From: 2010.05.17/outbox.cif.g08.bks.cpg/sg12_161_cif.got.tgz:320057.got - 2010.06.03 13:09:07.
