data_PCOD9178198
_publ_section_title
;
Structure prediction by ZEFSAII (Michael W. Deem and Ramdas Pophale) SiO2 
 PCOD9178198
Probable space group: C 2/M
;
_chemical_formula_sum "Si O2"
_cell_formula_units_Z 56
_cell_length_a 28.647804
_cell_length_b 8.388724
_cell_length_c 14.353530
_cell_angle_alpha 90.000000
_cell_angle_beta 60.138603
_cell_angle_gamma 90.000000
_cell_volume 2991.448032
_symmetry_space_group_name_H-M "C 2/M"
_symmetry_group_IT_number 12
_symmetry_cell_setting 'monoclinic'
loop_
_space_group_symop_operation_xyz
x,y,z
-x,y,-z
-x,-y,-z
x,-y,z
1/2+x,1/2+y,z
1/2-x,1/2+y,-z
1/2-x,1/2-y,-z
1/2+x,1/2-y,z
loop_
_atom_site_type_symbol
_atom_site_label
_atom_site_fract_x
_atom_site_fract_y
_atom_site_fract_z
Si Si1 0.275344 0.193262 0.614073
Si Si2 0.557294 0.191884 0.055283
Si Si3 0.631084 0.188241 0.354384
Si Si4 0.566322 0.194407 0.838549
Si Si5 0.568227 0.689425 0.239449
Si Si6 0.329781 0.191706 0.367151
Si Si7 0.035005 0.182400 0.560691
O O1 0.310962 0.244704 0.666733
O O2 0.307650 0.247518 0.488986
O O3 0.215458 0.258937 0.662718
O O4 0.273405 0.000000 0.615117
O O5 0.494707 0.246294 0.119880
O O6 0.584876 0.254446 0.120968
O O7 0.557639 0.000000 0.057461
O O8 0.579751 0.240454 0.932013
O O9 0.608213 0.263509 0.282802
O O10 0.588086 0.222876 0.479844
O O11 0.633200 0.000000 0.338003
O O12 0.611644 0.251178 0.722043
O O13 0.565698 0.000000 0.836513
O O14 0.562815 0.500000 0.246496
O O15 0.508006 0.754486 0.324300
O O16 0.332132 0.000000 0.368882
O O17 0.000000 0.175704 0.500000
O O18 0.049415 0.000000 0.570848
#
# Coordination Sequence:
#
# PCOD9178198 Si02
#       7
#     8   8   8   8   8   8   8
#     4   9  19  32  47  73 101 124 160 202 237 280
#     4   9  17  31  52  75  98 126 162 199 238 285
#     4  10  19  30  47  70  95 126 163 203 239 280
#     4   8  16  31  52  76  98 124 160 202 242 282
#     4  10  20  32  45  67 100 132 160 195 239 289
#     4   9  17  32  52  71  97 129 159 194 240 290
#     4   8  16  29  41  59  93 128 156 189 230 280
#
# _framework density 18.720032
#
# number of rings (size 3 to 8) (size 9 to 14) (size 15 to 20)
#    0.000    3.000    0.000    2.571    2.000    4.286 
#    0.000    2.857    0.000    0.857    0.000    0.000 
#    0.000    0.000    0.000    0.000    0.000    0.000 
#
# Total GULP energy -156023.682230 kJ/mol
# GULP energy per Si atom -5572.274365 kJ/mol
# Density = 1.867742 g / cm^3
# Si number density = 18.720032 Si / 1000 Ang^3
#
#
#
# Elastic Constant Matrix: (Units=GPa)
#
#
# Indices 1 2 3 4 5 6 
#
# 1 52.2701 0.1979 0.3118 0.0000 8.6312 0.0000
# 2 0.1979 8.1042 1.4492 0.0000 2.4376 0.0000
# 3 0.3118 1.4492 39.6094 0.0000 4.8907 0.0000
# 4 0.0000 0.0000 0.0000 10.0814 0.0000 1.3231
# 5 8.6312 2.4376 4.8907 0.0000 28.2500 0.0000
# 6 0.0000 0.0000 0.0000 1.3231 0.0000 19.8125
#
#
#
# Elastic Compliance Matrix: (Units=1/GPa)
#
#
# Indices 1 2 3 4 5 6 
#
# 1 0.020176 0.001322 0.000580 0.000000 -0.006379 0.000000
# 2 0.001322 0.127206 -0.003330 0.000000 -0.010803 0.000000
# 3 0.000580 -0.003330 0.025904 0.000000 -0.004375 0.000000
# 4 0.000000 0.000000 0.000000 0.100070 0.000000 -0.006683
# 5 -0.006379 -0.010803 -0.004375 0.000000 0.039037 0.000000
# 6 0.000000 0.000000 0.000000 -0.006683 0.000000 0.050919
#
#
# Mechanical properties :
#
#
# Convention : Reuss Voigt Hill
#
# Bulk Modulus (GPa) = 5.86752 11.54461 8.70607
# Shear Modulus (GPa) = 11.82096 18.16375 14.99236
#
# Velocity S-wave (km/s) = 2.51561 3.11832 2.83304
# Velocity P-wave (km/s) = 3.40278 4.37557 3.91947
#
# Compressibility (1/GPa) = 0.17042988
#
# Stress axis : x y z
#
# Youngs Moduli (GPa) = 49.56321 7.86129 38.60416
#
# Poissons Ratio (x) = -0.01039 -0.02241
# Poissons Ratio (y) = -0.06553 0.12857
# Poissons Ratio (z) = -0.02877 0.02618
#
# Static dielectric constant tensor:
#      x y z
#    x 1.665470 0.000000 0.008410 
#    y 0.000000 1.640300 0.000000 
#    z 0.008410 0.000000 1.672960 
# 
# From -- ./inp_files/243696.got.cif
#   From: 2010.05.17/outbox.cif.g08.bks.cpg/sg12_122_cif.got.tgz:243696.got - 2010.06.03 13:09:07.
