data_PCOD9178432
_publ_section_title
;
Structure prediction by ZEFSAII (Michael W. Deem and Ramdas Pophale) SiO2 
 PCOD9178432
Probable space group: C 2/M
;
_chemical_formula_sum "Si O2"
_cell_formula_units_Z 64
_cell_length_a 28.266213
_cell_length_b 9.416613
_cell_length_c 13.435127
_cell_angle_alpha 90.000000
_cell_angle_beta 85.360423
_cell_angle_gamma 90.000000
_cell_volume 3564.336613
_symmetry_space_group_name_H-M "C 2/M"
_symmetry_group_IT_number 12
_symmetry_cell_setting 'monoclinic'
loop_
_space_group_symop_operation_xyz
x,y,z
-x,y,-z
-x,-y,-z
x,-y,z
1/2+x,1/2+y,z
1/2-x,1/2+y,-z
1/2-x,1/2-y,-z
1/2+x,1/2-y,z
loop_
_atom_site_type_symbol
_atom_site_label
_atom_site_fract_x
_atom_site_fract_y
_atom_site_fract_z
Si Si1 0.050914 0.327527 0.536128
Si Si2 0.910213 0.329292 0.256718
Si Si3 0.379381 0.170525 0.651112
Si Si4 0.921287 0.837017 0.827882
Si Si5 0.688936 0.169630 0.811837
Si Si6 0.977090 0.163587 0.105711
Si Si7 0.650869 0.168846 0.038711
Si Si8 0.713981 0.168115 0.225494
O O1 0.048351 0.500000 0.539464
O O2 0.064847 0.281320 0.645030
O O3 0.094432 0.290548 0.455269
O O4 0.000000 0.278780 0.500000
O O5 0.914387 0.500000 0.249518
O O6 0.854601 0.294612 0.254420
O O7 0.936803 0.258065 0.160034
O O8 0.407281 0.247556 0.734336
O O9 0.324332 0.205586 0.682047
O O10 0.383473 0.000000 0.662628
O O11 0.894865 0.761590 0.924804
O O12 0.977604 0.837455 0.829543
O O13 0.904887 0.000000 0.823813
O O14 0.737482 0.247170 0.777889
O O15 0.696000 0.000000 0.807653
O O16 0.672674 0.204875 0.927834
O O17 0.961327 0.000000 0.091807
O O18 0.000000 0.218092 0.000000
O O19 0.687812 0.193962 0.123434
O O20 0.639425 0.000000 0.041109
O O21 0.723241 0.000000 0.229617
#
# Coordination Sequence:
#
# PCOD9178432 Si02
#       8
#     8   8   8   8   8   8   8   8
#     4   9  17  32  56  80 100 127 164 207 254 301
#     4  10  21  35  53  78 101 128 172 216 253 294
#     4   9  18  34  54  75 100 129 165 208 250 298
#     4  10  19  30  48  75 102 129 165 208 251 296
#     4  10  20  33  49  72 103 133 166 214 258 292
#     4  10  21  35  49  70 104 141 169 196 242 304
#     4   9  18  32  49  72 102 136 171 204 246 299
#     4   9  18  31  49  72  97 132 174 207 243 299
#
# _framework density 17.955656000000001
#
# number of rings (size 3 to 8) (size 9 to 14) (size 15 to 20)
#    0.000    2.500    0.000    3.000    0.000    5.250 
#    0.000    1.250    0.000    2.250    0.000    0.000 
#    0.000    0.000    0.000    0.000    0.000    0.000 
#
# Total GULP energy -178412.194128 kJ/mol
# GULP energy per Si atom -5575.381066 kJ/mol
# Density = 1.791479 g / cm^3
# Si number density = 17.955656 Si / 1000 Ang^3
#
#
#
# Elastic Constant Matrix: (Units=GPa)
#
#
# Indices 1 2 3 4 5 6 
#
# 1 105.8553 32.0884 40.7510 0.0000 -5.1550 0.0000
# 2 32.0884 15.5199 18.5226 0.0000 -5.3308 0.0000
# 3 40.7510 18.5226 89.6325 0.0000 -9.8003 0.0000
# 4 0.0000 0.0000 0.0000 13.5544 0.0000 -0.7699
# 5 -5.1550 -5.3308 -9.8003 0.0000 20.8883 0.0000
# 6 0.0000 0.0000 0.0000 -0.7699 0.0000 26.0050
#
#
#
# Elastic Compliance Matrix: (Units=1/GPa)
#
#
# Indices 1 2 3 4 5 6 
#
# 1 0.026652 -0.056340 -0.001399 0.000000 -0.008457 0.000000
# 2 -0.056340 0.208856 -0.013954 0.000000 0.032850 0.000000
# 3 -0.001399 -0.013954 0.015020 0.000000 0.003141 0.000000
# 4 0.000000 0.000000 0.000000 0.073901 0.000000 0.002188
# 5 -0.008457 0.032850 0.003141 0.000000 0.055643 0.000000
# 6 0.000000 0.000000 0.000000 0.002188 0.000000 0.038519
#
#
# Mechanical properties :
#
#
# Convention : Reuss Voigt Hill
#
# Bulk Modulus (GPa) = 9.33340 43.74795 26.54067
# Shear Modulus (GPa) = 8.36551 20.06592 14.21571
#
# Velocity S-wave (km/s) = 2.16081 3.34657 2.81679
# Velocity P-wave (km/s) = 3.38153 6.27296 5.03909
#
# Compressibility (1/GPa) = 0.10714212
#
# Stress axis : x y z
#
# Youngs Moduli (GPa) = 37.52019 4.78798 66.57871
#
# Poissons Ratio (x) = 0.26976 0.09317
# Poissons Ratio (y) = 2.11389 0.92902
# Poissons Ratio (z) = 0.05250 0.06681
#
# Static dielectric constant tensor:
#      x y z
#    x 1.615490 0.000000 0.010690 
#    y 0.000000 1.601740 0.000000 
#    z 0.010690 0.000000 1.635320 
# 
# From -- ./inp_files/187565.got.cif
#   From: 2010.05.17/outbox.cif.g08.bks.cpg/sg12_94_cif.got.tgz:187565.got - 2010.06.03 13:09:07.
