data_PCOD9178159
_publ_section_title
;
Structure prediction by ZEFSAII (Michael W. Deem and Ramdas Pophale) SiO2 
 PCOD9178159
Probable space group: C 2/M
;
_chemical_formula_sum "Si O2"
_cell_formula_units_Z 60
_cell_length_a 25.378563
_cell_length_b 28.491394
_cell_length_c 8.197619
_cell_angle_alpha 90.000000
_cell_angle_beta 34.005085
_cell_angle_gamma 90.000000
_cell_volume 3315.028336
_symmetry_space_group_name_H-M "C 2/M"
_symmetry_group_IT_number 12
_symmetry_cell_setting 'monoclinic'
loop_
_space_group_symop_operation_xyz
x,y,z
-x,y,-z
-x,-y,-z
x,-y,z
1/2+x,1/2+y,z
1/2-x,1/2+y,-z
1/2-x,1/2-y,-z
1/2+x,1/2-y,z
loop_
_atom_site_type_symbol
_atom_site_label
_atom_site_fract_x
_atom_site_fract_y
_atom_site_fract_z
Si Si1 0.500000 0.917202 0.500000
Si Si2 0.614176 0.947607 0.702948
Si Si3 0.983607 0.728653 0.213851
Si Si4 0.762367 0.852690 0.828222
Si Si5 0.102651 0.634838 0.501717
Si Si6 0.692194 0.947841 0.869602
Si Si7 0.102477 0.798171 0.309056
Si Si8 0.808077 0.734820 0.191378
O O1 0.484216 0.885982 0.379871
O O2 0.404124 0.945202 0.776190
O O3 0.643946 0.905629 0.509453
O O4 0.658151 0.943061 0.769513
O O5 0.637249 0.000000 0.581387
O O6 0.500000 0.944759 0.000000
O O7 0.931376 0.679877 0.313546
O O8 0.920236 0.757173 0.502674
O O9 0.000000 0.754232 0.000000
O O10 0.085564 0.720579 0.031653
O O11 0.754994 0.903469 0.761802
O O12 0.852495 0.840712 0.706410
O O13 0.744444 0.809622 0.751800
O O14 0.675970 0.850736 0.176239
O O15 0.733902 0.000000 0.783133
O O16 0.000000 0.810299 0.500000
O O17 0.172451 0.776223 0.992170
O O18 0.750000 0.750000 0.500000
#
# Coordination Sequence:
#
# PCOD9178159 Si02
#       8
#     4   8   8   8   8   8   8   8
#     4  10  19  30  46  74 110 156 188 218 273 326
#     4  10  20  34  50  75 114 159 196 227 267 331
#     4  11  22  34  55  81 116 154 189 230 283 337
#     4  11  23  37  58  83 110 147 194 243 287 345
#     4  11  21  31  52  79 116 151 196 231 274 329
#     4  10  21  35  52  77 112 147 188 233 283 339
#     4  10  23  43  58  78 112 149 193 243 297 352
#     4  11  23  37  58  83 115 153 194 237 286 340
#
# _framework density 18.099394
#
# number of rings (size 3 to 8) (size 9 to 14) (size 15 to 20)
#    0.000    1.467    2.667    3.400    4.667    2.133 
#    0.000    0.000    0.000    0.400    0.000    0.000 
#    0.000   12.267    0.000    0.000    0.000    0.267 
#
# Total GULP energy -167438.123332 kJ/mol
# GULP energy per Si atom -5581.270778 kJ/mol
# Density = 1.805820 g / cm^3
# Si number density = 18.099394 Si / 1000 Ang^3
#
#
#
# Elastic Constant Matrix: (Units=GPa)
#
#
# Indices 1 2 3 4 5 6 
#
# 1 88.4595 64.9413 20.5754 0.0000 2.7000 0.0000
# 2 64.9413 114.5266 38.8039 0.0000 -2.5775 0.0000
# 3 20.5754 38.8039 62.0612 0.0000 19.8235 0.0000
# 4 0.0000 0.0000 0.0000 17.1738 0.0000 5.1083
# 5 2.7000 -2.5775 19.8235 0.0000 29.7578 0.0000
# 6 0.0000 0.0000 0.0000 5.1083 0.0000 31.6421
#
#
#
# Elastic Compliance Matrix: (Units=1/GPa)
#
#
# Indices 1 2 3 4 5 6 
#
# 1 0.019798 -0.012170 0.002484 0.000000 -0.004505 0.000000
# 2 -0.012170 0.019873 -0.011805 0.000000 0.010690 0.000000
# 3 0.002484 -0.011805 0.029305 0.000000 -0.020770 0.000000
# 4 0.000000 0.000000 0.000000 0.061166 0.000000 -0.009875
# 5 -0.004505 0.010690 -0.020770 0.000000 0.048775 0.000000
# 6 0.000000 0.000000 0.000000 -0.009875 0.000000 0.033198
#
#
# Mechanical properties :
#
#
# Convention : Reuss Voigt Hill
#
# Bulk Modulus (GPa) = 38.46889 57.07650 47.77269
# Shear Modulus (GPa) = 18.95653 25.09652 22.02652
#
# Velocity S-wave (km/s) = 3.23980 3.72774 3.49230
# Velocity P-wave (km/s) = 5.94100 7.08036 6.53556
#
# Compressibility (1/GPa) = 0.02599503
#
# Stress axis : x y z
#
# Youngs Moduli (GPa) = 50.50891 50.32005 34.12374
#
# Poissons Ratio (x) = 0.61238 -0.08478
# Poissons Ratio (y) = 0.61468 0.40284
# Poissons Ratio (z) = -0.12548 0.59405
#
# Static dielectric constant tensor:
#      x y z
#    x 1.674930 0.000000 0.015580 
#    y 0.000000 1.644280 0.000000 
#    z 0.015580 0.000000 1.613880 
# 
# From -- ./inp_files/106985.got.cif
#   From: 2010.05.17/outbox.cif.g08.bks.cpg/sg12_54_cif.got.tgz:106985.got - 2010.06.03 13:09:07.
