data_PCOD9178650
_publ_section_title
;
Structure prediction by ZEFSAII (Michael W. Deem and Ramdas Pophale) SiO2 
 PCOD9178650
Probable space group: C 2/M
;
_chemical_formula_sum "Si O2"
_cell_formula_units_Z 40
_cell_length_a 18.800485
_cell_length_b 10.736253
_cell_length_c 16.562819
_cell_angle_alpha 90.000000
_cell_angle_beta 32.496627
_cell_angle_gamma 90.000000
_cell_volume 1796.107951
_symmetry_space_group_name_H-M "C 2/M"
_symmetry_group_IT_number 12
_symmetry_cell_setting 'monoclinic'
loop_
_space_group_symop_operation_xyz
x,y,z
-x,y,-z
-x,-y,-z
x,-y,z
1/2+x,1/2+y,z
1/2-x,1/2+y,-z
1/2-x,1/2-y,-z
1/2+x,1/2-y,z
loop_
_atom_site_type_symbol
_atom_site_label
_atom_site_fract_x
_atom_site_fract_y
_atom_site_fract_z
Si Si1 0.191097 0.302615 0.376112
Si Si2 0.398973 0.642684 0.842245
Si Si3 0.397587 0.143658 0.719438
Si Si4 0.512654 0.358712 0.900772
Si Si5 0.800262 0.131839 0.501739
O O1 0.168267 0.319372 0.303099
O O2 0.330353 0.364499 0.266208
O O3 0.209762 0.164319 0.393946
O O4 0.056540 0.349537 0.548485
O O5 0.340163 0.500000 0.895795
O O6 0.352670 0.758385 0.830992
O O7 0.431334 0.688479 0.902323
O O8 0.546409 0.623373 0.665813
O O9 0.366675 0.000000 0.767610
O O10 0.462193 0.500000 0.958132
O O11 0.500000 0.294523 0.000000
O O12 0.750000 0.250000 0.500000
O O13 0.734028 0.000000 0.545728
#
# Coordination Sequence:
#
# PCOD9178650 Si02
#       5
#     8   8   8   8   8
#     4  10  19  34  51  79 108 134 176 215 259 313
#     4   9  19  34  50  76 106 135 173 217 262 310
#     4  10  20  32  55  81 106 139 167 215 271 318
#     4  10  19  33  54  75 100 140 184 221 254 305
#     4  10  19  30  51  80 108 138 169 214 268 311
#
# _framework density 22.270375999999999
#
# number of rings (size 3 to 8) (size 9 to 14) (size 15 to 20)
#    0.000    2.200    2.000    2.400    0.000    4.800 
#    0.000    5.000    0.000    2.400    0.000    0.000 
#    0.000    0.000    0.000    0.000    0.000    0.000 
#
# Total GULP energy -111426.225535 kJ/mol
# GULP energy per Si atom -5571.311277 kJ/mol
# Density = 2.221969 g / cm^3
# Si number density = 22.270376 Si / 1000 Ang^3
#
#
#
# Elastic Constant Matrix: (Units=GPa)
#
#
# Indices 1 2 3 4 5 6 
#
# 1 153.7016 86.5579 54.8335 0.0000 22.8403 0.0000
# 2 86.5579 160.5010 31.0406 0.0000 24.2964 0.0000
# 3 54.8335 31.0406 79.9606 0.0000 12.3463 0.0000
# 4 0.0000 0.0000 0.0000 -5.3663 0.0000 -0.5651
# 5 22.8403 24.2964 12.3463 0.0000 49.7597 0.0000
# 6 0.0000 0.0000 0.0000 -0.5651 0.0000 16.1615
#
#
#
# Elastic Compliance Matrix: (Units=1/GPa)
#
#
# Indices 1 2 3 4 5 6 
#
# 1 0.011540 -0.004880 -0.005791 0.000000 -0.001477 0.000000
# 2 -0.004880 0.009181 0.000134 0.000000 -0.002276 0.000000
# 3 -0.005791 0.000134 0.016663 0.000000 -0.001542 0.000000
# 4 0.000000 0.000000 0.000000 -0.185666 0.000000 -0.006492
# 5 -0.001477 -0.002276 -0.001542 0.000000 0.022269 0.000000
# 6 0.000000 0.000000 0.000000 -0.006492 0.000000 0.061649
#
#
# Mechanical properties :
#
#
# Convention : Reuss Voigt Hill
#
# Bulk Modulus (GPa) = 61.31182 82.11412 71.71297
# Shear Modulus (GPa) = -132.08443 26.89306 -52.59569
#
# Velocity S-wave (km/s) = -7.70962 3.47878 -4.86499
# Velocity P-wave (km/s) = 7.18753 7.28611 0.84465
#
# Compressibility (1/GPa) = 0.01631007
#
# Stress axis : x y z
#
# Youngs Moduli (GPa) = 86.65799 108.92312 60.01149
#
# Poissons Ratio (x) = 0.53151 0.34752
# Poissons Ratio (y) = 0.42286 -0.00803
# Poissons Ratio (z) = 0.50183 -0.01457
#
# Static dielectric constant tensor:
#      x y z
#    x 1.871100 0.000000 0.039490 
#    y 0.000000 1.902680 0.000000 
#    z 0.039490 0.000000 1.898550 
# 
# From -- ./inp_files/282480.got.cif
#   From: 2010.05.17/outbox.cif.g08.bks.cpg/sg12_142_cif.got.tgz:282480.got - 2010.06.03 13:09:07.
