data_PCOD9178665
_publ_section_title
;
Structure prediction by ZEFSAII (Michael W. Deem and Ramdas Pophale) SiO2 
 PCOD9178665
Probable space group: C 2/M
;
_chemical_formula_sum "Si O2"
_cell_formula_units_Z 50
_cell_length_a 25.754318
_cell_length_b 7.402897
_cell_length_c 17.185779
_cell_angle_alpha 90.000000
_cell_angle_beta 145.329922
_cell_angle_gamma 90.000000
_cell_volume 1863.883723
_symmetry_space_group_name_H-M "C 2/M"
_symmetry_group_IT_number 12
_symmetry_cell_setting 'monoclinic'
loop_
_space_group_symop_operation_xyz
x,y,z
-x,y,-z
-x,-y,-z
x,-y,z
1/2+x,1/2+y,z
1/2-x,1/2+y,-z
1/2-x,1/2-y,-z
1/2+x,1/2-y,z
loop_
_atom_site_type_symbol
_atom_site_label
_atom_site_fract_x
_atom_site_fract_y
_atom_site_fract_z
Si Si1 0.000000 0.000000 0.000000
Si Si2 0.089372 0.281577 0.012648
Si Si3 0.833637 0.715082 0.045627
Si Si4 0.551959 0.779353 0.676633
Si Si5 0.896803 0.291085 0.703196
Si Si6 0.641378 0.783551 0.633644
Si Si7 0.223492 0.211125 0.580576
O O1 0.075392 0.159862 0.070181
O O2 0.093070 0.500000 0.032089
O O3 0.165344 0.223840 0.042458
O O4 0.995437 0.224443 0.850283
O O5 0.844755 0.500000 0.052213
O O6 0.918262 0.783313 0.202010
O O7 0.750000 0.750000 0.000000
O O8 0.627026 0.721059 0.704442
O O9 0.453409 0.723486 0.524729
O O10 0.551781 0.000000 0.676819
O O11 0.902456 0.500000 0.731957
O O12 0.865315 0.284284 0.574632
O O13 0.812161 0.209672 0.647084
O O14 0.718162 0.729415 0.666772
O O15 0.641969 0.000000 0.636407
O O16 0.222328 0.000000 0.562264
#
# Coordination Sequence:
#
# PCOD9178665 Si02
#       7
#     2   8   8   8   8   8   8
#     4  12  26  44  72  98 124 162 224 270 324 388
#     4  10  23  45  68  93 128 169 212 268 325 385
#     4  10  21  39  63  89 121 161 212 265 318 375
#     4   8  16  33  56  80 108 150 197 242 298 371
#     4   9  19  37  57  79 115 160 199 242 307 373
#     4   9  16  31  54  80 111 149 192 239 304 369
#     4  10  19  30  51  85 120 151 195 246 298 368
#
# _framework density 26.825709
#
# number of rings (size 3 to 8) (size 9 to 14) (size 15 to 20)
#    0.000    2.560    0.000    2.640    2.240    3.200 
#    2.880    3.200    0.000    0.000    0.000    0.000 
#    0.000    0.000    0.000    0.000    0.000    0.000 
#
# Total GULP energy -139492.868273 kJ/mol
# GULP energy per Si atom -5579.714731 kJ/mol
# Density = 2.676465 g / cm^3
# Si number density = 26.825709 Si / 1000 Ang^3
#
#
#
# Elastic Constant Matrix: (Units=GPa)
#
#
# Indices 1 2 3 4 5 6 
#
# 1 169.7003 16.5762 8.6924 0.0000 -12.9313 0.0000
# 2 16.5762 120.7524 -6.6406 0.0000 -0.9773 0.0000
# 3 8.6924 -6.6406 70.3729 0.0000 -12.9879 0.0000
# 4 0.0000 0.0000 0.0000 -14.8247 0.0000 -1.8673
# 5 -12.9313 -0.9773 -12.9879 0.0000 42.5078 0.0000
# 6 0.0000 0.0000 0.0000 -1.8673 0.0000 25.9924
#
#
#
# Elastic Compliance Matrix: (Units=1/GPa)
#
#
# Indices 1 2 3 4 5 6 
#
# 1 0.006132 -0.000857 -0.000527 0.000000 0.001685 0.000000
# 2 -0.000857 0.008453 0.000945 0.000000 0.000222 0.000000
# 3 -0.000527 0.000945 0.015196 0.000000 0.004504 0.000000
# 4 0.000000 0.000000 0.000000 -0.066850 0.000000 -0.004803
# 5 0.001685 0.000222 0.004504 0.000000 0.025419 0.000000
# 6 0.000000 0.000000 0.000000 -0.004803 0.000000 0.038128
#
#
# Mechanical properties :
#
#
# Convention : Reuss Voigt Hill
#
# Bulk Modulus (GPa) = 34.60180 44.23129 39.41654
# Shear Modulus (GPa) = 135.17123 33.54829 84.35976
#
# Velocity S-wave (km/s) = 7.10620 3.54022 5.61388
# Velocity P-wave (km/s) = 8.95866 5.76499 7.53301
#
# Compressibility (1/GPa) = 0.02890023
#
# Stress axis : x y z
#
# Youngs Moduli (GPa) = 163.08325 118.30386 65.80866
#
# Poissons Ratio (x) = 0.10140 0.03471
# Poissons Ratio (y) = 0.13978 -0.06216
# Poissons Ratio (z) = 0.08601 -0.11174
#
# Static dielectric constant tensor:
#      x y z
#    x 2.118620 0.000000 0.042260 
#    y 0.000000 1.944850 0.000000 
#    z 0.042260 0.000000 2.171760 
# 
# From -- ./inp_files/292300.got.cif
#   From: 2010.05.17/outbox.cif.g08.bks.cpg/sg12_147_cif.got.tgz:292300.got - 2010.06.03 13:09:07.
