data_PCOD9178722
_publ_section_title
;
Structure prediction by ZEFSAII (Michael W. Deem and Ramdas Pophale) SiO2 
 PCOD9178722
Probable space group: C 2/M
;
_chemical_formula_sum "Si O2"
_cell_formula_units_Z 44
_cell_length_a 21.576102
_cell_length_b 15.173912
_cell_length_c 11.831376
_cell_angle_alpha 90.000000
_cell_angle_beta 37.127266
_cell_angle_gamma 90.000000
_cell_volume 2338.008163
_symmetry_space_group_name_H-M "C 2/M"
_symmetry_group_IT_number 12
_symmetry_cell_setting 'monoclinic'
loop_
_space_group_symop_operation_xyz
x,y,z
-x,y,-z
-x,-y,-z
x,-y,z
1/2+x,1/2+y,z
1/2-x,1/2+y,-z
1/2-x,1/2-y,-z
1/2+x,1/2-y,z
loop_
_atom_site_type_symbol
_atom_site_label
_atom_site_fract_x
_atom_site_fract_y
_atom_site_fract_z
Si Si1 0.000000 0.355354 0.000000
Si Si2 0.797267 0.591895 0.198188
Si Si3 0.200575 0.240146 0.949616
Si Si4 0.709343 0.106928 0.356788
Si Si5 0.043640 0.733612 0.713128
Si Si6 0.159250 0.097203 0.611838
O O1 0.918905 0.406113 0.041949
O O2 0.943158 0.297533 0.176005
O O3 0.766584 0.500000 0.185811
O O4 0.764450 0.677758 0.179107
O O5 0.752573 0.591658 0.388490
O O6 0.239959 0.152432 0.827450
O O7 0.250000 0.250000 0.000000
O O8 0.077160 0.254191 0.137573
O O9 0.608457 0.164414 0.541770
O O10 0.792294 0.119885 0.337386
O O11 0.690709 0.000000 0.374615
O O12 0.089018 0.831137 0.654442
O O13 0.110575 0.000000 0.691276
#
# Coordination Sequence:
#
# PCOD9178722 Si02
#       6
#     4   8   8   8   8   8
#     4  10  19  30  59  94 124 152 189 250 317 374
#     4  10  19  34  59  88 117 149 193 249 304 362
#     4  11  26  43  59  84 123 169 214 257 297 354
#     4  11  23  41  66  96 128 161 200 257 320 376
#     4  11  21  38  62  91 125 164 203 250 310 373
#     4  10  19  35  62  93 122 150 190 246 316 380
#
# _framework density 18.819438000000002
#
# number of rings (size 3 to 8) (size 9 to 14) (size 15 to 20)
#    0.000    1.455    3.636    3.000    0.000    5.091 
#    0.000    3.182    0.000    2.182    0.000    0.000 
#    0.000    0.000    0.000    0.000    0.000    0.000 
#
# Total GULP energy -122471.018826 kJ/mol
# GULP energy per Si atom -5566.864492 kJ/mol
# Density = 1.877660 g / cm^3
# Si number density = 18.819438 Si / 1000 Ang^3
#
#
#
# Elastic Constant Matrix: (Units=GPa)
#
#
# Indices 1 2 3 4 5 6 
#
# 1 90.0636 54.7669 41.7298 0.0000 10.3126 0.0000
# 2 54.7669 122.9817 50.1878 0.0000 -4.1980 0.0000
# 3 41.7298 50.1878 67.4403 0.0000 -2.9772 0.0000
# 4 0.0000 0.0000 0.0000 12.4117 0.0000 8.2563
# 5 10.3126 -4.1980 -2.9772 0.0000 24.6430 0.0000
# 6 0.0000 0.0000 0.0000 8.2563 0.0000 5.2062
#
#
#
# Elastic Compliance Matrix: (Units=1/GPa)
#
#
# Indices 1 2 3 4 5 6 
#
# 1 0.019577 -0.005656 -0.008353 0.000000 -0.010165 0.000000
# 2 -0.005656 0.013334 -0.006251 0.000000 0.003883 0.000000
# 3 -0.008353 -0.006251 0.024889 0.000000 0.005438 0.000000
# 4 0.000000 0.000000 0.000000 -1.466975 0.000000 2.326427
# 5 -0.010165 0.003883 0.005438 0.000000 0.046152 0.000000
# 6 0.000000 0.000000 0.000000 2.326427 0.000000 -3.497326
#
#
# Mechanical properties :
#
#
# Convention : Reuss Voigt Hill
#
# Bulk Modulus (GPa) = 57.87690 63.76164 60.81927
# Shear Modulus (GPa) = -1.03862 17.37225 8.16681
#
# Velocity S-wave (km/s) = -0.74370 3.04155 2.08542
# Velocity P-wave (km/s) = 5.48481 6.80360 6.17949
#
# Compressibility (1/GPa) = 0.01727805
#
# Stress axis : x y z
#
# Youngs Moduli (GPa) = 51.08001 74.99660 40.17871
#
# Poissons Ratio (x) = 0.42421 0.33562
# Poissons Ratio (y) = 0.28893 0.25118
# Poissons Ratio (z) = 0.42668 0.46884
#
# Static dielectric constant tensor:
#      x y z
#    x 1.599340 0.000000 -0.019850 
#    y 0.000000 1.779110 0.000000 
#    z -0.019850 0.000000 1.723800 
# 
# From -- ./inp_files/167040.got.cif
#   From: 2010.05.17/outbox.cif.g08.bks.cpg/sg12_84_cif.got.tgz:167040.got - 2010.06.03 13:09:07.
