data_PCOD9178078
_publ_section_title
;
Structure prediction by ZEFSAII (Michael W. Deem and Ramdas Pophale) SiO2 
 PCOD9178078
Probable space group: C 2/M
;
_chemical_formula_sum "Si O2"
_cell_formula_units_Z 48
_cell_length_a 15.770085
_cell_length_b 9.640526
_cell_length_c 14.293840
_cell_angle_alpha 90.000000
_cell_angle_beta 83.266750
_cell_angle_gamma 90.000000
_cell_volume 2158.131365
_symmetry_space_group_name_H-M "C 2/M"
_symmetry_group_IT_number 12
_symmetry_cell_setting 'monoclinic'
loop_
_space_group_symop_operation_xyz
x,y,z
-x,y,-z
-x,-y,-z
x,-y,z
1/2+x,1/2+y,z
1/2-x,1/2+y,-z
1/2-x,1/2-y,-z
1/2+x,1/2-y,z
loop_
_atom_site_type_symbol
_atom_site_label
_atom_site_fract_x
_atom_site_fract_y
_atom_site_fract_z
Si Si1 0.695443 0.840489 0.766375
Si Si2 0.078014 0.668518 0.554950
Si Si3 0.357858 0.659358 0.884801
Si Si4 0.038854 0.341129 0.266808
Si Si5 0.797436 0.659381 0.611948
Si Si6 0.597572 0.162197 0.954315
O O1 0.773814 0.836450 0.831160
O O2 0.727541 0.747670 0.676537
O O3 0.685789 0.000000 0.735706
O O4 0.616785 0.801133 0.844056
O O5 0.079943 0.500000 0.549559
O O6 0.163025 0.715838 0.490653
O O7 0.000000 0.717918 0.500000
O O8 0.045289 0.699453 0.663328
O O9 0.379270 0.500000 0.900549
O O10 0.430698 0.735927 0.815343
O O11 0.349893 0.742451 0.981904
O O12 0.029804 0.500000 0.232345
O O13 0.118363 0.344959 0.330727
O O14 0.768737 0.500000 0.603464
O O15 0.621666 0.000000 0.961525
O O16 0.500000 0.175720 0.000000
#
# Coordination Sequence:
#
# PCOD9178078 Si02
#       6
#     8   8   8   8   8   8
#     4   9  18  31  46  67  93 118 146 182 224 267
#     4   7  10  18  34  58  87 117 148 179 208 245
#     4  10  19  30  46  69  95 118 143 181 227 270
#     4   8  13  23  40  61  88 121 152 179 209 252
#     4   8  13  22  39  63  89 118 150 180 213 255
#     4  10  21  36  51  65  84 115 154 189 221 264
#
# _framework density 22.241463
#
# number of rings (size 3 to 8) (size 9 to 14) (size 15 to 20)
#    0.000    3.333    0.000    3.000    0.000    1.667 
#    0.000    0.833    0.000    5.000    0.000    1.167 
#    0.000    0.000    0.000    0.000    0.000    0.000 
#
# Total GULP energy -134020.448242 kJ/mol
# GULP energy per Si atom -5584.185343 kJ/mol
# Density = 2.219084 g / cm^3
# Si number density = 22.241463 Si / 1000 Ang^3
#
#
#
# Elastic Constant Matrix: (Units=GPa)
#
#
# Indices 1 2 3 4 5 6 
#
# 1 87.7935 35.3657 45.4446 0.0000 -26.4727 0.0000
# 2 35.3657 58.6146 74.8544 0.0000 -14.8139 0.0000
# 3 45.4446 74.8544 205.2737 0.0000 -33.6997 0.0000
# 4 0.0000 0.0000 0.0000 31.1276 0.0000 -9.1592
# 5 -26.4727 -14.8139 -33.6997 0.0000 54.2785 0.0000
# 6 0.0000 0.0000 0.0000 -9.1592 0.0000 9.2909
#
#
#
# Elastic Compliance Matrix: (Units=1/GPa)
#
#
# Indices 1 2 3 4 5 6 
#
# 1 0.016626 -0.009494 0.000765 0.000000 0.005993 0.000000
# 2 -0.009494 0.037485 -0.011857 0.000000 -0.001761 0.000000
# 3 0.000765 -0.011857 0.009527 0.000000 0.003052 0.000000
# 4 0.000000 0.000000 0.000000 0.045253 0.000000 0.044611
# 5 0.005993 -0.001761 0.003052 0.000000 0.022761 0.000000
# 6 0.000000 0.000000 0.000000 0.044611 0.000000 0.151612
#
#
# Mechanical properties :
#
#
# Convention : Reuss Voigt Hill
#
# Bulk Modulus (GPa) = 44.50940 73.66793 59.08866
# Shear Modulus (GPa) = 15.06379 32.00719 23.53549
#
# Velocity S-wave (km/s) = 2.60529 3.79763 3.25650
# Velocity P-wave (km/s) = 5.39494 7.24038 6.38469
#
# Compressibility (1/GPa) = 0.02246717
#
# Stress axis : x y z
#
# Youngs Moduli (GPa) = 60.14793 26.67722 104.96729
#
# Poissons Ratio (x) = 0.25327 -0.08031
# Poissons Ratio (y) = 0.57103 1.24455
# Poissons Ratio (z) = -0.04602 0.31630
#
# Static dielectric constant tensor:
#      x y z
#    x 1.917370 0.000000 0.018030 
#    y 0.000000 1.736720 0.000000 
#    z 0.018030 0.000000 1.826250 
# 
# From -- ./inp_files/249357.got.cif
#   From: 2010.05.17/outbox.cif.g08.bks.cpg/sg12_125_cif.got.tgz:249357.got - 2010.06.03 13:09:07.
