data_PCOD9178112
_publ_section_title
;
Structure prediction by ZEFSAII (Michael W. Deem and Ramdas Pophale) SiO2 
 PCOD9178112
Probable space group: C 2/M
;
_chemical_formula_sum "Si O2"
_cell_formula_units_Z 64
_cell_length_a 32.777201
_cell_length_b 7.879276
_cell_length_c 14.996081
_cell_angle_alpha 90.000000
_cell_angle_beta 62.468108
_cell_angle_gamma 90.000000
_cell_volume 3434.305722
_symmetry_space_group_name_H-M "C 2/M"
_symmetry_group_IT_number 12
_symmetry_cell_setting 'monoclinic'
loop_
_space_group_symop_operation_xyz
x,y,z
-x,y,-z
-x,-y,-z
x,-y,z
1/2+x,1/2+y,z
1/2-x,1/2+y,-z
1/2-x,1/2-y,-z
1/2+x,1/2-y,z
loop_
_atom_site_type_symbol
_atom_site_label
_atom_site_fract_x
_atom_site_fract_y
_atom_site_fract_z
Si Si1 0.469146 0.705153 0.677784
Si Si2 0.430607 0.206152 0.217105
Si Si3 0.073241 0.700879 0.577190
Si Si4 0.198667 0.796274 0.154900
Si Si5 0.535120 0.297896 0.112935
Si Si6 0.615238 0.702664 0.355825
Si Si7 0.196590 0.294163 0.956051
Si Si8 0.618149 0.801201 0.905412
O O1 0.468915 0.500000 0.676750
O O2 0.520810 0.758549 0.601757
O O3 0.459795 0.759422 0.789240
O O4 0.429474 0.768938 0.652393
O O5 0.421150 0.267809 0.327420
O O6 0.482608 0.258370 0.140067
O O7 0.395469 0.269878 0.177498
O O8 0.429679 0.000000 0.218582
O O9 0.078225 0.500000 0.576218
O O10 0.107754 0.766138 0.467470
O O11 0.161781 0.730589 0.263446
O O12 0.251047 0.732650 0.111708
O O13 0.201028 0.000000 0.161090
O O14 0.182768 0.757040 0.070244
O O15 0.542127 0.500000 0.102301
O O16 0.572719 0.214316 0.012071
O O17 0.615490 0.500000 0.342176
O O18 0.196618 0.500000 0.953821
O O19 0.160682 0.229144 0.918904
O O20 0.628403 0.000000 0.881598
#
# Coordination Sequence:
#
# PCOD9178112 Si02
#       8
#     8   8   8   8   8   8   8   8
#     4   9  18  31  45  64  93 125 151 178 222 277
#     4   9  19  34  47  62  91 128 159 190 230 271
#     4  10  20  32  46  65  89 119 156 195 228 259
#     4   9  18  33  51  72  98 123 147 182 231 280
#     4  10  19  30  46  70  97 123 154 191 228 270
#     4  10  19  31  48  67  90 122 153 182 225 278
#     4   9  18  32  51  74  96 120 152 187 224 272
#     4  10  19  31  48  68  92 124 158 189 226 274
#
# _framework density 18.635498999999999
#
# number of rings (size 3 to 8) (size 9 to 14) (size 15 to 20)
#    0.000    2.500    0.000    2.250    0.000    7.000 
#    0.000    0.000    0.000    0.750    0.000    0.000 
#    0.000    0.000    0.000    0.000    0.000    0.375 
#
# Total GULP energy -178546.279056 kJ/mol
# GULP energy per Si atom -5579.571220 kJ/mol
# Density = 1.859308 g / cm^3
# Si number density = 18.635499 Si / 1000 Ang^3
#
#
#
# Elastic Constant Matrix: (Units=GPa)
#
#
# Indices 1 2 3 4 5 6 
#
# 1 119.5225 -3.1829 61.7424 0.0000 14.4090 0.0000
# 2 -3.1829 12.9749 -5.1364 0.0000 -0.9906 0.0000
# 3 61.7424 -5.1364 119.8038 0.0000 -8.0078 0.0000
# 4 0.0000 0.0000 0.0000 19.7835 0.0000 3.0163
# 5 14.4090 -0.9906 -8.0078 0.0000 16.0900 0.0000
# 6 0.0000 0.0000 0.0000 3.0163 0.0000 12.2245
#
#
#
# Elastic Compliance Matrix: (Units=1/GPa)
#
#
# Indices 1 2 3 4 5 6 
#
# 1 0.015261 -0.001272 -0.009142 0.000000 -0.018295 0.000000
# 2 -0.001272 0.079218 0.004607 0.000000 0.008310 0.000000
# 3 -0.009142 0.004607 0.014298 0.000000 0.015587 0.000000
# 4 0.000000 0.000000 0.000000 0.052523 0.000000 -0.012959
# 5 -0.018295 0.008310 0.015587 0.000000 0.086803 0.000000
# 6 0.000000 0.000000 0.000000 -0.012959 0.000000 0.085001
#
#
# Mechanical properties :
#
#
# Convention : Reuss Voigt Hill
#
# Bulk Modulus (GPa) = 10.29200 39.90527 25.09864
# Shear Modulus (GPa) = 13.25889 22.87815 18.06852
#
# Velocity S-wave (km/s) = 2.67026 3.50761 3.11718
# Velocity P-wave (km/s) = 3.87838 6.15341 5.14326
#
# Compressibility (1/GPa) = 0.09716282
#
# Stress axis : x y z
#
# Youngs Moduli (GPa) = 65.52650 12.62337 69.93996
#
# Poissons Ratio (x) = 0.01606 0.63942
# Poissons Ratio (y) = 0.08337 -0.32225
# Poissons Ratio (z) = 0.59907 -0.05816
#
# Static dielectric constant tensor:
#      x y z
#    x 1.657770 0.000000 0.018900 
#    y 0.000000 1.672590 0.000000 
#    z 0.018900 0.000000 1.646220 
# 
# From -- ./inp_files/249011.got.cif
#   From: 2010.05.17/outbox.cif.g08.bks.cpg/sg12_125_cif.got.tgz:249011.got - 2010.06.03 13:09:07.
