data_PCOD9178073
_publ_section_title
;
Structure prediction by ZEFSAII (Michael W. Deem and Ramdas Pophale) SiO2 
 PCOD9178073
Probable space group: C 2/M
;
_chemical_formula_sum "Si O2"
_cell_formula_units_Z 56
_cell_length_a 24.735480
_cell_length_b 9.026015
_cell_length_c 18.365023
_cell_angle_alpha 90.000000
_cell_angle_beta 118.460401
_cell_angle_gamma 90.000000
_cell_volume 3604.700707
_symmetry_space_group_name_H-M "C 2/M"
_symmetry_group_IT_number 12
_symmetry_cell_setting 'monoclinic'
loop_
_space_group_symop_operation_xyz
x,y,z
-x,y,-z
-x,-y,-z
x,-y,z
1/2+x,1/2+y,z
1/2-x,1/2+y,-z
1/2-x,1/2-y,-z
1/2+x,1/2-y,z
loop_
_atom_site_type_symbol
_atom_site_label
_atom_site_fract_x
_atom_site_fract_y
_atom_site_fract_z
Si Si1 0.427118 0.175131 0.948384
Si Si2 0.332895 0.170065 0.614378
Si Si3 0.849438 0.823343 0.772793
Si Si4 0.339353 0.676356 0.005170
Si Si5 0.815746 0.170818 0.458672
Si Si6 0.287858 0.676333 0.124378
Si Si7 0.782875 0.821917 0.283351
O O1 0.398421 0.256771 0.860191
O O2 0.413938 0.000000 0.934405
O O3 0.500000 0.196638 0.000000
O O4 0.392996 0.240939 0.997008
O O5 0.359881 0.267367 0.697070
O O6 0.258512 0.174344 0.577348
O O7 0.344527 0.232707 0.541312
O O8 0.352188 0.000000 0.634011
O O9 0.782785 0.758703 0.753179
O O10 0.848521 0.000000 0.775459
O O11 0.344594 0.500000 0.997854
O O12 0.334466 0.708151 0.088419
O O13 0.274508 0.733630 0.930992
O O14 0.823000 0.221025 0.379627
O O15 0.835268 0.000000 0.478827
O O16 0.273307 0.500000 0.110608
O O17 0.309506 0.706858 0.220362
O O18 0.772343 0.000000 0.283313
#
# Coordination Sequence:
#
# PCOD9178073 Si02
#       7
#     8   8   8   8   8   8   8
#     4  11  23  37  50  63  85 119 155 191 233 276
#     4   9  16  26  39  55  81 116 147 177 217 263
#     4  11  20  29  44  64  85 111 148 189 226 265
#     4  10  19  30  46  69  90 115 151 190 228 263
#     4   8  14  23  36  57  83 113 148 180 210 248
#     4   9  17  29  46  66  93 123 150 181 221 271
#     4   9  16  27  43  62  89 122 150 178 215 264
#
# _framework density 15.535271
#
# number of rings (size 3 to 8) (size 9 to 14) (size 15 to 20)
#    0.000    2.429    1.429    3.429    0.000    5.143 
#    0.000    0.000    0.000    0.000    0.000    0.000 
#    0.000    1.143    0.000   13.143    0.000    3.571 
#
# Total GULP energy -155999.785577 kJ/mol
# GULP energy per Si atom -5571.420913 kJ/mol
# Density = 1.549991 g / cm^3
# Si number density = 15.535271 Si / 1000 Ang^3
#
#
#
# Elastic Constant Matrix: (Units=GPa)
#
#
# Indices 1 2 3 4 5 6 
#
# 1 55.3173 40.1270 47.8960 0.0000 -17.8405 0.0000
# 2 40.1270 79.2173 55.3786 0.0000 -11.2740 0.0000
# 3 47.8960 55.3786 116.7092 0.0000 -39.9521 0.0000
# 4 0.0000 0.0000 0.0000 23.4773 0.0000 -5.4162
# 5 -17.8405 -11.2740 -39.9521 0.0000 25.2258 0.0000
# 6 0.0000 0.0000 0.0000 -5.4162 0.0000 15.2043
#
#
#
# Elastic Compliance Matrix: (Units=1/GPa)
#
#
# Indices 1 2 3 4 5 6 
#
# 1 0.035172 -0.013502 -0.003446 0.000000 0.013382 0.000000
# 2 -0.013502 0.026092 -0.013359 0.000000 -0.019047 0.000000
# 3 -0.003446 -0.013359 0.029363 0.000000 0.038096 0.000000
# 4 0.000000 0.000000 0.000000 0.046408 0.000000 0.016532
# 5 0.013382 -0.019047 0.038096 0.000000 0.100930 0.000000
# 6 0.000000 0.000000 0.000000 0.016532 0.000000 0.071660
#
#
# Mechanical properties :
#
#
# Convention : Reuss Voigt Hill
#
# Bulk Modulus (GPa) = 33.32177 59.78299 46.55238
# Shear Modulus (GPa) = 13.14944 19.97095 16.56020
#
# Velocity S-wave (km/s) = 2.91249 3.58931 3.26847
# Velocity P-wave (km/s) = 5.72764 7.46613 6.65391
#
# Compressibility (1/GPa) = 0.03001041
#
# Stress axis : x y z
#
# Youngs Moduli (GPa) = 28.43170 38.32663 34.05670
#
# Poissons Ratio (x) = 0.51750 0.11737
# Poissons Ratio (y) = 0.38390 0.45497
# Poissons Ratio (z) = 0.09798 0.51202
#
# Static dielectric constant tensor:
#      x y z
#    x 1.496430 0.000000 -0.046040 
#    y 0.000000 1.520980 0.000000 
#    z -0.046040 0.000000 1.539440 
# 
# From -- ./inp_files/287897.got.cif
#   From: 2010.05.17/outbox.cif.g08.bks.cpg/sg12_144_cif.got.tgz:287897.got - 2010.06.03 13:09:07.
