data_PCOD9178061
_publ_section_title
;
Structure prediction by ZEFSAII (Michael W. Deem and Ramdas Pophale) SiO2 
 PCOD9178061
Probable space group: C 2/M
;
_chemical_formula_sum "Si O2"
_cell_formula_units_Z 48
_cell_length_a 22.723820
_cell_length_b 9.331225
_cell_length_c 14.155305
_cell_angle_alpha 90.000000
_cell_angle_beta 101.698229
_cell_angle_gamma 90.000000
_cell_volume 2939.162073
_symmetry_space_group_name_H-M "C 2/M"
_symmetry_group_IT_number 12
_symmetry_cell_setting 'monoclinic'
loop_
_space_group_symop_operation_xyz
x,y,z
-x,y,-z
-x,-y,-z
x,-y,z
1/2+x,1/2+y,z
1/2-x,1/2+y,-z
1/2-x,1/2-y,-z
1/2+x,1/2-y,z
loop_
_atom_site_type_symbol
_atom_site_label
_atom_site_fract_x
_atom_site_fract_y
_atom_site_fract_z
Si Si1 0.933124 0.164756 0.524609
Si Si2 0.544809 0.670674 0.101863
Si Si3 0.803077 0.328336 0.139000
Si Si4 0.886410 0.669284 0.336303
Si Si5 0.167704 0.828839 0.040553
Si Si6 0.017956 0.330872 0.286122
O O1 0.891263 0.240469 0.433521
O O2 0.939905 0.253518 0.623002
O O3 0.000000 0.165520 0.500000
O O4 0.916335 0.000000 0.536426
O O5 0.542815 0.500000 0.122035
O O6 0.611619 0.708514 0.088031
O O7 0.526220 0.758220 0.187690
O O8 0.500000 0.697343 0.000000
O O9 0.810540 0.500000 0.131552
O O10 0.833827 0.286808 0.247405
O O11 0.732179 0.295559 0.108554
O O12 0.833965 0.251268 0.060169
O O13 0.880660 0.500000 0.356511
O O14 0.949427 0.687066 0.300581
O O15 0.165291 0.000000 0.022901
O O16 0.030295 0.500000 0.286557
#
# Coordination Sequence:
#
# PCOD9178061 Si02
#       6
#     8   8   8   8   8   8
#     4   9  17  29  46  68  93 120 149 183 225 271
#     4  10  20  32  46  66  94 125 154 185 222 266
#     4   9  17  30  48  68  91 119 151 189 228 266
#     4   9  17  29  46  69  94 118 148 187 229 269
#     4   9  18  31  46  66  92 122 154 187 225 266
#     4  10  19  30  46  68  94 122 150 184 226 270
#
# _framework density 16.331185999999999
#
# number of rings (size 3 to 8) (size 9 to 14) (size 15 to 20)
#    0.000    2.667    0.000    2.000    0.000    4.333 
#    0.000    0.000    0.000    1.000    0.000    0.000 
#    0.000    0.000    0.000    0.000    0.000    0.000 
#
# Total GULP energy -133813.657979 kJ/mol
# GULP energy per Si atom -5575.569082 kJ/mol
# Density = 1.629402 g / cm^3
# Si number density = 16.331186 Si / 1000 Ang^3
#
#
#
# Elastic Constant Matrix: (Units=GPa)
#
#
# Indices 1 2 3 4 5 6 
#
# 1 35.1955 33.1988 34.6876 0.0000 2.7355 0.0000
# 2 33.1988 72.1492 74.6615 0.0000 1.2897 0.0000
# 3 34.6876 74.6615 135.6723 0.0000 14.2895 0.0000
# 4 0.0000 0.0000 0.0000 36.3835 0.0000 -2.2923
# 5 2.7355 1.2897 14.2895 0.0000 25.4368 0.0000
# 6 0.0000 0.0000 0.0000 -2.2923 0.0000 14.4826
#
#
#
# Elastic Compliance Matrix: (Units=1/GPa)
#
#
# Indices 1 2 3 4 5 6 
#
# 1 0.050690 -0.024010 0.000743 0.000000 -0.004651 0.000000
# 2 -0.024010 0.045553 -0.020150 0.000000 0.011592 0.000000
# 3 0.000743 -0.020150 0.019313 0.000000 -0.009908 0.000000
# 4 0.000000 0.000000 0.000000 0.027762 0.000000 0.004394
# 5 -0.004651 0.011592 -0.009908 0.000000 0.044791 0.000000
# 6 0.000000 0.000000 0.000000 0.004394 0.000000 0.069744
#
#
# Mechanical properties :
#
#
# Convention : Reuss Voigt Hill
#
# Bulk Modulus (GPa) = 34.81779 58.67919 46.74849
# Shear Modulus (GPa) = 14.11383 21.95852 18.03618
#
# Velocity S-wave (km/s) = 2.94296 3.67082 3.32686
# Velocity P-wave (km/s) = 5.73708 7.34679 6.59126
#
# Compressibility (1/GPa) = 0.02872095
#
# Stress axis : x y z
#
# Youngs Moduli (GPa) = 19.72770 21.95248 51.77805
#
# Poissons Ratio (x) = 0.52708 -0.03846
# Poissons Ratio (y) = 0.47366 1.04335
# Poissons Ratio (z) = -0.01465 0.44235
#
# Static dielectric constant tensor:
#      x y z
#    x 1.541920 0.000000 0.017450 
#    y 0.000000 1.543860 0.000000 
#    z 0.017450 0.000000 1.524390 
# 
# From -- ./inp_files/172098.got.cif
#   From: 2010.05.17/outbox.cif.g08.bks.cpg/sg12_87_cif.got.tgz:172098.got - 2010.06.03 13:09:07.
