data_PCOD9178870
_publ_section_title
;
Structure prediction by ZEFSAII (Michael W. Deem and Ramdas Pophale) SiO2 
 PCOD9178870
Probable space group: C 2/M
;
_chemical_formula_sum "Si O2"
_cell_formula_units_Z 64
_cell_length_a 15.295859
_cell_length_b 9.112810
_cell_length_c 23.270120
_cell_angle_alpha 90.000000
_cell_angle_beta 63.595480
_cell_angle_gamma 90.000000
_cell_volume 2905.200279
_symmetry_space_group_name_H-M "C 2/M"
_symmetry_group_IT_number 12
_symmetry_cell_setting 'monoclinic'
loop_
_space_group_symop_operation_xyz
x,y,z
-x,y,-z
-x,-y,-z
x,-y,z
1/2+x,1/2+y,z
1/2-x,1/2+y,-z
1/2-x,1/2-y,-z
1/2+x,1/2-y,z
loop_
_atom_site_type_symbol
_atom_site_label
_atom_site_fract_x
_atom_site_fract_y
_atom_site_fract_z
Si Si1 0.452407 0.829162 0.145286
Si Si2 0.221027 0.331850 0.897974
Si Si3 0.589458 0.823372 0.596236
Si Si4 0.348204 0.166750 0.773174
Si Si5 0.876777 0.175797 0.652156
Si Si6 0.588015 0.331231 0.021643
Si Si7 0.582592 0.832791 0.721322
Si Si8 0.881720 0.168005 0.524344
O O1 0.366811 0.830148 0.123270
O O2 0.542119 0.741662 0.091569
O O3 0.411674 0.765228 0.217099
O O4 0.481035 0.000000 0.146909
O O5 0.249573 0.500000 0.899139
O O6 0.304538 0.239618 0.842613
O O7 0.175900 0.259151 0.967779
O O8 0.481761 0.754232 0.622803
O O9 0.624098 0.771820 0.649318
O O10 0.640905 0.769054 0.523299
O O11 0.584817 0.000000 0.598621
O O12 0.322997 0.260386 0.723537
O O13 0.465513 0.162564 0.744992
O O14 0.313244 0.000000 0.777172
O O15 0.838467 0.207242 0.599237
O O16 0.886876 0.000000 0.654135
O O17 0.614637 0.500000 0.022949
O O18 0.500000 0.328398 0.000000
O O19 0.621664 0.000000 0.714828
O O20 0.000000 0.169576 0.500000
O O21 0.854363 0.000000 0.518922
#
# Coordination Sequence:
#
# PCOD9178870 Si02
#       8
#     8   8   8   8   8   8   8   8
#     4   9  17  32  52  70  90 117 152 187 218 263
#     4  10  19  31  50  72  91 117 151 184 221 266
#     4   9  15  23  38  60  86 116 149 184 224 266
#     4  10  19  31  47  67  94 123 149 183 227 270
#     4   9  16  26  39  57  85 118 151 185 222 265
#     4   9  17  30  48  70  94 116 144 186 229 263
#     4   8  16  30  46  66  92 122 151 182 223 266
#     4   8  14  23  35  54  82 115 148 184 223 262
#
# _framework density 22.029461999999999
#
# number of rings (size 3 to 8) (size 9 to 14) (size 15 to 20)
#    0.000    3.000    0.000    3.375    0.000    4.750 
#    0.000    4.375    0.000    0.000    0.000    0.875 
#    0.000    0.000    0.000    0.000    0.000    0.000 
#
# Total GULP energy -178527.064951 kJ/mol
# GULP energy per Si atom -5578.970780 kJ/mol
# Density = 2.197932 g / cm^3
# Si number density = 22.029462 Si / 1000 Ang^3
#
#
#
# Elastic Constant Matrix: (Units=GPa)
#
#
# Indices 1 2 3 4 5 6 
#
# 1 29.6503 39.3078 96.0199 0.0000 -14.1474 0.0000
# 2 39.3078 82.8224 19.2792 0.0000 12.0005 0.0000
# 3 96.0199 19.2792 27.4554 0.0000 56.4947 0.0000
# 4 0.0000 0.0000 0.0000 36.5207 0.0000 -3.0885
# 5 -14.1474 12.0005 56.4947 0.0000 24.9198 0.0000
# 6 0.0000 0.0000 0.0000 -3.0885 0.0000 -4.8652
#
#
#
# Elastic Compliance Matrix: (Units=1/GPa)
#
#
# Indices 1 2 3 4 5 6 
#
# 1 0.005953 -0.002762 0.007796 0.000000 -0.012965 0.000000
# 2 -0.002762 0.014157 -0.004631 0.000000 0.002114 0.000000
# 3 0.007796 -0.004631 0.000352 0.000000 0.005859 0.000000
# 4 0.000000 0.000000 0.000000 0.025987 0.000000 -0.016497
# 5 -0.012965 0.002114 0.005859 0.000000 0.018467 0.000000
# 6 0.000000 0.000000 0.000000 -0.016497 0.000000 -0.195069
#
#
# Mechanical properties :
#
#
# Convention : Reuss Voigt Hill
#
# Bulk Modulus (GPa) = 47.01711 49.90464 48.46088
# Shear Modulus (GPa) = -40.36448 10.33649 -15.01400
#
# Velocity S-wave (km/s) = -4.28518 2.16848 -2.61347
# Velocity P-wave (km/s) = 1.75911 5.38261 3.59708
#
# Compressibility (1/GPa) = 0.02126885
#
# Stress axis : x y z
#
# Youngs Moduli (GPa) = 167.96959 70.63880 2844.07144
#
# Poissons Ratio (x) = 0.19509 -22.17367
# Poissons Ratio (y) = 0.46390 13.17100
# Poissons Ratio (z) = -1.30957 0.32713
#
# Static dielectric constant tensor:
#      x y z
#    x 1.878570 0.000000 0.001240 
#    y 0.000000 1.746560 0.000000 
#    z 0.001240 0.000000 1.853560 
# 
# From -- ./inp_files/345539.got.cif
#   From: 2010.05.17/outbox.cif.g08.bks.cpg/sg12_173_cif.got.tgz:345539.got - 2010.06.03 13:09:07.
