data_PCOD9178881
_publ_section_title
;
Structure prediction by ZEFSAII (Michael W. Deem and Ramdas Pophale) SiO2 
 PCOD9178881
Probable space group: C 2/M
;
_chemical_formula_sum "Si O2"
_cell_formula_units_Z 56
_cell_length_a 14.730250
_cell_length_b 7.519809
_cell_length_c 25.638328
_cell_angle_alpha 90.000000
_cell_angle_beta 73.869554
_cell_angle_gamma 90.000000
_cell_volume 2728.120329
_symmetry_space_group_name_H-M "C 2/M"
_symmetry_group_IT_number 12
_symmetry_cell_setting 'monoclinic'
loop_
_space_group_symop_operation_xyz
x,y,z
-x,y,-z
-x,-y,-z
x,-y,z
1/2+x,1/2+y,z
1/2-x,1/2+y,-z
1/2-x,1/2-y,-z
1/2+x,1/2-y,z
loop_
_atom_site_type_symbol
_atom_site_label
_atom_site_fract_x
_atom_site_fract_y
_atom_site_fract_z
Si Si1 0.315755 0.292433 0.857079
Si Si2 0.614953 0.286403 0.264430
Si Si3 0.621874 0.714408 0.931144
Si Si4 0.575338 0.213269 0.647951
Si Si5 0.470502 0.786406 0.561440
Si Si6 0.404986 0.283055 0.949410
Si Si7 0.719813 0.286978 0.350862
O O1 0.343086 0.500000 0.852917
O O2 0.354664 0.216221 0.796879
O O3 0.203095 0.279930 0.880144
O O4 0.356425 0.216029 0.904657
O O5 0.626634 0.500000 0.261693
O O6 0.506791 0.249736 0.297029
O O7 0.679668 0.218233 0.301923
O O8 0.624651 0.500000 0.930461
O O9 0.515624 0.766163 0.932912
O O10 0.638496 0.776043 0.988296
O O11 0.535515 0.281337 0.598804
O O12 0.677823 0.282138 0.648467
O O13 0.583090 0.000000 0.641872
O O14 0.500000 0.718406 0.500000
O O15 0.362418 0.747957 0.594061
O O16 0.480750 0.000000 0.558992
O O17 0.400440 0.500000 0.950811
O O18 0.728191 0.500000 0.344416
#
# Coordination Sequence:
#
# PCOD9178881 Si02
#       7
#     8   8   8   8   8   8   8
#     4  10  19  31  47  68  93 119 148 188 234 270
#     4   9  19  33  47  66  93 122 153 189 227 269
#     4   9  17  31  49  67  88 118 153 185 222 275
#     4   9  18  33  51  68  91 124 156 187 225 267
#     4   9  18  32  49  72  99 122 150 189 226 264
#     4   8  16  31  48  65  90 121 149 181 227 279
#     4   9  18  33  50  68  93 125 156 186 225 269
#
# _framework density 20.526952000000001
#
# number of rings (size 3 to 8) (size 9 to 14) (size 15 to 20)
#    0.000    3.000    0.000    1.286    0.000    3.143 
#    0.000    2.143    0.000    0.000    0.000    0.000 
#    0.000    0.000    0.000    0.000    0.000    0.000 
#
# Total GULP energy -156209.714056 kJ/mol
# GULP energy per Si atom -5578.918359 kJ/mol
# Density = 2.048023 g / cm^3
# Si number density = 20.526952 Si / 1000 Ang^3
#
#
#
# Elastic Constant Matrix: (Units=GPa)
#
#
# Indices 1 2 3 4 5 6 
#
# 1 129.1402 -2.1746 80.5839 0.0000 -14.3328 0.0000
# 2 -2.1746 52.6218 0.3697 0.0000 5.2741 0.0000
# 3 80.5839 0.3697 148.8243 0.0000 -17.3907 0.0000
# 4 0.0000 0.0000 0.0000 -28.8660 0.0000 -28.2591
# 5 -14.3328 5.2741 -17.3907 0.0000 10.3255 0.0000
# 6 0.0000 0.0000 0.0000 -28.2591 0.0000 3.1629
#
#
#
# Elastic Compliance Matrix: (Units=1/GPa)
#
#
# Indices 1 2 3 4 5 6 
#
# 1 0.012109 -0.000191 -0.005703 0.000000 0.007301 0.000000
# 2 -0.000191 0.020323 -0.001483 0.000000 -0.013144 0.000000
# 3 -0.005703 -0.001483 0.011174 0.000000 0.011660 0.000000
# 4 0.000000 0.000000 0.000000 -0.003554 0.000000 -0.031756
# 5 0.007301 -0.013144 0.011660 0.000000 0.133334 0.000000
# 6 0.000000 0.000000 0.000000 -0.031756 0.000000 0.032438
#
#
# Mechanical properties :
#
#
# Convention : Reuss Voigt Hill
#
# Bulk Modulus (GPa) = 34.65987 54.23827 44.44907
# Shear Modulus (GPa) = 21.72052 13.71162 17.71607
#
# Velocity S-wave (km/s) = 3.25645 2.58734 2.94098
# Velocity P-wave (km/s) = 5.57324 5.95030 5.76485
#
# Compressibility (1/GPa) = 0.02885181
#
# Stress axis : x y z
#
# Youngs Moduli (GPa) = 82.57983 49.20431 89.49580
#
# Poissons Ratio (x) = 0.00941 0.51042
# Poissons Ratio (y) = 0.01580 0.13271
# Poissons Ratio (z) = 0.47098 0.07296
#
# Static dielectric constant tensor:
#      x y z
#    x 1.715630 0.000000 0.028910 
#    y 0.000000 1.761040 0.000000 
#    z 0.028910 0.000000 1.720620 
# 
# From -- ./inp_files/337843.got.cif
#   From: 2010.05.17/outbox.cif.g08.bks.cpg/sg12_169_cif.got.tgz:337843.got - 2010.06.03 13:09:07.
