data_PCOD9178173
_publ_section_title
;
Structure prediction by ZEFSAII (Michael W. Deem and Ramdas Pophale) SiO2 
 PCOD9178173
Probable space group: C 2/M
;
_chemical_formula_sum "Si O2"
_cell_formula_units_Z 64
_cell_length_a 13.085817
_cell_length_b 13.639498
_cell_length_c 23.722232
_cell_angle_alpha 90.000000
_cell_angle_beta 102.643359
_cell_angle_gamma 90.000000
_cell_volume 4131.368763
_symmetry_space_group_name_H-M "C 2/M"
_symmetry_group_IT_number 12
_symmetry_cell_setting 'monoclinic'
loop_
_space_group_symop_operation_xyz
x,y,z
-x,y,-z
-x,-y,-z
x,-y,z
1/2+x,1/2+y,z
1/2-x,1/2+y,-z
1/2-x,1/2-y,-z
1/2+x,1/2-y,z
loop_
_atom_site_type_symbol
_atom_site_label
_atom_site_fract_x
_atom_site_fract_y
_atom_site_fract_z
Si Si1 0.971733 0.751267 0.649862
Si Si2 0.881153 0.886232 0.732730
Si Si3 0.755116 0.115827 0.948702
Si Si4 0.557133 0.386020 0.562908
Si Si5 0.250537 0.732411 0.433251
Si Si6 0.413365 0.614979 0.868947
Si Si7 0.160175 0.385247 0.644373
Si Si8 0.421447 0.734318 0.041040
O O1 0.015548 0.833478 0.612925
O O2 0.058598 0.666116 0.659511
O O3 0.946090 0.806164 0.705126
O O4 0.862933 0.719009 0.607924
O O5 0.891866 0.869952 0.800567
O O6 0.760889 0.877802 0.697532
O O7 0.913200 0.000000 0.724430
O O8 0.810787 0.133567 0.895017
O O9 0.649389 0.177476 0.944343
O O10 0.738631 0.000000 0.953626
O O11 0.840070 0.156345 0.004015
O O12 0.500000 0.345809 0.500000
O O13 0.534974 0.500000 0.563841
O O14 0.678349 0.361618 0.570430
O O15 0.250000 0.750000 0.500000
O O16 0.306400 0.823456 0.407271
O O17 0.440446 0.500000 0.881037
O O18 0.506606 0.682041 0.903772
O O19 0.142408 0.500000 0.629921
O O20 0.500000 0.765365 0.000000
#
# Coordination Sequence:
#
# PCOD9178173 Si02
#       8
#     8   8   8   8   8   8   8   8
#     4  10  19  33  51  67  94 121 150 191 235 281
#     4   9  18  33  51  71  91 120 159 198 239 280
#     4   9  17  29  46  70 101 133 162 199 241 281
#     4  10  19  30  47  69  90 116 148 183 226 276
#     4  10  19  32  47  67  94 118 149 186 226 279
#     4   9  17  30  49  70  93 122 162 202 235 280
#     4   9  20  34  49  69  94 123 155 192 236 286
#     4   9  17  29  46  71  99 130 164 199 239 283
#
# _framework density 15.491234
#
# number of rings (size 3 to 8) (size 9 to 14) (size 15 to 20)
#    0.000    2.625    1.250    0.750    0.000    4.250 
#    0.000    0.625    0.000    0.000    0.000    0.000 
#    0.000    0.000    0.000    0.000    0.000    0.000 
#
# Total GULP energy -178247.308231 kJ/mol
# GULP energy per Si atom -5570.228382 kJ/mol
# Density = 1.545598 g / cm^3
# Si number density = 15.491234 Si / 1000 Ang^3
#
#
#
# Elastic Constant Matrix: (Units=GPa)
#
#
# Indices 1 2 3 4 5 6 
#
# 1 101.0404 49.0301 39.5678 0.0000 -2.3898 0.0000
# 2 49.0301 77.0580 40.3390 0.0000 -4.9866 0.0000
# 3 39.5678 40.3390 91.6560 0.0000 -8.5118 0.0000
# 4 0.0000 0.0000 0.0000 6.6699 0.0000 11.3622
# 5 -2.3898 -4.9866 -8.5118 0.0000 12.9323 0.0000
# 6 0.0000 0.0000 0.0000 11.3622 0.0000 15.2826
#
#
#
# Elastic Compliance Matrix: (Units=1/GPa)
#
#
# Indices 1 2 3 4 5 6 
#
# 1 0.014972 -0.008032 -0.003152 0.000000 -0.002405 0.000000
# 2 -0.008032 0.021207 -0.005586 0.000000 0.003016 0.000000
# 3 -0.003152 -0.005586 0.015418 0.000000 0.007411 0.000000
# 4 0.000000 0.000000 0.000000 -0.562559 0.000000 0.418248
# 5 -0.002405 0.003016 0.007411 0.000000 0.082923 0.000000
# 6 0.000000 0.000000 0.000000 0.418248 0.000000 -0.245523
#
#
# Mechanical properties :
#
#
# Convention : Reuss Voigt Hill
#
# Bulk Modulus (GPa) = 55.37902 58.62534 57.00218
# Shear Modulus (GPa) = -7.88638 16.36479 4.23920
#
# Velocity S-wave (km/s) = -2.25874 3.25374 1.65604
# Velocity P-wave (km/s) = 5.38736 7.21402 6.36655
#
# Compressibility (1/GPa) = 0.01805738
#
# Stress axis : x y z
#
# Youngs Moduli (GPa) = 66.79170 47.15370 64.86052
#
# Poissons Ratio (x) = 0.37874 0.20442
# Poissons Ratio (y) = 0.53647 0.36231
# Poissons Ratio (z) = 0.21051 0.26340
#
# Static dielectric constant tensor:
#      x y z
#    x 1.511030 0.000000 -0.002130 
#    y 0.000000 1.505110 0.000000 
#    z -0.002130 0.000000 1.498980 
# 
# From -- ./inp_files/305462.got.cif
#   From: 2010.05.17/outbox.cif.g08.bks.cpg/sg12_153_cif.got.tgz:305462.got - 2010.06.03 13:09:07.
