data_PCOD9178620
_publ_section_title
;
Structure prediction by ZEFSAII (Michael W. Deem and Ramdas Pophale) SiO2 
 PCOD9178620
Probable space group: C 2/M
;
_chemical_formula_sum "Si O2"
_cell_formula_units_Z 64
_cell_length_a 9.866640
_cell_length_b 25.126454
_cell_length_c 14.464662
_cell_angle_alpha 90.000000
_cell_angle_beta 104.545194
_cell_angle_gamma 90.000000
_cell_volume 3471.056068
_symmetry_space_group_name_H-M "C 2/M"
_symmetry_group_IT_number 12
_symmetry_cell_setting 'monoclinic'
loop_
_space_group_symop_operation_xyz
x,y,z
-x,y,-z
-x,-y,-z
x,-y,z
1/2+x,1/2+y,z
1/2-x,1/2+y,-z
1/2-x,1/2-y,-z
1/2+x,1/2-y,z
loop_
_atom_site_type_symbol
_atom_site_label
_atom_site_fract_x
_atom_site_fract_y
_atom_site_fract_z
Si Si1 0.239379 0.320720 0.094517
Si Si2 0.231702 0.775210 0.395976
Si Si3 0.026178 0.878512 0.104206
Si Si4 0.803418 0.665815 0.712025
Si Si5 0.681920 0.437248 0.295613
Si Si6 0.714099 0.804704 0.885861
Si Si7 0.418154 0.147489 0.321232
Si Si8 0.506276 0.634715 0.390839
O O1 0.379760 0.355964 0.114998
O O2 0.158333 0.336914 0.173190
O O3 0.282859 0.258923 0.113678
O O4 0.169863 0.323550 0.981152
O O5 0.250000 0.750000 0.500000
O O6 0.207995 0.727462 0.320502
O O7 0.365960 0.809742 0.387839
O O8 0.099557 0.814909 0.373686
O O9 0.101500 0.916246 0.190345
O O10 0.129892 0.828605 0.102800
O O11 0.000000 0.904742 0.000000
O O12 0.650846 0.640771 0.672257
O O13 0.917034 0.640479 0.662548
O O14 0.698858 0.500000 0.298676
O O15 0.828924 0.405574 0.322772
O O16 0.586793 0.415894 0.363491
O O17 0.628536 0.827356 0.785237
O O18 0.500000 0.634998 0.500000
#
# Coordination Sequence:
#
# PCOD9178620 Si02
#       8
#     8   8   8   8   8   8   8   8
#     4  10  19  30  50  81 121 153 185 221 271 335
#     4  11  22  37  56  84 122 160 188 221 272 342
#     4   9  18  34  55  84 113 147 199 235 270 342
#     4  12  22  33  57  86 122 152 186 232 277 343
#     4  10  22  43  63  78 106 148 195 251 304 339
#     4   9  19  31  48  79 121 163 181 214 270 340
#     4  10  23  36  55  85 115 152 193 231 281 346
#     4  11  23  40  59  88 115 147 193 238 286 341
#
# _framework density 18.438192999999998
#
# number of rings (size 3 to 8) (size 9 to 14) (size 15 to 20)
#    0.000    1.750    3.750    0.750    1.750    1.000 
#    0.000    0.625    0.000    0.750    0.000    2.625 
#    0.000    0.000    0.000    0.000    0.000    0.000 
#
# Total GULP energy -178679.341762 kJ/mol
# GULP energy per Si atom -5583.729430 kJ/mol
# Density = 1.839623 g / cm^3
# Si number density = 18.438193 Si / 1000 Ang^3
#
#
#
# Elastic Constant Matrix: (Units=GPa)
#
#
# Indices 1 2 3 4 5 6 
#
# 1 103.2194 29.1045 20.5474 0.0000 -24.0461 0.0000
# 2 29.1045 96.6274 14.3198 0.0000 -13.9654 0.0000
# 3 20.5474 14.3198 88.5406 0.0000 -23.9319 0.0000
# 4 0.0000 0.0000 0.0000 4.8697 0.0000 1.4933
# 5 -24.0461 -13.9654 -23.9319 0.0000 28.5120 0.0000
# 6 0.0000 0.0000 0.0000 1.4933 0.0000 5.3204
#
#
#
# Elastic Compliance Matrix: (Units=1/GPa)
#
#
# Indices 1 2 3 4 5 6 
#
# 1 0.012563 -0.002425 0.000025 0.000000 0.009429 0.000000
# 2 -0.002425 0.011618 -0.000428 0.000000 0.003286 0.000000
# 3 0.000025 -0.000428 0.014625 0.000000 0.012087 0.000000
# 4 0.000000 0.000000 0.000000 0.224694 0.000000 -0.063068
# 5 0.009429 0.003286 0.012087 0.000000 0.054780 0.000000
# 6 0.000000 0.000000 0.000000 -0.063068 0.000000 0.205657
#
#
# Mechanical properties :
#
#
# Convention : Reuss Voigt Hill
#
# Bulk Modulus (GPa) = 30.16583 46.25899 38.21241
# Shear Modulus (GPa) = 9.24825 22.70146 15.97485
#
# Velocity S-wave (km/s) = 2.24203 3.51268 2.94666
# Velocity P-wave (km/s) = 4.80607 6.44942 5.68741
#
# Compressibility (1/GPa) = 0.03315009
#
# Stress axis : x y z
#
# Youngs Moduli (GPa) = 79.59578 86.07456 68.37775
#
# Poissons Ratio (x) = 0.20874 -0.00172
# Poissons Ratio (y) = 0.19303 0.02927
# Poissons Ratio (z) = -0.00201 0.03684
#
# Static dielectric constant tensor:
#      x y z
#    x 1.671640 0.000000 0.008430 
#    y 0.000000 1.583370 0.000000 
#    z 0.008430 0.000000 1.691350 
# 
# From -- ./inp_files/198885.got.cif
#   From: 2010.05.17/outbox.cif.g08.bks.cpg/sg12_100_cif.got.tgz:198885.got - 2010.06.03 13:09:07.
