data_PCOD9178947
_publ_section_title
;
Structure prediction by ZEFSAII (Michael W. Deem and Ramdas Pophale) SiO2 
 PCOD9178947
Probable space group: C 2/M
;
_chemical_formula_sum "Si O2"
_cell_formula_units_Z 48
_cell_length_a 25.349357
_cell_length_b 7.388766
_cell_length_c 24.414629
_cell_angle_alpha 90.000000
_cell_angle_beta 149.391423
_cell_angle_gamma 90.000000
_cell_volume 2328.370130
_symmetry_space_group_name_H-M "C 2/M"
_symmetry_group_IT_number 12
_symmetry_cell_setting 'monoclinic'
loop_
_space_group_symop_operation_xyz
x,y,z
-x,y,-z
-x,-y,-z
x,-y,z
1/2+x,1/2+y,z
1/2-x,1/2+y,-z
1/2-x,1/2-y,-z
1/2+x,1/2-y,z
loop_
_atom_site_type_symbol
_atom_site_label
_atom_site_fract_x
_atom_site_fract_y
_atom_site_fract_z
Si Si1 0.096165 0.720993 0.736925
Si Si2 0.508719 0.290402 0.890859
Si Si3 0.127154 0.714536 0.886141
Si Si4 0.442107 0.779058 0.504360
Si Si5 0.689865 0.279100 0.128960
Si Si6 0.788103 0.779462 0.724704
O O1 0.095914 0.500000 0.737261
O O2 0.087683 0.782249 0.791992
O O3 0.207567 0.776170 0.812301
O O4 0.007210 0.778987 0.615452
O O5 0.496629 0.500000 0.896070
O O6 0.565846 0.285389 0.883759
O O7 0.392069 0.217309 0.786887
O O8 0.587447 0.212729 0.006368
O O9 0.113041 0.500000 0.874563
O O10 0.250000 0.750000 0.000000
O O11 0.500000 0.724598 0.500000
O O12 0.323127 0.718135 0.396733
O O13 0.443128 0.000000 0.505323
O O14 0.688634 0.500000 0.126837
O O15 0.698854 0.226760 0.200102
O O16 0.782737 0.000000 0.718099
#
# Coordination Sequence:
#
# PCOD9178947 Si02
#       6
#     8   8   8   8   8   8
#     4   9  16  26  43  68  95 121 155 199 243 281
#     4  10  19  31  47  72 104 131 158 194 239 288
#     4  11  21  34  51  71  96 129 164 198 238 284
#     4   9  14  23  41  67  98 124 153 197 244 284
#     4   9  14  24  43  69  97 124 154 196 245 285
#     4   9  16  25  43  71 100 129 158 196 243 286
#
# _framework density 20.615279000000001
#
# number of rings (size 3 to 8) (size 9 to 14) (size 15 to 20)
#    0.000    2.500    3.333    1.000    0.000    2.000 
#    0.000    0.833    0.000    2.000    0.000    1.167 
#    0.000    4.667    0.000    0.000    0.000    0.000 
#
# Total GULP energy -134009.890756 kJ/mol
# GULP energy per Si atom -5583.745448 kJ/mol
# Density = 2.056836 g / cm^3
# Si number density = 20.615279 Si / 1000 Ang^3
#
#
#
# Elastic Constant Matrix: (Units=GPa)
#
#
# Indices 1 2 3 4 5 6 
#
# 1 57.6559 -13.2813 67.2601 0.0000 5.7465 0.0000
# 2 -13.2813 68.8360 2.3271 0.0000 1.3211 0.0001
# 3 67.2601 2.3271 206.5744 0.0000 6.5153 0.0000
# 4 0.0000 0.0000 0.0000 -7.4101 0.0000 -2.7089
# 5 5.7465 1.3211 6.5153 0.0000 41.5017 0.0000
# 6 0.0000 0.0001 0.0000 -2.7089 0.0000 10.4976
#
#
#
# Elastic Compliance Matrix: (Units=1/GPa)
#
#
# Indices 1 2 3 4 5 6 
#
# 1 0.030744 0.006325 -0.009990 0.000000 -0.002890 0.000000
# 2 0.006325 0.015842 -0.002205 0.000000 -0.001034 0.000000
# 3 -0.009990 -0.002205 0.008113 0.000000 0.000180 0.000000
# 4 0.000000 0.000000 0.000000 -0.123318 0.000000 -0.031822
# 5 -0.002890 -0.001034 0.000180 0.000000 0.024500 0.000000
# 6 0.000000 0.000000 0.000000 -0.031822 0.000000 0.087049
#
#
# Mechanical properties :
#
#
# Convention : Reuss Voigt Hill
#
# Bulk Modulus (GPa) = 23.27882 49.51978 36.39930
# Shear Modulus (GPa) = 72.47519 27.36853 49.92186
#
# Velocity S-wave (km/s) = 5.93569 3.64756 4.92631
# Velocity P-wave (km/s) = 7.63499 6.46627 7.07480
#
# Compressibility (1/GPa) = 0.04295750
#
# Stress axis : x y z
#
# Youngs Moduli (GPa) = 32.52714 63.12323 123.26196
#
# Poissons Ratio (x) = -0.39925 1.23140
# Poissons Ratio (y) = -0.20573 0.27182
# Poissons Ratio (z) = 0.32495 0.13920
#
# Static dielectric constant tensor:
#      x y z
#    x 1.676540 0.000000 -0.001050 
#    y 0.000000 1.816960 0.000000 
#    z -0.001050 0.000000 1.716660 
# 
# From -- ./inp_files/173475.got.cif
#   From: 2010.05.17/outbox.cif.g08.bks.cpg/sg12_87_cif.got.tgz:173475.got - 2010.06.03 13:09:07.
