data_PCOD9178695
_publ_section_title
;
Structure prediction by ZEFSAII (Michael W. Deem and Ramdas Pophale) SiO2 
 PCOD9178695
Probable space group: C 2/M
;
_chemical_formula_sum "Si O2"
_cell_formula_units_Z 64
_cell_length_a 8.649178
_cell_length_b 20.189051
_cell_length_c 20.564154
_cell_angle_alpha 90.000000
_cell_angle_beta 108.756176
_cell_angle_gamma 90.000000
_cell_volume 3400.193471
_symmetry_space_group_name_H-M "C 2/M"
_symmetry_group_IT_number 12
_symmetry_cell_setting 'monoclinic'
loop_
_space_group_symop_operation_xyz
x,y,z
-x,y,-z
-x,-y,-z
x,-y,z
1/2+x,1/2+y,z
1/2-x,1/2+y,-z
1/2-x,1/2-y,-z
1/2+x,1/2-y,z
loop_
_atom_site_type_symbol
_atom_site_label
_atom_site_fract_x
_atom_site_fract_y
_atom_site_fract_z
Si Si1 0.505591 0.421252 0.397764
Si Si2 0.007537 0.689371 0.575115
Si Si3 0.136646 0.200607 0.075164
Si Si4 0.269155 0.921121 0.532225
Si Si5 0.173595 0.249554 0.330456
Si Si6 0.161467 0.163554 0.883984
Si Si7 0.120395 0.160831 0.733874
Si Si8 0.804615 0.924407 0.987781
O O1 0.516451 0.500000 0.398107
O O2 0.671169 0.397019 0.454923
O O3 0.355046 0.404867 0.425636
O O4 0.466897 0.393560 0.322364
O O5 0.178759 0.699893 0.633764
O O6 0.000000 0.715583 0.500000
O O7 0.939436 0.615124 0.562995
O O8 0.882650 0.726346 0.606157
O O9 0.238664 0.267609 0.095880
O O10 0.026182 0.180745 0.121893
O O11 0.242888 0.136357 0.067130
O O12 0.000000 0.211764 0.000000
O O13 0.287515 0.000000 0.532376
O O14 0.241170 0.306700 0.292722
O O15 0.018204 0.216570 0.276113
O O16 0.176674 0.139380 0.812290
O O17 0.217138 0.108088 0.943803
O O18 0.739883 0.000000 0.972761
O O19 0.000000 0.929631 0.000000
#
# Coordination Sequence:
#
# PCOD9178695 Si02
#       8
#     8   8   8   8   8   8   8   8
#     4   9  18  33  53  74  99 132 171 218 262 309
#     4  11  20  34  51  74  97 128 169 223 272 322
#     4   9  17  32  52  80 108 137 171 216 255 297
#     4   9  18  34  54  74  96 129 174 218 266 314
#     4  10  23  34  48  71 104 135 167 211 272 316
#     4  10  19  30  54  78 105 140 179 207 256 315
#     4  11  20  36  50  74 106 138 174 213 259 318
#     4   8  15  29  50  78 107 132 168 215 252 289
#
# _framework density 18.822458000000001
#
# number of rings (size 3 to 8) (size 9 to 14) (size 15 to 20)
#    0.000    2.625    1.250    4.125    0.000    1.750 
#    0.000    0.625    0.000    3.375    0.000    4.375 
#    0.000    0.000    0.000    0.000    0.000    0.000 
#
# Total GULP energy -178308.354448 kJ/mol
# GULP energy per Si atom -5572.136077 kJ/mol
# Density = 1.877962 g / cm^3
# Si number density = 18.822458 Si / 1000 Ang^3
#
#
#
# Elastic Constant Matrix: (Units=GPa)
#
#
# Indices 1 2 3 4 5 6 
#
# 1 42.3018 12.8183 10.1943 0.0000 -13.3322 0.0000
# 2 12.8183 65.9498 23.7086 0.0000 -2.4886 0.0000
# 3 10.1943 23.7086 92.5366 0.0000 -25.8954 0.0000
# 4 0.0000 0.0000 0.0000 15.0271 0.0000 2.1207
# 5 -13.3322 -2.4886 -25.8954 0.0000 18.9189 0.0000
# 6 0.0000 0.0000 0.0000 2.1207 0.0000 25.2852
#
#
#
# Elastic Compliance Matrix: (Units=1/GPa)
#
#
# Indices 1 2 3 4 5 6 
#
# 1 0.035151 -0.008383 0.007940 0.000000 0.034537 0.000000
# 2 -0.008383 0.019122 -0.007983 0.000000 -0.014319 0.000000
# 3 0.007940 -0.007983 0.021474 0.000000 0.033939 0.000000
# 4 0.000000 0.000000 0.000000 0.067343 0.000000 -0.005648
# 5 0.034537 -0.014319 0.033939 0.000000 0.121766 0.000000
# 6 0.000000 0.000000 0.000000 -0.005648 0.000000 0.040023
#
#
# Mechanical properties :
#
#
# Convention : Reuss Voigt Hill
#
# Bulk Modulus (GPa) = 16.97904 32.69230 24.83567
# Shear Modulus (GPa) = 14.64716 22.11736 18.38226
#
# Velocity S-wave (km/s) = 2.79260 3.43162 3.12847
# Velocity P-wave (km/s) = 4.40890 5.75394 5.12573
#
# Compressibility (1/GPa) = 0.05889614
#
# Stress axis : x y z
#
# Youngs Moduli (GPa) = 28.44833 52.29622 46.56718
#
# Poissons Ratio (x) = 0.43842 -0.36975
# Poissons Ratio (y) = 0.23849 0.37172
# Poissons Ratio (z) = -0.22588 0.41746
#
# Static dielectric constant tensor:
#      x y z
#    x 1.689810 0.000000 -0.021880 
#    y 0.000000 1.677130 0.000000 
#    z -0.021880 0.000000 1.670620 
# 
# From -- ./inp_files/301443.got.cif
#   From: 2010.05.17/outbox.cif.g08.bks.cpg/sg12_151_cif.got.tgz:301443.got - 2010.06.03 13:09:07.
