data_PCOD9178786
_publ_section_title
;
Structure prediction by ZEFSAII (Michael W. Deem and Ramdas Pophale) SiO2 
 PCOD9178786
Probable space group: C 2/M
;
_chemical_formula_sum "Si O2"
_cell_formula_units_Z 48
_cell_length_a 21.006516
_cell_length_b 7.357815
_cell_length_c 24.018780
_cell_angle_alpha 90.000000
_cell_angle_beta 39.710547
_cell_angle_gamma 90.000000
_cell_volume 2371.882336
_symmetry_space_group_name_H-M "C 2/M"
_symmetry_group_IT_number 12
_symmetry_cell_setting 'monoclinic'
loop_
_space_group_symop_operation_xyz
x,y,z
-x,y,-z
-x,-y,-z
x,-y,z
1/2+x,1/2+y,z
1/2-x,1/2+y,-z
1/2-x,1/2-y,-z
1/2+x,1/2-y,z
loop_
_atom_site_type_symbol
_atom_site_label
_atom_site_fract_x
_atom_site_fract_y
_atom_site_fract_z
Si Si1 0.761795 0.716700 0.926860
Si Si2 0.064340 0.720899 0.267818
Si Si3 0.889272 0.278161 0.555421
Si Si4 0.141152 0.283088 0.549486
Si Si5 0.713852 0.220397 0.265820
Si Si6 0.386760 0.721954 0.068993
O O1 0.762813 0.500000 0.919169
O O2 0.865955 0.783897 0.829986
O O3 0.670825 0.780856 0.948584
O O4 0.750000 0.750000 0.000000
O O5 0.062437 0.500000 0.266202
O O6 0.124608 0.769130 0.283527
O O7 0.951052 0.784492 0.350844
O O8 0.887303 0.500000 0.556188
O O9 0.867824 0.214435 0.507652
O O10 0.811955 0.218138 0.654893
O O11 0.000000 0.226189 0.500000
O O12 0.128133 0.500000 0.555018
O O13 0.250000 0.250000 0.500000
O O14 0.816119 0.278261 0.167894
O O15 0.715683 0.000000 0.265543
O O16 0.388530 0.500000 0.067256
O O17 0.500000 0.783114 0.000000
#
# Coordination Sequence:
#
# PCOD9178786 Si02
#       6
#     8   8   8   8   8   8
#     4   9  17  30  48  68  89 119 155 185 218 266
#     4   8  14  27  46  64  87 122 155 179 215 271
#     4   9  14  23  43  67  84 105 148 194 216 244
#     4  10  19  31  46  67  95 122 148 183 227 269
#     4   8  12  21  40  64  84 107 146 188 218 251
#     4   8  14  25  41  62  89 115 139 178 231 270
#
# _framework density 20.237090999999999
#
# number of rings (size 3 to 8) (size 9 to 14) (size 15 to 20)
#    0.000    3.333    1.667    2.000    0.000    0.000 
#    3.000    0.833    0.000    1.000    0.000    1.167 
#    0.000    0.000    0.000    0.000    0.000    0.000 
#
# Total GULP energy -133815.198015 kJ/mol
# GULP energy per Si atom -5575.633251 kJ/mol
# Density = 2.019103 g / cm^3
# Si number density = 20.237091 Si / 1000 Ang^3
#
#
#
# Elastic Constant Matrix: (Units=GPa)
#
#
# Indices 1 2 3 4 5 6 
#
# 1 145.9686 2.4069 132.1283 -0.0002 -4.4855 0.0008
# 2 2.4069 71.6638 6.4973 0.0002 -0.1829 0.0017
# 3 132.1283 6.4973 225.8190 0.0003 -6.6072 -0.0006
# 4 -0.0002 0.0002 0.0003 -0.5070 -0.0001 2.0815
# 5 -4.4855 -0.1829 -6.6072 -0.0001 41.2498 0.0000
# 6 0.0008 0.0017 -0.0006 2.0815 0.0000 7.2815
#
#
#
# Elastic Compliance Matrix: (Units=1/GPa)
#
#
# Indices 1 2 3 4 5 6 
#
# 1 0.014572 0.000284 -0.008528 -0.000008 0.000220 0.000000
# 2 0.000284 0.013996 -0.000569 -0.000005 0.000002 -0.000002
# 3 -0.008528 -0.000569 0.009452 0.000007 0.000584 0.000000
# 4 -0.000008 -0.000005 0.000007 -0.907411 -0.000002 0.259400
# 5 0.000220 0.000002 0.000584 -0.000002 0.024360 0.000001
# 6 0.000000 -0.000002 0.000000 0.259400 0.000001 0.063181
#
#
# Mechanical properties :
#
#
# Convention : Reuss Voigt Hill
#
# Bulk Modulus (GPa) = 49.03288 80.61296 64.82292
# Shear Modulus (GPa) = -6.60130 29.76611 11.58240
#
# Velocity S-wave (km/s) = -1.80806 3.83935 2.39495
# Velocity P-wave (km/s) = 4.46353 7.71848 6.30468
#
# Compressibility (1/GPa) = 0.02039448
#
# Stress axis : x y z
#
# Youngs Moduli (GPa) = 68.62280 71.44853 105.80130
#
# Poissons Ratio (x) = -0.02031 0.90229
# Poissons Ratio (y) = -0.01951 0.06020
# Poissons Ratio (z) = 0.58523 0.04065
#
# Static dielectric constant tensor:
#      x y z
#    x 1.678340 0.000000 0.002430 
#    y 0.000000 1.825550 0.000000 
#    z 0.002430 0.000000 1.735100 
# 
# From -- ./inp_files/212762.got.cif
#   From: 2010.05.17/outbox.cif.g08.bks.cpg/sg12_107_cif.got.tgz:212762.got - 2010.06.03 13:09:07.
