data_PCOD9178703
_publ_section_title
;
Structure prediction by ZEFSAII (Michael W. Deem and Ramdas Pophale) SiO2 
 PCOD9178703
Probable space group: C 2/M
;
_chemical_formula_sum "Si O2"
_cell_formula_units_Z 64
_cell_length_a 27.718163
_cell_length_b 11.348472
_cell_length_c 19.575495
_cell_angle_alpha 90.000000
_cell_angle_beta 145.315867
_cell_angle_gamma 90.000000
_cell_volume 3504.018637
_symmetry_space_group_name_H-M "C 2/M"
_symmetry_group_IT_number 12
_symmetry_cell_setting 'monoclinic'
loop_
_space_group_symop_operation_xyz
x,y,z
-x,y,-z
-x,-y,-z
x,-y,z
1/2+x,1/2+y,z
1/2-x,1/2+y,-z
1/2-x,1/2-y,-z
1/2+x,1/2-y,z
loop_
_atom_site_type_symbol
_atom_site_label
_atom_site_fract_x
_atom_site_fract_y
_atom_site_fract_z
Si Si1 0.281918 0.362066 0.214939
Si Si2 0.455790 0.250861 0.376620
Si Si3 0.551872 0.139729 0.131597
Si Si4 0.352772 0.123332 0.153311
Si Si5 0.995942 0.865479 0.831339
Si Si6 0.248221 0.358259 0.329629
Si Si7 0.173566 0.198180 0.991664
Si Si8 0.579951 0.359556 0.407708
O O1 0.263383 0.500000 0.190984
O O2 0.377477 0.339394 0.300478
O O3 0.271597 0.317782 0.280455
O O4 0.216232 0.293210 0.091267
O O5 0.500000 0.225372 0.500000
O O6 0.409044 0.142138 0.285716
O O7 0.521923 0.301177 0.398514
O O8 0.520655 0.248920 0.142107
O O9 0.651387 0.167113 0.235176
O O10 0.544523 0.000000 0.146947
O O11 0.500000 0.143862 0.000000
O O12 0.365005 0.232535 0.117685
O O13 0.373794 0.000000 0.143445
O O14 0.253902 0.126002 0.058262
O O15 0.951873 0.842016 0.706476
O O16 0.097077 0.868443 0.937406
O O17 0.970102 0.000000 0.824027
O O18 0.252699 0.500000 0.333156
O O19 0.322909 0.318833 0.467382
O O20 0.575346 0.500000 0.414403
#
# Coordination Sequence:
#
# PCOD9178703 Si02
#       8
#     8   8   8   8   8   8   8   8
#     4  10  19  30  54  86 114 148 192 241 292 342
#     4  11  20  33  54  82 114 155 202 240 286 348
#     4  10  22  41  65  91 118 150 194 247 298 352
#     4  10  21  35  51  75 112 154 196 241 289 346
#     4  11  23  39  61  88 120 156 193 242 299 355
#     4   9  18  34  56  83 114 148 187 242 298 342
#     4  10  20  35  53  79 109 152 191 237 289 349
#     4  10  20  35  55  84 120 153 190 239 292 347
#
# _framework density 18.264744
#
# number of rings (size 3 to 8) (size 9 to 14) (size 15 to 20)
#    0.000    1.875    2.500    1.875    0.000    3.500 
#    0.000    0.000    0.000    1.500    0.000    0.000 
#    0.000    0.000    0.000    0.000    0.000    0.000 
#
# Total GULP energy -178265.061307 kJ/mol
# GULP energy per Si atom -5570.783166 kJ/mol
# Density = 1.822317 g / cm^3
# Si number density = 18.264744 Si / 1000 Ang^3
#
#
#
# Elastic Constant Matrix: (Units=GPa)
#
#
# Indices 1 2 3 4 5 6 
#
# 1 64.3925 42.7113 28.9800 0.0000 7.0535 0.0000
# 2 42.7113 96.7257 32.5026 0.0000 -3.9871 0.0000
# 3 28.9800 32.5026 117.6949 0.0000 -3.8602 0.0000
# 4 0.0000 0.0000 0.0000 -18.3397 0.0000 20.0545
# 5 7.0535 -3.9871 -3.8602 0.0000 30.1511 0.0000
# 6 0.0000 0.0000 0.0000 20.0545 0.0000 -16.6540
#
#
#
# Elastic Compliance Matrix: (Units=1/GPa)
#
#
# Indices 1 2 3 4 5 6 
#
# 1 0.024555 -0.009962 -0.003541 0.000000 -0.007515 0.000000
# 2 -0.009962 0.015475 -0.001684 0.000000 0.004161 0.000000
# 3 -0.003541 -0.001684 0.009895 0.000000 0.001873 0.000000
# 4 0.000000 0.000000 0.000000 0.172123 0.000000 0.207269
# 5 -0.007515 0.004161 0.001873 0.000000 0.035714 0.000000
# 6 0.000000 0.000000 0.000000 0.207269 0.000000 0.189546
#
#
# Mechanical properties :
#
#
# Convention : Reuss Voigt Hill
#
# Bulk Modulus (GPa) = 51.15321 54.13344 52.64332
# Shear Modulus (GPa) = 10.32630 10.67277 10.49954
#
# Velocity S-wave (km/s) = 2.38033 2.41993 2.40021
# Velocity P-wave (km/s) = 5.96841 6.12459 6.04701
#
# Compressibility (1/GPa) = 0.01954912
#
# Stress axis : x y z
#
# Youngs Moduli (GPa) = 40.72522 64.62001 101.06091
#
# Poissons Ratio (x) = 0.64378 0.35789
# Poissons Ratio (y) = 0.40572 0.17019
# Poissons Ratio (z) = 0.14422 0.10882
#
# Static dielectric constant tensor:
#      x y z
#    x 1.636500 0.000000 -0.003550 
#    y 0.000000 1.661390 0.000000 
#    z -0.003550 0.000000 1.643740 
# 
# From -- ./inp_files/283264.got.cif
#   From: 2010.05.17/outbox.cif.g08.bks.cpg/sg12_142_cif.got.tgz:283264.got - 2010.06.03 13:09:07.
