data_PCOD9178042
_publ_section_title
;
Structure prediction by ZEFSAII (Michael W. Deem and Ramdas Pophale) SiO2 
 PCOD9178042
Probable space group: C 2/M
;
_chemical_formula_sum "Si O2"
_cell_formula_units_Z 48
_cell_length_a 24.582482
_cell_length_b 20.088807
_cell_length_c 5.454321
_cell_angle_alpha 90.000000
_cell_angle_beta 63.652569
_cell_angle_gamma 90.000000
_cell_volume 2413.717386
_symmetry_space_group_name_H-M "C 2/M"
_symmetry_group_IT_number 12
_symmetry_cell_setting 'monoclinic'
loop_
_space_group_symop_operation_xyz
x,y,z
-x,y,-z
-x,-y,-z
x,-y,z
1/2+x,1/2+y,z
1/2-x,1/2+y,-z
1/2-x,1/2-y,-z
1/2+x,1/2-y,z
loop_
_atom_site_type_symbol
_atom_site_label
_atom_site_fract_x
_atom_site_fract_y
_atom_site_fract_z
Si Si1 0.958997 0.649039 0.332015
Si Si2 0.390061 0.286054 0.469833
Si Si3 0.261801 0.341357 0.226392
Si Si4 0.963606 0.000000 0.822798
Si Si5 0.960417 0.500000 0.329177
Si Si6 0.897740 0.860852 0.954472
Si Si7 0.743852 0.812522 0.762294
O O1 0.910669 0.709415 0.428666
O O2 0.930852 0.573980 0.388317
O O3 0.000000 0.655183 0.500000
O O4 0.000000 0.655179 0.000000
O O5 0.412671 0.320326 0.676281
O O6 0.317099 0.300199 0.615777
O O7 0.412668 0.320304 0.172894
O O8 0.281017 0.262299 0.187953
O O9 0.227173 0.349916 0.548444
O O10 0.325687 0.376864 0.098599
O O11 0.227174 0.349918 0.042864
O O12 0.927919 0.068392 0.894173
O O13 0.000000 0.000000 0.500000
O O14 0.000000 0.000000 0.000000
O O15 0.000000 0.500000 0.500000
O O16 0.000000 0.500000 0.000000
#
# Coordination Sequence:
#
# PCOD9178042 Si02
#       7
#     8   8   8   4   4   8   8
#     4  10  19  30  46  67  93 125 155 186 224 272
#     4  10  19  31  50  75  97 120 159 205 248 293
#     4   8  14  27  46  66  89 114 143 182 231 288
#     4  12  26  40  52  67  96 139 180 222 268 302
#     4   8  16  30  44  61  86 117 148 170 204 262
#     4  10  21  35  50  69  93 125 165 207 250 298
#     4   8  14  25  44  70  93 112 138 182 236 283
#
# _framework density 19.886339
#
# number of rings (size 3 to 8) (size 9 to 14) (size 15 to 20)
#    0.000    2.667    0.000    2.000    0.000    4.000 
#    0.000    0.000    0.000    1.000    0.000    0.000 
#    0.000   24.000    0.000    0.000    0.000    5.667 
#
# Total GULP energy -133673.072745 kJ/mol
# GULP energy per Si atom -5569.711364 kJ/mol
# Density = 1.984108 g / cm^3
# Si number density = 19.886339 Si / 1000 Ang^3
#
#
#
# Elastic Constant Matrix: (Units=GPa)
#
#
# Indices 1 2 3 4 5 6 
#
# 1 37.8053 36.0310 46.4423 0.0000 12.9489 0.0000
# 2 36.0310 132.4419 40.8472 0.0000 2.8457 0.0000
# 3 46.4423 40.8472 156.5411 0.0000 56.0632 0.0000
# 4 0.0000 0.0000 0.0000 23.4200 0.0000 4.7566
# 5 12.9489 2.8457 56.0632 0.0000 31.8542 0.0000
# 6 0.0000 0.0000 0.0000 4.7566 0.0000 15.2585
#
#
#
# Elastic Compliance Matrix: (Units=1/GPa)
#
#
# Indices 1 2 3 4 5 6 
#
# 1 0.052206 -0.009600 -0.015392 0.000000 0.006725 0.000000
# 2 -0.009600 0.010857 -0.002800 0.000000 0.007860 0.000000
# 3 -0.015392 -0.002800 0.025305 0.000000 -0.038029 0.000000
# 4 0.000000 0.000000 0.000000 0.045585 0.000000 -0.014210
# 5 0.006725 0.007860 -0.038029 0.000000 0.094888 0.000000
# 6 0.000000 0.000000 0.000000 -0.014210 0.000000 0.069967
#
#
# Mechanical properties :
#
#
# Convention : Reuss Voigt Hill
#
# Bulk Modulus (GPa) = 30.50302 63.71435 47.10869
# Shear Modulus (GPa) = 13.68668 27.67107 20.67887
#
# Velocity S-wave (km/s) = 2.62629 3.73428 3.22817
# Velocity P-wave (km/s) = 4.95666 7.12053 6.13475
#
# Compressibility (1/GPa) = 0.03278363
#
# Stress axis : x y z
#
# Youngs Moduli (GPa) = 19.15506 92.10797 39.51816
#
# Poissons Ratio (x) = 0.88424 0.60826
# Poissons Ratio (y) = 0.18389 0.11065
# Poissons Ratio (z) = 0.29483 0.25790
#
# Static dielectric constant tensor:
#      x y z
#    x 1.780280 0.000000 0.013520 
#    y 0.000000 1.659430 0.000000 
#    z 0.013520 0.000000 1.803590 
# 
# From -- ./inp_files/24987.got.cif
#   From: 2010.05.17/outbox.cif.g08.bks.cpg/sg12_13_cif.got.tgz:24987.got - 2010.06.03 13:09:07.
