data_PCOD9178709
_publ_section_title
;
Structure prediction by ZEFSAII (Michael W. Deem and Ramdas Pophale) SiO2 
 PCOD9178709
Probable space group: C 2/M
;
_chemical_formula_sum "Si O2"
_cell_formula_units_Z 60
_cell_length_a 16.665528
_cell_length_b 18.482429
_cell_length_c 11.674814
_cell_angle_alpha 90.000000
_cell_angle_beta 120.499056
_cell_angle_gamma 90.000000
_cell_volume 3098.508541
_symmetry_space_group_name_H-M "C 2/M"
_symmetry_group_IT_number 12
_symmetry_cell_setting 'monoclinic'
loop_
_space_group_symop_operation_xyz
x,y,z
-x,y,-z
-x,-y,-z
x,-y,z
1/2+x,1/2+y,z
1/2-x,1/2+y,-z
1/2-x,1/2-y,-z
1/2+x,1/2-y,z
loop_
_atom_site_type_symbol
_atom_site_label
_atom_site_fract_x
_atom_site_fract_y
_atom_site_fract_z
Si Si1 0.234099 0.324553 0.420715
Si Si2 0.606051 0.341850 0.066320
Si Si3 0.299439 0.193495 0.861483
Si Si4 0.953712 0.583485 0.711380
Si Si5 0.281260 0.581935 0.019516
Si Si6 0.500000 0.882478 0.000000
Si Si7 0.210360 0.913506 0.345136
Si Si8 0.130813 0.583622 0.704170
O O1 0.250000 0.250000 0.500000
O O2 0.248487 0.310833 0.297200
O O3 0.131474 0.360910 0.351557
O O4 0.296541 0.383080 0.532528
O O5 0.678328 0.276635 0.093443
O O6 0.635275 0.378251 0.206847
O O7 0.500000 0.317048 0.000000
O O8 0.623739 0.399369 0.978373
O O9 0.242521 0.143511 0.906730
O O10 0.403330 0.160444 0.932660
O O11 0.926064 0.500000 0.662401
O O12 0.994405 0.579825 0.870986
O O13 0.033241 0.611710 0.681801
O O14 0.280647 0.500000 0.065998
O O15 0.202632 0.584771 0.862845
O O16 0.310085 0.888629 0.360959
O O17 0.206306 0.000000 0.336449
O O18 0.110982 0.500000 0.663024
#
# Coordination Sequence:
#
# PCOD9178709 Si02
#       8
#     8   8   8   8   8   4   8   8
#     4  11  23  38  54  79 122 163 203 241 287 361
#     4  11  22  39  66  92 120 158 208 256 307 357
#     4  11  21  37  61  88 123 164 194 247 309 367
#     4  10  19  32  56  86 116 153 193 237 297 363
#     4  10  21  37  60  94 128 155 195 251 313 370
#     4  10  19  30  54  90 127 148 188 240 305 378
#     4  10  21  39  61  84 115 155 199 248 297 350
#     4   8  16  32  55  85 116 142 180 242 299 351
#
# _framework density 19.364156000000001
#
# number of rings (size 3 to 8) (size 9 to 14) (size 15 to 20)
#    0.000    1.867    3.333    2.200    0.000    4.267 
#    0.000    2.000    2.933    0.800    0.000    1.867 
#    0.000    0.000    0.000    0.000    0.000    0.000 
#
# Total GULP energy -167178.791026 kJ/mol
# GULP energy per Si atom -5572.626368 kJ/mol
# Density = 1.932008 g / cm^3
# Si number density = 19.364156 Si / 1000 Ang^3
#
#
#
# Elastic Constant Matrix: (Units=GPa)
#
#
# Indices 1 2 3 4 5 6 
#
# 1 48.9936 16.0041 18.8913 0.0000 -0.7078 0.0000
# 2 16.0041 98.1076 41.2282 0.0000 -0.6185 0.0000
# 3 18.8913 41.2282 102.7645 0.0000 -15.8258 0.0000
# 4 0.0000 0.0000 0.0000 28.3316 0.0000 -0.9849
# 5 -0.7078 -0.6185 -15.8258 0.0000 15.2531 0.0000
# 6 0.0000 0.0000 0.0000 -0.9849 0.0000 22.0585
#
#
#
# Elastic Compliance Matrix: (Units=1/GPa)
#
#
# Indices 1 2 3 4 5 6 
#
# 1 0.022501 -0.002119 -0.003736 0.000000 -0.002918 0.000000
# 2 -0.002119 0.012857 -0.005598 0.000000 -0.005385 0.000000
# 3 -0.003736 -0.005598 0.014998 0.000000 0.015161 0.000000
# 4 0.000000 0.000000 0.000000 0.035351 0.000000 0.001578
# 5 -0.002918 -0.005385 0.015161 0.000000 0.080937 0.000000
# 6 0.000000 0.000000 0.000000 0.001578 0.000000 0.045405
#
#
# Mechanical properties :
#
#
# Convention : Reuss Voigt Hill
#
# Bulk Modulus (GPa) = 36.42790 44.67923 40.55356
# Shear Modulus (GPa) = 20.48296 24.71142 22.59719
#
# Velocity S-wave (km/s) = 3.25588 3.57619 3.41979
# Velocity P-wave (km/s) = 5.74345 6.33841 6.04825
#
# Compressibility (1/GPa) = 0.02745149
#
# Stress axis : x y z
#
# Youngs Moduli (GPa) = 44.44188 77.77832 66.67404
#
# Poissons Ratio (x) = 0.16483 0.24906
# Poissons Ratio (y) = 0.09418 0.37323
# Poissons Ratio (z) = 0.16602 0.43539
#
# Static dielectric constant tensor:
#      x y z
#    x 1.685230 0.000000 -0.006270 
#    y 0.000000 1.701520 0.000000 
#    z -0.006270 0.000000 1.706060 
# 
# From -- ./inp_files/158293.got.cif
#   From: 2010.05.17/outbox.cif.g08.bks.cpg/sg12_80_cif.got.tgz:158293.got - 2010.06.03 13:09:07.
