data_PCOD9178859
_publ_section_title
;
Structure prediction by ZEFSAII (Michael W. Deem and Ramdas Pophale) SiO2 
 PCOD9178859
Probable space group: C 2/M
;
_chemical_formula_sum "Si O2"
_cell_formula_units_Z 40
_cell_length_a 14.074202
_cell_length_b 9.373233
_cell_length_c 13.938616
_cell_angle_alpha 90.000000
_cell_angle_beta 107.935620
_cell_angle_gamma 90.000000
_cell_volume 1749.433454
_symmetry_space_group_name_H-M "C 2/M"
_symmetry_group_IT_number 12
_symmetry_cell_setting 'monoclinic'
loop_
_space_group_symop_operation_xyz
x,y,z
-x,y,-z
-x,-y,-z
x,-y,z
1/2+x,1/2+y,z
1/2-x,1/2+y,-z
1/2-x,1/2-y,-z
1/2+x,1/2-y,z
loop_
_atom_site_type_symbol
_atom_site_label
_atom_site_fract_x
_atom_site_fract_y
_atom_site_fract_z
Si Si1 0.711683 0.839252 0.897900
Si Si2 0.882639 0.662724 0.494371
Si Si3 0.931934 0.162440 0.692841
Si Si4 0.517232 0.839029 0.113128
Si Si5 0.332867 0.662939 0.295929
O O1 0.593300 0.853424 0.877622
O O2 0.722713 0.747551 0.805427
O O3 0.753991 0.000000 0.906102
O O4 0.750000 0.750000 0.000000
O O5 0.847328 0.500000 0.491783
O O6 0.880152 0.746158 0.593563
O O7 0.830062 0.749708 0.393396
O O8 0.000000 0.657090 0.500000
O O9 0.927324 0.239435 0.794018
O O10 0.049672 0.157323 0.698864
O O11 0.895720 0.000000 0.685388
O O12 0.560520 0.000000 0.118373
O O13 0.500000 0.782073 0.000000
O O14 0.298700 0.500000 0.296018
#
# Coordination Sequence:
#
# PCOD9178859 Si02
#       5
#     8   8   8   8   8
#     4  10  19  31  47  67  92 121 153 188 226 268
#     4   9  15  23  37  58  85 116 147 180 222 269
#     4   9  16  25  39  61  88 116 146 183 226 268
#     4   9  18  32  48  66  90 121 155 189 225 266
#     4   9  16  26  40  60  87 116 147 184 225 267
#
# _framework density 22.864545
#
# number of rings (size 3 to 8) (size 9 to 14) (size 15 to 20)
#    0.000    2.800    0.000    2.400    0.000    8.400 
#    0.000    0.000    0.000    0.000    0.000    1.400 
#    0.000    0.000    0.000    0.000    0.000    0.000 
#
# Total GULP energy -111838.274814 kJ/mol
# GULP energy per Si atom -5591.913741 kJ/mol
# Density = 2.281250 g / cm^3
# Si number density = 22.864545 Si / 1000 Ang^3
#
#
#
# Elastic Constant Matrix: (Units=GPa)
#
#
# Indices 1 2 3 4 5 6 
#
# 1 71.9486 9.1436 3.8618 0.0000 -4.1983 0.0000
# 2 9.1436 261.3753 176.6303 0.0000 -9.9553 0.0000
# 3 3.8618 176.6303 272.7075 0.0000 -19.8682 0.0000
# 4 0.0000 0.0000 0.0000 23.3757 0.0000 -2.5882
# 5 -4.1983 -9.9553 -19.8682 0.0000 17.6250 0.0000
# 6 0.0000 0.0000 0.0000 -2.5882 0.0000 1.1924
#
#
#
# Elastic Compliance Matrix: (Units=1/GPa)
#
#
# Indices 1 2 3 4 5 6 
#
# 1 0.014169 -0.000711 0.000519 0.000000 0.003559 0.000000
# 2 -0.000711 0.006864 -0.004538 0.000000 -0.001408 0.000000
# 3 0.000519 -0.004538 0.006996 0.000000 0.005446 0.000000
# 4 0.000000 0.000000 0.000000 0.056314 0.000000 0.122234
# 5 0.003559 -0.001408 0.005446 0.000000 0.062930 0.000000
# 6 0.000000 0.000000 0.000000 0.122234 0.000000 1.103957
#
#
# Mechanical properties :
#
#
# Convention : Reuss Voigt Hill
#
# Bulk Modulus (GPa) = 53.85462 109.47808 81.66635
# Shear Modulus (GPa) = 3.94671 36.19833 20.07252
#
# Velocity S-wave (km/s) = 1.31525 3.98322 2.96613
# Velocity P-wave (km/s) = 5.09032 8.31503 6.89388
#
# Compressibility (1/GPa) = 0.01856851
#
# Stress axis : x y z
#
# Youngs Moduli (GPa) = 70.57686 145.68782 142.94321
#
# Poissons Ratio (x) = 0.10357 -0.07420
# Poissons Ratio (y) = 0.05017 0.64872
# Poissons Ratio (z) = -0.03663 0.66117
#
# Static dielectric constant tensor:
#      x y z
#    x 1.945930 0.000000 0.027800 
#    y 0.000000 1.809800 0.000000 
#    z 0.027800 0.000000 1.790820 
# 
# From -- ./inp_files/151679.got.cif
#   From: 2010.05.17/outbox.cif.g08.bks.cpg/sg12_76_cif.got.tgz:151679.got - 2010.06.03 13:09:07.
