data_PCOD9178404
_publ_section_title
;
Structure prediction by ZEFSAII (Michael W. Deem and Ramdas Pophale) SiO2 
 PCOD9178404
Probable space group: C 2/M
;
_chemical_formula_sum "Si O2"
_cell_formula_units_Z 64
_cell_length_a 24.762082
_cell_length_b 9.299853
_cell_length_c 16.424252
_cell_angle_alpha 90.000000
_cell_angle_beta 88.802853
_cell_angle_gamma 90.000000
_cell_volume 3781.412323
_symmetry_space_group_name_H-M "C 2/M"
_symmetry_group_IT_number 12
_symmetry_cell_setting 'monoclinic'
loop_
_space_group_symop_operation_xyz
x,y,z
-x,y,-z
-x,-y,-z
x,-y,z
1/2+x,1/2+y,z
1/2-x,1/2+y,-z
1/2-x,1/2-y,-z
1/2+x,1/2-y,z
loop_
_atom_site_type_symbol
_atom_site_label
_atom_site_fract_x
_atom_site_fract_y
_atom_site_fract_z
Si Si1 0.917241 0.830700 0.053810
Si Si2 0.815621 0.830261 0.168081
Si Si3 0.112517 0.327919 0.699823
Si Si4 0.512908 0.170809 0.813921
Si Si5 0.169935 0.329332 0.539507
Si Si6 0.788157 0.170963 0.611354
Si Si7 0.207737 0.172748 0.199480
Si Si8 0.589826 0.328277 0.135863
O O1 0.856845 0.812673 0.091403
O O2 0.956525 0.737273 0.108630
O O3 0.931633 0.000000 0.062642
O O4 0.919067 0.793709 0.959030
O O5 0.845980 0.756072 0.243336
O O6 0.758436 0.753598 0.158840
O O7 0.808768 0.000000 0.182911
O O8 0.123158 0.500000 0.707659
O O9 0.052951 0.299784 0.736793
O O10 0.123835 0.289327 0.605871
O O11 0.455022 0.245364 0.811164
O O12 0.507673 0.000000 0.822824
O O13 0.167404 0.500000 0.524901
O O14 0.172899 0.248239 0.454069
O O15 0.226784 0.299108 0.584035
O O16 0.794656 0.213622 0.704893
O O17 0.796222 0.000000 0.605906
O O18 0.150755 0.206823 0.159823
O O19 0.216328 0.000000 0.194786
O O20 0.582782 0.500000 0.145824
#
# Coordination Sequence:
#
# PCOD9178404 Si02
#       8
#     8   8   8   8   8   8   8   8
#     4   9  19  35  52  73  99 127 162 205 249 291
#     4  10  19  30  48  74 101 127 160 203 245 284
#     4   9  17  32  51  72 100 131 159 195 245 296
#     4  10  20  33  53  77  99 124 162 210 250 283
#     4   9  16  28  48  72  98 125 156 193 238 288
#     4   9  17  29  46  70  99 126 157 196 234 284
#     4  10  20  35  51  68  98 138 168 193 238 298
#     4  10  21  36  53  69  94 135 172 200 240 293
#
# _framework density 16.924893000000001
#
# number of rings (size 3 to 8) (size 9 to 14) (size 15 to 20)
#    0.000    2.500    1.250    1.125    0.000    5.000 
#    0.000    0.000    0.000    0.750    0.000    5.250 
#    0.000    0.000    0.000    0.000    0.000    0.000 
#
# Total GULP energy -178457.397107 kJ/mol
# GULP energy per Si atom -5576.793660 kJ/mol
# Density = 1.688637 g / cm^3
# Si number density = 16.924893 Si / 1000 Ang^3
#
#
#
# Elastic Constant Matrix: (Units=GPa)
#
#
# Indices 1 2 3 4 5 6 
#
# 1 86.1775 36.7800 12.1597 0.0000 -23.5930 0.0000
# 2 36.7800 28.1443 17.6726 0.0000 -16.0001 0.0000
# 3 12.1597 17.6726 44.9582 0.0000 -22.0365 0.0000
# 4 0.0000 0.0000 0.0000 20.9972 0.0000 -5.9420
# 5 -23.5930 -16.0001 -22.0365 0.0000 20.5249 0.0000
# 6 0.0000 0.0000 0.0000 -5.9420 0.0000 29.1614
#
#
#
# Elastic Compliance Matrix: (Units=1/GPa)
#
#
# Indices 1 2 3 4 5 6 
#
# 1 0.034968 -0.041742 0.022592 0.000000 0.031910 0.000000
# 2 -0.041742 0.113686 -0.028450 0.000000 0.010096 0.000000
# 3 0.022592 -0.028450 0.061581 0.000000 0.069907 0.000000
# 4 0.000000 0.000000 0.000000 0.050540 0.000000 0.010298
# 5 0.031910 0.010096 0.069907 0.000000 0.168327 0.000000
# 6 0.000000 0.000000 0.000000 0.010298 0.000000 0.036390
#
#
# Mechanical properties :
#
#
# Convention : Reuss Voigt Hill
#
# Bulk Modulus (GPa) = 8.69308 32.50052 20.59680
# Shear Modulus (GPa) = 8.34672 20.31453 14.33062
#
# Velocity S-wave (km/s) = 2.22313 3.46826 2.91300
# Velocity P-wave (km/s) = 3.42596 5.93994 4.84872
#
# Compressibility (1/GPa) = 0.11503398
#
# Stress axis : x y z
#
# Youngs Moduli (GPa) = 28.59787 8.79617 16.23867
#
# Poissons Ratio (x) = 0.36717 -0.36686
# Poissons Ratio (y) = 1.19373 0.46199
# Poissons Ratio (z) = -0.64608 0.25025
#
# Static dielectric constant tensor:
#      x y z
#    x 1.568380 0.000000 -0.025040 
#    y 0.000000 1.564050 0.000000 
#    z -0.025040 0.000000 1.568430 
# 
# From -- ./inp_files/287557.got.cif
#   From: 2010.05.17/outbox.cif.g08.bks.cpg/sg12_144_cif.got.tgz:287557.got - 2010.06.03 13:09:07.
