data_PCOD9178115
_publ_section_title
;
Structure prediction by ZEFSAII (Michael W. Deem and Ramdas Pophale) SiO2 
 PCOD9178115
Probable space group: C 2/M
;
_chemical_formula_sum "Si O2"
_cell_formula_units_Z 64
_cell_length_a 31.056043
_cell_length_b 8.550721
_cell_length_c 15.536845
_cell_angle_alpha 90.000000
_cell_angle_beta 100.389955
_cell_angle_gamma 90.000000
_cell_volume 4058.182551
_symmetry_space_group_name_H-M "C 2/M"
_symmetry_group_IT_number 12
_symmetry_cell_setting 'monoclinic'
loop_
_space_group_symop_operation_xyz
x,y,z
-x,y,-z
-x,-y,-z
x,-y,z
1/2+x,1/2+y,z
1/2-x,1/2+y,-z
1/2-x,1/2-y,-z
1/2+x,1/2-y,z
loop_
_atom_site_type_symbol
_atom_site_label
_atom_site_fract_x
_atom_site_fract_y
_atom_site_fract_z
Si Si1 0.564073 0.809940 0.578816
Si Si2 0.059024 0.310876 0.880743
Si Si3 0.708760 0.810795 0.876674
Si Si4 0.532017 0.810947 0.385297
Si Si5 0.806438 0.812681 0.937234
Si Si6 0.375502 0.809340 0.250053
Si Si7 0.462943 0.685544 0.801599
Si Si8 0.898579 0.687226 0.922441
O O1 0.560502 0.759979 0.478316
O O2 0.518282 0.769061 0.609148
O O3 0.603989 0.755017 0.652430
O O4 0.565068 0.000000 0.577409
O O5 0.056992 0.500000 0.879334
O O6 0.091515 0.263650 0.815164
O O7 0.010579 0.248084 0.847321
O O8 0.078683 0.260719 0.979572
O O9 0.759246 0.764428 0.881355
O O10 0.673240 0.759195 0.793536
O O11 0.707418 0.000000 0.880851
O O12 0.694189 0.747511 0.964554
O O13 0.544740 0.740183 0.298977
O O14 0.533660 0.000000 0.379663
O O15 0.848775 0.745480 0.905734
O O16 0.808626 0.000000 0.938222
O O17 0.375447 0.000000 0.251886
O O18 0.463032 0.500000 0.805927
O O19 0.426617 0.751448 0.853056
O O20 0.898910 0.500000 0.922183
#
# Coordination Sequence:
#
# PCOD9178115 Si02
#       8
#     8   8   8   8   8   8   8   8
#     4   8  14  25  49  74  92 117 158 203 231 266
#     4  10  19  33  51  68  92 128 168 198 224 271
#     4   9  17  30  48  70  97 130 162 192 234 286
#     4   9  16  30  49  70  92 122 161 197 233 274
#     4  10  19  30  46  70  99 126 158 201 241 277
#     4   9  14  26  49  74  95 123 162 196 226 273
#     4  12  24  34  46  68  98 129 160 198 241 280
#     4  11  22  36  52  67  89 128 171 202 234 279
#
# _framework density 15.770605
#
# number of rings (size 3 to 8) (size 9 to 14) (size 15 to 20)
#    0.000    2.250    2.500    3.000    0.000    3.000 
#    0.000    1.250    0.000    0.000    0.000    0.875 
#    0.000    0.000    0.000    0.000    0.000    0.000 
#
# Total GULP energy -178451.539896 kJ/mol
# GULP energy per Si atom -5576.610622 kJ/mol
# Density = 1.573471 g / cm^3
# Si number density = 15.770605 Si / 1000 Ang^3
#
#
#
# Elastic Constant Matrix: (Units=GPa)
#
#
# Indices 1 2 3 4 5 6 
#
# 1 121.2616 23.5679 82.1486 0.0000 14.9608 0.0000
# 2 23.5679 18.5002 20.8875 0.0000 2.1463 0.0000
# 3 82.1486 20.8875 121.7041 0.0000 19.0815 0.0000
# 4 0.0000 0.0000 0.0000 6.8721 0.0000 -0.4594
# 5 14.9608 2.1463 19.0815 0.0000 25.1563 0.0000
# 6 0.0000 0.0000 0.0000 -0.4594 0.0000 21.4394
#
#
#
# Elastic Compliance Matrix: (Units=1/GPa)
#
#
# Indices 1 2 3 4 5 6 
#
# 1 0.016822 -0.010841 -0.009160 0.000000 -0.002131 0.000000
# 2 -0.010841 0.074291 -0.006185 0.000000 0.004801 0.000000
# 3 -0.009160 -0.006185 0.016485 0.000000 -0.006529 0.000000
# 4 0.000000 0.000000 0.000000 0.145724 0.000000 0.003122
# 5 -0.002131 0.004801 -0.006529 0.000000 0.045562 0.000000
# 6 0.000000 0.000000 0.000000 0.003122 0.000000 0.046710
#
#
# Mechanical properties :
#
#
# Convention : Reuss Voigt Hill
#
# Bulk Modulus (GPa) = 18.10777 57.18600 37.64688
# Shear Modulus (GPa) = 12.00847 19.68435 15.84641
#
# Velocity S-wave (km/s) = 2.76243 3.53677 3.17331
# Velocity P-wave (km/s) = 4.65635 7.28136 6.11146
#
# Compressibility (1/GPa) = 0.05522492
#
# Stress axis : x y z
#
# Youngs Moduli (GPa) = 59.44644 13.46067 60.66280
#
# Poissons Ratio (x) = 0.14592 0.55566
# Poissons Ratio (y) = 0.64445 0.37523
# Poissons Ratio (z) = 0.54452 0.08326
#
# Static dielectric constant tensor:
#      x y z
#    x 1.518100 0.000000 0.028160 
#    y 0.000000 1.533900 0.000000 
#    z 0.028160 0.000000 1.529350 
# 
# From -- ./inp_files/248329.got.cif
#   From: 2010.05.17/outbox.cif.g08.bks.cpg/sg12_125_cif.got.tgz:248329.got - 2010.06.03 13:09:07.
