data_PCOD9178075
_publ_section_title
;
Structure prediction by ZEFSAII (Michael W. Deem and Ramdas Pophale) SiO2 
 PCOD9178075
Probable space group: C 2/M
;
_chemical_formula_sum "Si O2"
_cell_formula_units_Z 64
_cell_length_a 13.794244
_cell_length_b 9.031216
_cell_length_c 22.895628
_cell_angle_alpha 90.000000
_cell_angle_beta 72.040417
_cell_angle_gamma 90.000000
_cell_volume 2713.328899
_symmetry_space_group_name_H-M "C 2/M"
_symmetry_group_IT_number 12
_symmetry_cell_setting 'monoclinic'
loop_
_space_group_symop_operation_xyz
x,y,z
-x,y,-z
-x,-y,-z
x,-y,z
1/2+x,1/2+y,z
1/2-x,1/2+y,-z
1/2-x,1/2-y,-z
1/2+x,1/2-y,z
loop_
_atom_site_type_symbol
_atom_site_label
_atom_site_fract_x
_atom_site_fract_y
_atom_site_fract_z
Si Si1 0.597969 0.168592 0.705503
Si Si2 0.192635 0.670312 0.922163
Si Si3 0.592807 0.668905 0.045533
Si Si4 0.144004 0.676337 0.445925
Si Si5 0.796727 0.666229 0.802048
Si Si6 0.004041 0.666223 0.835679
Si Si7 0.366350 0.180940 0.423583
Si Si8 0.341744 0.668086 0.675133
O O1 0.564654 0.244932 0.771622
O O2 0.571328 0.226625 0.646081
O O3 0.719772 0.160093 0.684905
O O4 0.556147 0.000000 0.715505
O O5 0.160922 0.500000 0.925569
O O6 0.300994 0.671826 0.937208
O O7 0.215586 0.736836 0.853643
O O8 0.119116 0.762142 0.978206
O O9 0.561630 0.500000 0.046050
O O10 0.512589 0.756146 0.100020
O O11 0.139377 0.500000 0.436969
O O12 0.260407 0.730271 0.436655
O O13 0.092879 0.707432 0.518666
O O14 0.114493 0.757622 0.391656
O O15 0.758965 0.500000 0.796791
O O16 0.891711 0.654613 0.828358
O O17 0.841514 0.740137 0.735206
O O18 0.044647 0.500000 0.836386
O O19 0.350294 0.000000 0.422679
O O20 0.378772 0.500000 0.676389
#
# Coordination Sequence:
#
# PCOD9178075 Si02
#       8
#     8   8   8   8   8   8   8   8
#     4   8  15  29  48  68  89 117 152 185 219 264
#     4   9  16  27  44  65  89 118 151 184 220 262
#     4   9  16  26  42  66  93 117 146 185 224 261
#     4   9  15  24  41  65  90 114 146 188 228 264
#     4  10  19  30  46  69  94 118 147 185 227 267
#     4   9  17  30  48  68  91 119 150 184 222 266
#     4   8  14  25  42  64  89 116 147 185 226 266
#     4  10  19  31  47  66  91 122 153 185 223 268
#
# _framework density 23.587263
#
# number of rings (size 3 to 8) (size 9 to 14) (size 15 to 20)
#    0.000    3.000    0.000    2.625    0.000    4.000 
#    0.000    3.125    0.000    1.500    0.000   10.500 
#    0.000    0.000    0.000    0.000    0.000    0.000 
#
# Total GULP energy -178658.272264 kJ/mol
# GULP energy per Si atom -5583.071008 kJ/mol
# Density = 2.353358 g / cm^3
# Si number density = 23.587263 Si / 1000 Ang^3
#
#
#
# Elastic Constant Matrix: (Units=GPa)
#
#
# Indices 1 2 3 4 5 6 
#
# 1 50.4065 -2.3996 20.9565 0.0000 17.1518 0.0000
# 2 -2.3996 128.5455 100.7785 0.0000 7.8888 0.0000
# 3 20.9565 100.7785 258.4135 0.0000 9.5980 0.0000
# 4 0.0000 0.0000 0.0000 36.9561 0.0000 3.2874
# 5 17.1518 7.8888 9.5980 0.0000 50.3602 0.0000
# 6 0.0000 0.0000 0.0000 3.2874 0.0000 2.5627
#
#
#
# Elastic Compliance Matrix: (Units=1/GPa)
#
#
# Indices 1 2 3 4 5 6 
#
# 1 0.023955 0.003215 -0.002895 0.000000 -0.008111 0.000000
# 2 0.003215 0.011680 -0.004741 0.000000 -0.002021 0.000000
# 3 -0.002895 -0.004741 0.005931 0.000000 0.000598 0.000000
# 4 0.000000 0.000000 0.000000 0.030545 0.000000 -0.039183
# 5 -0.008111 -0.002021 0.000598 0.000000 0.022822 0.000000
# 6 0.000000 0.000000 0.000000 -0.039183 0.000000 0.440477
#
#
# Mechanical properties :
#
#
# Convention : Reuss Voigt Hill
#
# Bulk Modulus (GPa) = 30.55863 75.11516 52.83690
# Shear Modulus (GPa) = 9.00641 39.17781 24.09211
#
# Velocity S-wave (km/s) = 1.95618 4.07993 3.19941
# Velocity P-wave (km/s) = 4.25275 7.35589 6.00812
#
# Compressibility (1/GPa) = 0.03272398
#
# Stress axis : x y z
#
# Youngs Moduli (GPa) = 41.74469 85.61590 168.60088
#
# Poissons Ratio (x) = -0.27523 0.48812
# Poissons Ratio (y) = -0.13419 0.79929
# Poissons Ratio (z) = 0.12086 0.40588
#
# Static dielectric constant tensor:
#      x y z
#    x 1.998280 0.000000 0.010160 
#    y 0.000000 1.822210 0.000000 
#    z 0.010160 0.000000 1.929680 
# 
# From -- ./inp_files/345519.got.cif
#   From: 2010.05.17/outbox.cif.g08.bks.cpg/sg12_173_cif.got.tgz:345519.got - 2010.06.03 13:09:07.
