data_PCOD9178002
_publ_section_title
;
Structure prediction by ZEFSAII (Michael W. Deem and Ramdas Pophale) SiO2 
 PCOD9178002
Probable space group: C 2/M
;
_chemical_formula_sum "Si O2"
_cell_formula_units_Z 56
_cell_length_a 21.733349
_cell_length_b 7.905244
_cell_length_c 19.671626
_cell_angle_alpha 90.000000
_cell_angle_beta 39.659257
_cell_angle_gamma 90.000000
_cell_volume 2157.014015
_symmetry_space_group_name_H-M "C 2/M"
_symmetry_group_IT_number 12
_symmetry_cell_setting 'monoclinic'
loop_
_space_group_symop_operation_xyz
x,y,z
-x,y,-z
-x,-y,-z
x,-y,z
1/2+x,1/2+y,z
1/2-x,1/2+y,-z
1/2-x,1/2-y,-z
1/2+x,1/2-y,z
loop_
_atom_site_type_symbol
_atom_site_label
_atom_site_fract_x
_atom_site_fract_y
_atom_site_fract_z
Si Si1 0.839180 0.200288 0.376574
Si Si2 0.065277 0.812773 0.878138
Si Si3 0.762553 0.308763 0.186836
Si Si4 0.377908 0.798885 0.961416
Si Si5 0.003060 0.793956 0.575250
Si Si6 0.291711 0.296879 0.629316
Si Si7 0.448174 0.295508 0.764518
O O1 0.750000 0.250000 0.500000
O O2 0.803581 0.248419 0.331305
O O3 0.944688 0.268866 0.305641
O O4 0.848000 0.000000 0.374032
O O5 0.143138 0.685554 0.843738
O O6 0.984931 0.763714 0.891412
O O7 0.106706 0.000000 0.828832
O O8 0.000000 0.832967 0.000000
O O9 0.728853 0.500000 0.200804
O O10 0.697026 0.230028 0.302604
O O11 0.800831 0.231833 0.083309
O O12 0.371677 0.757370 0.886908
O O13 0.375673 0.000000 0.971803
O O14 0.115320 0.750332 0.494886
O O15 0.937571 0.739450 0.694891
O O16 0.000000 0.735844 0.500000
O O17 0.994521 0.000000 0.580532
O O18 0.294975 0.500000 0.631841
O O19 0.448280 0.500000 0.765261
#
# Coordination Sequence:
#
# PCOD9178002 Si02
#       7
#     8   8   8   8   8   8   8
#     4  11  21  33  50  76 109 140 170 208 255 307
#     4   9  16  26  41  63  95 134 171 205 240 283
#     4   9  18  30  46  69 100 134 170 206 246 300
#     4  10  19  30  45  69 100 137 171 202 246 300
#     4   9  18  35  58  79  98 125 169 221 264 304
#     4  10  19  34  54  78 105 135 170 213 257 303
#     4  10  20  34  52  77 104 133 171 211 252 302
#
# _framework density 25.961815000000001
#
# number of rings (size 3 to 8) (size 9 to 14) (size 15 to 20)
#    0.000    2.286    1.429    2.143    0.000    6.286 
#    0.000    0.000    0.000    2.571    0.000    0.000 
#    0.000    0.000    0.000    0.000    0.000    0.429 
#
# Total GULP energy -156157.367331 kJ/mol
# GULP energy per Si atom -5577.048833 kJ/mol
# Density = 2.590272 g / cm^3
# Si number density = 25.961815 Si / 1000 Ang^3
#
#
#
# Elastic Constant Matrix: (Units=GPa)
#
#
# Indices 1 2 3 4 5 6 
#
# 1 90.4656 5.0319 41.1113 -0.0012 28.3859 0.0018
# 2 5.0319 41.7230 6.9661 -0.0012 1.3502 0.0022
# 3 41.1113 6.9661 217.9244 -0.0001 39.7946 0.0002
# 4 -0.0012 -0.0012 -0.0001 22.8969 0.0005 10.2284
# 5 28.3859 1.3502 39.7946 0.0005 50.2150 -0.0007
# 6 0.0018 0.0022 0.0002 10.2284 -0.0007 3.4998
#
#
#
# Elastic Compliance Matrix: (Units=1/GPa)
#
#
# Indices 1 2 3 4 5 6 
#
# 1 0.013844 -0.001228 -0.001344 -0.000014 -0.006728 0.000033
# 2 -0.001228 0.024205 -0.000643 -0.000025 0.000553 0.000058
# 3 -0.001344 -0.000643 0.005520 0.000000 -0.003597 0.000000
# 4 -0.000014 -0.000025 0.000000 -0.142932 0.000016 0.417729
# 5 -0.006728 0.000553 -0.003597 0.000016 0.026553 -0.000037
# 6 0.000033 0.000058 0.000000 0.417729 -0.000037 -0.935114
#
#
# Mechanical properties :
#
#
# Convention : Reuss Voigt Hill
#
# Bulk Modulus (GPa) = 26.92528 50.70352 38.81440
# Shear Modulus (GPa) = -5.05503 35.12259 15.03378
#
# Velocity S-wave (km/s) = -1.39690 3.68211 2.40900
# Velocity P-wave (km/s) = 2.79139 6.13593 4.76663
#
# Compressibility (1/GPa) = 0.03713981
#
# Stress axis : x y z
#
# Youngs Moduli (GPa) = 72.23378 41.31356 181.16855
#
# Poissons Ratio (x) = 0.05071 0.24347
# Poissons Ratio (y) = 0.08867 0.11651
# Poissons Ratio (z) = 0.09707 0.02657
#
# Static dielectric constant tensor:
#      x y z
#    x 2.202730 0.000000 -0.079790 
#    y 0.000000 2.069200 0.000000 
#    z -0.079790 0.000000 2.229610 
# 
# From -- ./inp_files/288216.got.cif
#   From: 2010.05.17/outbox.cif.g08.bks.cpg/sg12_145_cif.got.tgz:288216.got - 2010.06.03 13:09:07.
