data_PCOD9178519
_publ_section_title
;
Structure prediction by ZEFSAII (Michael W. Deem and Ramdas Pophale) SiO2 
 PCOD9178519
Probable space group: C 2/M
;
_chemical_formula_sum "Si O2"
_cell_formula_units_Z 42
_cell_length_a 18.822602
_cell_length_b 7.799833
_cell_length_c 14.707240
_cell_angle_alpha 90.000000
_cell_angle_beta 133.423765
_cell_angle_gamma 90.000000
_cell_volume 1568.216361
_symmetry_space_group_name_H-M "C 2/M"
_symmetry_group_IT_number 12
_symmetry_cell_setting 'monoclinic'
loop_
_space_group_symop_operation_xyz
x,y,z
-x,y,-z
-x,-y,-z
x,-y,z
1/2+x,1/2+y,z
1/2-x,1/2+y,-z
1/2-x,1/2-y,-z
1/2+x,1/2-y,z
loop_
_atom_site_type_symbol
_atom_site_label
_atom_site_fract_x
_atom_site_fract_y
_atom_site_fract_z
Si Si1 0.838010 0.696163 0.161499
Si Si2 0.790148 0.203867 0.312315
Si Si3 0.500000 0.500000 0.000000
Si Si4 0.586147 0.798077 0.963067
Si Si5 0.868266 0.301197 0.685529
Si Si6 0.045792 0.802704 0.417865
O O1 0.812351 0.500000 0.130855
O O2 0.778829 0.771991 0.194659
O O3 0.848286 0.759660 0.066493
O O4 0.949741 0.708825 0.298229
O O5 0.706983 0.271201 0.306732
O O6 0.894342 0.266401 0.443389
O O7 0.791596 0.000000 0.327445
O O8 0.574895 0.651954 0.027848
O O9 0.475460 0.797857 0.824607
O O10 0.604129 0.000000 0.004939
O O11 0.845901 0.500000 0.645415
O O12 0.877727 0.203574 0.598939
O O13 0.015689 0.000000 0.406744
#
# Coordination Sequence:
#
# PCOD9178519 Si02
#       6
#     8   8   2   8   8   8
#     4  10  21  35  51  76 112 148 182 230 273 317
#     4  10  20  32  50  78 110 155 188 221 267 319
#     4  12  22  36  72  90  98 140 176 230 300 346
#     4   9  21  39  59  89 112 134 181 234 279 342
#     4   9  19  35  52  76 113 148 179 230 274 315
#     4  10  19  30  49  76 111 148 198 232 252 307
#
# _framework density 26.782018000000001
#
# number of rings (size 3 to 8) (size 9 to 14) (size 15 to 20)
#    0.000    2.286    0.000    3.714    6.667    4.571 
#    0.000    0.000    0.000    1.143    0.000    0.000 
#    0.000    0.000    0.000    0.000    0.000    0.000 
#
# Total GULP energy -117267.101627 kJ/mol
# GULP energy per Si atom -5584.147697 kJ/mol
# Density = 2.672106 g / cm^3
# Si number density = 26.782018 Si / 1000 Ang^3
#
#
#
# Elastic Constant Matrix: (Units=GPa)
#
#
# Indices 1 2 3 4 5 6 
#
# 1 178.6155 42.4044 13.7318 0.0000 -28.9967 0.0000
# 2 42.4044 107.6893 38.2767 0.0000 -9.2402 0.0000
# 3 13.7318 38.2767 115.2423 0.0000 -23.4361 0.0000
# 4 0.0000 0.0000 0.0000 21.6741 0.0000 -5.0455
# 5 -28.9967 -9.2402 -23.4361 0.0000 46.9729 0.0000
# 6 0.0000 0.0000 0.0000 -5.0455 0.0000 44.0562
#
#
#
# Elastic Compliance Matrix: (Units=1/GPa)
#
#
# Indices 1 2 3 4 5 6 
#
# 1 0.006834 -0.002659 0.000913 0.000000 0.004151 0.000000
# 2 -0.002659 0.011569 -0.003780 0.000000 -0.001252 0.000000
# 3 0.000913 -0.003780 0.010893 0.000000 0.005255 0.000000
# 4 0.000000 0.000000 0.000000 0.047402 0.000000 0.005429
# 5 0.004151 -0.001252 0.005255 0.000000 0.026227 0.000000
# 6 0.000000 0.000000 0.000000 0.005429 0.000000 0.023320
#
#
# Mechanical properties :
#
#
# Convention : Reuss Voigt Hill
#
# Bulk Modulus (GPa) = 54.81619 65.59698 60.20659
# Shear Modulus (GPa) = 34.87282 43.01625 38.94454
#
# Velocity S-wave (km/s) = 3.61237 4.01204 3.81744
# Velocity P-wave (km/s) = 6.15719 6.78293 6.47762
#
# Compressibility (1/GPa) = 0.01824278
#
# Stress axis : x y z
#
# Youngs Moduli (GPa) = 146.33583 86.43528 91.80378
#
# Poissons Ratio (x) = 0.22985 -0.08383
# Poissons Ratio (y) = 0.38914 0.34705
# Poissons Ratio (z) = -0.13362 0.32676
#
# Static dielectric constant tensor:
#      x y z
#    x 2.239370 0.000000 0.057460 
#    y 0.000000 1.940290 0.000000 
#    z 0.057460 0.000000 2.160790 
# 
# From -- ./inp_files/220786.got.cif
#   From: 2010.05.17/outbox.cif.g08.bks.cpg/sg12_111_cif.got.tgz:220786.got - 2010.06.03 13:09:07.
