data_PCOD9178043
_publ_section_title
;
Structure prediction by ZEFSAII (Michael W. Deem and Ramdas Pophale) SiO2 
 PCOD9178043
Probable space group: C 2/M
;
_chemical_formula_sum "Si O2"
_cell_formula_units_Z 64
_cell_length_a 30.593100
_cell_length_b 7.295683
_cell_length_c 12.344064
_cell_angle_alpha 90.000000
_cell_angle_beta 93.744799
_cell_angle_gamma 90.000000
_cell_volume 2749.282286
_symmetry_space_group_name_H-M "C 2/M"
_symmetry_group_IT_number 12
_symmetry_cell_setting 'monoclinic'
loop_
_space_group_symop_operation_xyz
x,y,z
-x,y,-z
-x,-y,-z
x,-y,z
1/2+x,1/2+y,z
1/2-x,1/2+y,-z
1/2-x,1/2-y,-z
1/2+x,1/2-y,z
loop_
_atom_site_type_symbol
_atom_site_label
_atom_site_fract_x
_atom_site_fract_y
_atom_site_fract_z
Si Si1 0.593338 0.722949 0.263414
Si Si2 0.246692 0.221355 0.285280
Si Si3 0.425495 0.723859 0.212272
Si Si4 0.107816 0.776220 0.019828
Si Si5 0.825515 0.223741 0.574430
Si Si6 0.794321 0.217839 0.940920
Si Si7 0.006341 0.776636 0.376168
Si Si8 0.155669 0.210996 0.660881
O O1 0.593001 0.500000 0.261231
O O2 0.593413 0.781682 0.137961
O O3 0.637420 0.775907 0.333328
O O4 0.551769 0.780623 0.327996
O O5 0.221851 0.282445 0.389483
O O6 0.216773 0.283757 0.181051
O O7 0.296174 0.285085 0.280144
O O8 0.248212 0.000000 0.284601
O O9 0.426116 0.500000 0.209953
O O10 0.466905 0.780144 0.290611
O O11 0.381704 0.786096 0.267928
O O12 0.421598 0.782381 0.086640
O O13 0.158539 0.716397 0.010299
O O14 0.107038 0.000000 0.019725
O O15 0.838214 0.291355 0.457746
O O16 0.824539 0.000000 0.570933
O O17 0.799486 0.000000 0.935016
O O18 0.750000 0.250000 0.000000
O O19 0.000000 0.717612 0.500000
O O20 0.006398 0.000000 0.378772
O O21 0.142589 0.000000 0.641274
#
# Coordination Sequence:
#
# PCOD9178043 Si02
#       8
#     8   8   8   8   8   8   8   8
#     4   9  15  25  42  60  84 121 156 186 229 283
#     4  10  19  31  46  66  92 121 158 197 232 276
#     4   9  17  27  39  60  89 117 147 188 233 273
#     4   9  16  27  41  58  84 118 154 187 227 281
#     4   9  16  28  44  63  88 120 156 190 230 279
#     4  10  19  31  47  66  91 125 162 197 232 275
#     4   9  16  25  38  59  87 117 150 188 231 280
#     4  10  19  30  46  67  94 125 155 192 236 278
#
# _framework density 23.278804000000001
#
# number of rings (size 3 to 8) (size 9 to 14) (size 15 to 20)
#    0.000    2.625    1.250    1.875    0.000    5.000 
#    0.000    2.500    0.000    0.000    0.000    0.000 
#    0.000    6.500    0.000    5.250    0.000    5.000 
#
# Total GULP energy -178774.357421 kJ/mol
# GULP energy per Si atom -5586.698669 kJ/mol
# Density = 2.322582 g / cm^3
# Si number density = 23.278804 Si / 1000 Ang^3
#
#
#
# Elastic Constant Matrix: (Units=GPa)
#
#
# Indices 1 2 3 4 5 6 
#
# 1 109.5283 -10.9068 16.0674 0.0000 -1.0319 0.0000
# 2 -10.9068 93.6294 -2.3025 0.0000 -2.5416 0.0000
# 3 16.0674 -2.3025 71.9444 0.0000 11.9588 0.0000
# 4 0.0000 0.0000 0.0000 -9.6618 0.0000 0.2044
# 5 -1.0319 -2.5416 11.9588 0.0000 40.0482 0.0000
# 6 0.0000 0.0000 0.0000 0.2044 0.0000 0.4785
#
#
#
# Elastic Compliance Matrix: (Units=1/GPa)
#
#
# Indices 1 2 3 4 5 6 
#
# 1 0.009581 0.001087 -0.002270 0.000000 0.000994 0.000000
# 2 0.001087 0.010826 -0.000016 0.000000 0.000720 0.000000
# 3 -0.002270 -0.000016 0.015169 0.000000 -0.004589 0.000000
# 4 0.000000 0.000000 0.000000 -0.102574 0.000000 0.043812
# 5 0.000994 0.000720 -0.004589 0.000000 0.026412 0.000000
# 6 0.000000 0.000000 0.000000 0.043812 0.000000 2.071358
#
#
# Mechanical properties :
#
#
# Convention : Reuss Voigt Hill
#
# Bulk Modulus (GPa) = 30.14035 31.20204 30.67120
# Shear Modulus (GPa) = 2.44591 24.32258 13.38424
#
# Velocity S-wave (km/s) = 1.02615 3.23590 2.40042
# Velocity P-wave (km/s) = 3.79205 5.23394 4.57022
#
# Compressibility (1/GPa) = 0.03317811
#
# Stress axis : x y z
#
# Youngs Moduli (GPa) = 104.37658 92.36853 65.92438
#
# Poissons Ratio (x) = -0.10042 0.14965
# Poissons Ratio (y) = -0.11348 0.00105
# Poissons Ratio (z) = 0.23694 0.00148
#
# Static dielectric constant tensor:
#      x y z
#    x 1.800900 0.000000 -0.004690 
#    y 0.000000 1.545700 0.000000 
#    z -0.004690 0.000000 1.858780 
# 
# From -- ./inp_files/182128.got.cif
#   From: 2010.05.17/outbox.cif.g08.bks.cpg/sg12_92_cif.got.tgz:182128.got - 2010.06.03 13:09:07.
