data_PCOD9178861
_publ_section_title
;
Structure prediction by ZEFSAII (Michael W. Deem and Ramdas Pophale) SiO2 
 PCOD9178861
Probable space group: C 2/M
;
_chemical_formula_sum "Si O2"
_cell_formula_units_Z 56
_cell_length_a 19.084220
_cell_length_b 9.934867
_cell_length_c 13.357957
_cell_angle_alpha 90.000000
_cell_angle_beta 110.805280
_cell_angle_gamma 90.000000
_cell_volume 2367.510646
_symmetry_space_group_name_H-M "C 2/M"
_symmetry_group_IT_number 12
_symmetry_cell_setting 'monoclinic'
loop_
_space_group_symop_operation_xyz
x,y,z
-x,y,-z
-x,-y,-z
x,-y,z
1/2+x,1/2+y,z
1/2-x,1/2+y,-z
1/2-x,1/2-y,-z
1/2+x,1/2-y,z
loop_
_atom_site_type_symbol
_atom_site_label
_atom_site_fract_x
_atom_site_fract_y
_atom_site_fract_z
Si Si1 0.991158 0.349879 0.617153
Si Si2 0.785238 0.639244 0.791700
Si Si3 0.397395 0.350491 0.843072
Si Si4 0.816619 0.645329 0.032404
Si Si5 0.566169 0.652952 0.898940
Si Si6 0.177873 0.336264 0.502723
Si Si7 0.377858 0.656993 0.337570
O O1 0.013358 0.500000 0.666280
O O2 0.902997 0.328466 0.596330
O O3 0.000000 0.358065 0.500000
O O4 0.047165 0.225588 0.667267
O O5 0.794133 0.500000 0.736852
O O6 0.828670 0.763203 0.769739
O O7 0.826665 0.626229 0.918828
O O8 0.697375 0.653024 0.767933
O O9 0.383000 0.500000 0.800922
O O10 0.479358 0.310667 0.847901
O O11 0.409374 0.357042 0.970533
O O12 0.798754 0.500000 0.068777
O O13 0.750000 0.750000 0.000000
O O14 0.886966 0.719984 0.113134
O O15 0.579112 0.500000 0.865120
O O16 0.192340 0.500000 0.522239
O O17 0.250000 0.250000 0.500000
O O18 0.153576 0.255018 0.591069
O O19 0.392185 0.500000 0.374586
#
# Coordination Sequence:
#
# PCOD9178861 Si02
#       7
#     8   8   8   8   8   8   8
#     4   8  16  31  50  75 104 133 167 207 247 293
#     4   9  19  32  47  70  99 128 159 202 248 291
#     4   8  14  25  44  67  89 115 151 191 236 287
#     4  10  19  31  47  67  92 124 164 206 250 295
#     4   8  14  26  43  65  89 113 147 195 241 285
#     4  10  20  34  54  80 108 136 169 208 252 298
#     4  10  19  32  52  77 105 137 172 209 251 300
#
# _framework density 23.653535999999999
#
# number of rings (size 3 to 8) (size 9 to 14) (size 15 to 20)
#    0.000    3.000    0.000    3.000    0.000    5.429 
#    0.000    2.857    3.143    0.000    0.000    0.000 
#    0.000    0.000    0.000    0.000    0.000    0.000 
#
# Total GULP energy -155893.759289 kJ/mol
# GULP energy per Si atom -5567.634260 kJ/mol
# Density = 2.359970 g / cm^3
# Si number density = 23.653536 Si / 1000 Ang^3
#
#
#
# Elastic Constant Matrix: (Units=GPa)
#
#
# Indices 1 2 3 4 5 6 
#
# 1 123.3227 96.7071 12.8287 0.0000 32.2095 0.0000
# 2 96.7071 191.8989 29.1796 0.0000 54.1934 0.0000
# 3 12.8287 29.1796 46.8609 0.0000 13.4558 0.0000
# 4 0.0000 0.0000 0.0000 9.3371 0.0000 17.3093
# 5 32.2095 54.1934 13.4558 0.0000 43.0939 0.0000
# 6 0.0000 0.0000 0.0000 17.3093 0.0000 38.3390
#
#
#
# Elastic Compliance Matrix: (Units=1/GPa)
#
#
# Indices 1 2 3 4 5 6 
#
# 1 0.013599 -0.006267 0.000917 0.000000 -0.002569 0.000000
# 2 -0.006267 0.011206 -0.002813 0.000000 -0.008530 0.000000
# 3 0.000917 -0.002813 0.024190 0.000000 -0.004702 0.000000
# 4 0.000000 0.000000 0.000000 0.656902 0.000000 -0.296579
# 5 -0.002569 -0.008530 -0.004702 0.000000 0.037320 0.000000
# 6 0.000000 0.000000 0.000000 -0.296579 0.000000 0.159983
#
#
# Mechanical properties :
#
#
# Convention : Reuss Voigt Hill
#
# Bulk Modulus (GPa) = 30.60917 71.05702 50.83309
# Shear Modulus (GPa) = 5.37395 33.04515 19.20955
#
# Velocity S-wave (km/s) = 1.50893 3.74177 2.85287
# Velocity P-wave (km/s) = 4.00057 6.98382 5.69115
#
# Compressibility (1/GPa) = 0.03266995
#
# Stress axis : x y z
#
# Youngs Moduli (GPa) = 73.53519 89.23899 41.33916
#
# Poissons Ratio (x) = 0.55926 -0.03792
# Poissons Ratio (y) = 0.46085 0.11628
# Poissons Ratio (z) = -0.06746 0.25101
#
# Static dielectric constant tensor:
#      x y z
#    x 2.305460 0.000000 0.009250 
#    y 0.000000 1.970850 0.000000 
#    z 0.009250 0.000000 2.002840 
# 
# From -- ./inp_files/319355.got.cif
#   From: 2010.05.17/outbox.cif.g08.bks.cpg/sg12_160_cif.got.tgz:319355.got - 2010.06.03 13:09:07.
