data_PCOD9178996
_publ_section_title
;
Structure prediction by ZEFSAII (Michael W. Deem and Ramdas Pophale) SiO2 
 PCOD9178996
Probable space group: C 2/M
;
_chemical_formula_sum "Si O2"
_cell_formula_units_Z 64
_cell_length_a 28.989227
_cell_length_b 9.059704
_cell_length_c 15.949122
_cell_angle_alpha 90.000000
_cell_angle_beta 91.319151
_cell_angle_gamma 90.000000
_cell_volume 4187.668619
_symmetry_space_group_name_H-M "C 2/M"
_symmetry_group_IT_number 12
_symmetry_cell_setting 'monoclinic'
loop_
_space_group_symop_operation_xyz
x,y,z
-x,y,-z
-x,-y,-z
x,-y,z
1/2+x,1/2+y,z
1/2-x,1/2+y,-z
1/2-x,1/2-y,-z
1/2+x,1/2-y,z
loop_
_atom_site_type_symbol
_atom_site_label
_atom_site_fract_x
_atom_site_fract_y
_atom_site_fract_z
Si Si1 0.941841 0.822817 0.165079
Si Si2 0.945084 0.675392 0.494721
Si Si3 0.104873 0.176840 0.664306
Si Si4 0.800070 0.824866 0.414814
Si Si5 0.395245 0.677142 0.651700
Si Si6 0.556021 0.170346 0.006712
Si Si7 0.049852 0.823126 0.177998
Si Si8 0.695294 0.824733 0.404698
O O1 0.911852 0.778603 0.244195
O O2 0.927361 0.749449 0.077094
O O3 0.995601 0.784037 0.184717
O O4 0.939541 0.000000 0.155877
O O5 0.936425 0.500000 0.497996
O O6 0.924107 0.742118 0.408856
O O7 0.920949 0.753646 0.572582
O O8 0.000000 0.700291 0.500000
O O9 0.158727 0.204580 0.647827
O O10 0.097049 0.000000 0.656036
O O11 0.748299 0.794362 0.381203
O O12 0.808364 0.732086 0.499516
O O13 0.801802 0.000000 0.436818
O O14 0.394922 0.500000 0.643836
O O15 0.422328 0.718015 0.737567
O O16 0.343477 0.739755 0.648661
O O17 0.569712 0.000000 0.008296
O O18 0.500000 0.177761 0.000000
O O19 0.568539 0.248963 0.094167
O O20 0.052161 0.000000 0.168581
O O21 0.687304 0.000000 0.401006
#
# Coordination Sequence:
#
# PCOD9178996 Si02
#       8
#     8   8   8   8   8   8   8   8
#     4   9  17  30  48  69  93 122 156 192 230 274
#     4  11  23  34  44  64  96 130 161 194 233 276
#     4  10  19  32  50  70  92 124 163 196 230 277
#     4   9  18  32  49  69  92 122 159 199 239 283
#     4  11  21  33  49  69  93 125 164 198 234 281
#     4   9  17  29  46  68  93 121 152 189 233 277
#     4   9  18  31  47  67  92 123 158 194 229 273
#     4  10  19  31  48  69  94 122 156 199 246 283
#
# _framework density 15.282966999999999
#
# number of rings (size 3 to 8) (size 9 to 14) (size 15 to 20)
#    0.000    2.250    1.250    2.250    0.000    5.500 
#    0.000    2.500    0.000    0.000    0.000    0.875 
#    0.000    0.000    0.000    0.000    0.000    0.000 
#
# Total GULP energy -178470.443599 kJ/mol
# GULP energy per Si atom -5577.201362 kJ/mol
# Density = 1.524818 g / cm^3
# Si number density = 15.282967 Si / 1000 Ang^3
#
#
#
# Elastic Constant Matrix: (Units=GPa)
#
#
# Indices 1 2 3 4 5 6 
#
# 1 83.1849 39.7683 56.1428 0.0000 -13.5688 0.0000
# 2 39.7683 42.6345 47.3380 0.0000 -7.0081 0.0000
# 3 56.1428 47.3380 126.6488 0.0000 -19.7387 0.0000
# 4 0.0000 0.0000 0.0000 6.8803 0.0000 2.4549
# 5 -13.5688 -7.0081 -19.7387 0.0000 11.7304 0.0000
# 6 0.0000 0.0000 0.0000 2.4549 0.0000 20.0628
#
#
#
# Elastic Compliance Matrix: (Units=1/GPa)
#
#
# Indices 1 2 3 4 5 6 
#
# 1 0.024303 -0.018516 -0.001620 0.000000 0.014324 0.000000
# 2 -0.018516 0.054227 -0.014029 0.000000 -0.012627 0.000000
# 3 -0.001620 -0.014029 0.016617 0.000000 0.017706 0.000000
# 4 0.000000 0.000000 0.000000 0.151978 0.000000 -0.018596
# 5 0.014324 -0.012627 0.017706 0.000000 0.124068 0.000000
# 6 0.000000 0.000000 0.000000 -0.018596 0.000000 0.052119
#
#
# Mechanical properties :
#
#
# Convention : Reuss Voigt Hill
#
# Bulk Modulus (GPa) = 37.28846 59.88515 48.58680
# Shear Modulus (GPa) = 9.98838 15.01598 12.50218
#
# Velocity S-wave (km/s) = 2.55926 3.13793 2.86325
# Velocity P-wave (km/s) = 5.76062 7.23866 6.54152
#
# Compressibility (1/GPa) = 0.02681795
#
# Stress axis : x y z
#
# Youngs Moduli (GPa) = 41.14644 18.44097 60.17833
#
# Poissons Ratio (x) = 0.34145 0.09751
# Poissons Ratio (y) = 0.76187 0.84421
# Poissons Ratio (z) = 0.06667 0.25870
#
# Static dielectric constant tensor:
#      x y z
#    x 1.510800 0.000000 -0.005450 
#    y 0.000000 1.511260 0.000000 
#    z -0.005450 0.000000 1.481370 
# 
# From -- ./inp_files/248367.got.cif
#   From: 2010.05.17/outbox.cif.g08.bks.cpg/sg12_125_cif.got.tgz:248367.got - 2010.06.03 13:09:07.
