data_PCOD9178393
_publ_section_title
;
Structure prediction by ZEFSAII (Michael W. Deem and Ramdas Pophale) SiO2 
 PCOD9178393
Probable space group: C 2/M
;
_chemical_formula_sum "Si O2"
_cell_formula_units_Z 64
_cell_length_a 21.240413
_cell_length_b 12.969659
_cell_length_c 19.918021
_cell_angle_alpha 90.000000
_cell_angle_beta 43.224211
_cell_angle_gamma 90.000000
_cell_volume 3757.823530
_symmetry_space_group_name_H-M "C 2/M"
_symmetry_group_IT_number 12
_symmetry_cell_setting 'monoclinic'
loop_
_space_group_symop_operation_xyz
x,y,z
-x,y,-z
-x,-y,-z
x,-y,z
1/2+x,1/2+y,z
1/2-x,1/2+y,-z
1/2-x,1/2-y,-z
1/2+x,1/2-y,z
loop_
_atom_site_type_symbol
_atom_site_label
_atom_site_fract_x
_atom_site_fract_y
_atom_site_fract_z
Si Si1 0.316282 0.705308 0.505838
Si Si2 0.557531 0.379771 0.124274
Si Si3 0.375162 0.310548 0.190896
Si Si4 0.857282 0.618516 0.296725
Si Si5 0.981613 0.248824 0.301757
Si Si6 0.821327 0.122752 0.091870
Si Si7 0.889492 0.620524 0.704343
Si Si8 0.324456 0.881681 0.606738
O O1 0.250000 0.750000 0.500000
O O2 0.249582 0.628131 0.597258
O O3 0.408472 0.673618 0.395563
O O4 0.342619 0.798605 0.535326
O O5 0.568125 0.500000 0.132369
O O6 0.464241 0.363238 0.153689
O O7 0.544701 0.312529 0.200597
O O8 0.639747 0.347255 0.010757
O O9 0.369857 0.194375 0.223522
O O10 0.372056 0.319799 0.113356
O O11 0.282928 0.367257 0.289496
O O12 0.881155 0.500000 0.266735
O O13 0.921413 0.669712 0.304628
O O14 0.040269 0.308096 0.311390
O O15 0.712751 0.137530 0.186230
O O16 0.839535 0.000000 0.086272
O O17 0.912787 0.500000 0.695482
O O18 0.881020 0.638742 0.630997
O O19 0.340295 0.000000 0.573349
#
# Coordination Sequence:
#
# PCOD9178393 Si02
#       8
#     8   8   8   8   8   8   8   8
#     4   9  19  31  45  70  96 123 155 190 235 283
#     4  10  19  30  48  73  98 126 160 198 241 286
#     4   9  16  28  49  75  99 122 153 197 246 288
#     4   9  18  32  49  69  96 128 160 194 236 289
#     4  10  20  32  47  70  98 128 163 198 235 281
#     4   9  17  30  50  75  98 122 155 198 248 290
#     4   9  18  32  50  71  97 127 158 198 242 281
#     4   9  17  30  49  74  99 122 155 198 242 285
#
# _framework density 17.031134999999999
#
# number of rings (size 3 to 8) (size 9 to 14) (size 15 to 20)
#    0.000    2.750    0.000    3.375    0.000    5.000 
#    0.000    1.250    0.000   13.500    0.000    8.750 
#    0.000    0.000    0.000    0.000    0.000    0.000 
#
# Total GULP energy -178349.077366 kJ/mol
# GULP energy per Si atom -5573.408668 kJ/mol
# Density = 1.699237 g / cm^3
# Si number density = 17.031135 Si / 1000 Ang^3
#
#
#
# Elastic Constant Matrix: (Units=GPa)
#
#
# Indices 1 2 3 4 5 6 
#
# 1 62.8439 25.0955 17.3779 0.0000 3.1441 0.0000
# 2 25.0955 60.4541 13.9309 0.0000 7.8671 0.0000
# 3 17.3779 13.9309 64.1566 0.0000 15.3212 0.0000
# 4 0.0000 0.0000 0.0000 11.8999 0.0000 -1.7178
# 5 3.1441 7.8671 15.3212 0.0000 14.9499 0.0000
# 6 0.0000 0.0000 0.0000 -1.7178 0.0000 19.9216
#
#
#
# Elastic Compliance Matrix: (Units=1/GPa)
#
#
# Indices 1 2 3 4 5 6 
#
# 1 0.020179 -0.007885 -0.004940 0.000000 0.004968 0.000000
# 2 -0.007885 0.021065 -0.000248 0.000000 -0.009173 0.000000
# 3 -0.004940 -0.000248 0.022111 0.000000 -0.021491 0.000000
# 4 0.000000 0.000000 0.000000 0.085093 0.000000 0.007337
# 5 0.004968 -0.009173 -0.021491 0.000000 0.092697 0.000000
# 6 0.000000 0.000000 0.000000 0.007337 0.000000 0.050830
#
#
# Mechanical properties :
#
#
# Convention : Reuss Voigt Hill
#
# Bulk Modulus (GPa) = 26.87458 33.36258 30.11858
# Shear Modulus (GPa) = 15.12754 18.09095 16.60924
#
# Velocity S-wave (km/s) = 2.98355 3.26272 3.12625
# Velocity P-wave (km/s) = 5.26143 5.81597 5.54564
#
# Compressibility (1/GPa) = 0.03720988
#
# Stress axis : x y z
#
# Youngs Moduli (GPa) = 49.55769 47.47140 45.22628
#
# Poissons Ratio (x) = 0.37429 0.22342
# Poissons Ratio (y) = 0.39074 0.01121
# Poissons Ratio (z) = 0.24482 0.01177
#
# Static dielectric constant tensor:
#      x y z
#    x 1.558090 0.000000 -0.005900 
#    y 0.000000 1.548690 0.000000 
#    z -0.005900 0.000000 1.630870 
# 
# From -- ./inp_files/321261.got.cif
#   From: 2010.05.17/outbox.cif.g08.bks.cpg/sg12_161_cif.got.tgz:321261.got - 2010.06.03 13:09:07.
