data_PCOD9178375
_publ_section_title
;
Structure prediction by ZEFSAII (Michael W. Deem and Ramdas Pophale) SiO2 
 PCOD9178375
Probable space group: C 2/M
;
_chemical_formula_sum "Si O2"
_cell_formula_units_Z 64
_cell_length_a 28.913100
_cell_length_b 8.731222
_cell_length_c 15.215526
_cell_angle_alpha 90.000000
_cell_angle_beta 88.130395
_cell_angle_gamma 90.000000
_cell_volume 3839.064487
_symmetry_space_group_name_H-M "C 2/M"
_symmetry_group_IT_number 12
_symmetry_cell_setting 'monoclinic'
loop_
_space_group_symop_operation_xyz
x,y,z
-x,y,-z
-x,-y,-z
x,-y,z
1/2+x,1/2+y,z
1/2-x,1/2+y,-z
1/2-x,1/2-y,-z
1/2+x,1/2-y,z
loop_
_atom_site_type_symbol
_atom_site_label
_atom_site_fract_x
_atom_site_fract_y
_atom_site_fract_z
Si Si1 0.414055 0.321240 0.816545
Si Si2 0.392696 0.818747 0.156914
Si Si3 0.767105 0.182560 0.874203
Si Si4 0.692556 0.317535 0.757661
Si Si5 0.241131 0.316799 0.405227
Si Si6 0.504539 0.185297 0.896937
Si Si7 0.334586 0.182807 0.722860
Si Si8 0.346650 0.319761 0.990218
O O1 0.418663 0.500000 0.794701
O O2 0.462687 0.250425 0.842238
O O3 0.386548 0.234826 0.740570
O O4 0.381402 0.309432 0.905106
O O5 0.359535 0.742090 0.230922
O O6 0.445734 0.766282 0.144759
O O7 0.392407 0.000000 0.170153
O O8 0.368923 0.777984 0.065557
O O9 0.720807 0.261801 0.842215
O O10 0.802973 0.224844 0.793871
O O11 0.796330 0.232523 0.958115
O O12 0.760475 0.000000 0.879961
O O13 0.693126 0.500000 0.757629
O O14 0.721157 0.263596 0.670127
O O15 0.245220 0.500000 0.409779
O O16 0.250000 0.250000 0.500000
O O17 0.190077 0.283802 0.368499
O O18 0.502568 0.000000 0.896408
O O19 0.500000 0.233432 0.000000
O O20 0.329890 0.000000 0.739459
O O21 0.343861 0.500000 0.015571
#
# Coordination Sequence:
#
# PCOD9178375 Si02
#       8
#     8   8   8   8   8   8   8   8
#     4  10  19  30  48  72  97 131 173 214 254 291
#     4  11  22  33  48  68  92 129 173 210 251 294
#     4   9  17  30  47  68  93 126 168 205 241 288
#     4  10  21  36  50  69  99 131 161 198 247 295
#     4   9  19  34  55  81 104 130 158 191 240 297
#     4  10  20  34  49  69  96 130 173 221 262 295
#     4   9  17  30  48  73 104 133 161 197 246 295
#     4   9  18  30  44  65  93 126 165 209 249 287
#
# _framework density 16.670728
#
# number of rings (size 3 to 8) (size 9 to 14) (size 15 to 20)
#    0.000    2.375    1.250    3.375    0.000    7.250 
#    0.000    0.000    0.000    0.000    0.000    0.875 
#    0.000    7.000    0.000    0.000    0.000    0.000 
#
# Total GULP energy -178396.105099 kJ/mol
# GULP energy per Si atom -5574.878284 kJ/mol
# Density = 1.663278 g / cm^3
# Si number density = 16.670728 Si / 1000 Ang^3
#
#
#
# Elastic Constant Matrix: (Units=GPa)
#
#
# Indices 1 2 3 4 5 6 
#
# 1 151.5972 34.8742 49.0827 0.0000 10.9280 0.0000
# 2 34.8742 29.7383 19.4724 0.0000 1.1677 0.0000
# 3 49.0827 19.4724 83.7836 0.0000 14.3869 0.0000
# 4 0.0000 0.0000 0.0000 23.3571 0.0000 3.3626
# 5 10.9280 1.1677 14.3869 0.0000 18.1145 0.0000
# 6 0.0000 0.0000 0.0000 3.3626 0.0000 28.0153
#
#
#
# Elastic Compliance Matrix: (Units=1/GPa)
#
#
# Indices 1 2 3 4 5 6 
#
# 1 0.010032 -0.009591 -0.003144 0.000000 -0.002937 0.000000
# 2 -0.009591 0.049314 -0.007283 0.000000 0.008392 0.000000
# 3 -0.003144 -0.007283 0.017443 0.000000 -0.011487 0.000000
# 4 0.000000 0.000000 0.000000 0.043566 0.000000 -0.005229
# 5 -0.002937 0.008392 -0.011487 0.000000 0.065559 0.000000
# 6 0.000000 0.000000 0.000000 -0.005229 0.000000 0.036322
#
#
# Mechanical properties :
#
#
# Convention : Reuss Voigt Hill
#
# Bulk Modulus (GPa) = 27.20942 52.44197 39.82570
# Shear Modulus (GPa) = 18.21336 24.67669 21.44502
#
# Velocity S-wave (km/s) = 3.30894 3.85156 3.59052
# Velocity P-wave (km/s) = 5.56380 7.16276 6.41331
#
# Compressibility (1/GPa) = 0.03675197
#
# Stress axis : x y z
#
# Youngs Moduli (GPa) = 99.67665 20.27829 57.33122
#
# Poissons Ratio (x) = 0.19449 0.18024
# Poissons Ratio (y) = 0.95602 0.41757
# Poissons Ratio (z) = 0.31336 0.14769
#
# Static dielectric constant tensor:
#      x y z
#    x 1.601450 0.000000 -0.013550 
#    y 0.000000 1.539070 0.000000 
#    z -0.013550 0.000000 1.563990 
# 
# From -- ./inp_files/248437.got.cif
#   From: 2010.05.17/outbox.cif.g08.bks.cpg/sg12_125_cif.got.tgz:248437.got - 2010.06.03 13:09:07.
