data_PCOD9178687
_publ_section_title
;
Structure prediction by ZEFSAII (Michael W. Deem and Ramdas Pophale) SiO2 
 PCOD9178687
Probable space group: C 2/M
;
_chemical_formula_sum "Si O2"
_cell_formula_units_Z 64
_cell_length_a 19.831757
_cell_length_b 9.530195
_cell_length_c 24.046349
_cell_angle_alpha 90.000000
_cell_angle_beta 130.200873
_cell_angle_gamma 90.000000
_cell_volume 3471.234305
_symmetry_space_group_name_H-M "C 2/M"
_symmetry_group_IT_number 12
_symmetry_cell_setting 'monoclinic'
loop_
_space_group_symop_operation_xyz
x,y,z
-x,y,-z
-x,-y,-z
x,-y,z
1/2+x,1/2+y,z
1/2-x,1/2+y,-z
1/2-x,1/2-y,-z
1/2+x,1/2-y,z
loop_
_atom_site_type_symbol
_atom_site_label
_atom_site_fract_x
_atom_site_fract_y
_atom_site_fract_z
Si Si1 0.156419 0.830489 0.115323
Si Si2 0.472316 0.662058 0.859109
Si Si3 0.202344 0.832797 0.733822
Si Si4 0.181273 0.833318 0.426232
Si Si5 0.516004 0.666225 0.690979
Si Si6 0.068591 0.659934 0.825845
Si Si7 0.792968 0.837030 0.690603
Si Si8 0.231412 0.841107 0.043708
O O1 0.066127 0.803089 0.100610
O O2 0.232766 0.745708 0.188219
O O3 0.161348 0.794465 0.052847
O O4 0.171894 0.000000 0.128137
O O5 0.501578 0.500000 0.874111
O O6 0.543577 0.763581 0.870018
O O7 0.386633 0.673000 0.772753
O O8 0.226807 0.765207 0.687637
O O9 0.101013 0.809154 0.697678
O O10 0.218887 0.000000 0.743326
O O11 0.250000 0.750000 0.500000
O O12 0.079111 0.798914 0.385328
O O13 0.195132 0.804401 0.367889
O O14 0.193257 0.000000 0.440585
O O15 0.514092 0.500000 0.704223
O O16 0.528649 0.753407 0.753886
O O17 0.036311 0.500000 0.809427
O O18 0.173906 0.657676 0.874920
O O19 0.764801 0.000000 0.681058
O O20 0.210576 0.000000 0.015587
O O21 0.250000 0.750000 0.000000
#
# Coordination Sequence:
#
# PCOD9178687 Si02
#       8
#     8   8   8   8   8   8   8   8
#     4   9  18  35  54  75 108 144 176 215 265 318
#     4   9  17  32  55  78 104 140 176 217 266 316
#     4  10  19  30  53  84 107 133 176 225 266 310
#     4  10  21  38  56  77 107 145 183 220 266 320
#     4  10  20  36  55  78 109 142 178 219 267 321
#     4  11  21  33  54  83 110 135 176 229 268 308
#     4   9  18  34  54  75 108 146 175 214 268 320
#     4  10  22  38  55  78 108 144 181 219 267 320
#
# _framework density 18.437245999999998
#
# number of rings (size 3 to 8) (size 9 to 14) (size 15 to 20)
#    0.000    2.250    2.500    1.500    0.000    5.000 
#    0.000    1.250    0.000    7.500    0.000    0.000 
#    0.000    0.000    0.000    0.000    0.000    0.000 
#
# Total GULP energy -178549.918476 kJ/mol
# GULP energy per Si atom -5579.684952 kJ/mol
# Density = 1.839528 g / cm^3
# Si number density = 18.437246 Si / 1000 Ang^3
#
#
#
# Elastic Constant Matrix: (Units=GPa)
#
#
# Indices 1 2 3 4 5 6 
#
# 1 117.7734 49.6501 18.4743 0.0000 0.0542 0.0000
# 2 49.6501 46.3514 14.6205 0.0000 3.3155 0.0000
# 3 18.4743 14.6205 48.2915 0.0000 4.0366 0.0000
# 4 0.0000 0.0000 0.0000 26.1732 0.0000 -3.9369
# 5 0.0542 3.3155 4.0366 0.0000 24.9233 0.0000
# 6 0.0000 0.0000 0.0000 -3.9369 0.0000 32.1631
#
#
#
# Elastic Compliance Matrix: (Units=1/GPa)
#
#
# Indices 1 2 3 4 5 6 
#
# 1 0.015661 -0.016575 -0.001170 0.000000 0.002360 0.000000
# 2 -0.016575 0.041497 -0.005843 0.000000 -0.004538 0.000000
# 3 -0.001170 -0.005843 0.023173 0.000000 -0.002973 0.000000
# 4 0.000000 0.000000 0.000000 0.038924 0.000000 0.004764
# 5 0.002360 -0.004538 -0.002973 0.000000 0.041203 0.000000
# 6 0.000000 0.000000 0.000000 0.004764 0.000000 0.031675
#
#
# Mechanical properties :
#
#
# Convention : Reuss Voigt Hill
#
# Bulk Modulus (GPa) = 30.16278 41.98957 36.07617
# Shear Modulus (GPa) = 19.97115 25.29667 22.63391
#
# Velocity S-wave (km/s) = 3.29476 3.70813 3.50754
# Velocity P-wave (km/s) = 5.55600 6.41540 6.00111
#
# Compressibility (1/GPa) = 0.03315344
#
# Stress axis : x y z
#
# Youngs Moduli (GPa) = 63.85245 24.09814 43.15397
#
# Poissons Ratio (x) = 0.39944 0.05050
# Poissons Ratio (y) = 1.05838 0.25215
# Poissons Ratio (z) = 0.07473 0.14081
#
# Static dielectric constant tensor:
#      x y z
#    x 1.659280 0.000000 0.005230 
#    y 0.000000 1.619350 0.000000 
#    z 0.005230 0.000000 1.630990 
# 
# From -- ./inp_files/365218.got.cif
#   From: 2010.05.17/outbox.cif.g08.bks.cpg/sg12_183_cif.got.tgz:365218.got - 2010.06.03 13:09:07.
