data_PCOD9178412
_publ_section_title
;
Structure prediction by ZEFSAII (Michael W. Deem and Ramdas Pophale) SiO2 
 PCOD9178412
Probable space group: C 2/M
;
_chemical_formula_sum "Si O2"
_cell_formula_units_Z 48
_cell_length_a 28.945107
_cell_length_b 8.475135
_cell_length_c 11.584004
_cell_angle_alpha 90.000000
_cell_angle_beta 101.691848
_cell_angle_gamma 90.000000
_cell_volume 2782.753876
_symmetry_space_group_name_H-M "C 2/M"
_symmetry_group_IT_number 12
_symmetry_cell_setting 'monoclinic'
loop_
_space_group_symop_operation_xyz
x,y,z
-x,y,-z
-x,-y,-z
x,-y,z
1/2+x,1/2+y,z
1/2-x,1/2+y,-z
1/2-x,1/2-y,-z
1/2+x,1/2-y,z
loop_
_atom_site_type_symbol
_atom_site_label
_atom_site_fract_x
_atom_site_fract_y
_atom_site_fract_z
Si Si1 0.861682 0.310381 0.467076
Si Si2 0.928943 0.812610 0.914750
Si Si3 0.157774 0.808611 0.283555
Si Si4 0.479959 0.185051 0.159349
Si Si5 0.956142 0.811603 0.396988
Si Si6 0.259483 0.189929 0.375454
O O1 0.865270 0.500000 0.464844
O O2 0.856253 0.258234 0.597900
O O3 0.907602 0.236193 0.433476
O O4 0.813087 0.259724 0.377224
O O5 0.880462 0.759801 0.830605
O O6 0.972118 0.776980 0.849410
O O7 0.926993 0.000000 0.934396
O O8 0.942650 0.728242 0.040550
O O9 0.212044 0.761193 0.284172
O O10 0.155965 0.000000 0.290627
O O11 0.461735 0.233047 0.275207
O O12 0.490278 0.000000 0.159805
O O13 0.000000 0.762936 0.500000
O O14 0.958048 0.000000 0.383971
O O15 0.250000 0.250000 0.500000
O O16 0.260080 0.000000 0.375986
#
# Coordination Sequence:
#
# PCOD9178412 Si02
#       6
#     8   8   8   8   8   8
#     4  10  19  30  48  74 103 131 159 199 244 285
#     4  10  19  33  53  74  98 129 164 199 236 283
#     4   9  17  30  50  74 100 131 164 197 235 284
#     4  11  22  35  51  72  99 128 160 201 245 285
#     4  11  23  37  52  70  96 130 164 197 237 290
#     4   8  15  28  45  69  99 128 159 195 238 282
#
# _framework density 17.249101
#
# number of rings (size 3 to 8) (size 9 to 14) (size 15 to 20)
#    0.000    2.167    0.000    5.000    0.000    7.333 
#    0.000    0.000    0.000    1.000    0.000    0.000 
#    0.000    0.000    0.000    0.000    0.000    0.000 
#
# Total GULP energy -133823.404068 kJ/mol
# GULP energy per Si atom -5575.975170 kJ/mol
# Density = 1.720984 g / cm^3
# Si number density = 17.249101 Si / 1000 Ang^3
#
#
#
# Elastic Constant Matrix: (Units=GPa)
#
#
# Indices 1 2 3 4 5 6 
#
# 1 127.8451 2.6677 54.7417 0.0000 26.0857 0.0000
# 2 2.6677 18.6539 5.8334 0.0000 2.1090 0.0000
# 3 54.7417 5.8334 64.0356 0.0000 13.8315 0.0000
# 4 0.0000 0.0000 0.0000 -5.7889 0.0000 56.7735
# 5 26.0857 2.1090 13.8315 0.0000 33.1637 0.0000
# 6 0.0000 0.0000 0.0000 56.7735 0.0000 -119.4362
#
#
#
# Elastic Compliance Matrix: (Units=1/GPa)
#
#
# Indices 1 2 3 4 5 6 
#
# 1 0.013532 0.002034 -0.010359 0.000000 -0.006453 0.000000
# 2 0.002034 0.055559 -0.006255 0.000000 -0.002524 0.000000
# 3 -0.010359 -0.006255 0.025493 0.000000 -0.002086 0.000000
# 4 0.000000 0.000000 0.000000 0.047174 0.000000 0.022424
# 5 -0.006453 -0.002524 -0.002086 0.000000 0.036259 0.000000
# 6 0.000000 0.000000 0.000000 0.022424 0.000000 0.002286
#
#
# Mechanical properties :
#
#
# Convention : Reuss Voigt Hill
#
# Bulk Modulus (GPa) = 15.28523 37.44669 26.36596
# Shear Modulus (GPa) = 21.61968 -8.59283 6.51343
#
# Velocity S-wave (km/s) = 3.54415 -2.23437 1.94533
# Velocity P-wave (km/s) = 5.06248 3.88586 4.51268
#
# Compressibility (1/GPa) = 0.06542265
#
# Stress axis : x y z
#
# Youngs Moduli (GPa) = 73.89930 17.99902 39.22714
#
# Poissons Ratio (x) = -0.03661 0.40637
# Poissons Ratio (y) = -0.15030 0.24535
# Poissons Ratio (z) = 0.76556 0.11258
#
# Static dielectric constant tensor:
#      x y z
#    x 1.609110 0.000000 0.042260 
#    y 0.000000 1.581010 0.000000 
#    z 0.042260 0.000000 1.560340 
# 
# From -- ./inp_files/179316.got.cif
#   From: 2010.05.17/outbox.cif.g08.bks.cpg/sg12_90_cif.got.tgz:179316.got - 2010.06.03 13:09:07.
