data_PCOD9178076
_publ_section_title
;
Structure prediction by ZEFSAII (Michael W. Deem and Ramdas Pophale) SiO2 
 PCOD9178076
Probable space group: C 2/M
;
_chemical_formula_sum "Si O2"
_cell_formula_units_Z 64
_cell_length_a 13.803461
_cell_length_b 9.255777
_cell_length_c 22.638009
_cell_angle_alpha 90.000000
_cell_angle_beta 107.833368
_cell_angle_gamma 90.000000
_cell_volume 2753.301612
_symmetry_space_group_name_H-M "C 2/M"
_symmetry_group_IT_number 12
_symmetry_cell_setting 'monoclinic'
loop_
_space_group_symop_operation_xyz
x,y,z
-x,y,-z
-x,-y,-z
x,-y,z
1/2+x,1/2+y,z
1/2-x,1/2+y,-z
1/2-x,1/2-y,-z
1/2+x,1/2-y,z
loop_
_atom_site_type_symbol
_atom_site_label
_atom_site_fract_x
_atom_site_fract_y
_atom_site_fract_z
Si Si1 0.905660 0.664929 0.045544
Si Si2 0.622292 0.828517 0.416787
Si Si3 0.335739 0.837597 0.318139
Si Si4 0.405370 0.335168 0.702642
Si Si5 0.159353 0.673847 0.552289
Si Si6 0.690045 0.334056 0.076864
Si Si7 0.502690 0.337218 0.836822
Si Si8 0.211261 0.161779 0.805124
O O1 0.937137 0.500000 0.044951
O O2 0.798929 0.664507 0.062397
O O3 0.984235 0.752667 0.100454
O O4 0.880703 0.738798 0.978726
O O5 0.568360 0.750414 0.351705
O O6 0.739121 0.770839 0.433808
O O7 0.596817 0.797990 0.480677
O O8 0.617224 0.000000 0.407043
O O9 0.216029 0.844366 0.313472
O O10 0.385668 0.800504 0.390788
O O11 0.334439 0.729386 0.263230
O O12 0.367582 0.000000 0.306062
O O13 0.445383 0.500000 0.706220
O O14 0.442643 0.266957 0.771000
O O15 0.183916 0.500000 0.555272
O O16 0.656339 0.500000 0.072908
O O17 0.711432 0.266547 0.145557
O O18 0.463201 0.500000 0.838005
O O19 0.616328 0.350064 0.831713
O O20 0.252256 0.000000 0.802770
#
# Coordination Sequence:
#
# PCOD9178076 Si02
#       8
#     8   8   8   8   8   8   8   8
#     4   9  16  26  43  68  93 115 146 189 228 260
#     4   9  15  24  42  67  90 112 146 191 230 262
#     4   9  17  30  47  66  90 120 151 182 222 272
#     4   9  18  32  48  66  91 123 154 184 222 270
#     4   8  15  27  42  62  89 119 149 183 224 270
#     4   9  16  27  44  65  90 120 151 182 221 268
#     4   9  18  32  48  66  91 123 154 183 221 270
#     4  10  19  30  46  69  94 118 149 189 227 263
#
# _framework density 23.244820000000001
#
# number of rings (size 3 to 8) (size 9 to 14) (size 15 to 20)
#    0.000    3.000    0.000    2.250    0.000    6.500 
#    0.000    0.000    0.000    1.500    0.000   10.500 
#    0.000    0.000    0.000    0.000    0.000    0.000 
#
# Total GULP energy -178729.021959 kJ/mol
# GULP energy per Si atom -5585.281936 kJ/mol
# Density = 2.319191 g / cm^3
# Si number density = 23.244820 Si / 1000 Ang^3
#
#
#
# Elastic Constant Matrix: (Units=GPa)
#
#
# Indices 1 2 3 4 5 6 
#
# 1 49.6122 4.4660 18.4321 0.0000 -12.3318 0.0000
# 2 4.4660 127.5454 108.2057 0.0000 -14.1158 0.0000
# 3 18.4321 108.2057 240.4137 0.0000 -5.1199 0.0000
# 4 0.0000 0.0000 0.0000 39.8677 0.0000 1.6461
# 5 -12.3318 -14.1158 -5.1199 0.0000 45.8200 0.0000
# 6 0.0000 0.0000 0.0000 1.6461 0.0000 2.1822
#
#
#
# Elastic Compliance Matrix: (Units=1/GPa)
#
#
# Indices 1 2 3 4 5 6 
#
# 1 0.022497 0.002053 -0.002512 0.000000 0.006406 0.000000
# 2 0.002053 0.013381 -0.006095 0.000000 0.003994 0.000000
# 3 -0.002512 -0.006095 0.007058 0.000000 -0.001765 0.000000
# 4 0.000000 0.000000 0.000000 0.025889 0.000000 -0.019530
# 5 0.006406 0.003994 -0.001765 0.000000 0.024582 0.000000
# 6 0.000000 0.000000 0.000000 -0.019530 0.000000 0.472991
#
#
# Mechanical properties :
#
#
# Convention : Reuss Voigt Hill
#
# Bulk Modulus (GPa) = 33.52657 75.53097 54.52877
# Shear Modulus (GPa) = 8.48248 36.67180 22.57714
#
# Velocity S-wave (km/s) = 1.91236 3.97625 3.11991
# Velocity P-wave (km/s) = 4.39667 7.32427 6.04052
#
# Compressibility (1/GPa) = 0.02982709
#
# Stress axis : x y z
#
# Youngs Moduli (GPa) = 44.44976 74.73133 141.68832
#
# Poissons Ratio (x) = -0.15339 0.35595
# Poissons Ratio (y) = -0.09124 0.86359
# Poissons Ratio (z) = 0.11167 0.45549
#
# Static dielectric constant tensor:
#      x y z
#    x 1.967880 0.000000 0.002320 
#    y 0.000000 1.811290 0.000000 
#    z 0.002320 0.000000 1.889640 
# 
# From -- ./inp_files/345607.got.cif
#   From: 2010.05.17/outbox.cif.g08.bks.cpg/sg12_173_cif.got.tgz:345607.got - 2010.06.03 13:09:07.
