data_PCOD9178988
_publ_section_title
;
Structure prediction by ZEFSAII (Michael W. Deem and Ramdas Pophale) SiO2 
 PCOD9178988
Probable space group: C 2/M
;
_chemical_formula_sum "Si O2"
_cell_formula_units_Z 64
_cell_length_a 14.325140
_cell_length_b 9.513821
_cell_length_c 22.432160
_cell_angle_alpha 90.000000
_cell_angle_beta 105.512642
_cell_angle_gamma 90.000000
_cell_volume 2945.838104
_symmetry_space_group_name_H-M "C 2/M"
_symmetry_group_IT_number 12
_symmetry_cell_setting 'monoclinic'
loop_
_space_group_symop_operation_xyz
x,y,z
-x,y,-z
-x,-y,-z
x,-y,z
1/2+x,1/2+y,z
1/2-x,1/2+y,-z
1/2-x,1/2-y,-z
1/2+x,1/2-y,z
loop_
_atom_site_type_symbol
_atom_site_label
_atom_site_fract_x
_atom_site_fract_y
_atom_site_fract_z
Si Si1 0.895289 0.660060 0.814172
Si Si2 0.889984 0.335952 0.297999
Si Si3 0.955516 0.340730 0.433339
Si Si4 0.267207 0.841145 0.061764
Si Si5 0.236151 0.157209 0.439835
Si Si6 0.669780 0.339010 0.821000
Si Si7 0.951996 0.841356 0.931111
Si Si8 0.665332 0.663128 0.304204
O O1 0.928134 0.500000 0.814336
O O2 0.782698 0.657608 0.817927
O O3 0.955437 0.744876 0.873838
O O4 0.892578 0.739285 0.750712
O O5 0.914274 0.500000 0.290186
O O6 0.952491 0.283562 0.365563
O O7 0.890900 0.237664 0.240818
O O8 0.776661 0.336327 0.299117
O O9 0.998186 0.500000 0.437015
O O10 0.843128 0.354166 0.430662
O O11 0.000000 0.269208 0.500000
O O12 0.330170 0.753533 0.119376
O O13 0.161559 0.854208 0.073551
O O14 0.302825 0.000000 0.055815
O O15 0.250000 0.750000 0.000000
O O16 0.250000 0.250000 0.500000
O O17 0.171085 0.211620 0.373986
O O18 0.202658 0.000000 0.449955
O O19 0.639983 0.500000 0.825569
O O20 0.991011 0.000000 0.927866
O O21 0.000000 0.784083 0.000000
O O22 0.633533 0.500000 0.297080
#
# Coordination Sequence:
#
# PCOD9178988 Si02
#       8
#     8   8   8   8   8   8   8   8
#     4   9  16  25  41  66  90 112 143 186 227 255
#     4   8  13  23  41  63  84 108 143 185 223 258
#     4   8  14  26  45  67  89 115 148 183 219 262
#     4  10  19  31  48  69  93 119 148 182 219 261
#     4   9  17  28  44  66  90 117 147 181 221 263
#     4   9  16  26  41  63  90 116 145 182 222 261
#     4   9  18  32  49  68  91 121 151 177 214 266
#     4   8  14  25  40  59  84 113 145 180 219 263
#
# _framework density 21.725567999999999
#
# number of rings (size 3 to 8) (size 9 to 14) (size 15 to 20)
#    0.000    3.250    0.000    2.625    0.000    4.250 
#    0.000    1.875    0.000    3.000    0.000    3.500 
#    0.000    0.000    0.000    0.000    0.000    0.000 
#
# Total GULP energy -178469.732360 kJ/mol
# GULP energy per Si atom -5577.179136 kJ/mol
# Density = 2.167612 g / cm^3
# Si number density = 21.725568 Si / 1000 Ang^3
#
#
#
# Elastic Constant Matrix: (Units=GPa)
#
#
# Indices 1 2 3 4 5 6 
#
# 1 51.0452 6.8124 1.8556 0.0000 6.4796 0.0000
# 2 6.8124 140.9479 135.6024 0.0000 -9.0510 0.0000
# 3 1.8556 135.6024 277.2518 0.0000 -1.3221 0.0000
# 4 0.0000 0.0000 0.0000 20.6098 0.0000 -1.8093
# 5 6.4796 -9.0510 -1.3221 0.0000 20.3290 0.0000
# 6 0.0000 0.0000 0.0000 -1.8093 0.0000 3.0834
#
#
#
# Elastic Compliance Matrix: (Units=1/GPa)
#
#
# Indices 1 2 3 4 5 6 
#
# 1 0.020866 -0.002519 0.001055 0.000000 -0.007703 0.000000
# 2 -0.002519 0.014359 -0.006974 0.000000 0.006742 0.000000
# 3 0.001055 -0.006974 0.006996 0.000000 -0.002986 0.000000
# 4 0.000000 0.000000 0.000000 0.051156 0.000000 0.030018
# 5 -0.007703 0.006742 -0.002986 0.000000 0.054454 0.000000
# 6 0.000000 0.000000 0.000000 0.030018 0.000000 0.341932
#
#
# Mechanical properties :
#
#
# Convention : Reuss Voigt Hill
#
# Bulk Modulus (GPa) = 39.45186 84.19842 61.82514
# Shear Modulus (GPa) = 9.70712 30.46939 20.08825
#
# Velocity S-wave (km/s) = 2.11607 3.74902 3.04408
# Velocity P-wave (km/s) = 4.91619 7.58813 6.39330
#
# Compressibility (1/GPa) = 0.02534734
#
# Stress axis : x y z
#
# Youngs Moduli (GPa) = 47.92459 69.64342 142.93079
#
# Poissons Ratio (x) = 0.17541 -0.15086
# Poissons Ratio (y) = 0.12071 0.99678
# Poissons Ratio (z) = -0.05058 0.48568
#
# Static dielectric constant tensor:
#      x y z
#    x 1.864340 0.000000 -0.005620 
#    y 0.000000 1.778290 0.000000 
#    z -0.005620 0.000000 1.799020 
# 
# From -- ./inp_files/345575.got.cif
#   From: 2010.05.17/outbox.cif.g08.bks.cpg/sg12_173_cif.got.tgz:345575.got - 2010.06.03 13:09:07.
