data_PCOD9178178
_publ_section_title
;
Structure prediction by ZEFSAII (Michael W. Deem and Ramdas Pophale) SiO2 
 PCOD9178178
Probable space group: C 2/M
;
_chemical_formula_sum "Si O2"
_cell_formula_units_Z 64
_cell_length_a 17.240486
_cell_length_b 23.010055
_cell_length_c 23.606639
_cell_angle_alpha 90.000000
_cell_angle_beta 155.498295
_cell_angle_gamma 90.000000
_cell_volume 3883.798017
_symmetry_space_group_name_H-M "C 2/M"
_symmetry_group_IT_number 12
_symmetry_cell_setting 'monoclinic'
loop_
_space_group_symop_operation_xyz
x,y,z
-x,y,-z
-x,-y,-z
x,-y,z
1/2+x,1/2+y,z
1/2-x,1/2+y,-z
1/2-x,1/2-y,-z
1/2+x,1/2-y,z
loop_
_atom_site_type_symbol
_atom_site_label
_atom_site_fract_x
_atom_site_fract_y
_atom_site_fract_z
Si Si1 0.077299 0.568082 0.395086
Si Si2 0.878053 0.681596 0.645863
Si Si3 0.924316 0.267985 0.885960
Si Si4 0.854121 0.068129 0.857488
Si Si5 0.973096 0.152334 0.843347
Si Si6 0.359304 0.811677 0.070459
Si Si7 0.638013 0.862576 0.542907
Si Si8 0.000334 0.251684 0.384235
O O1 0.113717 0.500000 0.407461
O O2 0.127244 0.615500 0.380682
O O3 0.170633 0.590365 0.515529
O O4 0.855548 0.575630 0.259697
O O5 0.980851 0.721875 0.666719
O O6 0.669795 0.707887 0.509390
O O7 0.991699 0.685357 0.779710
O O8 0.701405 0.275787 0.739898
O O9 0.957343 0.206123 0.876562
O O10 0.033451 0.313062 0.917993
O O11 0.000000 0.267217 0.000000
O O12 0.892678 0.098190 0.824022
O O13 0.888911 0.000000 0.874821
O O14 0.000000 0.092901 0.000000
O O15 0.832084 0.160696 0.697455
O O16 0.187080 0.144711 0.966380
O O17 0.250000 0.750000 0.000000
O O18 0.500000 0.885769 0.500000
O O19 0.530594 0.807800 0.444126
#
# Coordination Sequence:
#
# PCOD9178178 Si02
#       8
#     8   8   8   8   8   8   8   8
#     4  10  21  35  51  75 105 140 180 218 255 307
#     4  10  20  34  52  76 105 141 173 216 268 309
#     4  11  21  32  50  74 103 137 168 206 256 313
#     4  10  19  30  47  69  95 131 170 206 245 298
#     4  11  19  32  49  69 105 136 168 203 251 307
#     4  10  21  32  49  75 102 135 170 211 257 316
#     4  11  19  31  49  75 104 140 171 209 257 307
#     4  10  19  32  51  74 106 136 173 209 259 324
#
# _framework density 16.478715000000001
#
# number of rings (size 3 to 8) (size 9 to 14) (size 15 to 20)
#    0.000    1.625    2.500    4.875    0.000    2.750 
#    0.000    0.000    0.000    0.000    0.000    2.625 
#    0.000    3.500    0.000    0.000    0.000    0.000 
#
# Total GULP energy -178495.004686 kJ/mol
# GULP energy per Si atom -5577.968896 kJ/mol
# Density = 1.644121 g / cm^3
# Si number density = 16.478715 Si / 1000 Ang^3
#
#
#
# Elastic Constant Matrix: (Units=GPa)
#
#
# Indices 1 2 3 4 5 6 
#
# 1 74.9695 20.8917 55.3482 -0.0130 -3.1761 -0.0054
# 2 20.8917 67.2212 21.0376 0.0154 0.8434 0.0042
# 3 55.3482 21.0376 104.7870 0.0458 -7.6690 0.0107
# 4 -0.0130 0.0154 0.0458 14.9907 -0.0011 1.2132
# 5 -3.1761 0.8434 -7.6690 -0.0011 35.6118 -0.0025
# 6 -0.0054 0.0042 0.0107 1.2132 -0.0025 14.2733
#
#
#
# Elastic Compliance Matrix: (Units=1/GPa)
#
#
# Indices 1 2 3 4 5 6 
#
# 1 0.022620 -0.003499 -0.011269 0.000057 -0.000327 0.000013
# 2 -0.003499 0.016456 -0.001531 -0.000015 -0.001032 -0.000004
# 3 -0.011269 -0.001531 0.015984 -0.000056 0.002473 -0.000011
# 4 0.000057 -0.000015 -0.000056 0.067170 -0.000005 -0.005709
# 5 -0.000327 -0.001032 0.002473 -0.000005 0.028609 0.000004
# 6 0.000013 -0.000004 -0.000011 -0.005709 0.000004 0.070546
#
#
# Mechanical properties :
#
#
# Convention : Reuss Voigt Hill
#
# Bulk Modulus (GPa) = 44.52164 49.05917 46.79041
# Shear Modulus (GPa) = 19.12265 22.95517 21.03891
#
# Velocity S-wave (km/s) = 3.41023 3.73637 3.57702
# Velocity P-wave (km/s) = 6.52553 6.96059 6.74657
#
# Compressibility (1/GPa) = 0.02246099
#
# Stress axis : x y z
#
# Youngs Moduli (GPa) = 44.20916 60.76861 62.56296
#
# Poissons Ratio (x) = 0.21264 0.70503
# Poissons Ratio (y) = 0.15469 0.09578
# Poissons Ratio (z) = 0.49820 0.09304
#
# Static dielectric constant tensor:
#      x y z
#    x 1.594670 0.000000 -0.014950 
#    y 0.000000 1.572700 -0.000010 
#    z -0.014950 -0.000010 1.609980 
# 
# From -- ./inp_files/345151.got.cif
#   From: 2010.05.17/outbox.cif.g08.bks.cpg/sg12_173_cif.got.tgz:345151.got - 2010.06.03 13:09:07.
