data_PCOD9178359
_publ_section_title
;
Structure prediction by ZEFSAII (Michael W. Deem and Ramdas Pophale) SiO2 
 PCOD9178359
Probable space group: C 2/M
;
_chemical_formula_sum "Si O2"
_cell_formula_units_Z 48
_cell_length_a 16.410511
_cell_length_b 17.749244
_cell_length_c 16.292241
_cell_angle_alpha 90.000000
_cell_angle_beta 144.471271
_cell_angle_gamma 90.000000
_cell_volume 2757.667849
_symmetry_space_group_name_H-M "C 2/M"
_symmetry_group_IT_number 12
_symmetry_cell_setting 'monoclinic'
loop_
_space_group_symop_operation_xyz
x,y,z
-x,y,-z
-x,-y,-z
x,-y,z
1/2+x,1/2+y,z
1/2-x,1/2+y,-z
1/2-x,1/2-y,-z
1/2+x,1/2-y,z
loop_
_atom_site_type_symbol
_atom_site_label
_atom_site_fract_x
_atom_site_fract_y
_atom_site_fract_z
Si Si1 0.794417 0.200832 0.813924
Si Si2 0.560034 0.082901 0.642165
Si Si3 0.282966 0.127093 0.497480
Si Si4 0.549993 0.585047 0.181671
Si Si5 0.201637 0.278991 0.344360
Si Si6 0.388487 0.723572 0.067609
O O1 0.660917 0.153773 0.735524
O O2 0.879069 0.136221 0.831777
O O3 0.764543 0.266203 0.723355
O O4 0.869468 0.234438 0.954593
O O5 0.500000 0.087065 0.500000
O O6 0.429083 0.088704 0.595730
O O7 0.628620 0.000000 0.706353
O O8 0.158936 0.086070 0.346926
O O9 0.283188 0.209744 0.454529
O O10 0.262988 0.145798 0.576761
O O11 0.522388 0.500000 0.133284
O O12 0.416358 0.633892 0.099200
O O13 0.033751 0.262667 0.215414
O O14 0.250000 0.750000 0.000000
#
# Coordination Sequence:
#
# PCOD9178359 Si02
#       6
#     8   8   8   8   8   8
#     4  10  19  30  48  72 100 130 163 199 242 294
#     4  11  18  27  43  68 102 129 152 191 241 294
#     4   9  17  29  45  67  95 129 162 190 235 289
#     4  10  19  32  50  73 104 133 158 199 251 301
#     4   9  17  30  46  64  91 127 164 199 232 278
#     4  10  20  33  47  69 100 133 169 205 244 296
#
# _framework density 17.406012
#
# number of rings (size 3 to 8) (size 9 to 14) (size 15 to 20)
#    0.000    2.500    3.333    4.000    0.000    2.000 
#    0.000    0.000    0.000    0.000    0.000    3.500 
#    0.000   13.333    0.000    0.000    0.000    0.000 
#
# Total GULP energy -133626.579092 kJ/mol
# GULP energy per Si atom -5567.774129 kJ/mol
# Density = 1.736640 g / cm^3
# Si number density = 17.406012 Si / 1000 Ang^3
#
#
#
# Elastic Constant Matrix: (Units=GPa)
#
#
# Indices 1 2 3 4 5 6 
#
# 1 67.6352 33.8065 27.2466 -0.0002 -0.8400 -0.0002
# 2 33.8065 38.0542 8.0795 -0.0001 -5.8729 -0.0001
# 3 27.2466 8.0795 53.3655 -0.0003 -10.4731 -0.0003
# 4 -0.0002 -0.0001 -0.0003 8.5738 -0.0002 4.8936
# 5 -0.8400 -5.8729 -10.4731 -0.0002 29.4324 -0.0002
# 6 -0.0002 -0.0001 -0.0003 4.8936 -0.0002 16.9567
#
#
#
# Elastic Compliance Matrix: (Units=1/GPa)
#
#
# Indices 1 2 3 4 5 6 
#
# 1 0.036436 -0.030619 -0.016085 0.000000 -0.010794 0.000000
# 2 -0.030619 0.053386 0.010181 0.000000 0.013401 0.000000
# 3 -0.016085 0.010181 0.027649 0.000001 0.011411 0.000000
# 4 0.000000 0.000000 0.000001 0.139635 0.000001 -0.040298
# 5 -0.010794 0.013401 0.011411 0.000001 0.040403 0.000000
# 6 0.000000 0.000000 0.000000 -0.040298 0.000000 0.070604
#
#
# Mechanical properties :
#
#
# Convention : Reuss Voigt Hill
#
# Bulk Modulus (GPa) = 22.51064 33.03557 27.77311
# Shear Modulus (GPa) = 10.96566 16.98739 13.97652
#
# Velocity S-wave (km/s) = 2.51269 3.12741 2.83675
# Velocity P-wave (km/s) = 4.62373 5.66229 5.16916
#
# Compressibility (1/GPa) = 0.04442343
#
# Stress axis : x y z
#
# Youngs Moduli (GPa) = 27.44559 18.73135 36.16704
#
# Poissons Ratio (x) = 0.57354 0.58176
# Poissons Ratio (y) = 0.84036 -0.36820
# Poissons Ratio (z) = 0.44147 -0.19069
#
# Static dielectric constant tensor:
#      x y z
#    x 1.626120 0.000000 0.006170 
#    y 0.000000 1.603150 0.000000 
#    z 0.006170 0.000000 1.663550 
# 
# From -- ./inp_files/217464.got.cif
#   From: 2010.05.17/outbox.cif.g08.bks.cpg/sg12_109_cif.got.tgz:217464.got - 2010.06.03 13:09:07.
