data_PCOD9178943
_publ_section_title
;
Structure prediction by ZEFSAII (Michael W. Deem and Ramdas Pophale) SiO2 
 PCOD9178943
Probable space group: C 2/M
;
_chemical_formula_sum "Si O2"
_cell_formula_units_Z 48
_cell_length_a 23.408853
_cell_length_b 8.004908
_cell_length_c 27.040760
_cell_angle_alpha 90.000000
_cell_angle_beta 150.179312
_cell_angle_gamma 90.000000
_cell_volume 2519.780453
_symmetry_space_group_name_H-M "C 2/M"
_symmetry_group_IT_number 12
_symmetry_cell_setting 'monoclinic'
loop_
_space_group_symop_operation_xyz
x,y,z
-x,y,-z
-x,-y,-z
x,-y,z
1/2+x,1/2+y,z
1/2-x,1/2+y,-z
1/2-x,1/2-y,-z
1/2+x,1/2-y,z
loop_
_atom_site_type_symbol
_atom_site_label
_atom_site_fract_x
_atom_site_fract_y
_atom_site_fract_z
Si Si1 0.668871 0.688646 0.799026
Si Si2 0.301576 0.199503 0.617355
Si Si3 0.418940 0.802426 0.603932
Si Si4 0.561913 0.807206 0.192500
Si Si5 0.852299 0.309288 0.111005
Si Si6 0.428933 0.797004 0.996065
O O1 0.673916 0.500000 0.783535
O O2 0.551802 0.769685 0.691265
O O3 0.645843 0.692813 0.840406
O O4 0.797308 0.764147 0.891160
O O5 0.379313 0.261708 0.629039
O O6 0.171453 0.229833 0.502870
O O7 0.335132 0.268070 0.696933
O O8 0.321107 0.000000 0.635047
O O9 0.401168 0.000000 0.592169
O O10 0.463073 0.808511 0.159872
O O11 0.592285 0.000000 0.201950
O O12 0.501333 0.733768 0.098020
O O13 0.836351 0.500000 0.116822
O O14 0.750000 0.250000 0.000000
O O15 0.418561 0.000000 0.995065
O O16 0.500000 0.764628 0.000000
#
# Coordination Sequence:
#
# PCOD9178943 Si02
#       6
#     8   8   8   8   8   8
#     4  11  20  31  50  75 103 135 169 205 251 305
#     4   9  17  30  47  70 102 135 164 198 244 300
#     4  10  19  31  47  71 104 136 165 202 247 298
#     4   9  16  29  48  71 101 131 161 202 249 294
#     4  11  19  30  46  73 105 134 165 200 251 305
#     4   9  18  32  51  75 100 129 168 213 256 295
#
# _framework density 19.049278000000001
#
# number of rings (size 3 to 8) (size 9 to 14) (size 15 to 20)
#    0.000    2.167    3.333    1.500    0.000    0.667 
#    0.000    0.000    0.000    3.000    0.000    7.000 
#    0.000    0.000    0.000    0.000    0.000    0.000 
#
# Total GULP energy -133618.922509 kJ/mol
# GULP energy per Si atom -5567.455105 kJ/mol
# Density = 1.900592 g / cm^3
# Si number density = 19.049278 Si / 1000 Ang^3
#
#
#
# Elastic Constant Matrix: (Units=GPa)
#
#
# Indices 1 2 3 4 5 6 
#
# 1 57.9433 2.9091 50.3215 0.0000 3.1415 0.0000
# 2 2.9091 20.8751 4.9575 -0.0001 -0.9165 0.0000
# 3 50.3215 4.9575 178.0016 0.0000 3.1536 0.0000
# 4 0.0000 -0.0001 0.0000 7.8502 0.0000 -0.1622
# 5 3.1415 -0.9165 3.1536 0.0000 9.9067 0.0000
# 6 0.0000 0.0000 0.0000 -0.1622 0.0000 10.7597
#
#
#
# Elastic Compliance Matrix: (Units=1/GPa)
#
#
# Indices 1 2 3 4 5 6 
#
# 1 0.023225 -0.001955 -0.006414 0.000000 -0.005504 0.000000
# 2 -0.001955 0.048627 -0.000897 0.000000 0.005404 0.000000
# 3 -0.006414 -0.000897 0.007464 0.000000 -0.000425 0.000000
# 4 0.000000 0.000000 0.000000 0.127425 0.000000 0.001921
# 5 -0.005504 0.005404 -0.000425 0.000000 0.103322 0.000000
# 6 0.000000 0.000000 0.000000 0.001921 0.000000 0.092969
#
#
# Mechanical properties :
#
#
# Convention : Reuss Voigt Hill
#
# Bulk Modulus (GPa) = 16.45199 41.46626 28.95913
# Shear Modulus (GPa) = 11.31673 18.94545 15.13109
#
# Velocity S-wave (km/s) = 2.44001 3.15707 2.82141
# Velocity P-wave (km/s) = 4.07351 5.92491 5.08420
#
# Compressibility (1/GPa) = 0.06078293
#
# Stress axis : x y z
#
# Youngs Moduli (GPa) = 43.05716 20.56483 133.98279
#
# Poissons Ratio (x) = 0.04021 0.85934
# Poissons Ratio (y) = 0.08418 0.12023
# Poissons Ratio (z) = 0.27616 0.01845
#
# Static dielectric constant tensor:
#      x y z
#    x 1.623110 0.000000 -0.002480 
#    y 0.000000 1.695390 0.000000 
#    z -0.002480 0.000000 1.740630 
# 
# From -- ./inp_files/367215.got.cif
#   From: 2010.05.17/outbox.cif.g08.bks.cpg/sg12_184_cif.got.tgz:367215.got - 2010.06.03 13:09:07.
