data_PCOD9178608
_publ_section_title
;
Structure prediction by ZEFSAII (Michael W. Deem and Ramdas Pophale) SiO2 
 PCOD9178608
Probable space group: C 2/M
;
_chemical_formula_sum "Si O2"
_cell_formula_units_Z 64
_cell_length_a 19.702027
_cell_length_b 7.485909
_cell_length_c 23.413290
_cell_angle_alpha 90.000000
_cell_angle_beta 58.211762
_cell_angle_gamma 90.000000
_cell_volume 2935.197025
_symmetry_space_group_name_H-M "C 2/M"
_symmetry_group_IT_number 12
_symmetry_cell_setting 'monoclinic'
loop_
_space_group_symop_operation_xyz
x,y,z
-x,y,-z
-x,-y,-z
x,-y,z
1/2+x,1/2+y,z
1/2-x,1/2+y,-z
1/2-x,1/2-y,-z
1/2+x,1/2-y,z
loop_
_atom_site_type_symbol
_atom_site_label
_atom_site_fract_x
_atom_site_fract_y
_atom_site_fract_z
Si Si1 0.831451 0.780164 0.715403
Si Si2 0.139003 0.207670 0.080084
Si Si3 0.504888 0.293887 0.644715
Si Si4 0.312590 0.792898 0.297138
Si Si5 0.988739 0.716594 0.224793
Si Si6 0.679141 0.287215 0.574900
Si Si7 0.085890 0.787619 0.981928
Si Si8 0.747434 0.285251 0.131654
O O1 0.763574 0.718100 0.701742
O O2 0.802980 0.724717 0.791268
O O3 0.920718 0.716409 0.661513
O O4 0.834810 0.000000 0.713803
O O5 0.208250 0.284884 0.090083
O O6 0.058800 0.218955 0.153206
O O7 0.159761 0.000000 0.061599
O O8 0.117620 0.288465 0.028217
O O9 0.506682 0.500000 0.624895
O O10 0.499204 0.285148 0.716219
O O11 0.592408 0.216271 0.592878
O O12 0.400740 0.720140 0.244578
O O13 0.303443 0.783830 0.369485
O O14 0.315844 0.000000 0.278407
O O15 0.989566 0.500000 0.226282
O O16 0.670886 0.500000 0.584880
O O17 0.750000 0.250000 0.500000
O O18 0.159304 0.760687 0.906212
O O19 0.075027 0.000000 0.995096
O O20 0.000000 0.716379 0.000000
O O21 0.741084 0.500000 0.133456
#
# Coordination Sequence:
#
# PCOD9178608 Si02
#       8
#     8   8   8   8   8   8   8   8
#     4   9  17  33  56  80 107 136 174 221 265 311
#     4  10  20  36  55  72 100 140 179 218 266 323
#     4   9  17  34  57  79 106 141 178 212 254 311
#     4   9  19  34  53  79 111 140 171 217 263 307
#     4  10  19  30  50  80 106 132 170 217 264 310
#     4  10  20  35  58  83 109 145 182 215 255 307
#     4  10  23  39  52  73 106 140 175 222 278 328
#     4  10  20  35  57  78  99 137 181 222 266 314
#
# _framework density 21.804328999999999
#
# number of rings (size 3 to 8) (size 9 to 14) (size 15 to 20)
#    0.000    2.375    1.250    1.125    1.750    2.250 
#    0.000    1.875    0.000    3.750    0.000    0.000 
#    0.000    0.000    0.000    0.000    0.000    0.000 
#
# Total GULP energy -178622.069865 kJ/mol
# GULP energy per Si atom -5581.939683 kJ/mol
# Density = 2.175470 g / cm^3
# Si number density = 21.804329 Si / 1000 Ang^3
#
#
#
# Elastic Constant Matrix: (Units=GPa)
#
#
# Indices 1 2 3 4 5 6 
#
# 1 181.1746 2.5285 41.7188 0.0007 -36.8030 0.0026
# 2 2.5285 66.0156 -16.1697 0.0020 2.4750 0.0027
# 3 41.7188 -16.1697 80.4229 0.0001 -36.9192 0.0001
# 4 0.0007 0.0020 0.0001 16.7073 0.0000 -6.2368
# 5 -36.8030 2.4750 -36.9192 0.0000 32.4118 0.0002
# 6 0.0026 0.0027 0.0001 -6.2368 0.0002 6.9073
#
#
#
# Elastic Compliance Matrix: (Units=1/GPa)
#
#
# Indices 1 2 3 4 5 6 
#
# 1 0.007198 -0.000620 -0.000178 -0.000002 0.008018 -0.000004
# 2 -0.000620 0.016398 0.005702 -0.000007 0.004540 -0.000012
# 3 -0.000178 0.005702 0.028046 -0.000003 0.031309 -0.000006
# 4 -0.000002 -0.000007 -0.000003 0.090286 -0.000006 0.081522
# 5 0.008018 0.004540 0.031309 -0.000006 0.075273 -0.000013
# 6 -0.000004 -0.000012 -0.000006 0.081522 -0.000013 0.218383
#
#
# Mechanical properties :
#
#
# Convention : Reuss Voigt Hill
#
# Bulk Modulus (GPa) = 16.27299 42.64094 29.45696
# Shear Modulus (GPa) = 11.20428 31.17432 21.18930
#
# Velocity S-wave (km/s) = 2.26930 3.78528 3.12074
# Velocity P-wave (km/s) = 3.78757 6.22118 5.15018
#
# Compressibility (1/GPa) = 0.06145154
#
# Stress axis : x y z
#
# Youngs Moduli (GPa) = 138.93065 60.98216 35.65621
#
# Poissons Ratio (x) = 0.03780 0.00634
# Poissons Ratio (y) = 0.08611 -0.20333
# Poissons Ratio (z) = 0.02469 -0.34775
#
# Static dielectric constant tensor:
#      x y z
#    x 1.833440 0.000000 -0.023580 
#    y 0.000000 1.873300 0.000000 
#    z -0.023580 0.000000 1.750470 
# 
# From -- ./inp_files/346066.got.cif
#   From: 2010.05.17/outbox.cif.g08.bks.cpg/sg12_174_cif.got.tgz:346066.got - 2010.06.03 13:09:07.
