data_PCOD9178735
_publ_section_title
;
Structure prediction by ZEFSAII (Michael W. Deem and Ramdas Pophale) SiO2 
 PCOD9178735
Probable space group: C 2/M
;
_chemical_formula_sum "Si O2"
_cell_formula_units_Z 56
_cell_length_a 28.163717
_cell_length_b 7.947248
_cell_length_c 20.421277
_cell_angle_alpha 90.000000
_cell_angle_beta 50.687087
_cell_angle_gamma 90.000000
_cell_volume 3536.395220
_symmetry_space_group_name_H-M "C 2/M"
_symmetry_group_IT_number 12
_symmetry_cell_setting 'monoclinic'
loop_
_space_group_symop_operation_xyz
x,y,z
-x,y,-z
-x,-y,-z
x,-y,z
1/2+x,1/2+y,z
1/2-x,1/2+y,-z
1/2-x,1/2-y,-z
1/2+x,1/2-y,z
loop_
_atom_site_type_symbol
_atom_site_label
_atom_site_fract_x
_atom_site_fract_y
_atom_site_fract_z
Si Si1 0.366925 0.803649 0.237369
Si Si2 0.056938 0.801945 0.406015
Si Si3 0.489470 0.197723 0.345772
Si Si4 0.999236 0.301657 0.812602
Si Si5 0.538562 0.500000 0.067739
Si Si6 0.403207 0.500000 0.119377
Si Si7 0.877121 0.697801 0.531620
Si Si8 0.248123 0.200116 0.425882
O O1 0.430840 0.795447 0.221609
O O2 0.371649 0.668676 0.174946
O O3 0.310847 0.754717 0.333761
O O4 0.359245 0.000000 0.223576
O O5 0.047168 0.721156 0.343823
O O6 0.114460 0.771824 0.402954
O O7 0.000000 0.736047 0.500000
O O8 0.049076 0.000000 0.403603
O O9 0.500039 0.259962 0.263292
O O10 0.429945 0.269425 0.436408
O O11 0.477135 0.000000 0.347939
O O12 0.980066 0.500000 0.833327
O O13 0.960723 0.169787 0.889523
O O14 0.471489 0.500000 0.091581
O O15 0.587596 0.500000 0.966437
O O16 0.888670 0.500000 0.528245
O O17 0.811118 0.724851 0.557950
O O18 0.250000 0.250000 0.500000
O O19 0.242460 0.000000 0.427356
#
# Coordination Sequence:
#
# PCOD9178735 Si02
#       8
#     8   8   8   8   4   4   8   8
#     4   9  19  33  47  66  93 128 161 193 231 273
#     4   9  17  28  42  62  86 118 158 193 232 272
#     4   9  17  29  44  63  90 126 157 188 234 282
#     4   9  17  30  46  67  97 124 152 191 233 284
#     4   9  18  30  46  74  91 118 156 188 237 284
#     4   9  18  32  50  66  94 122 155 194 232 285
#     4  10  19  31  45  62  89 125 163 198 228 269
#     4  11  22  33  46  66  92 124 163 201 229 264
#
# _framework density 15.835334
#
# number of rings (size 3 to 8) (size 9 to 14) (size 15 to 20)
#    0.000    2.571    0.000    2.143    3.000    5.143 
#    2.571    2.857    0.000    0.000    0.000    0.000 
#    0.000    1.143    0.571    0.000    0.000    0.000 
#
# Total GULP energy -155938.031812 kJ/mol
# GULP energy per Si atom -5569.215422 kJ/mol
# Density = 1.579929 g / cm^3
# Si number density = 15.835334 Si / 1000 Ang^3
#
#
#
# Elastic Constant Matrix: (Units=GPa)
#
#
# Indices 1 2 3 4 5 6 
#
# 1 57.9880 15.6040 31.5711 -0.0029 14.4381 0.0024
# 2 15.6040 60.8385 50.3500 -0.0010 13.7033 0.0024
# 3 31.5711 50.3500 104.8961 -0.0064 24.2373 0.0055
# 4 -0.0029 -0.0010 -0.0064 22.4889 0.0040 3.8353
# 5 14.4381 13.7033 24.2373 0.0040 21.0092 -0.0018
# 6 0.0024 0.0024 0.0055 3.8353 -0.0018 22.0824
#
#
#
# Elastic Compliance Matrix: (Units=1/GPa)
#
#
# Indices 1 2 3 4 5 6 
#
# 1 0.022140 0.000310 -0.004431 0.000004 -0.010305 -0.000003
# 2 0.000310 0.027482 -0.012399 -0.000002 -0.003835 0.000000
# 3 -0.004431 -0.012399 0.019424 0.000007 -0.011276 -0.000005
# 4 0.000004 -0.000002 0.000007 0.045824 -0.000019 -0.007959
# 5 -0.010305 -0.003835 -0.011276 -0.000019 0.070190 0.000013
# 6 -0.000003 0.000000 -0.000005 -0.007959 0.000013 0.046667
#
#
# Mechanical properties :
#
#
# Convention : Reuss Voigt Hill
#
# Bulk Modulus (GPa) = 27.77324 46.53032 37.15178
# Shear Modulus (GPa) = 18.06564 21.52928 19.79746
#
# Velocity S-wave (km/s) = 3.38130 3.69124 3.53966
# Velocity P-wave (km/s) = 5.72897 6.90034 6.34176
#
# Compressibility (1/GPa) = 0.03600589
#
# Stress axis : x y z
#
# Youngs Moduli (GPa) = 45.16728 36.38686 51.48334
#
# Poissons Ratio (x) = -0.01128 0.22813
# Poissons Ratio (y) = -0.01400 0.63833
# Poissons Ratio (z) = 0.20015 0.45115
#
# Static dielectric constant tensor:
#      x y z
#    x 1.519790 0.000000 0.009840 
#    y 0.000000 1.563460 0.000000 
#    z 0.009840 0.000000 1.525590 
# 
# From -- ./inp_files/292467.got.cif
#   From: 2010.05.17/outbox.cif.g08.bks.cpg/sg12_147_cif.got.tgz:292467.got - 2010.06.03 13:09:07.
