data_PCOD9178495
_publ_section_title
;
Structure prediction by ZEFSAII (Michael W. Deem and Ramdas Pophale) SiO2 
 PCOD9178495
Probable space group: C 2/M
;
_chemical_formula_sum "Si O2"
_cell_formula_units_Z 64
_cell_length_a 23.323270
_cell_length_b 13.576788
_cell_length_c 16.497046
_cell_angle_alpha 90.000000
_cell_angle_beta 55.558017
_cell_angle_gamma 90.000000
_cell_volume 4308.124931
_symmetry_space_group_name_H-M "C 2/M"
_symmetry_group_IT_number 12
_symmetry_cell_setting 'monoclinic'
loop_
_space_group_symop_operation_xyz
x,y,z
-x,y,-z
-x,-y,-z
x,-y,z
1/2+x,1/2+y,z
1/2-x,1/2+y,-z
1/2-x,1/2-y,-z
1/2+x,1/2-y,z
loop_
_atom_site_type_symbol
_atom_site_label
_atom_site_fract_x
_atom_site_fract_y
_atom_site_fract_z
Si Si1 0.080720 0.881337 0.923128
Si Si2 0.274734 0.613923 0.926454
Si Si3 0.083338 0.114620 0.278018
Si Si4 0.079911 0.751872 0.439170
Si Si5 0.575860 0.382590 0.602715
Si Si6 0.787472 0.805228 0.094119
Si Si7 0.344888 0.618908 0.302496
Si Si8 0.790002 0.618237 0.683944
O O1 0.133822 0.828588 0.941740
O O2 0.105275 0.854896 0.812677
O O3 0.090043 0.000000 0.925545
O O4 0.000000 0.858658 0.000000
O O5 0.257960 0.500000 0.923674
O O6 0.354576 0.631813 0.834564
O O7 0.228095 0.691527 0.914347
O O8 0.269684 0.636933 0.025791
O O9 0.092104 0.182755 0.349200
O O10 0.005266 0.129887 0.307412
O O11 0.087208 0.000000 0.300189
O O12 0.086986 0.821906 0.511860
O O13 0.136350 0.666143 0.394254
O O14 0.000000 0.716503 0.500000
O O15 0.586330 0.500000 0.580331
O O16 0.625365 0.347042 0.635638
O O17 0.739878 0.842114 0.206599
O O18 0.345609 0.500000 0.305949
O O19 0.267481 0.648022 0.337552
O O20 0.792839 0.500000 0.685131
#
# Coordination Sequence:
#
# PCOD9178495 Si02
#       8
#     8   8   8   8   8   8   8   8
#     4   9  17  28  46  71  99 125 155 191 230 281
#     4  10  19  30  49  73  96 123 157 189 226 283
#     4   9  17  29  46  69  97 120 143 187 236 282
#     4  10  19  31  46  67  90 120 161 191 232 275
#     4   9  17  29  47  69  94 118 146 191 242 285
#     4  10  19  32  48  71  99 126 152 188 237 282
#     4   8  16  29  44  66  91 119 150 185 234 277
#     4  10  19  33  48  63  93 126 156 193 231 274
#
# _framework density 14.855651999999999
#
# number of rings (size 3 to 8) (size 9 to 14) (size 15 to 20)
#    0.000    2.625    1.250    2.250    1.750    2.250 
#    0.000    0.000    0.000    0.375    0.000    0.000 
#    0.000    0.000    0.000    0.000    0.000    0.000 
#
# Total GULP energy -178235.984941 kJ/mol
# GULP energy per Si atom -5569.874529 kJ/mol
# Density = 1.482184 g / cm^3
# Si number density = 14.855652 Si / 1000 Ang^3
#
#
#
# Elastic Constant Matrix: (Units=GPa)
#
#
# Indices 1 2 3 4 5 6 
#
# 1 120.0640 53.9106 56.9124 0.0000 0.6105 0.0000
# 2 53.9106 67.3215 32.6432 0.0000 -5.0020 0.0000
# 3 56.9124 32.6432 58.3996 0.0000 -6.2498 0.0000
# 4 0.0000 0.0000 0.0000 17.3267 0.0000 -3.2000
# 5 0.6105 -5.0020 -6.2498 0.0000 22.9221 0.0000
# 6 0.0000 0.0000 0.0000 -3.2000 0.0000 23.8575
#
#
#
# Elastic Compliance Matrix: (Units=1/GPa)
#
#
# Indices 1 2 3 4 5 6 
#
# 1 0.019158 -0.008823 -0.014420 0.000000 -0.006367 0.000000
# 2 -0.008823 0.024483 -0.004625 0.000000 0.004317 0.000000
# 3 -0.014420 -0.004625 0.034707 0.000000 0.008838 0.000000
# 4 0.000000 0.000000 0.000000 0.059180 0.000000 0.007938
# 5 -0.006367 0.004317 0.008838 0.000000 0.047147 0.000000
# 6 0.000000 0.000000 0.000000 0.007938 0.000000 0.042980
#
#
# Mechanical properties :
#
#
# Convention : Reuss Voigt Hill
#
# Bulk Modulus (GPa) = 44.22321 59.19083 51.70702
# Shear Modulus (GPa) = 17.18633 19.64250 18.41441
#
# Velocity S-wave (km/s) = 3.40500 3.64018 3.52455
# Velocity P-wave (km/s) = 6.72993 7.58936 7.17253
#
# Compressibility (1/GPa) = 0.02261256
#
# Stress axis : x y z
#
# Youngs Moduli (GPa) = 52.19696 40.84543 28.81246
#
# Poissons Ratio (x) = 0.36037 0.41548
# Poissons Ratio (y) = 0.46052 0.13325
# Poissons Ratio (z) = 0.75269 0.18890
#
# Static dielectric constant tensor:
#      x y z
#    x 1.493380 0.000000 -0.003810 
#    y 0.000000 1.470970 0.000000 
#    z -0.003810 0.000000 1.487760 
# 
# From -- ./inp_files/282886.got.cif
#   From: 2010.05.17/outbox.cif.g08.bks.cpg/sg12_142_cif.got.tgz:282886.got - 2010.06.03 13:09:07.
