data_PCOD9178806
_publ_section_title
;
Structure prediction by ZEFSAII (Michael W. Deem and Ramdas Pophale) SiO2 
 PCOD9178806
Probable space group: C 2/M
;
_chemical_formula_sum "Si O2"
_cell_formula_units_Z 56
_cell_length_a 20.422248
_cell_length_b 7.331725
_cell_length_c 33.315093
_cell_angle_alpha 90.000000
_cell_angle_beta 147.635998
_cell_angle_gamma 90.000000
_cell_volume 2670.206893
_symmetry_space_group_name_H-M "C 2/M"
_symmetry_group_IT_number 12
_symmetry_cell_setting 'monoclinic'
loop_
_space_group_symop_operation_xyz
x,y,z
-x,y,-z
-x,-y,-z
x,-y,z
1/2+x,1/2+y,z
1/2-x,1/2+y,-z
1/2-x,1/2-y,-z
1/2+x,1/2-y,z
loop_
_atom_site_type_symbol
_atom_site_label
_atom_site_fract_x
_atom_site_fract_y
_atom_site_fract_z
Si Si1 0.995340 0.722512 0.951020
Si Si2 0.993197 0.777295 0.626029
Si Si3 0.770748 0.778942 0.203636
Si Si4 0.845253 0.779448 0.627763
Si Si5 0.751522 0.282730 0.953982
Si Si6 0.920797 0.221251 0.202790
Si Si7 0.063068 0.788578 0.492288
O O1 0.994376 0.500000 0.949020
O O2 0.868564 0.783501 0.865212
O O3 0.000000 0.772763 0.000000
O O4 0.119731 0.788089 0.995672
O O5 0.893718 0.721490 0.608519
O O6 0.970696 0.711890 0.569203
O O7 0.126619 0.721164 0.711475
O O8 0.989041 0.000000 0.623724
O O9 0.823492 0.730513 0.187128
O O10 0.769566 0.000000 0.204496
O O11 0.710117 0.718849 0.569418
O O12 0.947450 0.717975 0.712848
O O13 0.844220 0.000000 0.626768
O O14 0.752750 0.500000 0.947894
O O15 0.635403 0.214883 0.868284
O O16 0.750000 0.250000 0.000000
O O17 0.928202 0.000000 0.205952
O O18 0.000000 0.711216 0.500000
O O19 0.023610 0.000000 0.470466
#
# Coordination Sequence:
#
# PCOD9178806 Si02
#       7
#     8   8   8   8   8   8   8
#     4   9  14  23  44  71  92 114 154 201 232 255
#     4   8  15  28  47  68  91 120 155 191 230 274
#     4   8  12  22  43  70  91 111 152 205 235 253
#     4   9  17  31  53  73  85 115 165 202 225 262
#     4  10  19  31  46  69  99 127 154 189 233 279
#     4   8  14  27  47  69  93 118 151 197 239 266
#     4  10  20  33  46  67 101 130 146 177 238 293
#
# _framework density 20.972156999999999
#
# number of rings (size 3 to 8) (size 9 to 14) (size 15 to 20)
#    0.000    3.143    1.429    2.143    0.000    0.286 
#    2.571    0.714    0.000    0.429    0.000    1.000 
#    0.000    0.000    0.000    0.000    0.000    0.000 
#
# Total GULP energy -156162.355444 kJ/mol
# GULP energy per Si atom -5577.226980 kJ/mol
# Density = 2.092442 g / cm^3
# Si number density = 20.972157 Si / 1000 Ang^3
#
#
#
# Elastic Constant Matrix: (Units=GPa)
#
#
# Indices 1 2 3 4 5 6 
#
# 1 152.4272 -0.4858 108.1742 -0.0007 -10.4728 -0.0003
# 2 -0.4858 78.1899 -3.1238 -0.0011 -1.6982 -0.0002
# 3 108.1742 -3.1238 181.8002 -0.0001 -12.1435 0.0000
# 4 -0.0007 -0.0011 -0.0001 -2.7209 0.0002 -13.1856
# 5 -10.4728 -1.6982 -12.1435 0.0002 28.9285 -0.0006
# 6 -0.0003 -0.0002 0.0000 -13.1856 -0.0006 -79.2604
#
#
#
# Elastic Compliance Matrix: (Units=1/GPa)
#
#
# Indices 1 2 3 4 5 6 
#
# 1 0.011406 -0.000169 -0.006703 -0.000013 0.001306 0.000002
# 2 -0.000169 0.012822 0.000377 -0.000025 0.000850 0.000004
# 3 -0.006703 0.000377 0.009604 0.000008 0.001627 -0.000001
# 4 -0.000013 -0.000025 0.000008 -1.896260 0.000019 0.315457
# 5 0.001306 0.000850 0.001627 0.000019 0.035774 -0.000004
# 6 0.000002 0.000004 -0.000001 0.315457 -0.000004 -0.065095
#
#
# Mechanical properties :
#
#
# Convention : Reuss Voigt Hill
#
# Bulk Modulus (GPa) = 47.97422 69.06070 58.51746
# Shear Modulus (GPa) = -2.67121 9.91296 3.62088
#
# Velocity S-wave (km/s) = -1.12980 2.17646 1.31539
# Velocity P-wave (km/s) = 4.60683 6.27034 5.50182
#
# Compressibility (1/GPa) = 0.02084453
#
# Stress axis : x y z
#
# Youngs Moduli (GPa) = 87.66969 77.99176 104.12400
#
# Poissons Ratio (x) = 0.01315 0.69791
# Poissons Ratio (y) = 0.01478 -0.03930
# Poissons Ratio (z) = 0.58762 -0.02943
#
# Static dielectric constant tensor:
#      x y z
#    x 1.713810 0.000000 0.010290 
#    y 0.000000 1.859390 -0.000020 
#    z 0.010290 -0.000020 1.358760 
# 
# From -- ./inp_files/268888.got.cif
#   From: 2010.05.17/outbox.cif.g08.bks.cpg/sg12_135_cif.got.tgz:268888.got - 2010.06.03 13:09:07.
