data_PCOD9178752
_publ_section_title
;
Structure prediction by ZEFSAII (Michael W. Deem and Ramdas Pophale) SiO2 
 PCOD9178752
Probable space group: C 2/M
;
_chemical_formula_sum "Si O2"
_cell_formula_units_Z 48
_cell_length_a 5.008356
_cell_length_b 13.656174
_cell_length_c 31.259772
_cell_angle_alpha 90.000000
_cell_angle_beta 89.682971
_cell_angle_gamma 90.000000
_cell_volume 2137.978783
_symmetry_space_group_name_H-M "C 2/M"
_symmetry_group_IT_number 12
_symmetry_cell_setting 'monoclinic'
loop_
_space_group_symop_operation_xyz
x,y,z
-x,y,-z
-x,-y,-z
x,-y,z
1/2+x,1/2+y,z
1/2-x,1/2+y,-z
1/2-x,1/2-y,-z
1/2+x,1/2-y,z
loop_
_atom_site_type_symbol
_atom_site_label
_atom_site_fract_x
_atom_site_fract_y
_atom_site_fract_z
Si Si1 0.436260 0.319108 0.045076
Si Si2 0.557147 0.319225 0.135245
Si Si3 0.371477 0.119277 0.455627
Si Si4 0.560908 0.686287 0.314775
Si Si5 0.628627 0.616291 0.593729
Si Si6 0.071082 0.180869 0.774841
O O1 0.139456 0.274560 0.045080
O O2 0.496911 0.370727 0.090140
O O3 0.500000 0.370682 0.000000
O O4 0.353597 0.225650 0.135262
O O5 0.493374 0.371286 0.180243
O O6 0.500000 0.151828 0.500000
O O7 0.571564 0.148274 0.417031
O O8 0.075474 0.150344 0.442974
O O9 0.362832 0.000000 0.457929
O O10 0.368508 0.782178 0.313523
O O11 0.481556 0.638879 0.359464
O O12 0.487736 0.631133 0.270689
O O13 0.635581 0.500000 0.590031
O O14 0.867011 0.274200 0.775149
#
# Coordination Sequence:
#
# PCOD9178752 Si02
#       6
#     8   8   8   8   8   8
#     4   8  12  16  22  33  50  73 101 136 177 214
#     4   8  12  18  27  39  56  78 109 146 177 211
#     4   9  17  30  49  70  88 108 137 169 197 232
#     4  10  19  31  46  63  86 113 138 166 203 243
#     4  10  19  31  49  70  88 108 137 170 201 235
#     4   8  14  23  35  50  67  92 124 154 184 222
#
# _framework density 22.45111
#
# number of rings (size 3 to 8) (size 9 to 14) (size 15 to 20)
#    0.000    3.167    0.000    1.500    0.000    2.000 
#    0.000    0.000    0.000   10.000    0.000    0.000 
#    0.000    0.000    0.000    0.000    0.000    0.833 
#
# Total GULP energy -133744.917701 kJ/mol
# GULP energy per Si atom -5572.704904 kJ/mol
# Density = 2.240001 g / cm^3
# Si number density = 22.451110 Si / 1000 Ang^3
#
#
#
# Elastic Constant Matrix: (Units=GPa)
#
#
# Indices 1 2 3 4 5 6 
#
# 1 98.2836 -7.4782 1.3626 0.0000 -0.8581 0.0000
# 2 -7.4782 44.0079 -0.7213 0.0000 2.6734 0.0000
# 3 1.3626 -0.7213 153.6663 0.0000 3.5736 0.0000
# 4 0.0000 0.0000 0.0000 -8.6495 0.0000 -2.7652
# 5 -0.8581 2.6734 3.5736 0.0000 40.2229 0.0000
# 6 0.0000 0.0000 0.0000 -2.7652 0.0000 -1.1621
#
#
#
# Elastic Compliance Matrix: (Units=1/GPa)
#
#
# Indices 1 2 3 4 5 6 
#
# 1 0.010309 0.001744 -0.000086 0.000000 0.000112 0.000000
# 2 0.001744 0.023113 0.000128 0.000000 -0.001510 0.000000
# 3 -0.000086 0.000128 0.006523 0.000000 -0.000590 0.000000
# 4 0.000000 0.000000 0.000000 -0.483198 0.000000 1.149789
# 5 0.000112 -0.001510 -0.000590 0.000000 0.025017 0.000000
# 6 0.000000 0.000000 0.000000 1.149789 0.000000 -3.596500
#
#
# Mechanical properties :
#
#
# Convention : Reuss Voigt Hill
#
# Bulk Modulus (GPa) = 22.97923 31.36487 27.17205
# Shear Modulus (GPa) = -1.24881 26.26858 12.50989
#
# Velocity S-wave (km/s) = -0.74662 3.42429 2.36308
# Velocity P-wave (km/s) = 3.08451 5.44380 4.42432
#
# Compressibility (1/GPa) = 0.04351755
#
# Stress axis : x y z
#
# Youngs Moduli (GPa) = 96.99810 43.26506 153.31104
#
# Poissons Ratio (x) = -0.07544 0.01316
# Poissons Ratio (y) = -0.16913 -0.01965
# Poissons Ratio (z) = 0.00833 -0.00554
#
# Static dielectric constant tensor:
#      x y z
#    x 1.789630 0.000000 -0.002560 
#    y 0.000000 1.798120 0.000000 
#    z -0.002560 0.000000 1.968340 
# 
# From -- ./inp_files/354993.got.cif
#   From: 2010.05.17/outbox.cif.g08.bks.cpg/sg12_178_cif.got.tgz:354993.got - 2010.06.03 13:09:07.
