data_PCOD9178965
_publ_section_title
;
Structure prediction by ZEFSAII (Michael W. Deem and Ramdas Pophale) SiO2 
 PCOD9178965
Probable space group: C 2/M
;
_chemical_formula_sum "Si O2"
_cell_formula_units_Z 56
_cell_length_a 18.823873
_cell_length_b 7.386776
_cell_length_c 30.309042
_cell_angle_alpha 90.000000
_cell_angle_beta 33.395518
_cell_angle_gamma 90.000000
_cell_volume 2319.672771
_symmetry_space_group_name_H-M "C 2/M"
_symmetry_group_IT_number 12
_symmetry_cell_setting 'monoclinic'
loop_
_space_group_symop_operation_xyz
x,y,z
-x,y,-z
-x,-y,-z
x,-y,z
1/2+x,1/2+y,z
1/2-x,1/2+y,-z
1/2-x,1/2-y,-z
1/2+x,1/2-y,z
loop_
_atom_site_type_symbol
_atom_site_label
_atom_site_fract_x
_atom_site_fract_y
_atom_site_fract_z
Si Si1 0.311307 0.716213 0.016017
Si Si2 0.785828 0.284106 0.692450
Si Si3 0.600196 0.778057 0.652849
Si Si4 0.688424 0.220772 0.170307
Si Si5 0.068675 0.285001 0.570980
Si Si6 0.645216 0.753437 0.437167
Si Si7 0.894551 0.221090 0.137549
O O1 0.318823 0.500000 0.017022
O O2 0.227157 0.781196 0.101101
O O3 0.250000 0.750000 0.000000
O O4 0.458654 0.783114 0.943117
O O5 0.775400 0.500000 0.686893
O O6 0.816572 0.184670 0.631142
O O7 0.665918 0.225972 0.783942
O O8 0.914173 0.266665 0.655357
O O9 0.455980 0.725413 0.741476
O O10 0.623669 0.731145 0.589455
O O11 0.710007 0.686809 0.624939
O O12 0.610308 0.000000 0.651766
O O13 0.798154 0.278125 0.148408
O O14 0.688084 0.000000 0.171536
O O15 0.092808 0.500000 0.550397
O O16 0.111337 0.186548 0.504293
O O17 0.500000 0.824262 0.500000
O O18 0.893519 0.000000 0.137718
#
# Coordination Sequence:
#
# PCOD9178965 Si02
#       7
#     8   8   8   8   8   8   8
#     4  10  21  34  54  83 111 136 165 207 257 307
#     4   9  16  28  47  71  96 120 152 202 256 296
#     4  10  19  31  48  66  92 130 168 206 243 285
#     4   9  17  32  52  74  96 126 171 215 251 290
#     4   9  16  30  48  67  91 120 159 208 254 290
#     4  10  20  29  43  68  96 126 160 197 248 304
#     4   9  16  30  52  75  98 126 167 211 249 290
#
# _framework density 24.141335999999999
#
# number of rings (size 3 to 8) (size 9 to 14) (size 15 to 20)
#    0.000    2.571    1.429    1.286    2.000    3.714 
#    0.000    0.000    0.000    1.714    0.000    0.000 
#    0.000    0.000    0.000    0.000    0.000    0.000 
#
# Total GULP energy -155961.889690 kJ/mol
# GULP energy per Si atom -5570.067489 kJ/mol
# Density = 2.408639 g / cm^3
# Si number density = 24.141336 Si / 1000 Ang^3
#
#
#
# Elastic Constant Matrix: (Units=GPa)
#
#
# Indices 1 2 3 4 5 6 
#
# 1 214.3071 21.9524 102.6801 0.0014 -6.3802 0.0261
# 2 21.9524 96.9856 17.4554 0.0078 0.4299 0.0190
# 3 102.6801 17.4554 218.7783 0.0019 2.3999 0.0005
# 4 0.0014 0.0078 0.0019 -14.9835 -0.0011 15.8617
# 5 -6.3802 0.4299 2.3999 -0.0011 54.1348 0.0009
# 6 0.0261 0.0190 0.0005 15.8617 0.0009 -9.6055
#
#
#
# Elastic Compliance Matrix: (Units=1/GPa)
#
#
# Indices 1 2 3 4 5 6 
#
# 1 0.006132 -0.000885 -0.002817 -0.000021 0.000855 -0.000019
# 2 -0.000885 0.010589 -0.000428 -0.000033 -0.000169 -0.000037
# 3 -0.002817 -0.000428 0.005933 0.000011 -0.000592 0.000010
# 4 -0.000021 -0.000033 0.000011 0.089212 -0.000003 0.147317
# 5 0.000855 -0.000169 -0.000592 -0.000003 0.018601 -0.000002
# 6 -0.000019 -0.000037 0.000010 0.147317 -0.000002 0.139161
#
#
# Mechanical properties :
#
#
# Convention : Reuss Voigt Hill
#
# Bulk Modulus (GPa) = 69.46495 90.47186 79.96841
# Shear Modulus (GPa) = 17.68756 31.77469 24.73112
#
# Velocity S-wave (km/s) = 2.70972 3.63187 3.20415
# Velocity P-wave (km/s) = 6.21505 7.42594 6.84732
#
# Compressibility (1/GPa) = 0.01439575
#
# Stress axis : x y z
#
# Youngs Moduli (GPa) = 163.08407 94.43924 168.53736
#
# Poissons Ratio (x) = 0.08356 0.47471
# Poissons Ratio (y) = 0.14429 0.07209
# Poissons Ratio (z) = 0.45935 0.04039
#
# Static dielectric constant tensor:
#      x y z
#    x 1.846810 0.000000 -0.000890 
#    y 0.000000 1.772940 0.000000 
#    z -0.000890 0.000000 1.881060 
# 
# From -- ./inp_files/223156.got.cif
#   From: 2010.05.17/outbox.cif.g08.bks.cpg/sg12_112_cif.got.tgz:223156.got - 2010.06.03 13:09:07.
