data_PCOD9178528
_publ_section_title
;
Structure prediction by ZEFSAII (Michael W. Deem and Ramdas Pophale) SiO2 
 PCOD9178528
Probable space group: C 2/M
;
_chemical_formula_sum "Si O2"
_cell_formula_units_Z 64
_cell_length_a 21.484569
_cell_length_b 9.163015
_cell_length_c 23.964843
_cell_angle_alpha 90.000000
_cell_angle_beta 128.769323
_cell_angle_gamma 90.000000
_cell_volume 3678.343805
_symmetry_space_group_name_H-M "C 2/M"
_symmetry_group_IT_number 12
_symmetry_cell_setting 'monoclinic'
loop_
_space_group_symop_operation_xyz
x,y,z
-x,y,-z
-x,-y,-z
x,-y,z
1/2+x,1/2+y,z
1/2-x,1/2+y,-z
1/2-x,1/2-y,-z
1/2+x,1/2-y,z
loop_
_atom_site_type_symbol
_atom_site_label
_atom_site_fract_x
_atom_site_fract_y
_atom_site_fract_z
Si Si1 0.761985 0.324958 0.094755
Si Si2 0.196559 0.667563 0.386457
Si Si3 0.365034 0.665684 0.549386
Si Si4 0.264252 0.827204 0.322755
Si Si5 0.373943 0.175843 0.057235
Si Si6 0.529525 0.823301 0.077926
Si Si7 0.215879 0.676145 0.183592
Si Si8 0.582989 0.840174 0.516619
O O1 0.754498 0.500000 0.096514
O O2 0.841737 0.296206 0.102062
O O3 0.755161 0.246928 0.150646
O O4 0.688234 0.259967 0.017496
O O5 0.180811 0.500000 0.363502
O O6 0.280814 0.674104 0.467902
O O7 0.136395 0.733817 0.397385
O O8 0.203847 0.763819 0.335299
O O9 0.377326 0.500000 0.572712
O O10 0.424518 0.725321 0.536793
O O11 0.256902 0.738336 0.261944
O O12 0.349789 0.804067 0.400306
O O13 0.252939 0.000000 0.307534
O O14 0.463600 0.217917 0.087844
O O15 0.365983 0.000000 0.043590
O O16 0.621890 0.779613 0.135893
O O17 0.529909 0.000000 0.077714
O O18 0.500000 0.774683 0.000000
O O19 0.219948 0.500000 0.182747
O O20 0.500000 0.851433 0.500000
O O21 0.606853 0.000000 0.506013
#
# Coordination Sequence:
#
# PCOD9178528 Si02
#       8
#     8   8   8   8   8   8   8   8
#     4  10  19  30  49  77 105 133 169 213 262 307
#     4   9  16  28  47  71  98 128 163 196 239 297
#     4   9  16  26  45  74 102 126 156 201 249 287
#     4  10  20  34  52  75 104 131 164 210 256 303
#     4   9  17  32  52  74 101 133 172 215 256 304
#     4   9  16  30  53  77  99 131 176 217 250 294
#     4  11  21  34  54  75 102 138 177 213 255 313
#     4   9  18  33  53  75  99 131 170 208 249 303
#
# _framework density 17.399135000000001
#
# number of rings (size 3 to 8) (size 9 to 14) (size 15 to 20)
#    0.000    2.500    1.250    1.875    0.000    4.250 
#    0.000    1.875    2.750    0.000    0.000    0.000 
#    0.000    0.000    0.000    0.000    0.000    0.000 
#
# Total GULP energy -178198.517181 kJ/mol
# GULP energy per Si atom -5568.703662 kJ/mol
# Density = 1.735953 g / cm^3
# Si number density = 17.399135 Si / 1000 Ang^3
#
#
#
# Elastic Constant Matrix: (Units=GPa)
#
#
# Indices 1 2 3 4 5 6 
#
# 1 113.3623 41.6094 37.1203 0.0000 -26.7452 0.0000
# 2 41.6094 60.6082 35.2279 0.0000 -17.5069 0.0000
# 3 37.1203 35.2279 57.0422 0.0000 -24.6241 0.0000
# 4 0.0000 0.0000 0.0000 22.9328 0.0000 -9.7536
# 5 -26.7452 -17.5069 -24.6241 0.0000 24.4065 0.0000
# 6 0.0000 0.0000 0.0000 -9.7536 0.0000 25.2676
#
#
#
# Elastic Compliance Matrix: (Units=1/GPa)
#
#
# Indices 1 2 3 4 5 6 
#
# 1 0.013616 -0.005980 -0.001024 0.000000 0.009598 0.000000
# 2 -0.005980 0.028622 -0.013731 0.000000 0.000124 0.000000
# 3 -0.001024 -0.013731 0.038870 0.000000 0.028245 0.000000
# 4 0.000000 0.000000 0.000000 0.052171 0.000000 0.020139
# 5 0.009598 0.000124 0.028245 0.000000 0.080076 0.000000
# 6 0.000000 0.000000 0.000000 0.020139 0.000000 0.047350
#
#
# Mechanical properties :
#
#
# Convention : Reuss Voigt Hill
#
# Bulk Modulus (GPa) = 25.22885 50.99199 38.11042
# Shear Modulus (GPa) = 15.85347 22.32504 19.08926
#
# Velocity S-wave (km/s) = 3.02182 3.58594 3.31590
# Velocity P-wave (km/s) = 5.16786 6.82027 6.05074
#
# Compressibility (1/GPa) = 0.03963717
#
# Stress axis : x y z
#
# Youngs Moduli (GPa) = 73.44275 34.93838 25.72661
#
# Poissons Ratio (x) = 0.20894 0.02635
# Poissons Ratio (y) = 0.43920 0.35325
# Poissons Ratio (z) = 0.07523 0.47974
#
# Static dielectric constant tensor:
#      x y z
#    x 1.617960 0.000000 -0.000020 
#    y 0.000000 1.601740 0.000000 
#    z -0.000020 0.000000 1.570150 
# 
# From -- ./inp_files/320107.got.cif
#   From: 2010.05.17/outbox.cif.g08.bks.cpg/sg12_161_cif.got.tgz:320107.got - 2010.06.03 13:09:07.
