data_PCOD9178372
_publ_section_title
;
Structure prediction by ZEFSAII (Michael W. Deem and Ramdas Pophale) SiO2 
 PCOD9178372
Probable space group: C 2/M
;
_chemical_formula_sum "Si O2"
_cell_formula_units_Z 56
_cell_length_a 20.737236
_cell_length_b 8.210355
_cell_length_c 19.509900
_cell_angle_alpha 90.000000
_cell_angle_beta 99.094754
_cell_angle_gamma 90.000000
_cell_volume 3279.996739
_symmetry_space_group_name_H-M "C 2/M"
_symmetry_group_IT_number 12
_symmetry_cell_setting 'monoclinic'
loop_
_space_group_symop_operation_xyz
x,y,z
-x,y,-z
-x,-y,-z
x,-y,z
1/2+x,1/2+y,z
1/2-x,1/2+y,-z
1/2-x,1/2-y,-z
1/2+x,1/2-y,z
loop_
_atom_site_type_symbol
_atom_site_label
_atom_site_fract_x
_atom_site_fract_y
_atom_site_fract_z
Si Si1 0.390107 0.188151 0.684081
Si Si2 0.928111 0.692911 0.461320
Si Si3 0.317490 0.310808 0.542676
Si Si4 0.403575 0.680228 0.831677
Si Si5 0.429194 0.000000 0.076434
Si Si6 0.438912 0.685351 0.163389
Si Si7 0.464744 0.306106 0.322993
Si Si8 0.087566 0.500000 0.084359
O O1 0.339442 0.217430 0.614810
O O2 0.377636 0.291632 0.750333
O O3 0.462041 0.234301 0.668044
O O4 0.391755 0.000000 0.705057
O O5 0.920512 0.500000 0.471997
O O6 0.873476 0.783383 0.495487
O O7 0.926975 0.730970 0.380595
O O8 0.000000 0.741493 0.500000
O O9 0.312939 0.500000 0.559275
O O10 0.250000 0.250000 0.500000
O O11 0.385074 0.500000 0.854093
O O12 0.482664 0.681809 0.836798
O O13 0.386734 0.834591 0.875983
O O14 0.411838 0.834284 0.114093
O O15 0.508652 0.000000 0.082820
O O16 0.401749 0.000000 0.995081
O O17 0.415244 0.500000 0.145180
O O18 0.432510 0.721726 0.243295
O O19 0.470377 0.500000 0.333290
#
# Coordination Sequence:
#
# PCOD9178372 Si02
#       8
#     8   8   8   8   4   8   8   4
#     4  11  19  31  50  71  95 127 170 216 259 310
#     4  11  22  35  53  78 102 131 174 223 265 308
#     4  12  25  40  55  73 103 138 176 217 271 325
#     4   9  16  27  41  61  87 119 162 209 250 292
#     4   9  16  24  40  54  88 125 160 193 258 297
#     4   8  16  26  38  60  87 120 163 202 246 304
#     4  10  19  30  48  72  96 126 169 218 259 300
#     4   9  16  26  36  62  83 122 163 204 239 309
#
# _framework density 17.073187999999998
#
# number of rings (size 3 to 8) (size 9 to 14) (size 15 to 20)
#    0.000    2.000    2.143    4.286    4.000    1.143 
#    0.000    2.857    0.000    0.000    0.000    0.000 
#    0.000    0.000    0.000    1.286    4.571    1.143 
#
# Total GULP energy -156174.755434 kJ/mol
# GULP energy per Si atom -5577.669837 kJ/mol
# Density = 1.703433 g / cm^3
# Si number density = 17.073188 Si / 1000 Ang^3
#
#
#
# Elastic Constant Matrix: (Units=GPa)
#
#
# Indices 1 2 3 4 5 6 
#
# 1 26.2393 10.7459 11.7396 0.0000 4.5431 0.0000
# 2 10.7459 89.8517 43.6233 0.0000 0.2154 0.0000
# 3 11.7396 43.6233 100.0480 0.0000 1.2414 0.0000
# 4 0.0000 0.0000 0.0000 20.8119 0.0000 -4.7498
# 5 4.5431 0.2154 1.2414 0.0000 8.2990 0.0000
# 6 0.0000 0.0000 0.0000 -4.7498 0.0000 12.4385
#
#
#
# Elastic Compliance Matrix: (Units=1/GPa)
#
#
# Indices 1 2 3 4 5 6 
#
# 1 0.045347 -0.003714 -0.003401 0.000000 -0.024219 0.000000
# 2 -0.003714 0.014425 -0.005885 0.000000 0.002539 0.000000
# 3 -0.003401 -0.005885 0.012959 0.000000 0.000076 0.000000
# 4 0.000000 0.000000 0.000000 0.052637 0.000000 0.020100
# 5 -0.024219 0.002539 0.000076 0.000000 0.133678 0.000000
# 6 0.000000 0.000000 0.000000 0.020100 0.000000 0.088071
#
#
# Mechanical properties :
#
#
# Convention : Reuss Voigt Hill
#
# Bulk Modulus (GPa) = 21.39936 38.70628 30.05282
# Shear Modulus (GPa) = 12.86358 18.31190 15.58774
#
# Velocity S-wave (km/s) = 2.74786 3.27854 3.02486
# Velocity P-wave (km/s) = 4.75697 6.08702 5.46262
#
# Compressibility (1/GPa) = 0.04673038
#
# Stress axis : x y z
#
# Youngs Moduli (GPa) = 22.05232 69.32479 77.16365
#
# Poissons Ratio (x) = 0.25747 0.26244
# Poissons Ratio (y) = 0.08190 0.45413
# Poissons Ratio (z) = 0.07500 0.40800
#
# Static dielectric constant tensor:
#      x y z
#    x 1.532850 0.000000 0.000750 
#    y 0.000000 1.598230 0.000000 
#    z 0.000750 0.000000 1.575330 
# 
# From -- ./inp_files/280460.got.cif
#   From: 2010.05.17/outbox.cif.g08.bks.cpg/sg12_141_cif.got.tgz:280460.got - 2010.06.03 13:09:07.
