data_PCOD9178836
_publ_section_title
;
Structure prediction by ZEFSAII (Michael W. Deem and Ramdas Pophale) SiO2 
 PCOD9178836
Probable space group: C 2/M
;
_chemical_formula_sum "Si O2"
_cell_formula_units_Z 64
_cell_length_a 13.894897
_cell_length_b 9.459205
_cell_length_c 22.721869
_cell_angle_alpha 90.000000
_cell_angle_beta 68.911328
_cell_angle_gamma 90.000000
_cell_volume 2786.423719
_symmetry_space_group_name_H-M "C 2/M"
_symmetry_group_IT_number 12
_symmetry_cell_setting 'monoclinic'
loop_
_space_group_symop_operation_xyz
x,y,z
-x,y,-z
-x,-y,-z
x,-y,z
1/2+x,1/2+y,z
1/2-x,1/2+y,-z
1/2-x,1/2-y,-z
1/2+x,1/2-y,z
loop_
_atom_site_type_symbol
_atom_site_label
_atom_site_fract_x
_atom_site_fract_y
_atom_site_fract_z
Si Si1 0.559259 0.659540 0.428622
Si Si2 0.127729 0.160932 0.680682
Si Si3 0.145588 0.338245 0.306909
Si Si4 0.718189 0.158215 0.562494
Si Si5 0.555920 0.662455 0.078529
Si Si6 0.832468 0.162946 0.062102
Si Si7 0.238589 0.161568 0.183235
Si Si8 0.036682 0.339336 0.801866
O O1 0.500000 0.716210 0.500000
O O2 0.518114 0.500000 0.426099
O O3 0.571098 0.755599 0.368390
O O4 0.677160 0.643781 0.423427
O O5 0.241294 0.156256 0.686398
O O6 0.142201 0.250035 0.618598
O O7 0.054710 0.244325 0.741007
O O8 0.094848 0.000000 0.678371
O O9 0.112490 0.500000 0.305162
O O10 0.167569 0.255548 0.241496
O O11 0.750000 0.250000 0.500000
O O12 0.680965 0.000000 0.556089
O O13 0.576187 0.500000 0.091427
O O14 0.443567 0.661054 0.071145
O O15 0.541246 0.765645 0.136153
O O16 0.638044 0.705724 0.010782
O O17 0.761443 0.266739 0.115355
O O18 0.794795 0.000000 0.070682
O O19 0.351045 0.157479 0.190608
O O20 0.202119 0.000000 0.187037
O O21 0.008219 0.500000 0.794670
#
# Coordination Sequence:
#
# PCOD9178836 Si02
#       8
#     8   8   8   8   8   8   8   8
#     4   9  18  32  48  65  86 112 141 174 212 253
#     4   9  16  26  39  54  73  98 129 164 202 243
#     4   9  16  25  38  55  74  97 127 164 203 243
#     4  10  19  31  47  66  88 112 140 174 212 254
#     4   8  13  20  28  38  55  82 115 152 194 237
#     4   8  13  20  28  38  55  81 115 154 194 235
#     4   9  15  21  30  44  63  88 119 156 197 239
#     4   9  15  21  30  45  64  87 118 157 198 238
#
# _framework density 22.968508
#
# number of rings (size 3 to 8) (size 9 to 14) (size 15 to 20)
#    0.000    3.125    0.000    2.625    0.000    7.250 
#    0.000    2.500    0.000    0.000    0.000    0.000 
#    0.000    0.000    0.000    0.000    0.000    1.250 
#
# Total GULP energy -178900.500039 kJ/mol
# GULP energy per Si atom -5590.640626 kJ/mol
# Density = 2.291623 g / cm^3
# Si number density = 22.968508 Si / 1000 Ang^3
#
#
#
# Elastic Constant Matrix: (Units=GPa)
#
#
# Indices 1 2 3 4 5 6 
#
# 1 76.1349 9.6942 14.7439 0.0000 -10.5299 0.0000
# 2 9.6942 226.5480 168.7794 0.0000 -8.9641 0.0000
# 3 14.7439 168.7794 243.7119 0.0000 -0.2877 0.0000
# 4 0.0000 0.0000 0.0000 36.6653 0.0000 -4.9139
# 5 -10.5299 -8.9641 -0.2877 0.0000 16.9187 0.0000
# 6 0.0000 0.0000 0.0000 -4.9139 0.0000 -3.2931
#
#
#
# Elastic Compliance Matrix: (Units=1/GPa)
#
#
# Indices 1 2 3 4 5 6 
#
# 1 0.014626 0.000830 -0.001448 0.000000 0.009518 0.000000
# 2 0.000830 0.009560 -0.006664 0.000000 0.005468 0.000000
# 3 -0.001448 -0.006664 0.008801 0.000000 -0.004283 0.000000
# 4 0.000000 0.000000 0.000000 0.022728 0.000000 -0.033915
# 5 0.009518 0.005468 -0.004283 0.000000 0.067854 0.000000
# 6 0.000000 0.000000 0.000000 -0.033915 0.000000 -0.253056
#
#
# Mechanical properties :
#
#
# Convention : Reuss Voigt Hill
#
# Bulk Modulus (GPa) = 54.28582 103.64775 78.96679
# Shear Modulus (GPa) = -45.96391 33.60334 -6.18028
#
# Velocity S-wave (km/s) = -4.47830 3.82909 -1.64213
# Velocity P-wave (km/s) = 1.74757 8.04818 5.55514
#
# Compressibility (1/GPa) = 0.01842102
#
# Stress axis : x y z
#
# Youngs Moduli (GPa) = 68.37267 104.60387 113.62311
#
# Poissons Ratio (x) = -0.08678 0.16454
# Poissons Ratio (y) = -0.05672 0.75722
# Poissons Ratio (z) = 0.09901 0.69711
#
# Static dielectric constant tensor:
#      x y z
#    x 1.680130 0.000000 0.153680 
#    y 0.000000 1.808500 0.000000 
#    z 0.153680 0.000000 1.763850 
# 
# From -- ./inp_files/367046.got.cif
#   From: 2010.05.17/outbox.cif.g08.bks.cpg/sg12_184_cif.got.tgz:367046.got - 2010.06.03 13:09:07.
