data_PCOD9178629
_publ_section_title
;
Structure prediction by ZEFSAII (Michael W. Deem and Ramdas Pophale) SiO2 
 PCOD9178629
Probable space group: C 2/M
;
_chemical_formula_sum "Si O2"
_cell_formula_units_Z 60
_cell_length_a 15.864307
_cell_length_b 23.878730
_cell_length_c 19.492955
_cell_angle_alpha 90.000000
_cell_angle_beta 28.665684
_cell_angle_gamma 90.000000
_cell_volume 3542.239952
_symmetry_space_group_name_H-M "C 2/M"
_symmetry_group_IT_number 12
_symmetry_cell_setting 'monoclinic'
loop_
_space_group_symop_operation_xyz
x,y,z
-x,y,-z
-x,-y,-z
x,-y,z
1/2+x,1/2+y,z
1/2-x,1/2+y,-z
1/2-x,1/2-y,-z
1/2+x,1/2-y,z
loop_
_atom_site_type_symbol
_atom_site_label
_atom_site_fract_x
_atom_site_fract_y
_atom_site_fract_z
Si Si1 0.500000 0.289233 0.500000
Si Si2 0.379654 0.287982 0.027434
Si Si3 0.346849 0.866803 0.252415
Si Si4 0.709307 0.832962 0.916260
Si Si5 0.796882 0.560911 0.168771
Si Si6 0.473777 0.711788 0.225097
Si Si7 0.584616 0.820641 0.508717
Si Si8 0.992741 0.330749 0.728039
O O1 0.677762 0.325623 0.369337
O O2 0.478517 0.244713 0.452835
O O3 0.312156 0.227794 0.103956
O O4 0.218011 0.326602 0.120844
O O5 0.500000 0.313798 0.000000
O O6 0.482713 0.273826 0.884385
O O7 0.291474 0.923197 0.252703
O O8 0.414913 0.870035 0.281873
O O9 0.520852 0.847093 0.085410
O O10 0.766863 0.883945 0.826472
O O11 0.860995 0.821631 0.863052
O O12 0.715662 0.500000 0.212538
O O13 0.000000 0.557118 0.000000
O O14 0.293438 0.678840 0.354236
O O15 0.452261 0.768278 0.285177
O O16 0.500000 0.846700 0.500000
O O17 0.537886 0.842049 0.617071
#
# Coordination Sequence:
#
# PCOD9178629 Si02
#       8
#     4   8   8   8   8   8   8   8
#     4  10  22  30  47  64 100 146 169 202 246 308
#     4  11  19  28  46  71 100 135 167 203 245 296
#     4  11  19  33  47  71  96 133 177 206 255 297
#     4  10  19  30  51  70  99 131 175 210 251 296
#     4   9  20  35  54  74  98 129 171 219 258 300
#     4  11  19  31  46  71  99 137 174 209 243 300
#     4  10  21  31  43  65 106 136 175 197 247 300
#     4  11  19  29  44  67 100 130 168 211 237 298
#
# _framework density 16.938434999999998
#
# number of rings (size 3 to 8) (size 9 to 14) (size 15 to 20)
#    0.400    1.200    4.000    3.200    5.600    0.000 
#    0.000    0.333    0.000    0.000    0.000    0.000 
#    0.000    6.400    0.000    0.000    0.000    0.000 
#
# Total GULP energy -167022.469735 kJ/mol
# GULP energy per Si atom -5567.415658 kJ/mol
# Density = 1.689988 g / cm^3
# Si number density = 16.938435 Si / 1000 Ang^3
#
#
#
# Elastic Constant Matrix: (Units=GPa)
#
#
# Indices 1 2 3 4 5 6 
#
# 1 114.2264 12.5594 32.9959 0.0148 8.5391 0.0032
# 2 12.5594 25.9634 6.9188 0.0087 17.3928 0.0164
# 3 32.9959 6.9188 56.2496 -0.0001 -0.0830 -0.0042
# 4 0.0148 0.0087 -0.0001 0.6895 -0.0091 6.2352
# 5 8.5391 17.3928 -0.0830 -0.0091 33.5349 0.0029
# 6 0.0032 0.0164 -0.0042 6.2352 0.0029 -4.5319
#
#
#
# Elastic Compliance Matrix: (Units=1/GPa)
#
#
# Indices 1 2 3 4 5 6 
#
# 1 0.010911 -0.002744 -0.006065 -0.000018 -0.001370 -0.000022
# 2 -0.002744 0.062875 -0.006171 -0.000228 -0.031927 -0.000103
# 3 -0.006065 -0.006171 0.022102 0.000050 0.004800 0.000025
# 4 -0.000018 -0.000228 0.000050 0.107899 0.000140 0.148450
# 5 -0.001370 -0.031927 0.004800 0.000140 0.046739 0.000100
# 6 -0.000022 -0.000103 0.000025 0.148450 0.000100 -0.016415
#
#
# Mechanical properties :
#
#
# Convention : Reuss Voigt Hill
#
# Bulk Modulus (GPa) = 15.16806 33.48749 24.32777
# Shear Modulus (GPa) = 17.47967 15.53619 16.50793
#
# Velocity S-wave (km/s) = 3.21589 3.03184 3.12522
# Velocity P-wave (km/s) = 4.77111 5.66296 5.23606
#
# Compressibility (1/GPa) = 0.06592802
#
# Stress axis : x y z
#
# Youngs Moduli (GPa) = 91.65479 15.90445 45.24569
#
# Poissons Ratio (x) = 0.04364 0.27440
# Poissons Ratio (y) = 0.25148 0.27923
# Poissons Ratio (z) = 0.55585 0.09815
#
# Static dielectric constant tensor:
#      x y z
#    x 1.629440 0.000000 0.016300 
#    y 0.000000 1.565250 0.000020 
#    z 0.016300 0.000020 1.619280 
# 
# From -- ./inp_files/273021.got.cif
#   From: 2010.05.17/outbox.cif.g08.bks.cpg/sg12_137_cif.got.tgz:273021.got - 2010.06.03 13:09:07.
