data_PCOD9178671
_publ_section_title
;
Structure prediction by ZEFSAII (Michael W. Deem and Ramdas Pophale) SiO2 
 PCOD9178671
Probable space group: C 2/M
;
_chemical_formula_sum "Si O2"
_cell_formula_units_Z 44
_cell_length_a 12.393891
_cell_length_b 17.143732
_cell_length_c 14.055159
_cell_angle_alpha 90.000000
_cell_angle_beta 48.731622
_cell_angle_gamma 90.000000
_cell_volume 2244.666969
_symmetry_space_group_name_H-M "C 2/M"
_symmetry_group_IT_number 12
_symmetry_cell_setting 'monoclinic'
loop_
_space_group_symop_operation_xyz
x,y,z
-x,y,-z
-x,-y,-z
x,-y,z
1/2+x,1/2+y,z
1/2-x,1/2+y,-z
1/2-x,1/2-y,-z
1/2+x,1/2-y,z
loop_
_atom_site_type_symbol
_atom_site_label
_atom_site_fract_x
_atom_site_fract_y
_atom_site_fract_z
Si Si1 0.464494 0.863114 0.358027
Si Si2 0.033799 0.817202 0.369892
Si Si3 0.500000 0.714497 0.000000
Si Si4 0.713440 0.584145 0.838553
Si Si5 0.700341 0.633742 0.637678
Si Si6 0.335786 0.800670 0.250655
O O1 0.502025 0.773466 0.364121
O O2 0.615410 0.905892 0.264046
O O3 0.347641 0.892296 0.502005
O O4 0.389088 0.859923 0.299086
O O5 0.204384 0.829602 0.262652
O O6 0.000000 0.832583 0.500000
O O7 0.929822 0.865557 0.361361
O O8 0.365101 0.656263 0.064971
O O9 0.462979 0.767829 0.111433
O O10 0.674615 0.500000 0.901436
O O11 0.667440 0.590300 0.754547
O O12 0.721037 0.724333 0.658430
#
# Coordination Sequence:
#
# PCOD9178671 Si02
#       6
#     8   8   4   8   8   8
#     4  11  18  31  53  82 109 131 173 218 277 323
#     4  11  15  30  53  79 111 135 158 212 284 328
#     4  10  21  38  52  76 107 144 182 222 256 308
#     4  11  23  38  52  72 107 150 189 218 247 301
#     4  10  19  30  52  81 107 137 170 214 274 325
#     4  10  19  31  52  82 109 136 166 219 273 324
#
# _framework density 19.602018000000001
#
# number of rings (size 3 to 8) (size 9 to 14) (size 15 to 20)
#    0.000    1.455    7.273    1.909    0.000    2.182 
#    3.273    0.000    0.000    1.636    0.000    0.636 
#    0.000    0.000    0.000    0.000    0.000    0.000 
#
# Total GULP energy -122768.153872 kJ/mol
# GULP energy per Si atom -5580.370631 kJ/mol
# Density = 1.955740 g / cm^3
# Si number density = 19.602018 Si / 1000 Ang^3
#
#
#
# Elastic Constant Matrix: (Units=GPa)
#
#
# Indices 1 2 3 4 5 6 
#
# 1 99.3645 -4.8591 17.9658 0.0001 -21.8283 0.0000
# 2 -4.8591 13.7465 2.5582 0.0000 -2.2108 0.0000
# 3 17.9658 2.5582 105.6568 0.0002 -10.6924 -0.0001
# 4 0.0001 0.0000 0.0002 -0.6059 -0.0001 2.2850
# 5 -21.8283 -2.2108 -10.6924 -0.0001 18.0336 0.0000
# 6 0.0000 0.0000 -0.0001 2.2850 0.0000 2.3230
#
#
#
# Elastic Compliance Matrix: (Units=1/GPa)
#
#
# Indices 1 2 3 4 5 6 
#
# 1 0.014620 0.008253 -0.000843 0.000000 0.018208 0.000000
# 2 0.008253 0.078954 -0.001409 0.000001 0.018833 -0.000001
# 3 -0.000843 -0.001409 0.010129 0.000001 0.004812 0.000000
# 4 0.000000 0.000001 0.000001 -0.350440 -0.000003 0.344714
# 5 0.018208 0.018833 0.004812 -0.000003 0.082654 0.000002
# 6 0.000000 -0.000001 0.000000 0.344714 0.000002 0.091398
#
#
# Mechanical properties :
#
#
# Convention : Reuss Voigt Hill
#
# Bulk Modulus (GPa) = 8.64267 27.78862 18.21565
# Shear Modulus (GPa) = -108.41714 17.49033 -45.46340
#
# Velocity S-wave (km/s) = -7.44508 2.99033 -4.82116
# Velocity P-wave (km/s) = 8.33589 5.11175 4.65602
#
# Compressibility (1/GPa) = 0.11570495
#
# Stress axis : x y z
#
# Youngs Moduli (GPa) = 68.39965 12.66557 98.72549
#
# Poissons Ratio (x) = -0.10453 0.08324
# Poissons Ratio (y) = -0.56451 0.13911
# Poissons Ratio (z) = 0.05767 0.01785
#
# Static dielectric constant tensor:
#      x y z
#    x 1.703560 0.000000 -0.022710 
#    y 0.000000 1.708220 0.000000 
#    z -0.022710 0.000000 1.713800 
# 
# From -- ./inp_files/207532.got.cif
#   From: 2010.05.17/outbox.cif.g08.bks.cpg/sg12_104_cif.got.tgz:207532.got - 2010.06.03 13:09:07.
