data_PCOD9178374
_publ_section_title
;
Structure prediction by ZEFSAII (Michael W. Deem and Ramdas Pophale) SiO2 
 PCOD9178374
Probable space group: C 2/M
;
_chemical_formula_sum "Si O2"
_cell_formula_units_Z 56
_cell_length_a 15.366166
_cell_length_b 9.479698
_cell_length_c 27.677736
_cell_angle_alpha 90.000000
_cell_angle_beta 137.332382
_cell_angle_gamma 90.000000
_cell_volume 2732.476276
_symmetry_space_group_name_H-M "C 2/M"
_symmetry_group_IT_number 12
_symmetry_cell_setting 'monoclinic'
loop_
_space_group_symop_operation_xyz
x,y,z
-x,y,-z
-x,-y,-z
x,-y,z
1/2+x,1/2+y,z
1/2-x,1/2+y,-z
1/2-x,1/2-y,-z
1/2+x,1/2-y,z
loop_
_atom_site_type_symbol
_atom_site_label
_atom_site_fract_x
_atom_site_fract_y
_atom_site_fract_z
Si Si1 0.293961 0.157010 0.215158
Si Si2 0.139479 0.340589 0.930088
Si Si3 0.549166 0.340598 0.654683
Si Si4 0.316298 0.663281 0.639748
Si Si5 0.662109 0.330490 0.503633
Si Si6 0.485869 0.160449 0.774791
Si Si7 0.923054 0.659556 0.922600
O O1 0.342986 0.234759 0.283095
O O2 0.417594 0.147864 0.230911
O O3 0.191446 0.246952 0.143733
O O4 0.245819 0.000000 0.205401
O O5 0.186701 0.500000 0.938389
O O6 0.072479 0.283445 0.854246
O O7 0.025819 0.350002 0.922106
O O8 0.250000 0.250000 0.000000
O O9 0.599766 0.500000 0.675246
O O10 0.432783 0.337578 0.647126
O O11 0.481095 0.310732 0.575760
O O12 0.280586 0.500000 0.632605
O O13 0.203335 0.756904 0.570117
O O14 0.373344 0.738614 0.710408
O O15 0.687172 0.500000 0.514550
O O16 0.750000 0.250000 0.500000
O O17 0.442473 0.000000 0.769501
O O18 0.878463 0.500000 0.916924
O O19 0.000000 0.717994 0.000000
#
# Coordination Sequence:
#
# PCOD9178374 Si02
#       7
#     8   8   8   8   8   8   8
#     4  10  19  30  48  72  97 127 161 201 244 283
#     4  10  21  36  54  75  98 127 161 199 243 289
#     4   8  15  26  40  61  92 128 162 196 236 284
#     4   9  16  25  40  64  93 127 164 201 244 290
#     4   9  15  23  37  60  92 129 165 202 244 287
#     4   9  18  32  48  69  98 129 163 202 244 290
#     4  10  21  36  53  73  98 128 160 195 239 292
#
# _framework density 20.494230000000002
#
# number of rings (size 3 to 8) (size 9 to 14) (size 15 to 20)
#    0.000    2.714    0.000    3.000    0.000    6.000 
#    0.000    0.000    0.000    0.000    0.000    1.000 
#    0.000    8.000    0.000    0.000    0.000    0.000 
#
# Total GULP energy -156141.739065 kJ/mol
# GULP energy per Si atom -5576.490681 kJ/mol
# Density = 2.044758 g / cm^3
# Si number density = 20.494230 Si / 1000 Ang^3
#
#
#
# Elastic Constant Matrix: (Units=GPa)
#
#
# Indices 1 2 3 4 5 6 
#
# 1 18.4248 2.5887 2.0450 0.0000 -4.6182 0.0000
# 2 2.5887 134.8012 122.2518 0.0000 0.1762 0.0000
# 3 2.0450 122.2518 210.1750 0.0000 -17.6501 0.0000
# 4 0.0000 0.0000 0.0000 615.1251 0.0000 238.5371
# 5 -4.6182 0.1762 -17.6501 0.0000 12.5943 0.0000
# 6 0.0000 0.0000 0.0000 238.5371 0.0000 104.2756
#
#
#
# Elastic Compliance Matrix: (Units=1/GPa)
#
#
# Indices 1 2 3 4 5 6 
#
# 1 0.062312 -0.006451 0.005749 0.000000 0.030997 0.000000
# 2 -0.006451 0.019228 -0.012856 0.000000 -0.020652 0.000000
# 3 0.005749 -0.012856 0.014022 0.000000 0.021940 0.000000
# 4 0.000000 0.000000 0.000000 0.014398 0.000000 -0.032935
# 5 0.030997 -0.020652 0.021940 0.000000 0.121803 0.000000
# 6 0.000000 0.000000 0.000000 -0.032935 0.000000 0.084932
#
#
# Mechanical properties :
#
#
# Convention : Reuss Voigt Hill
#
# Bulk Modulus (GPa) = 14.60982 68.57466 41.59224
# Shear Modulus (GPa) = 13.63783 162.16670 87.90226
#
# Velocity S-wave (km/s) = 2.58242 8.90504 6.55624
# Velocity P-wave (km/s) = 4.00451 11.80111 8.81199
#
# Compressibility (1/GPa) = 0.06844711
#
# Stress axis : x y z
#
# Youngs Moduli (GPa) = 16.04820 52.00640 71.31462
#
# Poissons Ratio (x) = 0.33550 -0.41000
# Poissons Ratio (y) = 0.10353 0.91682
# Poissons Ratio (z) = -0.09226 0.66860
#
# Static dielectric constant tensor:
#      x y z
#    x 1.782570 0.000000 -0.020270 
#    y 0.000000 1.736980 0.000000 
#    z -0.020270 0.000000 1.740400 
# 
# From -- ./inp_files/313723.got.cif
#   From: 2010.05.17/outbox.cif.g08.bks.cpg/sg12_157_cif.got.tgz:313723.got - 2010.06.03 13:09:07.
