data_PCOD9178810
_publ_section_title
;
Structure prediction by ZEFSAII (Michael W. Deem and Ramdas Pophale) SiO2 
 PCOD9178810
Probable space group: C 2/M
;
_chemical_formula_sum "Si O2"
_cell_formula_units_Z 64
_cell_length_a 29.820539
_cell_length_b 7.584880
_cell_length_c 24.233963
_cell_angle_alpha 90.000000
_cell_angle_beta 29.319781
_cell_angle_gamma 90.000000
_cell_volume 2684.133505
_symmetry_space_group_name_H-M "C 2/M"
_symmetry_group_IT_number 12
_symmetry_cell_setting 'monoclinic'
loop_
_space_group_symop_operation_xyz
x,y,z
-x,y,-z
-x,-y,-z
x,-y,z
1/2+x,1/2+y,z
1/2-x,1/2+y,-z
1/2-x,1/2-y,-z
1/2+x,1/2-y,z
loop_
_atom_site_type_symbol
_atom_site_label
_atom_site_fract_x
_atom_site_fract_y
_atom_site_fract_z
Si Si1 0.856546 0.198067 0.301747
Si Si2 0.998080 0.297648 0.062162
Si Si3 0.487513 0.290801 0.791494
Si Si4 0.904023 0.713383 0.768092
Si Si5 0.787688 0.303008 0.161966
Si Si6 0.481318 0.784159 0.457507
Si Si7 0.789543 0.201620 0.040381
Si Si8 0.278933 0.789042 0.644224
O O1 0.774623 0.280148 0.352655
O O2 0.936857 0.192953 0.169720
O O3 0.916421 0.282570 0.287174
O O4 0.827794 0.000000 0.349388
O O5 0.961527 0.500000 0.098051
O O6 0.103543 0.308011 0.963271
O O7 0.000000 0.216328 0.000000
O O8 0.491645 0.500000 0.799495
O O9 0.473428 0.264581 0.741917
O O10 0.390740 0.219272 0.920827
O O11 0.899021 0.500000 0.773003
O O12 0.801273 0.782128 0.889735
O O13 0.943164 0.772333 0.667435
O O14 0.749903 0.500000 0.197837
O O15 0.760237 0.199005 0.136678
O O16 0.768178 0.242537 0.245326
O O17 0.500000 0.726543 0.500000
O O18 0.382308 0.726147 0.541658
O O19 0.480419 0.000000 0.459456
O O20 0.798461 0.000000 0.012569
O O21 0.279991 0.000000 0.636054
#
# Coordination Sequence:
#
# PCOD9178810 Si02
#       8
#     8   8   8   8   8   8   8   8
#     4  10  20  33  51  76 106 143 182 218 260 316
#     4  10  19  31  46  70 109 148 176 213 264 316
#     4  10  21  36  53  77 111 143 174 219 271 322
#     4  10  21  37  59  82 103 136 183 227 266 313
#     4  11  21  31  49  80 114 145 177 217 268 321
#     4   9  18  36  60  83 105 133 175 225 268 309
#     4  10  20  35  55  79 108 144 183 219 262 321
#     4  10  20  34  55  79 106 143 185 226 266 313
#
# _framework density 23.843820999999998
#
# number of rings (size 3 to 8) (size 9 to 14) (size 15 to 20)
#    0.000    2.000    2.500    1.500    0.000    4.250 
#    0.000    1.250    0.000    1.500    0.000    0.000 
#    0.000    0.000    0.000    0.000    0.000    0.000 
#
# Total GULP energy -178475.347438 kJ/mol
# GULP energy per Si atom -5577.354607 kJ/mol
# Density = 2.378955 g / cm^3
# Si number density = 23.843821 Si / 1000 Ang^3
#
#
#
# Elastic Constant Matrix: (Units=GPa)
#
#
# Indices 1 2 3 4 5 6 
#
# 1 175.2875 10.1800 50.7697 -0.0047 -10.4707 -0.0069
# 2 10.1800 63.5587 -1.5490 -0.0248 -5.8761 -0.0191
# 3 50.7697 -1.5490 77.5869 -0.0124 -15.0341 0.0014
# 4 -0.0047 -0.0248 -0.0124 1.7999 0.0072 -3.3211
# 5 -10.4707 -5.8761 -15.0341 0.0072 42.1395 0.0053
# 6 -0.0069 -0.0191 0.0014 -3.3211 0.0053 -3.4425
#
#
#
# Elastic Compliance Matrix: (Units=1/GPa)
#
#
# Indices 1 2 3 4 5 6 
#
# 1 0.007138 -0.001266 -0.004713 -0.000017 -0.000084 0.000007
# 2 -0.001266 0.016210 0.001643 0.000025 0.002532 -0.000107
# 3 -0.004713 0.001643 0.016998 0.000049 0.005122 -0.000032
# 4 -0.000017 0.000025 0.000049 0.199848 0.000007 -0.192796
# 5 -0.000084 0.002532 0.005122 0.000007 0.025890 0.000022
# 6 0.000007 -0.000107 -0.000032 -0.192796 0.000022 -0.104489
#
#
# Mechanical properties :
#
#
# Convention : Reuss Voigt Hill
#
# Bulk Modulus (GPa) = 31.57090 48.35939 39.96514
# Shear Modulus (GPa) = 27.65094 25.23487 26.44290
#
# Velocity S-wave (km/s) = 3.40909 3.25674 3.33378
# Velocity P-wave (km/s) = 5.36333 5.87091 5.62285
#
# Compressibility (1/GPa) = 0.03167474
#
# Stress axis : x y z
#
# Youngs Moduli (GPa) = 140.08825 61.68897 58.83078
#
# Poissons Ratio (x) = 0.07810 0.27725
# Poissons Ratio (y) = 0.17735 -0.09664
# Poissons Ratio (z) = 0.66018 -0.10133
#
# Static dielectric constant tensor:
#      x y z
#    x 2.004860 -0.000020 -0.030710 
#    y -0.000020 1.919400 0.000020 
#    z -0.030710 0.000020 1.884630 
# 
# From -- ./inp_files/249222.got.cif
#   From: 2010.05.17/outbox.cif.g08.bks.cpg/sg12_125_cif.got.tgz:249222.got - 2010.06.03 13:09:07.
