data_PCOD9178640
_publ_section_title
;
Structure prediction by ZEFSAII (Michael W. Deem and Ramdas Pophale) SiO2 
 PCOD9178640
Probable space group: C 2/M
;
_chemical_formula_sum "Si O2"
_cell_formula_units_Z 36
_cell_length_a 10.220710
_cell_length_b 19.080076
_cell_length_c 12.663231
_cell_angle_alpha 90.000000
_cell_angle_beta 119.958103
_cell_angle_gamma 90.000000
_cell_volume 2139.535632
_symmetry_space_group_name_H-M "C 2/M"
_symmetry_group_IT_number 12
_symmetry_cell_setting 'monoclinic'
loop_
_space_group_symop_operation_xyz
x,y,z
-x,y,-z
-x,-y,-z
x,-y,z
1/2+x,1/2+y,z
1/2-x,1/2+y,-z
1/2-x,1/2-y,-z
1/2+x,1/2-y,z
loop_
_atom_site_type_symbol
_atom_site_label
_atom_site_fract_x
_atom_site_fract_y
_atom_site_fract_z
Si Si1 0.247068 0.578478 0.339028
Si Si2 0.090076 0.722798 0.738311
Si Si3 0.947570 0.423624 0.358990
Si Si4 0.614952 0.813615 0.142456
Si Si5 0.500000 0.688421 0.500000
O O1 0.311630 0.500000 0.353951
O O2 0.187432 0.612098 0.206194
O O3 0.358464 0.635758 0.434485
O O4 0.100797 0.573924 0.353487
O O5 0.135148 0.645264 0.715602
O O6 0.242761 0.764279 0.825901
O O7 0.977251 0.714812 0.792042
O O8 0.008265 0.763214 0.607830
O O9 0.870698 0.500000 0.317915
O O10 0.000000 0.414482 0.500000
O O11 0.500000 0.819265 0.000000
#
# Coordination Sequence:
#
# PCOD9178640 Si02
#       5
#     8   8   8   8   4
#     4   9  19  32  49  73 101 131 162 203 249 295
#     4  10  20  32  54  74 103 129 164 208 252 293
#     4   9  17  29  47  72 100 128 158 194 244 302
#     4  10  21  35  52  73  99 136 174 204 240 288
#     4  10  19  30  51  78 106 124 158 202 263 304
#
# _framework density 16.826082
#
# number of rings (size 3 to 8) (size 9 to 14) (size 15 to 20)
#    0.000    2.444    1.111    1.000    3.111    3.111 
#    0.000    0.000    0.000    0.667    0.000    0.000 
#    0.000    0.000    0.000    0.000    0.000    0.000 
#
# Total GULP energy -100233.921537 kJ/mol
# GULP energy per Si atom -5568.551197 kJ/mol
# Density = 1.678779 g / cm^3
# Si number density = 16.826082 Si / 1000 Ang^3
#
#
#
# Elastic Constant Matrix: (Units=GPa)
#
#
# Indices 1 2 3 4 5 6 
#
# 1 18.8071 13.7277 5.9220 0.0000 -0.1309 0.0000
# 2 13.7277 107.1903 29.9303 0.0000 1.5979 0.0000
# 3 5.9220 29.9303 90.2632 0.0000 9.7629 0.0000
# 4 0.0000 0.0000 0.0000 9.6626 0.0000 -0.5749
# 5 -0.1309 1.5979 9.7629 0.0000 19.2237 0.0000
# 6 0.0000 0.0000 0.0000 -0.5749 0.0000 53.9186
#
#
#
# Elastic Compliance Matrix: (Units=1/GPa)
#
#
# Indices 1 2 3 4 5 6 
#
# 1 0.058901 -0.007093 -0.001714 0.000000 0.001861 0.000000
# 2 -0.007093 0.011151 -0.003308 0.000000 0.000705 0.000000
# 3 -0.001714 -0.003308 0.012972 0.000000 -0.006325 0.000000
# 4 0.000000 0.000000 0.000000 0.103557 0.000000 0.001104
# 5 0.001861 0.000705 -0.006325 0.000000 0.055185 0.000000
# 6 0.000000 0.000000 0.000000 0.001104 0.000000 0.018558
#
#
# Mechanical properties :
#
#
# Convention : Reuss Voigt Hill
#
# Bulk Modulus (GPa) = 17.00843 35.04673 26.02758
# Shear Modulus (GPa) = 16.43912 27.67303 22.05608
#
# Velocity S-wave (km/s) = 3.12909 4.05983 3.62446
# Velocity P-wave (km/s) = 4.81511 6.54601 5.74611
#
# Compressibility (1/GPa) = 0.05879437
#
# Stress axis : x y z
#
# Youngs Moduli (GPa) = 16.97769 89.67953 77.08747
#
# Poissons Ratio (x) = 0.63605 0.13212
# Poissons Ratio (y) = 0.12041 0.25504
# Poissons Ratio (z) = 0.02910 0.29670
#
# Static dielectric constant tensor:
#      x y z
#    x 1.551970 0.000000 -0.009360 
#    y 0.000000 1.619610 0.000000 
#    z -0.009360 0.000000 1.561760 
# 
# From -- ./inp_files/47254.got.cif
#   From: 2010.05.17/outbox.cif.g08.bks.cpg/sg12_24_cif.got.tgz:47254.got - 2010.06.03 13:09:07.
