data_PCOD9178522
_publ_section_title
;
Structure prediction by ZEFSAII (Michael W. Deem and Ramdas Pophale) SiO2 
 PCOD9178522
Probable space group: C 2/M
;
_chemical_formula_sum "Si O2"
_cell_formula_units_Z 56
_cell_length_a 16.419449
_cell_length_b 30.797099
_cell_length_c 5.309795
_cell_angle_alpha 90.000000
_cell_angle_beta 79.078423
_cell_angle_gamma 90.000000
_cell_volume 2636.378999
_symmetry_space_group_name_H-M "C 2/M"
_symmetry_group_IT_number 12
_symmetry_cell_setting 'monoclinic'
loop_
_space_group_symop_operation_xyz
x,y,z
-x,y,-z
-x,-y,-z
x,-y,z
1/2+x,1/2+y,z
1/2-x,1/2+y,-z
1/2-x,1/2-y,-z
1/2+x,1/2-y,z
loop_
_atom_site_type_symbol
_atom_site_label
_atom_site_fract_x
_atom_site_fract_y
_atom_site_fract_z
Si Si1 0.263466 0.951173 0.995109
Si Si2 0.306608 0.297698 0.669022
Si Si3 0.655850 0.115389 0.439634
Si Si4 0.804339 0.295239 0.766867
Si Si5 0.425943 0.953658 0.242460
Si Si6 0.675265 0.609765 0.385995
Si Si7 0.444913 0.449735 0.279669
O O1 0.337455 0.955098 0.154662
O O2 0.185807 0.926671 0.165569
O O3 0.244087 0.000000 0.921151
O O4 0.303109 0.920016 0.766958
O O5 0.267589 0.295417 0.409319
O O6 0.348636 0.251052 0.699979
O O7 0.358259 0.342507 0.662365
O O8 0.237025 0.298585 0.933008
O O9 0.643095 0.161458 0.316086
O O10 0.578388 0.090474 0.600488
O O11 0.729585 0.121601 0.599169
O O12 0.430256 0.000000 0.381800
O O13 0.500000 0.952572 0.000000
O O14 0.626962 0.585684 0.637190
O O15 0.500000 0.445411 0.500000
O O16 0.415292 0.500000 0.290940
O O17 0.500000 0.442359 0.000000
#
# Coordination Sequence:
#
# PCOD9178522 Si02
#       7
#     8   8   8   8   8   8   8
#     4  10  19  30  49  77 103 133 173 221 265 306
#     4   9  17  30  51  78 105 135 168 215 268 313
#     4  10  19  31  51  78 105 134 175 222 271 312
#     4   9  17  30  49  78 110 132 168 216 264 320
#     4   9  19  34  48  69 104 144 182 215 255 314
#     4  10  20  34  53  77 105 134 178 220 270 316
#     4  10  23  39  54  76 107 146 183 217 266 326
#
# _framework density 21.241256
#
# number of rings (size 3 to 8) (size 9 to 14) (size 15 to 20)
#    0.000    2.429    1.429    0.857    2.000    2.286 
#    0.000    2.143    0.000    0.857    3.714    0.000 
#    0.000    0.000    0.000    0.000    0.000    0.000 
#
# Total GULP energy -156029.878335 kJ/mol
# GULP energy per Si atom -5572.495655 kJ/mol
# Density = 2.119291 g / cm^3
# Si number density = 21.241256 Si / 1000 Ang^3
#
#
#
# Elastic Constant Matrix: (Units=GPa)
#
#
# Indices 1 2 3 4 5 6 
#
# 1 54.1324 3.7837 9.1566 0.0000 6.9453 0.0000
# 2 3.7837 219.1411 49.3849 0.0000 -26.7380 0.0000
# 3 9.1566 49.3849 93.2308 0.0000 0.0502 0.0000
# 4 0.0000 0.0000 0.0000 24.7130 0.0000 5.2938
# 5 6.9453 -26.7380 0.0502 0.0000 25.9943 0.0000
# 6 0.0000 0.0000 0.0000 5.2938 0.0000 10.9737
#
#
#
# Elastic Compliance Matrix: (Units=1/GPa)
#
#
# Indices 1 2 3 4 5 6 
#
# 1 0.019548 -0.000718 -0.001536 0.000000 -0.005959 0.000000
# 2 -0.000718 0.006071 -0.003149 0.000000 0.006443 0.000000
# 3 -0.001536 -0.003149 0.012547 0.000000 -0.002853 0.000000
# 4 0.000000 0.000000 0.000000 0.045128 0.000000 -0.021770
# 5 -0.005959 0.006443 -0.002853 0.000000 0.046695 0.000000
# 6 0.000000 0.000000 0.000000 -0.021770 0.000000 0.101629
#
#
# Mechanical properties :
#
#
# Convention : Reuss Voigt Hill
#
# Bulk Modulus (GPa) = 36.55134 54.57272 45.56203
# Shear Modulus (GPa) = 19.87722 32.61480 26.24601
#
# Velocity S-wave (km/s) = 3.06238 3.92273 3.51894
# Velocity P-wave (km/s) = 5.45429 6.80181 6.16498
#
# Compressibility (1/GPa) = 0.02735878
#
# Stress axis : x y z
#
# Youngs Moduli (GPa) = 51.15655 164.70460 79.70339
#
# Poissons Ratio (x) = 0.11832 0.12243
# Poissons Ratio (y) = 0.03675 0.25099
# Poissons Ratio (z) = 0.07858 0.51866
#
# Static dielectric constant tensor:
#      x y z
#    x 1.801120 0.000000 0.055400 
#    y 0.000000 1.886790 0.000000 
#    z 0.055400 0.000000 1.802430 
# 
# From -- ./inp_files/18235.got.cif
#   From: 2010.05.17/outbox.cif.g08.bks.cpg/sg12_10_cif.got.tgz:18235.got - 2010.06.03 13:09:07.
