data_PCOD9178883
_publ_section_title
;
Structure prediction by ZEFSAII (Michael W. Deem and Ramdas Pophale) SiO2 
 PCOD9178883
Probable space group: C 2/M
;
_chemical_formula_sum "Si O2"
_cell_formula_units_Z 48
_cell_length_a 28.261036
_cell_length_b 8.816302
_cell_length_c 24.569119
_cell_angle_alpha 90.000000
_cell_angle_beta 150.385082
_cell_angle_gamma 90.000000
_cell_volume 3025.094524
_symmetry_space_group_name_H-M "C 2/M"
_symmetry_group_IT_number 12
_symmetry_cell_setting 'monoclinic'
loop_
_space_group_symop_operation_xyz
x,y,z
-x,y,-z
-x,-y,-z
x,-y,z
1/2+x,1/2+y,z
1/2-x,1/2+y,-z
1/2-x,1/2-y,-z
1/2+x,1/2-y,z
loop_
_atom_site_type_symbol
_atom_site_label
_atom_site_fract_x
_atom_site_fract_y
_atom_site_fract_z
Si Si1 0.797908 0.817657 0.127966
Si Si2 0.393854 0.682245 0.336672
Si Si3 0.601769 0.681102 0.328014
Si Si4 0.202093 0.682343 0.532152
Si Si5 0.893856 0.317755 0.451039
Si Si6 0.101768 0.318898 0.875523
O O1 0.828979 0.777747 0.219960
O O2 0.866747 0.741224 0.152359
O O3 0.806807 0.000000 0.131009
O O4 0.689374 0.775922 0.003146
O O5 0.400327 0.500000 0.347195
O O6 0.358447 0.750003 0.358447
O O7 0.499999 0.749997 0.434027
O O8 0.594899 0.500000 0.322630
O O9 0.689372 0.724078 0.375598
O O10 0.633255 0.741226 0.418866
O O11 0.499999 0.749999 0.210695
O O12 0.193194 0.500000 0.517397
O O13 0.171019 0.722255 0.562000
O O14 0.900332 0.500000 0.453468
O O15 0.094897 0.500000 0.867166
#
# Coordination Sequence:
#
# PCOD9178883 Si02
#       6
#     8   8   8   8   8   8
#     4   9  19  33  48  68  94 123 154 189 227 270
#     4  10  19  31  47  68  93 120 151 186 226 270
#     4  10  19  31  48  70  95 122 153 188 228 273
#     4   9  19  33  48  68  94 123 154 189 227 270
#     4  10  19  31  47  68  93 120 151 186 226 270
#     4  10  19  31  48  70  95 122 153 188 228 273
#
# _framework density 15.867273000000001
#
# number of rings (size 3 to 8) (size 9 to 14) (size 15 to 20)
#    0.000    2.333    0.000    4.000    0.000    6.667 
#    0.000    0.000    0.000    1.000    0.000    7.000 
#    0.000    0.000    0.000    0.000    0.000    0.000 
#
# Total GULP energy -133877.726800 kJ/mol
# GULP energy per Si atom -5578.238617 kJ/mol
# Density = 1.583116 g / cm^3
# Si number density = 15.867273 Si / 1000 Ang^3
#
#
#
# Elastic Constant Matrix: (Units=GPa)
#
#
# Indices 1 2 3 4 5 6 
#
# 1 128.7407 41.9335 70.1641 0.0000 -16.5073 0.0000
# 2 41.9335 37.2857 35.8282 0.0000 -4.7678 0.0000
# 3 70.1641 35.8282 96.5880 0.0000 -8.6072 0.0000
# 4 0.0000 0.0000 0.0000 25.2187 0.0000 2.6345
# 5 -16.5073 -4.7678 -8.6072 0.0000 24.8988 0.0000
# 6 0.0000 0.0000 0.0000 2.6345 0.0000 21.8486
#
#
#
# Elastic Compliance Matrix: (Units=1/GPa)
#
#
# Indices 1 2 3 4 5 6 
#
# 1 0.015700 -0.010012 -0.007154 0.000000 0.006018 0.000000
# 2 -0.010012 0.048239 -0.010719 0.000000 -0.001106 0.000000
# 3 -0.007154 -0.010719 0.019522 0.000000 -0.000047 0.000000
# 4 0.000000 0.000000 0.000000 0.040159 0.000000 -0.004842
# 5 0.006018 -0.001106 -0.000047 0.000000 0.043924 0.000000
# 6 0.000000 0.000000 0.000000 -0.004842 0.000000 0.046353
#
#
# Mechanical properties :
#
#
# Convention : Reuss Voigt Hill
#
# Bulk Modulus (GPa) = 36.11506 62.05178 49.08342
# Shear Modulus (GPa) = 17.92769 22.03914 19.98342
#
# Velocity S-wave (km/s) = 3.36498 3.73093 3.55267
# Velocity P-wave (km/s) = 6.15691 7.59944 6.91589
#
# Compressibility (1/GPa) = 0.02768928
#
# Stress axis : x y z
#
# Youngs Moduli (GPa) = 63.69614 20.73023 51.22367
#
# Poissons Ratio (x) = 0.20756 0.36647
# Poissons Ratio (y) = 0.63775 0.54906
# Poissons Ratio (z) = 0.45570 0.22221
#
# Static dielectric constant tensor:
#      x y z
#    x 1.521070 0.000000 0.000480 
#    y 0.000000 1.532100 0.000000 
#    z 0.000480 0.000000 1.521680 
# 
# From -- ./inp_files/351154.got.cif
#   From: 2010.05.17/outbox.cif.g08.bks.cpg/sg12_176_cif.got.tgz:351154.got - 2010.06.03 13:09:07.
