data_PCOD9178952
_publ_section_title
;
Structure prediction by ZEFSAII (Michael W. Deem and Ramdas Pophale) SiO2 
 PCOD9178952
Probable space group: C 2/M
;
_chemical_formula_sum "Si O2"
_cell_formula_units_Z 50
_cell_length_a 21.676988
_cell_length_b 7.140774
_cell_length_c 16.637216
_cell_angle_alpha 90.000000
_cell_angle_beta 133.997204
_cell_angle_gamma 90.000000
_cell_volume 1852.590513
_symmetry_space_group_name_H-M "C 2/M"
_symmetry_group_IT_number 12
_symmetry_cell_setting 'monoclinic'
loop_
_space_group_symop_operation_xyz
x,y,z
-x,y,-z
-x,-y,-z
x,-y,z
1/2+x,1/2+y,z
1/2-x,1/2+y,-z
1/2-x,1/2-y,-z
1/2+x,1/2-y,z
loop_
_atom_site_type_symbol
_atom_site_label
_atom_site_fract_x
_atom_site_fract_y
_atom_site_fract_z
Si Si1 0.144135 0.724851 0.480995
Si Si2 0.962642 0.208345 0.385041
Si Si3 0.095964 0.227107 0.829170
Si Si4 0.863634 0.227010 0.964689
Si Si5 0.500000 0.000000 0.000000
Si Si6 0.084281 0.785537 0.262749
Si Si7 0.718268 0.273205 0.264644
O O1 0.141331 0.500000 0.479652
O O2 0.155600 0.780928 0.398462
O O3 0.205791 0.788009 0.608408
O O4 0.051058 0.804469 0.416373
O O5 0.900004 0.292444 0.260123
O O6 0.000000 0.300737 0.500000
O O7 0.931393 0.000000 0.379323
O O8 0.003556 0.292253 0.781976
O O9 0.095564 0.000000 0.821658
O O10 0.155063 0.274806 0.958962
O O11 0.787614 0.276308 0.833530
O O12 0.945478 0.336261 0.002743
O O13 0.876763 0.000000 0.972768
O O14 0.130896 0.702601 0.227982
O O15 0.065153 0.000000 0.226248
O O16 0.719203 0.500000 0.269845
#
# Coordination Sequence:
#
# PCOD9178952 Si02
#       7
#     8   8   8   8   2   8   8
#     4  10  19  31  47  73 102 130 167 206 260 312
#     4   9  18  35  57  78  96 123 167 215 268 327
#     4   8  15  30  53  72  95 133 170 211 263 303
#     4  10  20  36  51  70 108 144 176 225 257 292
#     4  12  22  32  48  82 102 140 200 208 244 308
#     4   9  16  29  46  68  96 134 177 206 241 294
#     4   9  18  32  49  67  99 145 176 200 245 308
#
# _framework density 26.989236999999999
#
# number of rings (size 3 to 8) (size 9 to 14) (size 15 to 20)
#    0.000    2.720    0.000    3.120    0.000    2.880 
#   15.840    0.000    0.000    0.960    0.000    0.000 
#    0.000    0.000    0.000    0.000    0.000    0.000 
#
# Total GULP energy -139226.484158 kJ/mol
# GULP energy per Si atom -5569.059366 kJ/mol
# Density = 2.692781 g / cm^3
# Si number density = 26.989237 Si / 1000 Ang^3
#
#
#
# Elastic Constant Matrix: (Units=GPa)
#
#
# Indices 1 2 3 4 5 6 
#
# 1 64.2163 0.1609 45.2843 0.0000 -24.2038 0.0000
# 2 0.1609 181.2074 -12.4805 0.0000 -8.6268 0.0000
# 3 45.2843 -12.4805 194.2292 0.0000 -72.4931 0.0000
# 4 0.0000 0.0000 0.0000 -0.6954 0.0000 6.6277
# 5 -24.2038 -8.6268 -72.4931 0.0000 60.8720 0.0000
# 6 0.0000 0.0000 0.0000 6.6277 0.0000 -5.1468
#
#
#
# Elastic Compliance Matrix: (Units=1/GPa)
#
#
# Indices 1 2 3 4 5 6 
#
# 1 0.019201 -0.000022 -0.002934 0.000000 0.004138 0.000000
# 2 -0.000022 0.005708 0.001207 0.000000 0.002238 0.000000
# 3 -0.002934 0.001207 0.009970 0.000000 0.010878 0.000000
# 4 0.000000 0.000000 0.000000 0.127563 0.000000 0.164267
# 5 0.004138 0.002238 0.010878 0.000000 0.031345 0.000000
# 6 0.000000 0.000000 0.000000 0.164267 0.000000 0.017235
#
#
# Mechanical properties :
#
#
# Convention : Reuss Voigt Hill
#
# Bulk Modulus (GPa) = 31.86555 56.17582 44.02068
# Shear Modulus (GPa) = 22.22411 38.11851 30.17131
#
# Velocity S-wave (km/s) = 2.87268 3.76221 3.34713
# Velocity P-wave (km/s) = 4.77865 6.30331 5.59317
#
# Compressibility (1/GPa) = 0.03138186
#
# Stress axis : x y z
#
# Youngs Moduli (GPa) = 52.08123 175.18547 100.29802
#
# Poissons Ratio (x) = 0.00388 0.29425
# Poissons Ratio (y) = 0.00115 -0.12108
# Poissons Ratio (z) = 0.15279 -0.21148
#
# Static dielectric constant tensor:
#      x y z
#    x 2.093360 0.000000 -0.052740 
#    y 0.000000 2.037870 0.000000 
#    z -0.052740 0.000000 2.312590 
# 
# From -- ./inp_files/292291.got.cif
#   From: 2010.05.17/outbox.cif.g08.bks.cpg/sg12_147_cif.got.tgz:292291.got - 2010.06.03 13:09:07.
