data_PCOD9178191
_publ_section_title
;
Structure prediction by ZEFSAII (Michael W. Deem and Ramdas Pophale) SiO2 
 PCOD9178191
Probable space group: C 2/M
;
_chemical_formula_sum "Si O2"
_cell_formula_units_Z 56
_cell_length_a 19.689897
_cell_length_b 7.856558
_cell_length_c 25.727930
_cell_angle_alpha 90.000000
_cell_angle_beta 137.766413
_cell_angle_gamma 90.000000
_cell_volume 2675.160689
_symmetry_space_group_name_H-M "C 2/M"
_symmetry_group_IT_number 12
_symmetry_cell_setting 'monoclinic'
loop_
_space_group_symop_operation_xyz
x,y,z
-x,y,-z
-x,-y,-z
x,-y,z
1/2+x,1/2+y,z
1/2-x,1/2+y,-z
1/2-x,1/2-y,-z
1/2+x,1/2-y,z
loop_
_atom_site_type_symbol
_atom_site_label
_atom_site_fract_x
_atom_site_fract_y
_atom_site_fract_z
Si Si1 0.770437 0.204605 0.676659
Si Si2 0.499147 0.707518 0.823431
Si Si3 0.211823 0.200791 0.752772
Si Si4 0.807659 0.204479 0.584898
Si Si5 0.165311 0.795555 0.993327
Si Si6 0.038792 0.208092 0.731518
Si Si7 0.884854 0.794885 0.925144
O O1 0.702218 0.252233 0.686881
O O2 0.753767 0.264478 0.607938
O O3 0.883971 0.264774 0.754822
O O4 0.771763 0.000000 0.676093
O O5 0.497482 0.500000 0.823655
O O6 0.560532 0.765357 0.908244
O O7 0.553214 0.757942 0.800043
O O8 0.124244 0.273044 0.740749
O O9 0.321071 0.248321 0.838383
O O10 0.203896 0.000000 0.751494
O O11 0.750000 0.250000 0.500000
O O12 0.924802 0.262276 0.651818
O O13 0.811463 0.000000 0.589883
O O14 0.161291 0.000000 0.993909
O O15 0.250000 0.750000 0.000000
O O16 0.176258 0.733407 0.058310
O O17 0.039764 0.000000 0.731211
O O18 0.889665 0.000000 0.927138
O O19 0.000000 0.735641 0.000000
#
# Coordination Sequence:
#
# PCOD9178191 Si02
#       7
#     8   8   8   8   8   8   8
#     4   9  18  34  55  75  98 132 168 201 245 303
#     4   8  14  29  51  68  87 125 173 207 236 291
#     4  11  21  33  52  77 104 133 169 216 261 300
#     4   9  18  35  59  82 104 133 168 205 246 298
#     4  10  19  30  47  70  94 124 164 211 257 296
#     4   8  16  31  51  75 102 134 168 203 252 306
#     4  10  21  36  52  70  98 140 182 215 254 306
#
# _framework density 20.933323000000001
#
# number of rings (size 3 to 8) (size 9 to 14) (size 15 to 20)
#    0.000    2.714    0.000    3.857    0.000    4.857 
#    0.000    4.286    0.000    6.857    0.000    0.000 
#    0.000    0.000    0.000    0.000    0.000    0.000 
#
# Total GULP energy -156162.535479 kJ/mol
# GULP energy per Si atom -5577.233410 kJ/mol
# Density = 2.088568 g / cm^3
# Si number density = 20.933323 Si / 1000 Ang^3
#
#
#
# Elastic Constant Matrix: (Units=GPa)
#
#
# Indices 1 2 3 4 5 6 
#
# 1 112.4044 5.9314 27.6121 0.0000 -28.2829 0.0000
# 2 5.9314 22.6876 4.4781 0.0000 -3.2741 -0.0001
# 3 27.6121 4.4781 93.8983 0.0000 -29.8650 0.0000
# 4 0.0000 0.0000 0.0000 20.6929 0.0000 -5.2191
# 5 -28.2829 -3.2741 -29.8650 0.0000 30.4451 0.0000
# 6 0.0000 -0.0001 0.0000 -5.2191 0.0000 20.2804
#
#
#
# Elastic Compliance Matrix: (Units=1/GPa)
#
#
# Indices 1 2 3 4 5 6 
#
# 1 0.011661 -0.001512 0.000053 0.000000 0.010723 0.000000
# 2 -0.001512 0.045018 -0.000886 0.000000 0.002568 0.000000
# 3 0.000053 -0.000886 0.015497 0.000000 0.015156 0.000000
# 4 0.000000 0.000000 0.000000 0.051680 0.000000 0.013300
# 5 0.010723 0.002568 0.015156 0.000000 0.057951 0.000000
# 6 0.000000 0.000000 0.000000 0.013300 0.000000 0.052731
#
#
# Mechanical properties :
#
#
# Convention : Reuss Voigt Hill
#
# Bulk Modulus (GPa) = 14.81751 33.89261 24.35506
# Shear Modulus (GPa) = 19.10428 27.01493 23.05960
#
# Velocity S-wave (km/s) = 3.02425 3.59628 3.32260
# Velocity P-wave (km/s) = 4.39187 5.78534 5.13609
#
# Compressibility (1/GPa) = 0.06748774
#
# Stress axis : x y z
#
# Youngs Moduli (GPa) = 85.75483 22.21354 64.52950
#
# Poissons Ratio (x) = 0.03358 -0.00345
# Poissons Ratio (y) = 0.12964 0.05714
# Poissons Ratio (z) = -0.00458 0.01967
#
# Static dielectric constant tensor:
#      x y z
#    x 1.820150 0.000000 -0.021320 
#    y 0.000000 1.772150 0.000000 
#    z -0.021320 0.000000 1.757390 
# 
# From -- ./inp_files/342492.got.cif
#   From: 2010.05.17/outbox.cif.g08.bks.cpg/sg12_172_cif.got.tgz:342492.got - 2010.06.03 13:09:07.
