data_PCOD9178016
_publ_section_title
;
Structure prediction by ZEFSAII (Michael W. Deem and Ramdas Pophale) SiO2 
 PCOD9178016
Probable space group: C 2/M
;
_chemical_formula_sum "Si O2"
_cell_formula_units_Z 44
_cell_length_a 23.528016
_cell_length_b 8.503843
_cell_length_c 12.363166
_cell_angle_alpha 90.000000
_cell_angle_beta 91.505269
_cell_angle_gamma 90.000000
_cell_volume 2472.750771
_symmetry_space_group_name_H-M "C 2/M"
_symmetry_group_IT_number 12
_symmetry_cell_setting 'monoclinic'
loop_
_space_group_symop_operation_xyz
x,y,z
-x,y,-z
-x,-y,-z
x,-y,z
1/2+x,1/2+y,z
1/2-x,1/2+y,-z
1/2-x,1/2-y,-z
1/2+x,1/2-y,z
loop_
_atom_site_type_symbol
_atom_site_label
_atom_site_fract_x
_atom_site_fract_y
_atom_site_fract_z
Si Si1 0.000000 0.737287 0.500000
Si Si2 0.430950 0.686249 0.115362
Si Si3 0.406724 0.184209 0.341704
Si Si4 0.105800 0.325558 0.350509
Si Si5 0.567560 0.313542 0.125440
Si Si6 0.687870 0.317530 0.517555
O O1 0.046145 0.792890 0.593483
O O2 0.047496 0.672132 0.418181
O O3 0.418869 0.500000 0.125644
O O4 0.406232 0.778254 0.215515
O O5 0.499265 0.704619 0.124323
O O6 0.412900 0.736261 0.993681
O O7 0.346705 0.221349 0.393408
O O8 0.422354 0.000000 0.360905
O O9 0.130745 0.500000 0.358290
O O10 0.092590 0.278597 0.227658
O O11 0.148881 0.206359 0.409318
O O12 0.579126 0.500000 0.137903
O O13 0.690470 0.500000 0.547209
O O14 0.750000 0.250000 0.500000
#
# Coordination Sequence:
#
# PCOD9178016 Si02
#       6
#     4   8   8   8   8   8
#     4  10  19  30  45  74 111 140 171 212 263 314
#     4   9  18  32  49  74 110 147 182 219 261 312
#     4  11  20  33  53  79 110 142 177 221 265 315
#     4  11  20  33  53  79 110 142 177 221 265 315
#     4   9  18  32  49  74 110 147 182 219 261 312
#     4  11  23  40  58  79 104 138 179 221 270 320
#
# _framework density 17.793949999999999
#
# number of rings (size 3 to 8) (size 9 to 14) (size 15 to 20)
#    0.000    1.818    1.818    6.545    0.000    0.727 
#    0.000    4.545    0.000    1.091    0.000    0.000 
#    0.000    0.000    0.000    0.000    0.000    0.000 
#
# Total GULP energy -122471.992802 kJ/mol
# GULP energy per Si atom -5566.908764 kJ/mol
# Density = 1.775345 g / cm^3
# Si number density = 17.793950 Si / 1000 Ang^3
#
#
#
# Elastic Constant Matrix: (Units=GPa)
#
#
# Indices 1 2 3 4 5 6 
#
# 1 82.8494 16.3083 29.4665 0.0000 -6.3878 0.0000
# 2 16.3083 42.9643 26.7695 0.0000 -3.8301 0.0000
# 3 29.4665 26.7695 148.0580 0.0000 -17.7890 0.0000
# 4 0.0000 0.0000 0.0000 13.6943 0.0000 4.8556
# 5 -6.3878 -3.8301 -17.7890 0.0000 14.2458 0.0000
# 6 0.0000 0.0000 0.0000 4.8556 0.0000 15.0270
#
#
#
# Elastic Compliance Matrix: (Units=1/GPa)
#
#
# Indices 1 2 3 4 5 6 
#
# 1 0.013655 -0.003884 -0.001653 0.000000 0.003014 0.000000
# 2 -0.003884 0.027356 -0.004116 0.000000 0.000473 0.000000
# 3 -0.001653 -0.004116 0.008948 0.000000 0.009325 0.000000
# 4 0.000000 0.000000 0.000000 0.082472 0.000000 -0.026648
# 5 0.003014 0.000473 0.009325 0.000000 0.083320 0.000000
# 6 0.000000 0.000000 0.000000 -0.026648 0.000000 0.075158
#
#
# Mechanical properties :
#
#
# Convention : Reuss Voigt Hill
#
# Bulk Modulus (GPa) = 32.62461 46.55112 39.58787
# Shear Modulus (GPa) = 15.60388 22.01524 18.80956
#
# Velocity S-wave (km/s) = 2.96450 3.52125 3.25480
# Velocity P-wave (km/s) = 5.48563 6.53837 6.03500
#
# Compressibility (1/GPa) = 0.03065170
#
# Stress axis : x y z
#
# Youngs Moduli (GPa) = 73.23273 36.55443 111.75975
#
# Poissons Ratio (x) = 0.14199 0.18476
# Poissons Ratio (y) = 0.28447 0.46003
# Poissons Ratio (z) = 0.12106 0.15047
#
# Static dielectric constant tensor:
#      x y z
#    x 1.574720 0.000000 -0.001820 
#    y 0.000000 1.630300 0.000000 
#    z -0.001820 0.000000 1.625150 
# 
# From -- ./inp_files/163221.got.cif
#   From: 2010.05.17/outbox.cif.g08.bks.cpg/sg12_82_cif.got.tgz:163221.got - 2010.06.03 13:09:07.
