data_PCOD9178241
_publ_section_title
;
Structure prediction by ZEFSAII (Michael W. Deem and Ramdas Pophale) SiO2 
 PCOD9178241
Probable space group: C 2/M
;
_chemical_formula_sum "Si O2"
_cell_formula_units_Z 48
_cell_length_a 33.070107
_cell_length_b 7.717584
_cell_length_c 14.751936
_cell_angle_alpha 90.000000
_cell_angle_beta 42.556209
_cell_angle_gamma 90.000000
_cell_volume 2546.324993
_symmetry_space_group_name_H-M "C 2/M"
_symmetry_group_IT_number 12
_symmetry_cell_setting 'monoclinic'
loop_
_space_group_symop_operation_xyz
x,y,z
-x,y,-z
-x,-y,-z
x,-y,z
1/2+x,1/2+y,z
1/2-x,1/2+y,-z
1/2-x,1/2-y,-z
1/2+x,1/2-y,z
loop_
_atom_site_type_symbol
_atom_site_label
_atom_site_fract_x
_atom_site_fract_y
_atom_site_fract_z
Si Si1 0.542782 0.701412 0.506564
Si Si2 0.432168 0.701563 0.151721
Si Si3 0.482424 0.712951 0.251231
Si Si4 0.837814 0.299266 0.782668
Si Si5 0.611476 0.290378 0.961938
Si Si6 0.207154 0.705051 0.951060
O O1 0.500000 0.779882 0.500000
O O2 0.524630 0.500000 0.545651
O O3 0.535126 0.774539 0.620039
O O4 0.610070 0.709575 0.359163
O O5 0.414527 0.500000 0.190983
O O6 0.439305 0.775216 0.240805
O O7 0.500000 0.703079 0.000000
O O8 0.392640 0.775623 0.135043
O O9 0.480499 0.500000 0.251407
O O10 0.550366 0.763332 0.114008
O O11 0.855127 0.500000 0.761006
O O12 0.773056 0.284838 0.842866
O O13 0.827916 0.229103 0.901261
O O14 0.610289 0.500000 0.960219
O O15 0.668187 0.236568 0.926707
O O16 0.215416 0.500000 0.950603
#
# Coordination Sequence:
#
# PCOD9178241 Si02
#       6
#     8   8   8   8   8   8
#     4  10  19  30  47  71  98 126 153 183 222 269
#     4   7  11  21  40  67  94 120 152 187 221 260
#     4   8  14  25  43  69  99 127 153 183 222 268
#     4  10  21  35  49  66  90 121 155 189 226 270
#     4   9  15  26  48  73  94 119 154 191 224 265
#     4  10  20  33  49  68  91 118 149 190 236 276
#
# _framework density 18.850695999999999
#
# number of rings (size 3 to 8) (size 9 to 14) (size 15 to 20)
#    0.000    3.000    0.000    4.000    0.000    3.667 
#    0.000    0.833    0.000    6.500    0.000    0.000 
#    0.000    0.000    0.000    0.000    0.000    0.000 
#
# Total GULP energy -133720.420619 kJ/mol
# GULP energy per Si atom -5571.684192 kJ/mol
# Density = 1.880779 g / cm^3
# Si number density = 18.850696 Si / 1000 Ang^3
#
#
#
# Elastic Constant Matrix: (Units=GPa)
#
#
# Indices 1 2 3 4 5 6 
#
# 1 177.0259 -2.2767 58.1650 0.0000 25.7657 -0.0002
# 2 -2.2767 30.6075 -1.4509 0.0001 5.3695 -0.0002
# 3 58.1650 -1.4509 75.8204 0.0000 21.9792 0.0000
# 4 0.0000 0.0001 0.0000 8.1084 0.0000 -3.9764
# 5 25.7657 5.3695 21.9792 0.0000 24.2363 0.0000
# 6 -0.0002 -0.0002 0.0000 -3.9764 0.0000 5.6322
#
#
#
# Elastic Compliance Matrix: (Units=1/GPa)
#
#
# Indices 1 2 3 4 5 6 
#
# 1 0.007850 0.001107 -0.004762 0.000000 -0.004271 0.000000
# 2 0.001107 0.034996 0.003268 0.000000 -0.011894 0.000001
# 3 -0.004762 0.003268 0.021228 0.000000 -0.014912 0.000000
# 4 0.000000 0.000000 0.000000 0.188643 0.000000 0.133185
# 5 -0.004271 -0.011894 -0.014912 0.000000 0.061960 0.000000
# 6 0.000000 0.000001 0.000000 0.133185 0.000000 0.271582
#
#
# Mechanical properties :
#
#
# Convention : Reuss Voigt Hill
#
# Bulk Modulus (GPa) = 15.79796 43.59205 29.69501
# Shear Modulus (GPa) = 8.22191 22.86314 15.54252
#
# Velocity S-wave (km/s) = 2.09071 3.48638 2.87454
# Velocity P-wave (km/s) = 3.77185 6.27548 5.17728
#
# Compressibility (1/GPa) = 0.06329929
#
# Stress axis : x y z
#
# Youngs Moduli (GPa) = 127.39532 28.57504 47.10817
#
# Poissons Ratio (x) = -0.03165 0.22434
# Poissons Ratio (y) = -0.14109 -0.15395
# Poissons Ratio (z) = 0.60670 -0.09338
#
# Static dielectric constant tensor:
#      x y z
#    x 1.690660 0.000000 0.035920 
#    y 0.000000 1.700250 0.000000 
#    z 0.035920 0.000000 1.618760 
# 
# From -- ./inp_files/248783.got.cif
#   From: 2010.05.17/outbox.cif.g08.bks.cpg/sg12_125_cif.got.tgz:248783.got - 2010.06.03 13:09:07.
