data_PCOD9178997
_publ_section_title
;
Structure prediction by ZEFSAII (Michael W. Deem and Ramdas Pophale) SiO2 
 PCOD9178997
Probable space group: C 2/M
;
_chemical_formula_sum "Si O2"
_cell_formula_units_Z 64
_cell_length_a 26.364982
_cell_length_b 7.251902
_cell_length_c 13.457087
_cell_angle_alpha 90.000000
_cell_angle_beta 98.891228
_cell_angle_gamma 90.000000
_cell_volume 2542.027095
_symmetry_space_group_name_H-M "C 2/M"
_symmetry_group_IT_number 12
_symmetry_cell_setting 'monoclinic'
loop_
_space_group_symop_operation_xyz
x,y,z
-x,y,-z
-x,-y,-z
x,-y,z
1/2+x,1/2+y,z
1/2-x,1/2+y,-z
1/2-x,1/2-y,-z
1/2+x,1/2-y,z
loop_
_atom_site_type_symbol
_atom_site_label
_atom_site_fract_x
_atom_site_fract_y
_atom_site_fract_z
Si Si1 0.526209 0.724087 0.109983
Si Si2 0.144050 0.790841 0.859952
Si Si3 0.118611 0.774790 0.426871
Si Si4 0.135374 0.224915 0.076134
Si Si5 0.251779 0.277254 0.819953
Si Si6 0.898471 0.775689 0.360466
Si Si7 0.224980 0.781128 0.385480
Si Si8 0.993235 0.223977 0.678530
O O1 0.524496 0.500000 0.108698
O O2 0.586144 0.777628 0.125749
O O3 0.500002 0.781295 0.204689
O O4 0.500000 0.785413 0.000000
O O5 0.205773 0.794031 0.873585
O O6 0.126635 0.709390 0.749629
O O7 0.123456 0.000000 0.853893
O O8 0.127586 0.711463 0.960257
O O9 0.126195 0.716563 0.543570
O O10 0.166401 0.713221 0.375225
O O11 0.062503 0.715788 0.374921
O O12 0.118654 0.000000 0.424236
O O13 0.191311 0.280705 0.130424
O O14 0.136241 0.000000 0.075525
O O15 0.249017 0.500000 0.825071
O O16 0.245588 0.214043 0.703320
O O17 0.958317 0.722286 0.372866
O O18 0.895631 0.000000 0.360254
O O19 0.250000 0.750000 0.500000
O O20 0.221984 0.000000 0.370675
O O21 0.992578 0.000000 0.676343
#
# Coordination Sequence:
#
# PCOD9178997 Si02
#       8
#     8   8   8   8   8   8   8   8
#     4   9  15  23  37  58  86 118 149 182 224 274
#     4  10  19  31  48  69  94 123 155 192 233 274
#     4   9  16  26  40  59  86 118 149 182 224 274
#     4   9  17  29  44  64  92 124 155 189 230 275
#     4  10  20  33  48  67  93 124 158 193 229 272
#     4   9  16  25  39  62  90 117 146 183 227 272
#     4  10  20  33  49  69  93 123 157 192 230 272
#     4   9  15  23  37  59  88 119 147 179 225 276
#
# _framework density 25.176759000000001
#
# number of rings (size 3 to 8) (size 9 to 14) (size 15 to 20)
#    0.000    2.625    0.000    3.000    0.000    9.000 
#    0.000    0.000    0.000    0.000    0.000    0.875 
#    0.000   15.000    0.000    0.000    0.000    0.000 
#
# Total GULP energy -178998.781599 kJ/mol
# GULP energy per Si atom -5593.711925 kJ/mol
# Density = 2.511946 g / cm^3
# Si number density = 25.176759 Si / 1000 Ang^3
#
#
#
# Elastic Constant Matrix: (Units=GPa)
#
#
# Indices 1 2 3 4 5 6 
#
# 1 65.8460 -9.9470 -18.9722 0.0000 -7.5171 0.0000
# 2 -9.9470 115.7003 -4.6073 0.0000 -1.9676 0.0000
# 3 -18.9722 -4.6073 70.2364 0.0000 -8.7994 0.0000
# 4 0.0000 0.0000 0.0000 -10.9899 0.0000 0.2531
# 5 -7.5171 -1.9676 -8.7994 0.0000 50.3525 0.0000
# 6 0.0000 0.0000 0.0000 0.2531 0.0000 -3.8380
#
#
#
# Elastic Compliance Matrix: (Units=1/GPa)
#
#
# Indices 1 2 3 4 5 6 
#
# 1 0.017378 0.001764 0.005259 0.000000 0.003582 0.000000
# 2 0.001764 0.008855 0.001159 0.000000 0.000812 0.000000
# 3 0.005259 0.001159 0.016193 0.000000 0.003660 0.000000
# 4 0.000000 0.000000 0.000000 -0.091131 0.000000 -0.006010
# 5 0.003582 0.000812 0.003660 0.000000 0.021066 0.000000
# 6 0.000000 0.000000 0.000000 -0.006010 0.000000 -0.260948
#
#
# Mechanical properties :
#
#
# Convention : Reuss Voigt Hill
#
# Bulk Modulus (GPa) = 17.01004 20.52553 18.76779
# Shear Modulus (GPa) = -17.52196 26.12554 4.30179
#
# Velocity S-wave (km/s) = -2.64096 3.22481 1.30857
# Velocity P-wave (km/s) = 1.59018 4.69426 3.12309
#
# Compressibility (1/GPa) = 0.05878881
#
# Stress axis : x y z
#
# Youngs Moduli (GPa) = 57.54548 112.93482 61.75644
#
# Poissons Ratio (x) = -0.19925 -0.32475
# Poissons Ratio (y) = -0.10153 -0.07158
# Poissons Ratio (z) = -0.30260 -0.13091
#
# Static dielectric constant tensor:
#      x y z
#    x 1.955720 0.000000 -0.031610 
#    y 0.000000 2.060350 0.000000 
#    z -0.031610 0.000000 2.089060 
# 
# From -- ./inp_files/174687.got.cif
#   From: 2010.05.17/outbox.cif.g08.bks.cpg/sg12_88_cif.got.tgz:174687.got - 2010.06.03 13:09:07.
