data_PCOD9178304
_publ_section_title
;
Structure prediction by ZEFSAII (Michael W. Deem and Ramdas Pophale) SiO2 
 PCOD9178304
Probable space group: C 2/M
;
_chemical_formula_sum "Si O2"
_cell_formula_units_Z 56
_cell_length_a 9.244945
_cell_length_b 21.648447
_cell_length_c 17.913727
_cell_angle_alpha 90.000000
_cell_angle_beta 121.805504
_cell_angle_gamma 90.000000
_cell_volume 3046.879335
_symmetry_space_group_name_H-M "C 2/M"
_symmetry_group_IT_number 12
_symmetry_cell_setting 'monoclinic'
loop_
_space_group_symop_operation_xyz
x,y,z
-x,y,-z
-x,-y,-z
x,-y,z
1/2+x,1/2+y,z
1/2-x,1/2+y,-z
1/2-x,1/2-y,-z
1/2+x,1/2-y,z
loop_
_atom_site_type_symbol
_atom_site_label
_atom_site_fract_x
_atom_site_fract_y
_atom_site_fract_z
Si Si1 0.972833 0.425152 0.807238
Si Si2 0.678733 0.425077 0.012590
Si Si3 0.552491 0.744531 0.434296
Si Si4 0.880385 0.106881 0.530181
Si Si5 0.522164 0.136715 0.352382
Si Si6 0.828630 0.924798 0.160387
Si Si7 0.188404 0.929293 0.323001
O O1 0.965463 0.500000 0.793775
O O2 0.820092 0.407599 0.822206
O O3 0.154967 0.409890 0.893944
O O4 0.960035 0.390198 0.725404
O O5 0.671165 0.500000 0.008804
O O6 0.500000 0.403837 0.000000
O O7 0.700936 0.404670 0.932853
O O8 0.500000 0.771260 0.500000
O O9 0.750000 0.750000 0.500000
O O10 0.520563 0.671411 0.422206
O O11 0.499083 0.789135 0.353336
O O12 0.696305 0.120281 0.443609
O O13 0.847891 0.072880 0.598614
O O14 0.000000 0.076394 0.500000
O O15 0.357094 0.107376 0.346813
O O16 0.016544 0.904857 0.237375
O O17 0.829885 0.000000 0.161228
O O18 0.214026 0.000000 0.305562
#
# Coordination Sequence:
#
# PCOD9178304 Si02
#       7
#     8   8   8   8   8   8   8
#     4  10  19  30  47  73 104 138 174 213 263 318
#     4   9  16  28  47  70  98 135 176 216 257 304
#     4   9  18  34  53  71  93 126 173 220 255 292
#     4  10  21  36  53  72  98 134 174 217 260 307
#     4  11  20  32  50  73 101 134 171 216 262 308
#     4   9  18  32  47  67 100 139 177 213 251 306
#     4  11  22  34  50  76 109 142 174 211 264 324
#
# _framework density 18.379460999999999
#
# number of rings (size 3 to 8) (size 9 to 14) (size 15 to 20)
#    0.000    2.143    0.000    4.714    0.000    6.000 
#    0.000    0.000    0.000    0.000    0.000    1.000 
#    0.000    4.571    0.000    1.429    0.000    0.000 
#
# Total GULP energy -156040.292026 kJ/mol
# GULP energy per Si atom -5572.867572 kJ/mol
# Density = 1.833763 g / cm^3
# Si number density = 18.379461 Si / 1000 Ang^3
#
#
#
# Elastic Constant Matrix: (Units=GPa)
#
#
# Indices 1 2 3 4 5 6 
#
# 1 123.6431 30.3994 39.1779 0.0000 -3.9135 0.0000
# 2 30.3994 47.8655 32.1859 0.0000 -1.3921 0.0000
# 3 39.1779 32.1859 113.9560 0.0000 -3.1803 0.0000
# 4 0.0000 0.0000 0.0000 -127.5826 0.0000 68.0990
# 5 -3.9135 -1.3921 -3.1803 0.0000 34.5606 0.0000
# 6 0.0000 0.0000 0.0000 68.0990 0.0000 -15.7040
#
#
#
# Elastic Compliance Matrix: (Units=1/GPa)
#
#
# Indices 1 2 3 4 5 6 
#
# 1 0.009966 -0.004960 -0.002005 0.000000 0.000744 0.000000
# 2 -0.004960 0.028263 -0.006277 0.000000 -0.000001 0.000000
# 3 -0.002005 -0.006277 0.011253 0.000000 0.000556 0.000000
# 4 0.000000 0.000000 0.000000 0.005962 0.000000 0.025855
# 5 0.000744 -0.000001 0.000556 0.000000 0.029070 0.000000
# 6 0.000000 0.000000 0.000000 0.025855 0.000000 0.048439
#
#
# Mechanical properties :
#
#
# Convention : Reuss Voigt Hill
#
# Bulk Modulus (GPa) = 43.48183 54.33233 48.90708
# Shear Modulus (GPa) = 29.92173 -9.49844 10.21164
#
# Velocity S-wave (km/s) = 4.03922 -2.27578 2.35968
# Velocity P-wave (km/s) = 6.74262 4.76655 5.83879
#
# Compressibility (1/GPa) = 0.02299811
#
# Stress axis : x y z
#
# Youngs Moduli (GPa) = 100.34134 35.38204 88.86473
#
# Poissons Ratio (x) = 0.17549 0.17815
# Poissons Ratio (y) = 0.49767 0.55785
# Poissons Ratio (z) = 0.20115 0.22211
#
# Static dielectric constant tensor:
#      x y z
#    x 1.636950 0.000000 -0.007530 
#    y 0.000000 1.690290 0.000000 
#    z -0.007530 0.000000 1.624940 
# 
# From -- ./inp_files/198953.got.cif
#   From: 2010.05.17/outbox.cif.g08.bks.cpg/sg12_100_cif.got.tgz:198953.got - 2010.06.03 13:09:07.
