data_PCOD9178725
_publ_section_title
;
Structure prediction by ZEFSAII (Michael W. Deem and Ramdas Pophale) SiO2 
 PCOD9178725
Probable space group: C 2/M
;
_chemical_formula_sum "Si O2"
_cell_formula_units_Z 40
_cell_length_a 7.520662
_cell_length_b 28.425450
_cell_length_c 9.165434
_cell_angle_alpha 90.000000
_cell_angle_beta 46.712933
_cell_angle_gamma 90.000000
_cell_volume 1426.279391
_symmetry_space_group_name_H-M "C 2/M"
_symmetry_group_IT_number 12
_symmetry_cell_setting 'monoclinic'
loop_
_space_group_symop_operation_xyz
x,y,z
-x,y,-z
-x,-y,-z
x,-y,z
1/2+x,1/2+y,z
1/2-x,1/2+y,-z
1/2-x,1/2-y,-z
1/2+x,1/2-y,z
loop_
_atom_site_type_symbol
_atom_site_label
_atom_site_fract_x
_atom_site_fract_y
_atom_site_fract_z
Si Si1 0.498176 0.000000 0.325793
Si Si2 0.446269 0.696893 0.782628
Si Si3 0.111168 0.701902 0.236874
Si Si4 0.026218 0.902680 0.220673
Si Si5 0.426534 0.101192 0.735136
Si Si6 0.280139 0.500000 0.890919
O O1 0.500000 0.000000 0.500000
O O2 0.416363 0.053751 0.334474
O O3 0.749981 0.000000 0.085674
O O4 0.661755 0.694686 0.781729
O O5 0.481069 0.745697 0.679633
O O6 0.440085 0.645917 0.711727
O O7 0.201341 0.702559 0.018342
O O8 0.961489 0.653560 0.337301
O O9 0.087412 0.954091 0.242419
O O10 0.759664 0.905059 0.296092
O O11 0.235408 0.896856 0.977482
O O12 0.000000 0.500000 0.000000
#
# Coordination Sequence:
#
# PCOD9178725 Si02
#       6
#     4   8   8   8   8   4
#     4  10  19  31  47  69  91 122 160 190 228 274
#     4   8  13  22  34  58  86 117 144 180 224 281
#     4   8  13  22  35  57  87 113 146 183 227 266
#     4   8  14  26  43  62  88 120 152 181 232 275
#     4   8  14  26  45  63  84 115 158 196 215 265
#     4  10  19  31  43  69 103 120 142 196 242 274
#
# _framework density 28.044999000000001
#
# number of rings (size 3 to 8) (size 9 to 14) (size 15 to 20)
#    0.000    3.600    0.000    3.000    0.000    2.400 
#   14.400    0.000    0.000    2.400    0.000    5.600 
#    0.000    0.000    0.000    0.000    0.000    0.000 
#
# Total GULP energy -111634.971690 kJ/mol
# GULP energy per Si atom -5581.748584 kJ/mol
# Density = 2.798117 g / cm^3
# Si number density = 28.044999 Si / 1000 Ang^3
#
#
#
# Elastic Constant Matrix: (Units=GPa)
#
#
# Indices 1 2 3 4 5 6 
#
# 1 80.6586 39.7014 23.6834 0.0000 5.8549 0.0000
# 2 39.7014 423.5757 25.9131 0.0000 -9.2782 0.0000
# 3 23.6834 25.9131 125.5086 0.0000 -4.2018 0.0000
# 4 0.0000 0.0000 0.0000 -7.6971 0.0000 4.7570
# 5 5.8549 -9.2782 -4.2018 0.0000 23.8080 0.0000
# 6 0.0000 0.0000 0.0000 4.7570 0.0000 24.1527
#
#
#
# Elastic Compliance Matrix: (Units=1/GPa)
#
#
# Indices 1 2 3 4 5 6 
#
# 1 0.014086 -0.001261 -0.002545 0.000000 -0.004405 0.000000
# 2 -0.001261 0.002521 -0.000241 0.000000 0.001250 0.000000
# 3 -0.002545 -0.000241 0.008566 0.000000 0.002044 0.000000
# 4 0.000000 0.000000 0.000000 -0.115821 0.000000 0.022812
# 5 -0.004405 0.001250 0.002044 0.000000 0.043934 0.000000
# 6 0.000000 0.000000 0.000000 0.022812 0.000000 0.036910
#
#
# Mechanical properties :
#
#
# Convention : Reuss Voigt Hill
#
# Bulk Modulus (GPa) = 58.55090 89.81543 74.18317
# Shear Modulus (GPa) = 1255.42722 44.08238 649.75480
#
# Velocity S-wave (km/s) = 21.18063 3.96895 15.23765
# Velocity P-wave (km/s) = 24.88135 7.28687 18.33276
#
# Compressibility (1/GPa) = 0.01707916
#
# Stress axis : x y z
#
# Youngs Moduli (GPa) = 70.99433 396.64322 116.74117
#
# Poissons Ratio (x) = 0.50017 0.29711
# Poissons Ratio (y) = 0.08953 0.02810
# Poissons Ratio (z) = 0.18068 0.09548
#
# Static dielectric constant tensor:
#      x y z
#    x 2.216870 0.000000 0.006550 
#    y 0.000000 2.251490 0.000000 
#    z 0.006550 0.000000 2.236080 
# 
# From -- ./inp_files/124719.got.cif
#   From: 2010.05.17/outbox.cif.g08.bks.cpg/sg12_63_cif.got.tgz:124719.got - 2010.06.03 13:09:07.
