data_PCOD9178999
_publ_section_title
;
Structure prediction by ZEFSAII (Michael W. Deem and Ramdas Pophale) SiO2 
 PCOD9178999
Probable space group: C 2/M
;
_chemical_formula_sum "Si O2"
_cell_formula_units_Z 56
_cell_length_a 34.582315
_cell_length_b 7.322032
_cell_length_c 15.532189
_cell_angle_alpha 90.000000
_cell_angle_beta 38.758911
_cell_angle_gamma 90.000000
_cell_volume 2462.202309
_symmetry_space_group_name_H-M "C 2/M"
_symmetry_group_IT_number 12
_symmetry_cell_setting 'monoclinic'
loop_
_space_group_symop_operation_xyz
x,y,z
-x,y,-z
-x,-y,-z
x,-y,z
1/2+x,1/2+y,z
1/2-x,1/2+y,-z
1/2-x,1/2-y,-z
1/2+x,1/2-y,z
loop_
_atom_site_type_symbol
_atom_site_label
_atom_site_fract_x
_atom_site_fract_y
_atom_site_fract_z
Si Si1 0.647138 0.776341 0.304224
Si Si2 0.141536 0.711662 0.936867
Si Si3 0.120358 0.723480 0.159507
Si Si4 0.819465 0.282230 0.415010
Si Si5 0.569630 0.776067 0.901788
Si Si6 0.985625 0.704772 0.422956
Si Si7 0.277370 0.779776 0.667560
O O1 0.649011 0.717010 0.201210
O O2 0.582338 0.713919 0.459346
O O3 0.699818 0.717644 0.278348
O O4 0.645404 0.000000 0.305931
O O5 0.125375 0.500000 0.977443
O O6 0.090543 0.786655 0.960581
O O7 0.207013 0.723200 0.776154
O O8 0.149851 0.785666 0.018965
O O9 0.120332 0.500000 0.164821
O O10 0.048717 0.784982 0.277684
O O11 0.826966 0.500000 0.404479
O O12 0.750000 0.250000 0.500000
O O13 0.876418 0.215036 0.258029
O O14 0.818196 0.216468 0.516160
O O15 0.570545 0.000000 0.900256
O O16 0.500000 0.721022 0.000000
O O17 0.980434 0.500000 0.395044
O O18 0.000000 0.690355 0.500000
O O19 0.278985 0.000000 0.665237
#
# Coordination Sequence:
#
# PCOD9178999 Si02
#       7
#     8   8   8   8   8   8   8
#     4   8  14  25  40  64  96 123 152 193 236 280
#     4  10  19  31  48  69  94 127 161 195 239 287
#     4   8  14  24  41  65  93 124 155 191 237 283
#     4  10  19  33  53  73  95 127 162 196 241 292
#     4   9  18  32  50  74 100 122 155 207 254 288
#     4   7  10  19  36  58  86 117 147 185 233 276
#     4  10  20  31  47  70  95 126 161 194 232 285
#
# _framework density 22.743867000000002
#
# number of rings (size 3 to 8) (size 9 to 14) (size 15 to 20)
#    0.000    3.143    1.429    1.714    0.000    1.714 
#    0.000    5.714    0.000    1.714    0.000    3.000 
#    0.000    3.429    0.000    0.000    0.000    0.000 
#
# Total GULP energy -156061.779761 kJ/mol
# GULP energy per Si atom -5573.634991 kJ/mol
# Density = 2.269210 g / cm^3
# Si number density = 22.743867 Si / 1000 Ang^3
#
#
#
# Elastic Constant Matrix: (Units=GPa)
#
#
# Indices 1 2 3 4 5 6 
#
# 1 166.5439 3.5014 60.6229 0.0000 3.2392 -0.0001
# 2 3.5014 88.8377 -3.8981 0.0002 5.5258 -0.0006
# 3 60.6229 -3.8981 110.7800 0.0001 12.9557 0.0001
# 4 0.0000 0.0002 0.0001 -4.1183 0.0002 -1.1998
# 5 3.2392 5.5258 12.9557 0.0002 40.1805 0.0001
# 6 -0.0001 -0.0006 0.0001 -1.1998 0.0001 -4.8491
#
#
#
# Elastic Compliance Matrix: (Units=1/GPa)
#
#
# Indices 1 2 3 4 5 6 
#
# 1 0.007545 -0.000536 -0.004245 0.000000 0.000834 0.000000
# 2 -0.000536 0.011431 0.000908 0.000001 -0.001822 -0.000002
# 3 -0.004245 0.000908 0.011802 0.000000 -0.003588 0.000000
# 4 0.000000 0.000001 0.000000 -0.261685 0.000001 0.064748
# 5 0.000834 -0.001822 -0.003588 0.000001 0.026228 0.000000
# 6 0.000000 -0.000002 0.000000 0.064748 0.000000 -0.222243
#
#
# Mechanical properties :
#
#
# Convention : Reuss Voigt Hill
#
# Bulk Modulus (GPa) = 43.41715 54.06821 48.74268
# Shear Modulus (GPa) = -12.15064 26.63832 7.24384
#
# Velocity S-wave (km/s) = -2.31387 3.42604 1.78658
# Velocity P-wave (km/s) = 3.46301 6.28288 5.07282
#
# Compressibility (1/GPa) = 0.02303237
#
# Stress axis : x y z
#
# Youngs Moduli (GPa) = 132.54311 87.48324 84.73438
#
# Poissons Ratio (x) = 0.04685 0.35971
# Poissons Ratio (y) = 0.07098 -0.07697
# Poissons Ratio (z) = 0.56267 -0.07946
#
# Static dielectric constant tensor:
#      x y z
#    x 1.829310 0.000000 0.005190 
#    y 0.000000 1.919500 0.000000 
#    z 0.005190 0.000000 1.866030 
# 
# From -- ./inp_files/250539.got.cif
#   From: 2010.05.17/outbox.cif.g08.bks.cpg/sg12_126_cif.got.tgz:250539.got - 2010.06.03 13:09:07.
