data_PCOD9178808
_publ_section_title
;
Structure prediction by ZEFSAII (Michael W. Deem and Ramdas Pophale) SiO2 
 PCOD9178808
Probable space group: C 2/M
;
_chemical_formula_sum "Si O2"
_cell_formula_units_Z 56
_cell_length_a 28.143605
_cell_length_b 7.800119
_cell_length_c 13.941292
_cell_angle_alpha 90.000000
_cell_angle_beta 119.365437
_cell_angle_gamma 90.000000
_cell_volume 2667.204075
_symmetry_space_group_name_H-M "C 2/M"
_symmetry_group_IT_number 12
_symmetry_cell_setting 'monoclinic'
loop_
_space_group_symop_operation_xyz
x,y,z
-x,y,-z
-x,-y,-z
x,-y,z
1/2+x,1/2+y,z
1/2-x,1/2+y,-z
1/2-x,1/2-y,-z
1/2+x,1/2-y,z
loop_
_atom_site_type_symbol
_atom_site_label
_atom_site_fract_x
_atom_site_fract_y
_atom_site_fract_z
Si Si1 0.782330 0.294249 0.434404
Si Si2 0.689274 0.301126 0.825160
Si Si3 0.381369 0.203131 0.646863
Si Si4 0.188844 0.299263 0.028524
Si Si5 0.180754 0.797964 0.222812
Si Si6 0.521899 0.294054 0.374652
Si Si7 0.083494 0.789922 0.628014
O O1 0.784824 0.500000 0.424432
O O2 0.750000 0.250000 0.500000
O O3 0.842533 0.228038 0.521049
O O4 0.741176 0.226624 0.312159
O O5 0.696196 0.500000 0.806338
O O6 0.749867 0.225806 0.892423
O O7 0.644137 0.225093 0.709749
O O8 0.666306 0.289381 0.911183
O O9 0.358425 0.270609 0.724795
O O10 0.443706 0.240461 0.683381
O O11 0.373443 0.000000 0.641761
O O12 0.192686 0.500000 0.009096
O O13 0.160483 0.278861 0.102914
O O14 0.185948 0.000000 0.213438
O O15 0.521548 0.500000 0.376877
O O16 0.556610 0.233878 0.501821
O O17 0.459911 0.238574 0.332522
O O18 0.085552 0.000000 0.629218
#
# Coordination Sequence:
#
# PCOD9178808 Si02
#       7
#     8   8   8   8   8   8   8
#     4   8  16  28  41  61  91 126 161 193 229 279
#     4   9  18  34  53  72  98 133 168 202 244 293
#     4  10  19  31  46  70 103 133 162 201 247 293
#     4  10  20  32  49  76 103 128 163 206 250 293
#     4  10  19  32  49  69  96 133 170 202 241 292
#     4   9  17  31  52  76 100 129 168 205 241 289
#     4   8  16  32  53  75  98 129 169 208 241 284
#
# _framework density 20.99577
#
# number of rings (size 3 to 8) (size 9 to 14) (size 15 to 20)
#    0.000    2.857    0.000    2.143    2.000    1.714 
#    0.000    2.857    0.000    0.857    0.000    6.000 
#    0.000    0.000    0.000    0.000    0.000    0.000 
#
# Total GULP energy -156059.973854 kJ/mol
# GULP energy per Si atom -5573.570495 kJ/mol
# Density = 2.094798 g / cm^3
# Si number density = 20.995770 Si / 1000 Ang^3
#
#
#
# Elastic Constant Matrix: (Units=GPa)
#
#
# Indices 1 2 3 4 5 6 
#
# 1 66.6724 -1.0869 -4.9585 0.0000 -6.7978 0.0000
# 2 -1.0869 44.0757 -2.6838 0.0000 1.0320 0.0000
# 3 -4.9585 -2.6838 44.1410 0.0000 -8.5360 0.0000
# 4 0.0000 0.0000 0.0000 14.9781 0.0000 -5.8288
# 5 -6.7978 1.0320 -8.5360 0.0000 30.0527 0.0000
# 6 0.0000 0.0000 0.0000 -5.8288 0.0000 12.0324
#
#
#
# Elastic Compliance Matrix: (Units=1/GPa)
#
#
# Indices 1 2 3 4 5 6 
#
# 1 0.015634 0.000445 0.002607 0.000000 0.004262 0.000000
# 2 0.000445 0.022790 0.001379 0.000000 -0.000290 0.000000
# 3 0.002607 0.001379 0.024481 0.000000 0.007496 0.000000
# 4 0.000000 0.000000 0.000000 0.082274 0.000000 0.039856
# 5 0.004262 -0.000290 0.007496 0.000000 0.036378 0.000000
# 6 0.000000 0.000000 0.000000 0.039856 0.000000 0.102416
#
#
# Mechanical properties :
#
#
# Convention : Reuss Voigt Hill
#
# Bulk Modulus (GPa) = 13.93376 15.27008 14.60192
# Shear Modulus (GPa) = 16.72053 22.32053 19.52053
#
# Velocity S-wave (km/s) = 2.82508 3.26405 3.05247
# Velocity P-wave (km/s) = 4.15840 4.63617 4.40377
#
# Compressibility (1/GPa) = 0.07176812
#
# Stress axis : x y z
#
# Youngs Moduli (GPa) = 63.96160 43.87894 40.84799
#
# Poissons Ratio (x) = -0.01951 -0.10651
# Poissons Ratio (y) = -0.02843 -0.05635
# Poissons Ratio (z) = -0.16677 -0.06053
#
# Static dielectric constant tensor:
#      x y z
#    x 1.793050 0.000000 0.000990 
#    y 0.000000 1.755090 0.000000 
#    z 0.000990 0.000000 1.782630 
# 
# From -- ./inp_files/243251.got.cif
#   From: 2010.05.17/outbox.cif.g08.bks.cpg/sg12_122_cif.got.tgz:243251.got - 2010.06.03 13:09:07.
