data_PCOD9178646
_publ_section_title
;
Structure prediction by ZEFSAII (Michael W. Deem and Ramdas Pophale) SiO2 
 PCOD9178646
Probable space group: C 2/M
;
_chemical_formula_sum "Si O2"
_cell_formula_units_Z 64
_cell_length_a 26.020717
_cell_length_b 7.583577
_cell_length_c 14.735805
_cell_angle_alpha 90.000000
_cell_angle_beta 88.559456
_cell_angle_gamma 90.000000
_cell_volume 2906.899022
_symmetry_space_group_name_H-M "C 2/M"
_symmetry_group_IT_number 12
_symmetry_cell_setting 'monoclinic'
loop_
_space_group_symop_operation_xyz
x,y,z
-x,y,-z
-x,-y,-z
x,-y,z
1/2+x,1/2+y,z
1/2-x,1/2+y,-z
1/2-x,1/2-y,-z
1/2+x,1/2-y,z
loop_
_atom_site_type_symbol
_atom_site_label
_atom_site_fract_x
_atom_site_fract_y
_atom_site_fract_z
Si Si1 0.518453 0.783949 0.598424
Si Si2 0.546959 0.294108 0.925692
Si Si3 0.720860 0.203551 0.724643
Si Si4 0.729566 0.287919 0.100591
Si Si5 0.205078 0.709344 0.429334
Si Si6 0.382984 0.706396 0.924249
Si Si7 0.364614 0.783923 0.411783
Si Si8 0.470968 0.202055 0.781520
O O1 0.500000 0.730029 0.500000
O O2 0.577470 0.730154 0.609672
O O3 0.482801 0.721419 0.682446
O O4 0.517505 0.000000 0.601158
O O5 0.555985 0.500000 0.904479
O O6 0.524225 0.208147 0.836663
O O7 0.500000 0.285965 0.000000
O O8 0.594211 0.218255 0.982103
O O9 0.733882 0.283659 0.821427
O O10 0.773865 0.209134 0.664098
O O11 0.675924 0.279839 0.662624
O O12 0.705914 0.000000 0.738568
O O13 0.728073 0.500000 0.114174
O O14 0.671049 0.219614 0.106530
O O15 0.750000 0.250000 0.000000
O O16 0.201603 0.500000 0.414917
O O17 0.250000 0.750000 0.500000
O O18 0.154803 0.769832 0.486610
O O19 0.374869 0.500000 0.944236
O O20 0.426625 0.715335 0.845175
O O21 0.362397 0.000000 0.412581
O O22 0.455246 0.000000 0.771369
#
# Coordination Sequence:
#
# PCOD9178646 Si02
#       8
#     8   8   8   8   8   8   8   8
#     4   9  18  31  45  67 102 135 162 198 247 300
#     4   8  15  30  51  71  96 131 164 197 245 305
#     4   9  18  33  52  74 101 132 167 208 256 305
#     4  10  22  38  54  74 102 136 171 210 257 309
#     4   9  16  28  50  76 100 128 166 210 252 299
#     4   9  19  36  54  72 101 139 168 197 253 316
#     4   8  15  29  48  69  96 131 164 198 248 300
#     4  10  19  30  51  80 101 125 170 219 252 288
#
# _framework density 22.016590000000001
#
# number of rings (size 3 to 8) (size 9 to 14) (size 15 to 20)
#    0.000    3.000    0.000    2.250    0.000    5.250 
#    0.000    2.500    0.000    9.000    0.000    0.000 
#    0.000    0.000    0.000    0.000    0.000    0.000 
#
# Total GULP energy -178388.983180 kJ/mol
# GULP energy per Si atom -5574.655724 kJ/mol
# Density = 2.196648 g / cm^3
# Si number density = 22.016590 Si / 1000 Ang^3
#
#
#
# Elastic Constant Matrix: (Units=GPa)
#
#
# Indices 1 2 3 4 5 6 
#
# 1 88.8984 -7.4847 45.9541 0.0000 13.8971 0.0000
# 2 -7.4847 45.1738 -9.5757 0.0000 8.9471 0.0000
# 3 45.9541 -9.5757 145.4784 0.0000 7.3477 0.0000
# 4 0.0000 0.0000 0.0000 17.3281 0.0000 -10.0472
# 5 13.8971 8.9471 7.3477 0.0000 20.9473 0.0000
# 6 0.0000 0.0000 0.0000 -10.0472 0.0000 11.1444
#
#
#
# Elastic Compliance Matrix: (Units=1/GPa)
#
#
# Indices 1 2 3 4 5 6 
#
# 1 0.015268 0.003707 -0.004059 0.000000 -0.010288 0.000000
# 2 0.003707 0.025763 0.001227 0.000000 -0.013893 0.000000
# 3 -0.004059 0.001227 0.008274 0.000000 -0.000733 0.000000
# 4 0.000000 0.000000 0.000000 0.120918 0.000000 0.109013
# 5 -0.010288 -0.013893 -0.000733 0.000000 0.060756 0.000000
# 6 0.000000 0.000000 0.000000 0.109013 0.000000 0.188011
#
#
# Mechanical properties :
#
#
# Convention : Reuss Voigt Hill
#
# Bulk Modulus (GPa) = 19.58762 37.48200 28.53481
# Shear Modulus (GPa) = 11.51389 26.59441 19.05415
#
# Velocity S-wave (km/s) = 2.28932 3.47929 2.94504
# Velocity P-wave (km/s) = 3.98799 5.76212 4.95510
#
# Compressibility (1/GPa) = 0.05105265
#
# Stress axis : x y z
#
# Youngs Moduli (GPa) = 65.49851 38.81593 120.86298
#
# Poissons Ratio (x) = -0.14389 0.49060
# Poissons Ratio (y) = -0.24280 -0.14824
# Poissons Ratio (z) = 0.26587 -0.04761
#
# Static dielectric constant tensor:
#      x y z
#    x 1.833730 0.000000 0.014940 
#    y 0.000000 1.732960 0.000000 
#    z 0.014940 0.000000 1.817250 
# 
# From -- ./inp_files/244035.got.cif
#   From: 2010.05.17/outbox.cif.g08.bks.cpg/sg12_123_cif.got.tgz:244035.got - 2010.06.03 13:09:07.
