data_PCOD9178504
_publ_section_title
;
Structure prediction by ZEFSAII (Michael W. Deem and Ramdas Pophale) SiO2 
 PCOD9178504
Probable space group: C 2/M
;
_chemical_formula_sum "Si O2"
_cell_formula_units_Z 64
_cell_length_a 15.705646
_cell_length_b 7.386927
_cell_length_c 22.402273
_cell_angle_alpha 90.000000
_cell_angle_beta 109.686567
_cell_angle_gamma 90.000000
_cell_volume 2447.117808
_symmetry_space_group_name_H-M "C 2/M"
_symmetry_group_IT_number 12
_symmetry_cell_setting 'monoclinic'
loop_
_space_group_symop_operation_xyz
x,y,z
-x,y,-z
-x,-y,-z
x,-y,z
1/2+x,1/2+y,z
1/2-x,1/2+y,-z
1/2-x,1/2-y,-z
1/2+x,1/2-y,z
loop_
_atom_site_type_symbol
_atom_site_label
_atom_site_fract_x
_atom_site_fract_y
_atom_site_fract_z
Si Si1 0.018585 0.215999 0.216954
Si Si2 0.233063 0.212271 0.158525
Si Si3 0.506141 0.286636 0.347392
Si Si4 0.217025 0.299844 0.411036
Si Si5 0.895866 0.219886 0.966100
Si Si6 0.269653 0.287632 0.720011
Si Si7 0.376031 0.718295 0.090529
Si Si8 0.410203 0.278541 0.442762
O O1 0.995298 0.289679 0.277768
O O2 0.125523 0.235533 0.236440
O O3 0.965742 0.282773 0.146536
O O4 0.001096 0.000000 0.215251
O O5 0.144603 0.289471 0.105245
O O6 0.275582 0.284007 0.230178
O O7 0.301072 0.229948 0.120164
O O8 0.218242 0.000000 0.168714
O O9 0.489642 0.500000 0.340299
O O10 0.613853 0.272150 0.390832
O O11 0.436545 0.218178 0.381363
O O12 0.214364 0.500000 0.435903
O O13 0.237107 0.307579 0.344450
O O14 0.315463 0.215868 0.450817
O O15 0.886884 0.000000 0.960476
O O16 0.855050 0.285489 0.019211
O O17 0.000000 0.260441 0.000000
O O18 0.251949 0.500000 0.703497
O O19 0.381846 0.500000 0.086538
O O20 0.500000 0.226562 0.500000
O O21 0.406262 0.500000 0.442649
#
# Coordination Sequence:
#
# PCOD9178504 Si02
#       8
#     8   8   8   8   8   8   8   8
#     4   8  15  29  50  72  93 126 173 209 242 299
#     4  10  20  32  48  72 101 130 163 207 259 309
#     4   9  18  35  57  78 108 148 182 217 265 322
#     4  10  20  34  56  84 111 138 178 231 269 307
#     4   9  17  31  51  71  91 125 172 214 247 293
#     4   9  18  34  53  72  99 137 174 209 257 316
#     4  10  19  30  49  74  99 127 165 212 254 301
#     4   9  19  35  56  82 111 146 184 217 259 321
#
# _framework density 26.153216
#
# number of rings (size 3 to 8) (size 9 to 14) (size 15 to 20)
#    0.000    2.750    0.000    2.250    1.750    4.000 
#    0.000    3.750    0.000    5.625    0.000    0.000 
#    0.000    0.000    0.000    0.000    0.000    0.000 
#
# Total GULP energy -178561.442504 kJ/mol
# GULP energy per Si atom -5580.045078 kJ/mol
# Density = 2.609369 g / cm^3
# Si number density = 26.153216 Si / 1000 Ang^3
#
#
#
# Elastic Constant Matrix: (Units=GPa)
#
#
# Indices 1 2 3 4 5 6 
#
# 1 85.1508 4.3018 -5.1043 0.0000 4.9914 0.0000
# 2 4.3018 90.1601 14.2378 0.0000 -2.9634 0.0000
# 3 -5.1043 14.2378 81.5058 0.0000 -4.6549 0.0000
# 4 0.0000 0.0000 0.0000 -7.4148 0.0000 -8.3345
# 5 4.9914 -2.9634 -4.6549 0.0000 50.8014 0.0000
# 6 0.0000 0.0000 0.0000 -8.3345 0.0000 13.8606
#
#
#
# Elastic Compliance Matrix: (Units=1/GPa)
#
#
# Indices 1 2 3 4 5 6 
#
# 1 0.011896 -0.000733 0.000808 0.000000 -0.001138 0.000000
# 2 -0.000733 0.011463 -0.002017 0.000000 0.000556 0.000000
# 3 0.000808 -0.002017 0.012727 0.000000 0.000969 0.000000
# 4 0.000000 0.000000 0.000000 -0.080474 0.000000 -0.048389
# 5 -0.001138 0.000556 0.000969 0.000000 0.019917 0.000000
# 6 0.000000 0.000000 0.000000 -0.048389 0.000000 0.043050
#
#
# Mechanical properties :
#
#
# Convention : Reuss Voigt Hill
#
# Bulk Modulus (GPa) = 31.05198 31.52080 31.28639
# Shear Modulus (GPa) = 150.61598 27.67487 89.14542
#
# Velocity S-wave (km/s) = 7.59703 3.25650 5.84464
# Velocity P-wave (km/s) = 9.42614 5.12038 7.58519
#
# Compressibility (1/GPa) = 0.03220406
#
# Stress axis : x y z
#
# Youngs Moduli (GPa) = 84.06195 87.23678 78.57140
#
# Poissons Ratio (x) = 0.06391 -0.06348
# Poissons Ratio (y) = 0.06158 0.15844
# Poissons Ratio (z) = -0.06792 0.17592
#
# Static dielectric constant tensor:
#      x y z
#    x 2.189870 0.000000 0.038110 
#    y 0.000000 2.022490 0.000000 
#    z 0.038110 0.000000 2.226290 
# 
# From -- ./inp_files/359954.got.cif
#   From: 2010.05.17/outbox.cif.g08.bks.cpg/sg12_180_cif.got.tgz:359954.got - 2010.06.03 13:09:07.
