data_PCOD9178138
_publ_section_title
;
Structure prediction by ZEFSAII (Michael W. Deem and Ramdas Pophale) SiO2 
 PCOD9178138
Probable space group: C 2/M
;
_chemical_formula_sum "Si O2"
_cell_formula_units_Z 56
_cell_length_a 22.867158
_cell_length_b 7.749118
_cell_length_c 14.703936
_cell_angle_alpha 90.000000
_cell_angle_beta 100.404110
_cell_angle_gamma 90.000000
_cell_volume 2562.702985
_symmetry_space_group_name_H-M "C 2/M"
_symmetry_group_IT_number 12
_symmetry_cell_setting 'monoclinic'
loop_
_space_group_symop_operation_xyz
x,y,z
-x,y,-z
-x,-y,-z
x,-y,z
1/2+x,1/2+y,z
1/2-x,1/2+y,-z
1/2-x,1/2-y,-z
1/2+x,1/2-y,z
loop_
_atom_site_type_symbol
_atom_site_label
_atom_site_fract_x
_atom_site_fract_y
_atom_site_fract_z
Si Si1 0.803351 0.295788 0.445367
Si Si2 0.888499 0.202869 0.618361
Si Si3 0.517775 0.205092 0.224707
Si Si4 0.608696 0.212186 0.879221
Si Si5 0.067975 0.301898 0.057536
Si Si6 0.261623 0.793227 0.107320
Si Si7 0.714178 0.711588 0.275683
O O1 0.808628 0.500000 0.441213
O O2 0.750000 0.250000 0.500000
O O3 0.863353 0.233551 0.510417
O O4 0.776237 0.235953 0.342013
O O5 0.951986 0.268156 0.669881
O O6 0.839479 0.276388 0.676106
O O7 0.889826 0.000000 0.631585
O O8 0.450742 0.268565 0.190061
O O9 0.560046 0.278548 0.155224
O O10 0.515540 0.000000 0.207497
O O11 0.670932 0.265907 0.854437
O O12 0.608042 0.000000 0.881833
O O13 0.604255 0.274397 0.983230
O O14 0.088266 0.500000 0.073549
O O15 0.000000 0.306293 0.000000
O O16 0.216482 0.729624 0.172134
O O17 0.260913 0.000000 0.114062
O O18 0.250000 0.750000 0.000000
O O19 0.711599 0.500000 0.277502
#
# Coordination Sequence:
#
# PCOD9178138 Si02
#       7
#     8   8   8   8   8   8   8
#     4   9  16  30  50  71  95 125 157 195 242 286
#     4  10  19  30  46  72 101 126 153 194 244 290
#     4   9  16  27  46  70  93 120 156 199 240 278
#     4   8  15  28  46  66  91 123 160 197 232 273
#     4   7  11  21  38  61  86 112 146 189 228 260
#     4  10  20  34  50  70  96 128 162 194 228 274
#     4   8  17  32  48  67  97 128 153 190 238 279
#
# _framework density 21.851925999999999
#
# number of rings (size 3 to 8) (size 9 to 14) (size 15 to 20)
#    0.000    3.286    0.000    3.429    2.000    0.000 
#    0.000    4.286    0.000    4.714    0.000    6.000 
#    0.000    0.000    0.000    0.000    0.000    0.000 
#
# Total GULP energy -155967.373900 kJ/mol
# GULP energy per Si atom -5570.263354 kJ/mol
# Density = 2.180219 g / cm^3
# Si number density = 21.851926 Si / 1000 Ang^3
#
#
#
# Elastic Constant Matrix: (Units=GPa)
#
#
# Indices 1 2 3 4 5 6 
#
# 1 42.9927 4.5905 9.8967 0.0000 11.2521 0.0000
# 2 4.5905 29.1987 -3.5159 0.0000 -0.1895 0.0000
# 3 9.8967 -3.5159 85.9768 0.0000 24.7857 0.0000
# 4 0.0000 0.0000 0.0000 15.7134 0.0000 4.0147
# 5 11.2521 -0.1895 24.7857 0.0000 35.4163 0.0000
# 6 0.0000 0.0000 0.0000 4.0147 0.0000 3.1789
#
#
#
# Elastic Compliance Matrix: (Units=1/GPa)
#
#
# Indices 1 2 3 4 5 6 
#
# 1 0.025920 -0.004241 -0.000973 0.000000 -0.007577 0.000000
# 2 -0.004241 0.035140 0.001857 0.000000 0.000236 0.000000
# 3 -0.000973 0.001857 0.014691 0.000000 -0.009962 0.000000
# 4 0.000000 0.000000 0.000000 0.093957 0.000000 -0.118660
# 5 -0.007577 0.000236 -0.009962 0.000000 0.037616 0.000000
# 6 0.000000 0.000000 0.000000 -0.118660 0.000000 0.464428
#
#
# Mechanical properties :
#
#
# Convention : Reuss Voigt Hill
#
# Bulk Modulus (GPa) = 14.48499 20.01232 17.24866
# Shear Modulus (GPa) = 7.12781 20.67484 13.90133
#
# Velocity S-wave (km/s) = 1.80802 3.07927 2.52496
# Velocity P-wave (km/s) = 3.31688 4.67125 4.05106
#
# Compressibility (1/GPa) = 0.06903697
#
# Stress axis : x y z
#
# Youngs Moduli (GPa) = 38.58090 28.45758 68.06910
#
# Poissons Ratio (x) = 0.12070 0.06621
# Poissons Ratio (y) = 0.16363 -0.12642
# Poissons Ratio (z) = 0.03753 -0.05285
#
# Static dielectric constant tensor:
#      x y z
#    x 1.831240 0.000000 0.016600 
#    y 0.000000 1.795290 0.000000 
#    z 0.016600 0.000000 1.859990 
# 
# From -- ./inp_files/237894.got.cif
#   From: 2010.05.17/outbox.cif.g08.bks.cpg/sg12_119_cif.got.tgz:237894.got - 2010.06.03 13:09:07.
