data_PCOD9178569
_publ_section_title
;
Structure prediction by ZEFSAII (Michael W. Deem and Ramdas Pophale) SiO2 
 PCOD9178569
Probable space group: C 2/M
;
_chemical_formula_sum "Si O2"
_cell_formula_units_Z 56
_cell_length_a 19.140028
_cell_length_b 9.730568
_cell_length_c 18.091186
_cell_angle_alpha 90.000000
_cell_angle_beta 98.871810
_cell_angle_gamma 90.000000
_cell_volume 3329.051464
_symmetry_space_group_name_H-M "C 2/M"
_symmetry_group_IT_number 12
_symmetry_cell_setting 'monoclinic'
loop_
_space_group_symop_operation_xyz
x,y,z
-x,y,-z
-x,-y,-z
x,-y,z
1/2+x,1/2+y,z
1/2-x,1/2+y,-z
1/2-x,1/2-y,-z
1/2+x,1/2-y,z
loop_
_atom_site_type_symbol
_atom_site_label
_atom_site_fract_x
_atom_site_fract_y
_atom_site_fract_z
Si Si1 0.320804 0.663110 0.998520
Si Si2 0.051941 0.833229 0.075675
Si Si3 0.571472 0.337754 0.845187
Si Si4 0.019117 0.655854 0.416767
Si Si5 0.354513 0.659770 0.548284
Si Si6 0.704162 0.160560 0.594922
Si Si7 0.614497 0.840711 0.713523
O O1 0.304586 0.500000 0.988063
O O2 0.373568 0.676698 0.077530
O O3 0.250000 0.750000 0.000000
O O4 0.369024 0.708627 0.935595
O O5 0.007105 0.791113 0.140415
O O6 0.053394 0.000000 0.076892
O O7 0.000000 0.793077 0.000000
O O8 0.567534 0.500000 0.827488
O O9 0.599376 0.253441 0.780598
O O10 0.046722 0.500000 0.412619
O O11 0.077642 0.767197 0.406764
O O12 0.000000 0.673562 0.500000
O O13 0.950507 0.669528 0.354769
O O14 0.367049 0.500000 0.533892
O O15 0.334428 0.742990 0.470732
O O16 0.286851 0.670274 0.590656
O O17 0.682125 0.196744 0.674383
O O18 0.682647 0.000000 0.579746
O O19 0.620882 0.000000 0.737606
#
# Coordination Sequence:
#
# PCOD9178569 Si02
#       7
#     8   8   8   8   8   8   8
#     4   9  17  31  53  79 103 130 163 199 241 287
#     4   7  12  27  50  71  94 128 164 192 229 284
#     4   9  18  33  52  74 100 129 164 207 246 283
#     4  10  19  34  52  68  94 132 166 202 251 304
#     4  10  19  30  50  75  94 117 162 217 253 288
#     4   9  18  34  50  67  96 132 163 197 250 308
#     4  10  20  34  52  71  96 134 170 200 247 306
#
# _framework density 16.821607
#
# number of rings (size 3 to 8) (size 9 to 14) (size 15 to 20)
#    0.000    2.857    1.429    2.143    0.000    2.571 
#    0.000    2.143    0.000   11.143    0.000    0.000 
#    0.000    0.000    0.000    0.000    0.000    0.000 
#
# Total GULP energy -155888.670418 kJ/mol
# GULP energy per Si atom -5567.452515 kJ/mol
# Density = 1.678332 g / cm^3
# Si number density = 16.821607 Si / 1000 Ang^3
#
#
#
# Elastic Constant Matrix: (Units=GPa)
#
#
# Indices 1 2 3 4 5 6 
#
# 1 92.9611 53.6587 25.8093 0.0000 -30.8419 0.0000
# 2 53.6587 66.1510 39.2696 0.0000 -22.3703 0.0000
# 3 25.8093 39.2696 71.9987 0.0000 -35.2833 0.0000
# 4 0.0000 0.0000 0.0000 26.2267 0.0000 -1.1713
# 5 -30.8419 -22.3703 -35.2833 0.0000 29.9645 0.0000
# 6 0.0000 0.0000 0.0000 -1.1713 0.0000 31.3326
#
#
#
# Elastic Compliance Matrix: (Units=1/GPa)
#
#
# Indices 1 2 3 4 5 6 
#
# 1 0.033812 -0.026992 0.023125 0.000000 0.041881 0.000000
# 2 -0.026992 0.044295 -0.028118 0.000000 -0.027823 0.000000
# 3 0.023125 -0.028118 0.052754 0.000000 0.064929 0.000000
# 4 0.000000 0.000000 0.000000 0.038193 0.000000 0.001428
# 5 0.041881 -0.027823 0.064929 0.000000 0.132163 0.000000
# 6 0.000000 0.000000 0.000000 0.001428 0.000000 0.031969
#
#
# Mechanical properties :
#
#
# Convention : Reuss Voigt Hill
#
# Bulk Modulus (GPa) = 14.94953 52.06511 33.50732
# Shear Modulus (GPa) = 11.92032 24.99631 18.45832
#
# Velocity S-wave (km/s) = 2.66490 3.85900 3.31614
# Velocity P-wave (km/s) = 4.28664 7.13263 5.88429
#
# Compressibility (1/GPa) = 0.06689175
#
# Stress axis : x y z
#
# Youngs Moduli (GPa) = 29.57549 22.57614 18.95575
#
# Poissons Ratio (x) = 0.60937 -0.43836
# Poissons Ratio (y) = 0.79829 0.53300
# Poissons Ratio (z) = -0.68394 0.63480
#
# Static dielectric constant tensor:
#      x y z
#    x 1.612030 0.000000 -0.014350 
#    y 0.000000 1.557490 0.000000 
#    z -0.014350 0.000000 1.567170 
# 
# From -- ./inp_files/280248.got.cif
#   From: 2010.05.17/outbox.cif.g08.bks.cpg/sg12_141_cif.got.tgz:280248.got - 2010.06.03 13:09:07.
