data_PCOD9178017
_publ_section_title
;
Structure prediction by ZEFSAII (Michael W. Deem and Ramdas Pophale) SiO2 
 PCOD9178017
Probable space group: C 2/M
;
_chemical_formula_sum "Si O2"
_cell_formula_units_Z 58
_cell_length_a 27.734403
_cell_length_b 8.020518
_cell_length_c 23.853959
_cell_angle_alpha 90.000000
_cell_angle_beta 147.867080
_cell_angle_gamma 90.000000
_cell_volume 2822.276940
_symmetry_space_group_name_H-M "C 2/M"
_symmetry_group_IT_number 12
_symmetry_cell_setting 'monoclinic'
loop_
_space_group_symop_operation_xyz
x,y,z
-x,y,-z
-x,-y,-z
x,-y,z
1/2+x,1/2+y,z
1/2-x,1/2+y,-z
1/2-x,1/2-y,-z
1/2+x,1/2-y,z
loop_
_atom_site_type_symbol
_atom_site_label
_atom_site_fract_x
_atom_site_fract_y
_atom_site_fract_z
Si Si1 0.816826 0.305203 0.148179
Si Si2 0.872960 0.199900 0.079054
Si Si3 0.238392 0.198992 0.346294
Si Si4 0.884359 0.813702 0.409214
Si Si5 0.074856 0.700589 0.250113
Si Si6 0.000000 0.500000 0.500000
Si Si7 0.641343 0.810898 0.433213
Si Si8 0.006029 0.818890 0.640830
O O1 0.818072 0.500000 0.162644
O O2 0.855698 0.277384 0.123415
O O3 0.887928 0.214724 0.258170
O O4 0.712980 0.246077 0.043326
O O5 0.970556 0.245765 0.150909
O O6 0.867024 0.000000 0.079706
O O7 0.285616 0.281893 0.339224
O O8 0.133971 0.235363 0.256324
O O9 0.292384 0.266049 0.454965
O O10 0.254966 0.000000 0.359190
O O11 0.921519 0.648331 0.416099
O O12 0.951596 0.817105 0.529665
O O13 0.889075 0.000000 0.388012
O O14 0.077628 0.500000 0.254047
O O15 0.123900 0.766607 0.355495
O O16 0.544082 0.811371 0.368464
O O17 0.672749 0.000000 0.455043
O O18 0.992477 0.000000 0.654355
#
# Coordination Sequence:
#
# PCOD9178017 Si02
#       8
#     8   8   8   8   8   2   8   8
#     4  10  19  30  46  63  94 132 176 225 262 303
#     4  10  20  31  42  64  91 134 184 223 262 298
#     4  10  19  33  49  69  99 136 171 212 257 305
#     4  10  22  38  57  84 109 134 168 207 262 323
#     4  11  20  29  43  65  96 136 179 221 253 293
#     4  12  22  40  64  82 108 138 166 208 272 334
#     4   9  18  29  43  63  93 133 176 212 250 291
#     4  10  19  30  49  73 100 133 170 214 257 305
#
# _framework density 20.550782999999999
#
# number of rings (size 3 to 8) (size 9 to 14) (size 15 to 20)
#    0.000    1.931    2.069    2.690    1.931    2.759 
#    0.000    0.000    0.000    0.000    0.000    0.000 
#    0.000    2.207    0.000    5.931    0.000    0.000 
#
# Total GULP energy -161491.028161 kJ/mol
# GULP energy per Si atom -5568.656143 kJ/mol
# Density = 2.050401 g / cm^3
# Si number density = 20.550783 Si / 1000 Ang^3
#
#
#
# Elastic Constant Matrix: (Units=GPa)
#
#
# Indices 1 2 3 4 5 6 
#
# 1 62.1601 22.3633 12.0564 0.0000 34.2504 0.0000
# 2 22.3633 91.2078 4.7281 0.0000 4.0476 0.0000
# 3 12.0564 4.7281 57.1156 0.0000 23.0046 0.0000
# 4 0.0000 0.0000 0.0000 19.2090 0.0000 11.0995
# 5 34.2504 4.0476 23.0046 0.0000 32.7712 0.0000
# 6 0.0000 0.0000 0.0000 11.0995 0.0000 20.2710
#
#
#
# Elastic Compliance Matrix: (Units=1/GPa)
#
#
# Indices 1 2 3 4 5 6 
#
# 1 0.052621 -0.010850 0.015896 0.000000 -0.064815 0.000000
# 2 -0.010850 0.013272 -0.003786 0.000000 0.012358 0.000000
# 3 0.015896 -0.003786 0.029235 0.000000 -0.036669 0.000000
# 4 0.000000 0.000000 0.000000 0.076153 0.000000 -0.041698
# 5 -0.064815 0.012358 -0.036669 0.000000 0.122469 0.000000
# 6 0.000000 0.000000 0.000000 -0.041698 0.000000 0.072163
#
#
# Mechanical properties :
#
#
# Convention : Reuss Voigt Hill
#
# Bulk Modulus (GPa) = 10.24072 32.08655 21.16364
# Shear Modulus (GPa) = 12.62809 25.87263 19.25036
#
# Velocity S-wave (km/s) = 2.48156 3.55203 3.06391
# Velocity P-wave (km/s) = 3.63384 5.69823 4.77884
#
# Compressibility (1/GPa) = 0.09764938
#
# Stress axis : x y z
#
# Youngs Moduli (GPa) = 19.00381 75.34600 34.20512
#
# Poissons Ratio (x) = 0.81750 -0.54373
# Poissons Ratio (y) = 0.20619 0.12950
# Poissons Ratio (z) = -0.30209 0.28525
#
# Static dielectric constant tensor:
#      x y z
#    x 1.765610 0.000000 0.012370 
#    y 0.000000 1.766190 0.000000 
#    z 0.012370 0.000000 1.768220 
# 
# From -- ./inp_files/370457.got.cif
#   From: 2010.05.17/outbox.cif.g08.bks.cpg/sg12_186_cif.got.tgz:370457.got - 2010.06.03 13:09:07.
