data_PCOD9178982
_publ_section_title
;
Structure prediction by ZEFSAII (Michael W. Deem and Ramdas Pophale) SiO2 
 PCOD9178982
Probable space group: C 2/M
;
_chemical_formula_sum "Si O2"
_cell_formula_units_Z 56
_cell_length_a 20.919419
_cell_length_b 7.337600
_cell_length_c 20.747823
_cell_angle_alpha 90.000000
_cell_angle_beta 122.469393
_cell_angle_gamma 90.000000
_cell_volume 2686.909811
_symmetry_space_group_name_H-M "C 2/M"
_symmetry_group_IT_number 12
_symmetry_cell_setting 'monoclinic'
loop_
_space_group_symop_operation_xyz
x,y,z
-x,y,-z
-x,-y,-z
x,-y,z
1/2+x,1/2+y,z
1/2-x,1/2+y,-z
1/2-x,1/2-y,-z
1/2+x,1/2-y,z
loop_
_atom_site_type_symbol
_atom_site_label
_atom_site_fract_x
_atom_site_fract_y
_atom_site_fract_z
Si Si1 0.505523 0.222443 0.162023
Si Si2 0.659056 0.222407 0.170619
Si Si3 0.476798 0.790232 0.418299
Si Si4 0.579811 0.786547 0.004308
Si Si5 0.545297 0.776845 0.322085
Si Si6 0.218087 0.716658 0.411966
Si Si7 0.197982 0.220914 0.669523
O O1 0.587815 0.274812 0.177368
O O2 0.500634 0.278761 0.233500
O O3 0.504351 0.000000 0.159554
O O4 0.440987 0.287307 0.077371
O O5 0.640815 0.286730 0.088168
O O6 0.738258 0.278067 0.244539
O O7 0.658283 0.000000 0.169345
O O8 0.500000 0.708131 0.500000
O O9 0.513020 0.712230 0.372855
O O10 0.386417 0.786086 0.363379
O O11 0.503757 0.000000 0.435051
O O12 0.597884 0.000000 0.005454
O O13 0.500000 0.776947 0.000000
O O14 0.632133 0.716755 0.361058
O O15 0.543991 0.000000 0.321983
O O16 0.213490 0.500000 0.399817
O O17 0.250000 0.750000 0.500000
O O18 0.272300 0.783719 0.384436
O O19 0.195114 0.000000 0.668400
#
# Coordination Sequence:
#
# PCOD9178982 Si02
#       7
#     8   8   8   8   8   8   8
#     4   8  11  19  37  62  88 114 145 180 219 262
#     4   8  12  21  37  63  94 116 137 174 226 270
#     4  10  21  35  48  63  87 122 159 191 223 264
#     4   7  10  15  30  58  91 117 135 168 219 267
#     4   9  16  28  45  62  85 117 152 188 224 263
#     4  10  19  31  48  69  90 114 146 187 232 270
#     4  10  19  31  49  70  93 119 147 184 229 274
#
# _framework density 20.841787
#
# number of rings (size 3 to 8) (size 9 to 14) (size 15 to 20)
#    0.000    3.143    1.429    2.571    0.000    2.000 
#    0.000    0.714    0.000    0.857    0.000    0.000 
#    0.000    6.286    0.000    0.000    0.000    0.000 
#
# Total GULP energy -156148.684609 kJ/mol
# GULP energy per Si atom -5576.738736 kJ/mol
# Density = 2.079435 g / cm^3
# Si number density = 20.841787 Si / 1000 Ang^3
#
#
#
# Elastic Constant Matrix: (Units=GPa)
#
#
# Indices 1 2 3 4 5 6 
#
# 1 49.8304 -2.9105 0.7080 0.0000 -16.4237 0.0000
# 2 -2.9105 77.4403 -2.9069 0.0002 -5.7899 0.0001
# 3 0.7080 -2.9069 126.1759 0.0000 -24.8192 0.0000
# 4 0.0000 0.0002 0.0000 34.2887 0.0000 40.6443
# 5 -16.4237 -5.7899 -24.8192 0.0000 31.9388 0.0000
# 6 0.0000 0.0001 0.0000 40.6443 0.0000 29.4331
#
#
#
# Elastic Compliance Matrix: (Units=1/GPa)
#
#
# Indices 1 2 3 4 5 6 
#
# 1 0.025362 0.002247 0.003016 0.000000 0.015793 0.000000
# 2 0.002247 0.013378 0.001180 0.000000 0.004498 0.000000
# 3 0.003016 0.001180 0.009777 0.000000 0.009363 0.000000
# 4 0.000000 0.000000 0.000000 -0.045793 0.000000 0.063236
# 5 0.015793 0.004498 0.009363 0.000000 0.047522 0.000000
# 6 0.000000 0.000000 0.000000 0.063236 0.000000 -0.053348
#
#
# Mechanical properties :
#
#
# Convention : Reuss Voigt Hill
#
# Bulk Modulus (GPa) = 16.28554 27.02530 21.65542
# Shear Modulus (GPa) = 1116.18976 36.36919 576.27947
#
# Velocity S-wave (km/s) = 23.16714 4.18187 16.64639
# Velocity P-wave (km/s) = 26.89708 6.02598 19.49058
#
# Compressibility (1/GPa) = 0.06140415
#
# Stress axis : x y z
#
# Youngs Moduli (GPa) = 39.42967 74.74830 102.27668
#
# Poissons Ratio (x) = -0.16797 -0.30846
# Poissons Ratio (y) = -0.08860 -0.12073
# Poissons Ratio (z) = -0.11892 -0.08823
#
# Static dielectric constant tensor:
#      x y z
#    x 1.667370 0.000000 0.003360 
#    y 0.000000 1.812970 0.000000 
#    z 0.003360 0.000000 1.743870 
# 
# From -- ./inp_files/320742.got.cif
#   From: 2010.05.17/outbox.cif.g08.bks.cpg/sg12_161_cif.got.tgz:320742.got - 2010.06.03 13:09:07.
