data_PCOD9178660
_publ_section_title
;
Structure prediction by ZEFSAII (Michael W. Deem and Ramdas Pophale) SiO2 
 PCOD9178660
Probable space group: C 2/M
;
_chemical_formula_sum "Si O2"
_cell_formula_units_Z 56
_cell_length_a 29.303154
_cell_length_b 8.586769
_cell_length_c 14.699218
_cell_angle_alpha 90.000000
_cell_angle_beta 53.590078
_cell_angle_gamma 90.000000
_cell_volume 2976.607015
_symmetry_space_group_name_H-M "C 2/M"
_symmetry_group_IT_number 12
_symmetry_cell_setting 'monoclinic'
loop_
_space_group_symop_operation_xyz
x,y,z
-x,y,-z
-x,-y,-z
x,-y,z
1/2+x,1/2+y,z
1/2-x,1/2+y,-z
1/2-x,1/2-y,-z
1/2+x,1/2-y,z
loop_
_atom_site_type_symbol
_atom_site_label
_atom_site_fract_x
_atom_site_fract_y
_atom_site_fract_z
Si Si1 0.381260 0.185535 0.932551
Si Si2 0.510399 0.319588 0.267706
Si Si3 0.283521 0.312170 0.179115
Si Si4 0.297812 0.186388 0.877302
Si Si5 0.439433 0.174584 0.617821
Si Si6 0.229020 0.312301 0.428543
Si Si7 0.391744 0.687710 0.493792
O O1 0.446846 0.238108 0.854006
O O2 0.353588 0.234323 0.867056
O O3 0.379014 0.000000 0.940557
O O4 0.339077 0.250196 0.060519
O O5 0.506812 0.500000 0.248304
O O6 0.543320 0.293173 0.323772
O O7 0.446317 0.263311 0.366578
O O8 0.286690 0.500000 0.171495
O O9 0.226314 0.261799 0.191674
O O10 0.272629 0.266097 0.295976
O O11 0.297183 0.000000 0.876545
O O12 0.250000 0.250000 0.000000
O O13 0.500000 0.152758 0.500000
O O14 0.399735 0.239350 0.585125
O O15 0.420884 0.000000 0.670757
O O16 0.225664 0.500000 0.433146
O O17 0.250000 0.250000 0.500000
O O18 0.167133 0.244650 0.478202
O O19 0.393637 0.500000 0.498523
#
# Coordination Sequence:
#
# PCOD9178660 Si02
#       7
#     8   8   8   8   8   8   8
#     4  10  19  30  51  82 115 150 186 225 269 328
#     4  10  20  33  51  79 117 156 189 225 272 332
#     4   9  19  36  55  76 107 146 185 227 280 336
#     4   8  15  28  45  70 104 141 180 216 256 314
#     4   9  17  30  49  75 109 149 190 228 269 323
#     4  11  24  41  63  85 108 143 188 241 293 338
#     4  10  21  37  56  80 111 147 190 235 282 335
#
# _framework density 18.813367
#
# number of rings (size 3 to 8) (size 9 to 14) (size 15 to 20)
#    0.000    2.429    0.000    2.143    2.000    5.143 
#    0.000    0.000    0.000    0.857    0.000    6.000 
#    0.000    0.000    0.000    0.000    0.000    0.000 
#
# Total GULP energy -155890.688878 kJ/mol
# GULP energy per Si atom -5567.524603 kJ/mol
# Density = 1.877055 g / cm^3
# Si number density = 18.813367 Si / 1000 Ang^3
#
#
#
# Elastic Constant Matrix: (Units=GPa)
#
#
# Indices 1 2 3 4 5 6 
#
# 1 69.5955 5.7458 28.1815 0.0000 1.6862 0.0000
# 2 5.7458 22.5481 8.7998 0.0000 -0.2402 0.0000
# 3 28.1815 8.7998 100.7462 0.0000 -6.8109 0.0000
# 4 0.0000 0.0000 0.0000 19.2683 0.0000 2.2134
# 5 1.6862 -0.2402 -6.8109 0.0000 36.3575 0.0000
# 6 0.0000 0.0000 0.0000 2.2134 0.0000 21.1438
#
#
#
# Elastic Compliance Matrix: (Units=1/GPa)
#
#
# Indices 1 2 3 4 5 6 
#
# 1 0.016429 -0.002451 -0.004491 0.000000 -0.001619 0.000000
# 2 -0.002451 0.046288 -0.003372 0.000000 -0.000212 0.000000
# 3 -0.004491 -0.003372 0.011637 0.000000 0.002366 0.000000
# 4 0.000000 0.000000 0.000000 0.052531 0.000000 -0.005499
# 5 -0.001619 -0.000212 0.002366 0.000000 0.028022 0.000000
# 6 0.000000 0.000000 0.000000 -0.005499 0.000000 0.047871
#
#
# Mechanical properties :
#
#
# Convention : Reuss Voigt Hill
#
# Bulk Modulus (GPa) = 18.61306 30.92711 24.77009
# Shear Modulus (GPa) = 20.72000 25.36475 23.04237
#
# Velocity S-wave (km/s) = 3.32225 3.67581 3.50349
# Velocity P-wave (km/s) = 4.96301 5.87282 5.43698
#
# Compressibility (1/GPa) = 0.05372572
#
# Stress axis : x y z
#
# Youngs Moduli (GPa) = 60.86833 21.60394 85.93531
#
# Poissons Ratio (x) = 0.05295 0.38594
# Poissons Ratio (y) = 0.14919 0.28976
# Poissons Ratio (z) = 0.27336 0.07284
#
# Static dielectric constant tensor:
#      x y z
#    x 1.667330 0.000000 -0.093810 
#    y 0.000000 1.709250 0.000000 
#    z -0.093810 0.000000 1.962980 
# 
# From -- ./inp_files/243682.got.cif
#   From: 2010.05.17/outbox.cif.g08.bks.cpg/sg12_122_cif.got.tgz:243682.got - 2010.06.03 13:09:07.
