data_PCOD9178556
_publ_section_title
;
Structure prediction by ZEFSAII (Michael W. Deem and Ramdas Pophale) SiO2 
 PCOD9178556
Probable space group: C 2/M
;
_chemical_formula_sum "Si O2"
_cell_formula_units_Z 34
_cell_length_a 8.117646
_cell_length_b 22.275277
_cell_length_c 7.465214
_cell_angle_alpha 90.000000
_cell_angle_beta 72.772261
_cell_angle_gamma 90.000000
_cell_volume 1289.318703
_symmetry_space_group_name_H-M "C 2/M"
_symmetry_group_IT_number 12
_symmetry_cell_setting 'monoclinic'
loop_
_space_group_symop_operation_xyz
x,y,z
-x,y,-z
-x,-y,-z
x,-y,z
1/2+x,1/2+y,z
1/2-x,1/2+y,-z
1/2-x,1/2-y,-z
1/2+x,1/2-y,z
loop_
_atom_site_type_symbol
_atom_site_label
_atom_site_fract_x
_atom_site_fract_y
_atom_site_fract_z
Si Si1 0.804574 0.563622 0.633201
Si Si2 0.678762 0.562520 0.278310
Si Si3 0.747493 0.311557 0.223009
Si Si4 0.500000 0.000000 0.000000
Si Si5 0.383152 0.815197 0.776579
O O1 0.788690 0.500000 0.746612
O O2 0.693834 0.561781 0.488455
O O3 0.785925 0.625332 0.742386
O O4 0.000000 0.562721 0.500000
O O5 0.589808 0.500000 0.245726
O O6 0.625507 0.630062 0.252226
O O7 0.870369 0.551650 0.131573
O O8 0.664523 0.248106 0.297953
O O9 0.910759 0.324361 0.298669
O O10 0.826903 0.306657 0.999719
#
# Coordination Sequence:
#
# PCOD9178556 Si02
#       5
#     8   8   8   2   8
#     4  10  19  30  49  81 107 131 170 227 266 305
#     4   9  18  29  50  77 103 133 169 220 265 302
#     4  10  20  35  52  75 105 143 174 215 259 318
#     4   8  16  28  50  76 104 130 170 216 268 296
#     4  10  21  34  52  75 108 138 177 214 263 313
#
# _framework density 26.370517
#
# number of rings (size 3 to 8) (size 9 to 14) (size 15 to 20)
#    0.706    1.647    2.353    1.412    0.000    1.882 
#    0.000    0.000    0.000    1.412    0.000    9.882 
#    0.000    0.000    0.000    0.000    0.000    0.000 
#
# Total GULP energy -94771.456801 kJ/mol
# GULP energy per Si atom -5574.791577 kJ/mol
# Density = 2.631050 g / cm^3
# Si number density = 26.370517 Si / 1000 Ang^3
#
#
#
# Elastic Constant Matrix: (Units=GPa)
#
#
# Indices 1 2 3 4 5 6 
#
# 1 80.8478 39.2533 12.5523 0.0000 -6.7147 0.0000
# 2 39.2533 303.6774 31.6672 0.0000 7.0915 0.0000
# 3 12.5523 31.6672 65.3713 0.0000 -13.4083 0.0000
# 4 0.0000 0.0000 0.0000 47.7316 0.0000 -1.1759
# 5 -6.7147 7.0915 -13.4083 0.0000 26.0963 0.0000
# 6 0.0000 0.0000 0.0000 -1.1759 0.0000 22.2547
#
#
#
# Elastic Compliance Matrix: (Units=1/GPa)
#
#
# Indices 1 2 3 4 5 6 
#
# 1 0.013663 -0.001734 -0.001080 0.000000 0.003432 0.000000
# 2 -0.001734 0.003786 -0.002016 0.000000 -0.002511 0.000000
# 3 -0.001080 -0.002016 0.018485 0.000000 0.009767 0.000000
# 4 0.000000 0.000000 0.000000 0.020978 0.000000 0.001108
# 5 0.003432 -0.002511 0.009767 0.000000 0.044903 0.000000
# 6 0.000000 0.000000 0.000000 0.001108 0.000000 0.044993
#
#
# Mechanical properties :
#
#
# Convention : Reuss Voigt Hill
#
# Bulk Modulus (GPa) = 38.05936 68.53801 53.29868
# Shear Modulus (GPa) = 30.26172 43.64477 36.95324
#
# Velocity S-wave (km/s) = 3.39124 4.07266 3.74747
# Velocity P-wave (km/s) = 5.45874 6.93990 6.24340
#
# Compressibility (1/GPa) = 0.02627474
#
# Stress axis : x y z
#
# Youngs Moduli (GPa) = 73.18862 264.13617 54.09910
#
# Poissons Ratio (x) = 0.45792 0.05842
# Poissons Ratio (y) = 0.12688 0.10907
# Poissons Ratio (z) = 0.07903 0.53252
#
# Static dielectric constant tensor:
#      x y z
#    x 2.258410 0.000000 0.071090 
#    y 0.000000 2.114100 0.000000 
#    z 0.071090 0.000000 2.065620 
# 
# From -- ./inp_files/46557.got.cif
#   From: 2010.05.17/outbox.cif.g08.bks.cpg/sg12_24_cif.got.tgz:46557.got - 2010.06.03 13:09:07.
