data_PCOD9178348
_publ_section_title
;
Structure prediction by ZEFSAII (Michael W. Deem and Ramdas Pophale) SiO2 
 PCOD9178348
Probable space group: C 2/M
;
_chemical_formula_sum "Si O2"
_cell_formula_units_Z 64
_cell_length_a 24.643421
_cell_length_b 9.077254
_cell_length_c 19.418279
_cell_angle_alpha 90.000000
_cell_angle_beta 108.833801
_cell_angle_gamma 90.000000
_cell_volume 4111.194433
_symmetry_space_group_name_H-M "C 2/M"
_symmetry_group_IT_number 12
_symmetry_cell_setting 'monoclinic'
loop_
_space_group_symop_operation_xyz
x,y,z
-x,y,-z
-x,-y,-z
x,-y,z
1/2+x,1/2+y,z
1/2-x,1/2+y,-z
1/2-x,1/2-y,-z
1/2+x,1/2-y,z
loop_
_atom_site_type_symbol
_atom_site_label
_atom_site_fract_x
_atom_site_fract_y
_atom_site_fract_z
Si Si1 0.781962 0.324306 0.718388
Si Si2 0.050586 0.824671 0.073826
Si Si3 0.651121 0.822919 0.035388
Si Si4 0.225005 0.826234 0.422711
Si Si5 0.121585 0.323388 0.866813
Si Si6 0.731649 0.677177 0.847299
Si Si7 0.498477 0.324301 0.202831
Si Si8 0.616009 0.674082 0.301485
O O1 0.782464 0.500000 0.710411
O O2 0.753404 0.247979 0.639708
O O3 0.752311 0.288024 0.778218
O O4 0.847048 0.262751 0.740002
O O5 0.107395 0.742750 0.072851
O O6 0.027239 0.793403 0.140281
O O7 0.060539 0.000000 0.073078
O O8 0.000000 0.784907 0.000000
O O9 0.716029 0.779642 0.080690
O O10 0.648458 0.000000 0.038045
O O11 0.632037 0.777279 0.950946
O O12 0.250000 0.750000 0.500000
O O13 0.155776 0.806454 0.385286
O O14 0.236865 0.000000 0.428024
O O15 0.121927 0.500000 0.864355
O O16 0.173800 0.257721 0.844624
O O17 0.060747 0.261379 0.816740
O O18 0.724001 0.500000 0.848736
O O19 0.487181 0.500000 0.202416
O O20 0.549658 0.284422 0.276572
O O21 0.618065 0.500000 0.284421
#
# Coordination Sequence:
#
# PCOD9178348 Si02
#       8
#     8   8   8   8   8   8   8   8
#     4   9  17  30  50  75 100 127 160 196 241 288
#     4  10  19  30  48  70  91 121 160 199 247 300
#     4  10  21  35  49  68  93 124 165 213 260 298
#     4   9  17  30  49  77 109 134 158 187 230 287
#     4  11  23  34  47  68  92 126 171 216 255 289
#     4  10  21  36  51  67  92 129 169 208 251 297
#     4  10  19  34  49  66  95 128 162 201 246 297
#     4   8  17  30  48  72  99 129 157 190 234 285
#
# _framework density 15.567252
#
# number of rings (size 3 to 8) (size 9 to 14) (size 15 to 20)
#    0.750    1.625    1.250    1.875    0.000    3.250 
#    0.000    0.000    0.000    0.000    0.000    0.875 
#    0.000    7.000    0.000    0.000    0.000    0.000 
#
# Total GULP energy -178199.485347 kJ/mol
# GULP energy per Si atom -5568.733917 kJ/mol
# Density = 1.553182 g / cm^3
# Si number density = 15.567252 Si / 1000 Ang^3
#
#
#
# Elastic Constant Matrix: (Units=GPa)
#
#
# Indices 1 2 3 4 5 6 
#
# 1 128.6328 50.2904 44.6735 0.0000 9.9305 0.0000
# 2 50.2904 40.7672 31.7909 0.0000 7.2997 0.0000
# 3 44.6735 31.7909 63.1606 0.0000 19.7125 0.0000
# 4 0.0000 0.0000 0.0000 20.5742 0.0000 -1.8664
# 5 9.9305 7.2997 19.7125 0.0000 18.7055 0.0000
# 6 0.0000 0.0000 0.0000 -1.8664 0.0000 29.0394
#
#
#
# Elastic Compliance Matrix: (Units=1/GPa)
#
#
# Indices 1 2 3 4 5 6 
#
# 1 0.015215 -0.016942 -0.002647 0.000000 0.001324 0.000000
# 2 -0.016942 0.060156 -0.020528 0.000000 0.007152 0.000000
# 3 -0.002647 -0.020528 0.037399 0.000000 -0.029997 0.000000
# 4 0.000000 0.000000 0.000000 0.048889 0.000000 0.003142
# 5 0.001324 0.007152 -0.029997 0.000000 0.081578 0.000000
# 6 0.000000 0.000000 0.000000 0.003142 0.000000 0.034638
#
#
# Mechanical properties :
#
#
# Convention : Reuss Voigt Hill
#
# Bulk Modulus (GPa) = 30.73436 54.00778 42.37107
# Shear Modulus (GPa) = 13.55179 20.71754 17.13466
#
# Velocity S-wave (km/s) = 2.95368 3.65203 3.32126
# Velocity P-wave (km/s) = 5.60519 7.24925 6.47957
#
# Compressibility (1/GPa) = 0.03253688
#
# Stress axis : x y z
#
# Youngs Moduli (GPa) = 65.72563 16.62343 26.73837
#
# Poissons Ratio (x) = 0.28163 0.07078
# Poissons Ratio (y) = 1.11350 0.54888
# Poissons Ratio (z) = 0.17399 0.34124
#
# Static dielectric constant tensor:
#      x y z
#    x 1.509860 0.000000 0.029060 
#    y 0.000000 1.519310 0.000000 
#    z 0.029060 0.000000 1.525800 
# 
# From -- ./inp_files/287653.got.cif
#   From: 2010.05.17/outbox.cif.g08.bks.cpg/sg12_144_cif.got.tgz:287653.got - 2010.06.03 13:09:07.
