data_PCOD9178576
_publ_section_title
;
Structure prediction by ZEFSAII (Michael W. Deem and Ramdas Pophale) SiO2 
 PCOD9178576
Probable space group: C 2/M
;
_chemical_formula_sum "Si O2"
_cell_formula_units_Z 56
_cell_length_a 19.892246
_cell_length_b 7.692165
_cell_length_c 25.740535
_cell_angle_alpha 90.000000
_cell_angle_beta 46.343774
_cell_angle_gamma 90.000000
_cell_volume 2849.609681
_symmetry_space_group_name_H-M "C 2/M"
_symmetry_group_IT_number 12
_symmetry_cell_setting 'monoclinic'
loop_
_space_group_symop_operation_xyz
x,y,z
-x,y,-z
-x,-y,-z
x,-y,z
1/2+x,1/2+y,z
1/2-x,1/2+y,-z
1/2-x,1/2-y,-z
1/2+x,1/2-y,z
loop_
_atom_site_type_symbol
_atom_site_label
_atom_site_fract_x
_atom_site_fract_y
_atom_site_fract_z
Si Si1 0.790114 0.794968 0.560939
Si Si2 0.356233 0.708298 0.927689
Si Si3 0.072781 0.796790 0.003258
Si Si4 0.419176 0.799868 0.578987
Si Si5 0.279898 0.295947 0.864427
Si Si6 0.096531 0.289614 0.296202
Si Si7 0.389845 0.210041 0.401868
O O1 0.829146 0.705323 0.590990
O O2 0.691236 0.728223 0.593058
O O3 0.861090 0.767340 0.475105
O O4 0.783388 0.000000 0.574742
O O5 0.370034 0.500000 0.920157
O O6 0.353701 0.769471 0.869058
O O7 0.250000 0.750000 0.000000
O O8 0.419302 0.777192 0.941778
O O9 0.178321 0.787210 0.925238
O O10 0.047530 0.000000 0.022553
O O11 0.000000 0.721383 0.000000
O O12 0.500000 0.717504 0.500000
O O13 0.399178 0.726745 0.646442
O O14 0.449020 0.000000 0.572557
O O15 0.265336 0.500000 0.882301
O O16 0.324443 0.273393 0.784471
O O17 0.101670 0.500000 0.293078
O O18 0.993507 0.236146 0.332591
O O19 0.386740 0.000000 0.403954
#
# Coordination Sequence:
#
# PCOD9178576 Si02
#       7
#     8   8   8   8   8   8   8
#     4  10  19  30  50  76  99 122 160 216 264 305
#     4   8  15  29  49  73  99 128 161 198 239 284
#     4   9  17  32  56  81 104 134 172 206 238 294
#     4  10  19  34  53  71  96 134 175 216 262 315
#     4  10  20  33  50  75 107 135 164 210 259 299
#     4  10  20  35  54  71  95 136 178 211 251 310
#     4   9  18  34  51  69  96 131 167 205 253 309
#
# _framework density 19.651814999999999
#
# number of rings (size 3 to 8) (size 9 to 14) (size 15 to 20)
#    0.000    2.571    1.429    0.857    0.000    2.857 
#    0.000    1.429    0.000    5.143    0.000    0.000 
#    0.000    0.000    0.000    0.000    0.000    0.000 
#
# Total GULP energy -155972.511407 kJ/mol
# GULP energy per Si atom -5570.446836 kJ/mol
# Density = 1.960709 g / cm^3
# Si number density = 19.651815 Si / 1000 Ang^3
#
#
#
# Elastic Constant Matrix: (Units=GPa)
#
#
# Indices 1 2 3 4 5 6 
#
# 1 138.8616 -0.9012 41.6050 -0.0001 23.9843 -0.0002
# 2 -0.9012 35.5261 -6.0295 0.0000 1.9678 -0.0024
# 3 41.6050 -6.0295 82.8541 -0.0001 22.1119 0.0002
# 4 -0.0001 0.0000 -0.0001 13.4224 0.0000 -2.7674
# 5 23.9843 1.9678 22.1119 0.0000 27.1139 -0.0001
# 6 -0.0002 -0.0024 0.0002 -2.7674 -0.0001 15.4069
#
#
#
# Elastic Compliance Matrix: (Units=1/GPa)
#
#
# Indices 1 2 3 4 5 6 
#
# 1 0.009079 0.000012 -0.003086 0.000000 -0.005515 0.000000
# 2 0.000012 0.028999 0.003411 0.000001 -0.004897 0.000005
# 3 -0.003086 0.003411 0.016878 0.000000 -0.011282 0.000000
# 4 0.000000 0.000001 0.000000 0.077367 0.000000 0.013897
# 5 -0.005515 -0.004897 -0.011282 0.000000 0.051316 0.000000
# 6 0.000000 0.000005 0.000000 0.013897 0.000000 0.067402
#
#
# Mechanical properties :
#
#
# Convention : Reuss Voigt Hill
#
# Bulk Modulus (GPa) = 17.97598 36.28785 27.13191
# Shear Modulus (GPa) = 18.59352 26.02647 22.31000
#
# Velocity S-wave (km/s) = 3.07929 3.64315 3.37302
# Velocity P-wave (km/s) = 4.67009 6.01683 5.38572
#
# Compressibility (1/GPa) = 0.05562979
#
# Stress axis : x y z
#
# Youngs Moduli (GPa) = 110.14820 34.48418 59.24758
#
# Poissons Ratio (x) = -0.00041 0.18285
# Poissons Ratio (y) = -0.00132 -0.20211
# Poissons Ratio (z) = 0.33994 -0.11763
#
# Static dielectric constant tensor:
#      x y z
#    x 1.736380 0.000000 0.033020 
#    y 0.000000 1.755410 0.000000 
#    z 0.033020 0.000000 1.673680 
# 
# From -- ./inp_files/313323.got.cif
#   From: 2010.05.17/outbox.cif.g08.bks.cpg/sg12_157_cif.got.tgz:313323.got - 2010.06.03 13:09:07.
