data_PCOD9178922
_publ_section_title
;
Structure prediction by ZEFSAII (Michael W. Deem and Ramdas Pophale) SiO2 
 PCOD9178922
Probable space group: C 2/M
;
_chemical_formula_sum "Si O2"
_cell_formula_units_Z 56
_cell_length_a 26.013883
_cell_length_b 7.704918
_cell_length_c 19.811617
_cell_angle_alpha 90.000000
_cell_angle_beta 48.709014
_cell_angle_gamma 90.000000
_cell_volume 2983.635722
_symmetry_space_group_name_H-M "C 2/M"
_symmetry_group_IT_number 12
_symmetry_cell_setting 'monoclinic'
loop_
_space_group_symop_operation_xyz
x,y,z
-x,y,-z
-x,-y,-z
x,-y,z
1/2+x,1/2+y,z
1/2-x,1/2+y,-z
1/2-x,1/2-y,-z
1/2+x,1/2-y,z
loop_
_atom_site_type_symbol
_atom_site_label
_atom_site_fract_x
_atom_site_fract_y
_atom_site_fract_z
Si Si1 0.357270 0.288606 0.397257
Si Si2 0.233265 0.205175 0.404986
Si Si3 0.540632 0.209757 0.898296
Si Si4 0.346893 0.202523 0.891656
Si Si5 0.275122 0.798575 0.087599
Si Si6 0.998694 0.204568 0.784272
Si Si7 0.303128 0.786619 0.213094
O O1 0.356901 0.500000 0.396966
O O2 0.302093 0.229801 0.389514
O O3 0.328024 0.226818 0.494828
O O4 0.432528 0.227920 0.311349
O O5 0.250423 0.275209 0.316087
O O6 0.220940 0.000000 0.408333
O O7 0.507325 0.266041 0.856892
O O8 0.619736 0.265034 0.834054
O O9 0.539529 0.000000 0.899786
O O10 0.500000 0.269490 0.000000
O O11 0.302782 0.287859 0.870631
O O12 0.427903 0.218851 0.819326
O O13 0.328095 0.000000 0.905815
O O14 0.319987 0.276025 0.986985
O O15 0.286409 0.725210 0.152132
O O16 0.296132 0.000000 0.074640
O O17 0.995324 0.000000 0.774886
O O18 0.301530 0.000000 0.215277
#
# Coordination Sequence:
#
# PCOD9178922 Si02
#       7
#     8   8   8   8   8   8   8
#     4   9  18  30  45  69  99 127 159 202 241 280
#     4   9  16  29  49  70  94 126 164 198 237 291
#     4  10  19  31  47  70 100 131 162 195 236 289
#     4  10  20  34  52  72  95 127 166 202 239 288
#     4   9  18  34  53  73  96 122 159 205 245 283
#     4  11  21  32  47  70 101 132 162 199 244 287
#     4   9  16  28  49  73  95 124 158 195 241 291
#
# _framework density 18.769045999999999
#
# number of rings (size 3 to 8) (size 9 to 14) (size 15 to 20)
#    0.000    2.429    1.429    1.714    0.000    3.714 
#    0.000    1.429    0.000    0.857    0.000    6.000 
#    0.000    0.000    0.000    0.000    0.000    0.000 
#
# Total GULP energy -156180.680487 kJ/mol
# GULP energy per Si atom -5577.881446 kJ/mol
# Density = 1.872633 g / cm^3
# Si number density = 18.769046 Si / 1000 Ang^3
#
#
#
# Elastic Constant Matrix: (Units=GPa)
#
#
# Indices 1 2 3 4 5 6 
#
# 1 39.3343 -12.7999 3.8397 -0.0046 -7.2375 0.0465
# 2 -12.7999 29.7424 -3.8397 -0.0098 3.5250 0.0212
# 3 3.8397 -3.8397 82.8119 -0.0007 -11.2860 0.0356
# 4 -0.0046 -0.0098 -0.0007 0.2043 -0.0006 -3.3947
# 5 -7.2375 3.5250 -11.2860 -0.0006 27.5580 -0.0034
# 6 0.0465 0.0212 0.0356 -3.3947 -0.0034 20.2306
#
#
#
# Elastic Compliance Matrix: (Units=1/GPa)
#
#
# Indices 1 2 3 4 5 6 
#
# 1 0.030656 0.012431 0.000038 0.000037 0.006477 -0.000076
# 2 0.012431 0.039266 0.001064 -0.000546 -0.001322 -0.000163
# 3 0.000038 0.001064 0.012822 0.000151 0.005125 0.000002
# 4 0.000037 -0.000546 0.000151 -2.737500 0.000023 -0.459356
# 5 0.006477 -0.001322 0.005125 0.000023 0.040256 -0.000012
# 6 -0.000076 -0.000163 0.000002 -0.459356 -0.000012 -0.027650
#
#
# Mechanical properties :
#
#
# Convention : Reuss Voigt Hill
#
# Bulk Modulus (GPa) = 9.10681 14.03210 11.56945
# Shear Modulus (GPa) = -1.89925 20.57781 9.33928
#
# Velocity S-wave (km/s) = -1.00703 3.31474 2.23309
# Velocity P-wave (km/s) = 1.87361 4.70557 3.58140
#
# Compressibility (1/GPa) = 0.10980797
#
# Stress axis : x y z
#
# Youngs Moduli (GPa) = 32.61980 25.46753 77.99354
#
# Poissons Ratio (x) = -0.31657 -0.00293
# Poissons Ratio (y) = -0.40548 -0.08299
# Poissons Ratio (z) = -0.00123 -0.02710
#
# Static dielectric constant tensor:
#      x y z
#    x 1.611140 -0.000010 0.007130 
#    y -0.000010 1.708730 0.000000 
#    z 0.007130 0.000000 1.687240 
# 
# From -- ./inp_files/281035.got.cif
#   From: 2010.05.17/outbox.cif.g08.bks.cpg/sg12_141_cif.got.tgz:281035.got - 2010.06.03 13:09:07.
