data_PCOD9178720
_publ_section_title
;
Structure prediction by ZEFSAII (Michael W. Deem and Ramdas Pophale) SiO2 
 PCOD9178720
Probable space group: C 2/M
;
_chemical_formula_sum "Si O2"
_cell_formula_units_Z 36
_cell_length_a 13.822217
_cell_length_b 11.336467
_cell_length_c 25.040781
_cell_angle_alpha 90.000000
_cell_angle_beta 25.181927
_cell_angle_gamma 90.000000
_cell_volume 1669.539122
_symmetry_space_group_name_H-M "C 2/M"
_symmetry_group_IT_number 12
_symmetry_cell_setting 'monoclinic'
loop_
_space_group_symop_operation_xyz
x,y,z
-x,y,-z
-x,-y,-z
x,-y,z
1/2+x,1/2+y,z
1/2-x,1/2+y,-z
1/2-x,1/2-y,-z
1/2+x,1/2-y,z
loop_
_atom_site_type_symbol
_atom_site_label
_atom_site_fract_x
_atom_site_fract_y
_atom_site_fract_z
Si Si1 0.993126 0.500000 0.647242
Si Si2 0.648413 0.500000 0.720664
Si Si3 0.383150 0.362645 0.002197
Si Si4 0.951529 0.755988 0.188981
Si Si5 0.514027 0.256463 0.350760
Si Si6 0.083503 0.000000 0.636665
O O1 0.943541 0.627623 0.697594
O O2 0.251025 0.500000 0.497232
O O3 0.843135 0.500000 0.668110
O O4 0.512371 0.380081 0.799355
O O5 0.721573 0.500000 0.622833
O O6 0.431724 0.500000 0.965319
O O7 0.112279 0.340103 0.135310
O O8 0.500000 0.335528 0.000000
O O9 0.476864 0.279425 0.908304
O O10 0.682613 0.732956 0.317449
O O11 0.250000 0.250000 0.500000
O O12 0.548045 0.376081 0.300625
#
# Coordination Sequence:
#
# PCOD9178720 Si02
#       6
#     4   4   8   8   8   4
#     4   8  17  36  54  77 120 158 185 226 285 355
#     4  10  19  34  55  83 113 149 186 238 288 352
#     4  10  22  40  60  80 109 156 200 240 295 348
#     4  10  21  38  58  84 118 148 192 243 295 342
#     4   9  19  35  58  88 122 154 187 236 291 353
#     4  10  19  30  57  89 111 149 199 231 287 335
#
# _framework density 21.562836999999998
#
# number of rings (size 3 to 8) (size 9 to 14) (size 15 to 20)
#    0.000    2.444    1.111    0.333    4.667    0.000 
#    0.000    0.556    0.000    0.000    0.000   17.111 
#    0.000    0.000    0.000    0.000    0.000    0.000 
#
# Total GULP energy -100275.291365 kJ/mol
# GULP energy per Si atom -5570.849520 kJ/mol
# Density = 2.151376 g / cm^3
# Si number density = 21.562837 Si / 1000 Ang^3
#
#
#
# Elastic Constant Matrix: (Units=GPa)
#
#
# Indices 1 2 3 4 5 6 
#
# 1 103.0245 45.3364 29.0571 -0.0004 -14.0882 0.0002
# 2 45.3364 156.3283 5.3770 -0.0030 -6.1479 -0.0004
# 3 29.0571 5.3770 59.5206 -0.0115 -23.1607 -0.0053
# 4 -0.0004 -0.0030 -0.0115 19.6960 -0.0043 -11.1545
# 5 -14.0882 -6.1479 -23.1607 -0.0043 32.4235 0.0000
# 6 0.0002 -0.0004 -0.0053 -11.1545 0.0000 16.4974
#
#
#
# Elastic Compliance Matrix: (Units=1/GPa)
#
#
# Indices 1 2 3 4 5 6 
#
# 1 0.012985 -0.003534 -0.005658 -0.000007 0.000930 -0.000007
# 2 -0.003534 0.007408 0.001392 0.000004 0.000863 0.000003
# 3 -0.005658 0.001392 0.025737 0.000038 0.016190 0.000034
# 4 -0.000007 0.000004 0.000038 0.082277 0.000036 0.055631
# 5 0.000930 0.000863 0.016190 0.000036 0.042975 0.000029
# 6 -0.000007 0.000003 0.000034 0.055631 0.000029 0.098229
#
#
# Mechanical properties :
#
#
# Convention : Reuss Voigt Hill
#
# Bulk Modulus (GPa) = 32.75477 53.15717 42.95597
# Shear Modulus (GPa) = 16.92693 29.66358 23.29526
#
# Velocity S-wave (km/s) = 2.80483 3.71304 3.29042
# Velocity P-wave (km/s) = 5.07078 6.56414 5.86518
#
# Compressibility (1/GPa) = 0.03052990
#
# Stress axis : x y z
#
# Youngs Moduli (GPa) = 77.01376 134.99136 38.85450
#
# Poissons Ratio (x) = 0.47712 0.21982
# Poissons Ratio (y) = 0.27220 -0.05409
# Poissons Ratio (z) = 0.43571 -0.18794
#
# Static dielectric constant tensor:
#      x y z
#    x 1.751330 0.000000 -0.017430 
#    y 0.000000 1.849120 0.000010 
#    z -0.017430 0.000010 1.886680 
# 
# From -- ./inp_files/202792.got.cif
#   From: 2010.05.17/outbox.cif.g08.bks.cpg/sg12_102_cif.got.tgz:202792.got - 2010.06.03 13:09:07.
