data_PCOD9178381
_publ_section_title
;
Structure prediction by ZEFSAII (Michael W. Deem and Ramdas Pophale) SiO2 
 PCOD9178381
Probable space group: C 2/M
;
_chemical_formula_sum "Si O2"
_cell_formula_units_Z 56
_cell_length_a 13.849685
_cell_length_b 8.344605
_cell_length_c 21.014825
_cell_angle_alpha 90.000000
_cell_angle_beta 111.842810
_cell_angle_gamma 90.000000
_cell_volume 2254.326452
_symmetry_space_group_name_H-M "C 2/M"
_symmetry_group_IT_number 12
_symmetry_cell_setting 'monoclinic'
loop_
_space_group_symop_operation_xyz
x,y,z
-x,y,-z
-x,-y,-z
x,-y,z
1/2+x,1/2+y,z
1/2-x,1/2+y,-z
1/2-x,1/2-y,-z
1/2+x,1/2-y,z
loop_
_atom_site_type_symbol
_atom_site_label
_atom_site_fract_x
_atom_site_fract_y
_atom_site_fract_z
Si Si1 0.893807 0.190626 0.090687
Si Si2 0.606106 0.689441 0.773097
Si Si3 0.772872 0.323789 0.655607
Si Si4 0.150412 0.309311 0.516194
Si Si5 0.828111 0.817257 0.802497
Si Si6 0.017355 0.682645 0.374233
Si Si7 0.343753 0.696953 0.942935
O O1 0.946632 0.236121 0.171645
O O2 0.771903 0.231810 0.074541
O O3 0.908147 0.000000 0.089200
O O4 0.906925 0.249243 0.021253
O O5 0.633625 0.500000 0.784886
O O6 0.706335 0.801670 0.791525
O O7 0.545808 0.715951 0.692642
O O8 0.730939 0.500000 0.657214
O O9 0.681097 0.231424 0.596383
O O10 0.822674 0.263118 0.732883
O O11 0.870208 0.330440 0.632324
O O12 0.143040 0.500000 0.510202
O O13 0.250000 0.250000 0.500000
O O14 0.049758 0.250372 0.451499
O O15 0.880351 0.754968 0.880745
O O16 0.859953 0.000000 0.801059
O O17 0.975357 0.500000 0.368292
O O18 0.338853 0.500000 0.940691
#
# Coordination Sequence:
#
# PCOD9178381 Si02
#       7
#     8   8   8   8   8   8   8
#     4   8  14  25  41  64  92 120 154 194 232 271
#     4  10  19  30  48  73 100 128 158 196 238 282
#     4  10  20  34  52  73  97 125 159 200 241 282
#     4   9  17  31  51  73  95 122 158 198 237 279
#     4  10  19  31  49  72  99 129 159 195 240 288
#     4   9  19  34  51  71  96 125 156 194 237 281
#     4   8  14  25  42  64  90 121 156 192 231 276
#
# _framework density 24.841124000000001
#
# number of rings (size 3 to 8) (size 9 to 14) (size 15 to 20)
#    0.000    2.857    0.000    2.571    0.000    4.571 
#    0.000    0.714    0.000    5.143    0.000    6.000 
#    0.000    0.000    0.000    0.000    0.000    0.000 
#
# Total GULP energy -156109.136493 kJ/mol
# GULP energy per Si atom -5575.326303 kJ/mol
# Density = 2.478458 g / cm^3
# Si number density = 24.841124 Si / 1000 Ang^3
#
#
#
# Elastic Constant Matrix: (Units=GPa)
#
#
# Indices 1 2 3 4 5 6 
#
# 1 44.0412 2.6799 36.0190 0.0000 -0.9617 0.0000
# 2 2.6799 41.2241 36.0649 0.0000 4.9741 0.0000
# 3 36.0190 36.0649 274.9578 0.0000 -6.1668 0.0000
# 4 0.0000 0.0000 0.0000 25.3457 0.0000 -6.6498
# 5 -0.9617 4.9741 -6.1668 0.0000 59.7058 0.0000
# 6 0.0000 0.0000 0.0000 -6.6498 0.0000 11.9713
#
#
#
# Elastic Compliance Matrix: (Units=1/GPa)
#
#
# Indices 1 2 3 4 5 6 
#
# 1 0.025505 0.001441 -0.003532 0.000000 -0.000074 0.000000
# 2 0.001441 0.027912 -0.003910 0.000000 -0.002706 0.000000
# 3 -0.003532 -0.003910 0.004629 0.000000 0.000747 0.000000
# 4 0.000000 0.000000 0.000000 0.046185 0.000000 0.025655
# 5 -0.000074 -0.002706 0.000747 0.000000 0.017050 0.000000
# 6 0.000000 0.000000 0.000000 0.025655 0.000000 0.097784
#
#
# Mechanical properties :
#
#
# Convention : Reuss Voigt Hill
#
# Bulk Modulus (GPa) = 21.71889 56.63897 39.17893
# Shear Modulus (GPa) = 20.29082 38.43516 29.36299
#
# Velocity S-wave (km/s) = 2.86111 3.93776 3.44180
# Velocity P-wave (km/s) = 4.43585 6.59732 5.62145
#
# Compressibility (1/GPa) = 0.04604286
#
# Stress axis : x y z
#
# Youngs Moduli (GPa) = 39.20768 35.82750 216.01794
#
# Poissons Ratio (x) = -0.05161 0.76292
# Poissons Ratio (y) = -0.05648 0.84472
# Poissons Ratio (z) = 0.13847 0.14010
#
# Static dielectric constant tensor:
#      x y z
#    x 2.026310 0.000000 0.041860 
#    y 0.000000 1.895890 0.000000 
#    z 0.041860 0.000000 2.033880 
# 
# From -- ./inp_files/319325.got.cif
#   From: 2010.05.17/outbox.cif.g08.bks.cpg/sg12_160_cif.got.tgz:319325.got - 2010.06.03 13:09:07.
