data_PCOD9178210
_publ_section_title
;
Structure prediction by ZEFSAII (Michael W. Deem and Ramdas Pophale) SiO2 
 PCOD9178210
Probable space group: C 2/M
;
_chemical_formula_sum "Si O2"
_cell_formula_units_Z 64
_cell_length_a 28.475441
_cell_length_b 22.793939
_cell_length_c 19.281609
_cell_angle_alpha 90.000000
_cell_angle_beta 161.904171
_cell_angle_gamma 90.000000
_cell_volume 3887.269740
_symmetry_space_group_name_H-M "C 2/M"
_symmetry_group_IT_number 12
_symmetry_cell_setting 'monoclinic'
loop_
_space_group_symop_operation_xyz
x,y,z
-x,y,-z
-x,-y,-z
x,-y,z
1/2+x,1/2+y,z
1/2-x,1/2+y,-z
1/2-x,1/2-y,-z
1/2+x,1/2-y,z
loop_
_atom_site_type_symbol
_atom_site_label
_atom_site_fract_x
_atom_site_fract_y
_atom_site_fract_z
Si Si1 0.917990 0.614741 0.957204
Si Si2 0.074888 0.862975 0.445816
Si Si3 0.067414 0.238371 0.669406
Si Si4 0.900676 0.312268 0.153745
Si Si5 0.560404 0.065925 0.860722
Si Si6 0.408576 0.565316 0.310431
Si Si7 0.554766 0.243691 0.150060
Si Si8 0.091466 0.211845 0.345632
O O1 0.737925 0.610653 0.692988
O O2 0.964378 0.581405 0.092800
O O3 0.000000 0.597049 0.000000
O O4 0.960815 0.683412 0.028557
O O5 0.061786 0.846393 0.347468
O O6 0.050627 0.803175 0.455348
O O7 0.940107 0.903566 0.282906
O O8 0.094139 0.294066 0.757706
O O9 0.000000 0.252946 0.500000
O O10 0.225904 0.201774 0.886527
O O11 0.967966 0.375735 0.226131
O O12 0.999962 0.264668 0.252244
O O13 0.498101 0.000000 0.757770
O O14 0.739500 0.061683 0.098395
O O15 0.500000 0.597220 0.500000
O O16 0.472860 0.500000 0.393349
O O17 0.730333 0.224615 0.395328
O O18 0.543601 0.287402 0.198679
O O19 0.500000 0.268455 0.000000
#
# Coordination Sequence:
#
# PCOD9178210 Si02
#       8
#     8   8   8   8   8   8   8   8
#     4  11  20  32  50  69 102 138 171 210 251 302
#     4  11  18  30  49  74 105 137 166 207 253 307
#     4  10  20  31  50  77 108 137 162 208 260 311
#     4  10  20  33  49  77 106 133 172 209 254 310
#     4  11  21  34  50  69 101 141 175 211 251 305
#     4  10  19  30  47  70  98 137 178 205 245 310
#     4  10  19  33  48  72 102 138 172 204 255 309
#     4  10  20  30  51  73 101 139 168 209 261 303
#
# _framework density 16.463998
#
# number of rings (size 3 to 8) (size 9 to 14) (size 15 to 20)
#    0.000    1.625    6.250    1.125    0.000    0.250 
#    0.000    0.000    0.000    0.375    0.000    0.000 
#    0.000    1.000    0.000    0.000    0.000    0.000 
#
# Total GULP energy -178138.988367 kJ/mol
# GULP energy per Si atom -5566.843386 kJ/mol
# Density = 1.642653 g / cm^3
# Si number density = 16.463998 Si / 1000 Ang^3
#
#
#
# Elastic Constant Matrix: (Units=GPa)
#
#
# Indices 1 2 3 4 5 6 
#
# 1 104.3755 30.5871 15.3604 0.0000 -25.9379 0.0000
# 2 30.5871 54.1944 2.7818 0.0000 -12.9581 0.0000
# 3 15.3604 2.7818 32.6987 0.0000 -13.2542 0.0000
# 4 0.0000 0.0000 0.0000 5.0865 0.0000 -14.3904
# 5 -25.9379 -12.9581 -13.2542 0.0000 34.4734 0.0000
# 6 0.0000 0.0000 0.0000 -14.3904 0.0000 -2.2847
#
#
#
# Elastic Compliance Matrix: (Units=1/GPa)
#
#
# Indices 1 2 3 4 5 6 
#
# 1 0.013404 -0.005800 -0.003079 0.000000 0.006721 0.000000
# 2 -0.005800 0.022856 0.002954 0.000000 0.005363 0.000000
# 3 -0.003079 0.002954 0.037065 0.000000 0.013044 0.000000
# 4 0.000000 0.000000 0.000000 0.010447 0.000000 -0.065798
# 5 0.006721 0.005363 0.013044 0.000000 0.041096 0.000000
# 6 0.000000 0.000000 0.000000 -0.065798 0.000000 -0.023257
#
#
# Mechanical properties :
#
#
# Convention : Reuss Voigt Hill
#
# Bulk Modulus (GPa) = 16.26662 32.08082 24.17372
# Shear Modulus (GPa) = 37.32695 16.95765 27.14230
#
# Velocity S-wave (km/s) = 4.76666 3.21282 4.06468
# Velocity P-wave (km/s) = 6.34006 5.76981 6.06164
#
# Compressibility (1/GPa) = 0.06147557
#
# Stress axis : x y z
#
# Youngs Moduli (GPa) = 74.60569 43.75165 26.97985
#
# Poissons Ratio (x) = 0.25376 0.08306
# Poissons Ratio (y) = 0.43271 -0.07970
# Poissons Ratio (z) = 0.22969 -0.12924
#
# Static dielectric constant tensor:
#      x y z
#    x 1.627020 0.000000 -0.003300 
#    y 0.000000 1.609070 0.000000 
#    z -0.003300 0.000000 1.560790 
# 
# From -- ./inp_files/294309.got.cif
#   From: 2010.05.17/outbox.cif.g08.bks.cpg/sg12_148_cif.got.tgz:294309.got - 2010.06.03 13:09:07.
