data_PCOD9178533
_publ_section_title
;
Structure prediction by ZEFSAII (Michael W. Deem and Ramdas Pophale) SiO2 
 PCOD9178533
Probable space group: C 2/M
;
_chemical_formula_sum "Si O2"
_cell_formula_units_Z 48
_cell_length_a 24.689483
_cell_length_b 24.137468
_cell_length_c 5.080061
_cell_angle_alpha 90.000000
_cell_angle_beta 116.807633
_cell_angle_gamma 90.000000
_cell_volume 2702.050030
_symmetry_space_group_name_H-M "C 2/M"
_symmetry_group_IT_number 12
_symmetry_cell_setting 'monoclinic'
loop_
_space_group_symop_operation_xyz
x,y,z
-x,y,-z
-x,-y,-z
x,-y,z
1/2+x,1/2+y,z
1/2-x,1/2+y,-z
1/2-x,1/2-y,-z
1/2+x,1/2-y,z
loop_
_atom_site_type_symbol
_atom_site_label
_atom_site_fract_x
_atom_site_fract_y
_atom_site_fract_z
Si Si1 0.769712 0.436730 0.357336
Si Si2 0.956982 0.331505 0.155823
Si Si3 0.733119 0.298260 0.756374
Si Si4 0.826832 0.158697 0.876403
Si Si5 0.832324 0.389796 0.979021
Si Si6 0.457002 0.297255 0.152693
O O1 0.754296 0.500000 0.261647
O O2 0.710216 0.397873 0.259621
O O3 0.812823 0.411144 0.223896
O O4 0.807100 0.432253 0.708983
O O5 0.901264 0.373073 0.074932
O O6 0.934985 0.267265 0.096561
O O7 0.000000 0.335367 0.500000
O O8 0.000000 0.342155 0.000000
O O9 0.702221 0.296772 0.398926
O O10 0.750000 0.250000 0.000000
O O11 0.686502 0.330665 0.844693
O O12 0.793586 0.333854 0.851259
O O13 0.898671 0.163575 0.007190
O O14 0.500000 0.304348 0.500000
O O15 0.500000 0.305445 0.000000
#
# Coordination Sequence:
#
# PCOD9178533 Si02
#       6
#     8   8   8   8   8   8
#     4  10  21  37  57  77  99 132 174 226 273 303
#     4  10  20  33  51  75 106 141 170 200 245 309
#     4  10  19  30  49  77 107 133 164 212 262 314
#     4  10  20  33  51  76 104 137 174 211 258 310
#     4  10  20  34  54  77 101 134 173 213 261 312
#     4  10  20  33  51  76 109 145 173 201 245 310
#
# _framework density 17.764291
#
# number of rings (size 3 to 8) (size 9 to 14) (size 15 to 20)
#    0.000    2.000    0.000    4.000    0.000    5.333 
#    0.000    0.000    0.000   11.000    0.000    0.000 
#    0.000    0.000    0.000    0.000    0.000    0.000 
#
# Total GULP energy -133697.407494 kJ/mol
# GULP energy per Si atom -5570.725312 kJ/mol
# Density = 1.772386 g / cm^3
# Si number density = 17.764291 Si / 1000 Ang^3
#
#
#
# Elastic Constant Matrix: (Units=GPa)
#
#
# Indices 1 2 3 4 5 6 
#
# 1 95.2876 40.1885 64.2744 0.0000 5.5237 0.0000
# 2 40.1885 72.0705 23.1734 0.0000 17.3423 0.0000
# 3 64.2744 23.1734 61.3181 0.0000 -6.8275 0.0000
# 4 0.0000 0.0000 0.0000 16.2189 0.0000 -2.1129
# 5 5.5237 17.3423 -6.8275 0.0000 37.3934 0.0000
# 6 0.0000 0.0000 0.0000 -2.1129 0.0000 12.3585
#
#
#
# Elastic Compliance Matrix: (Units=1/GPa)
#
#
# Indices 1 2 3 4 5 6 
#
# 1 0.045494 -0.007804 -0.046019 0.000000 -0.011503 0.000000
# 2 -0.007804 0.020394 -0.000462 0.000000 -0.008390 0.000000
# 3 -0.046019 -0.000462 0.066860 0.000000 0.019220 0.000000
# 4 0.000000 0.000000 0.000000 0.063061 0.000000 0.010781
# 5 -0.011503 -0.008390 0.019220 0.000000 0.035842 0.000000
# 6 0.000000 0.000000 0.000000 0.010781 0.000000 0.082759
#
#
# Mechanical properties :
#
#
# Convention : Reuss Voigt Hill
#
# Bulk Modulus (GPa) = 41.35649 53.77208 47.56428
# Shear Modulus (GPa) = 11.59989 19.93015 15.76502
#
# Velocity S-wave (km/s) = 2.55814 3.35314 2.98225
# Velocity P-wave (km/s) = 5.66186 6.73253 6.22027
#
# Compressibility (1/GPa) = 0.02418000
#
# Stress axis : x y z
#
# Youngs Moduli (GPa) = 21.98106 49.03371 14.95656
#
# Poissons Ratio (x) = 0.38264 0.68828
# Poissons Ratio (y) = 0.17153 0.00690
# Poissons Ratio (z) = 1.01154 0.02264
#
# Static dielectric constant tensor:
#      x y z
#    x 1.588900 0.000000 -0.019270 
#    y 0.000000 1.658010 0.000000 
#    z -0.019270 0.000000 1.602950 
# 
# From -- ./inp_files/21740.got.cif
#   From: 2010.05.17/outbox.cif.g08.bks.cpg/sg12_11_cif.got.tgz:21740.got - 2010.06.03 13:09:07.
