data_PCOD9178551
_publ_section_title
;
Structure prediction by ZEFSAII (Michael W. Deem and Ramdas Pophale) SiO2 
 PCOD9178551
Probable space group: C 2/M
;
_chemical_formula_sum "Si O2"
_cell_formula_units_Z 56
_cell_length_a 20.085552
_cell_length_b 9.197085
_cell_length_c 21.369213
_cell_angle_alpha 90.000000
_cell_angle_beta 55.331660
_cell_angle_gamma 90.000000
_cell_volume 3246.657562
_symmetry_space_group_name_H-M "C 2/M"
_symmetry_group_IT_number 12
_symmetry_cell_setting 'monoclinic'
loop_
_space_group_symop_operation_xyz
x,y,z
-x,y,-z
-x,-y,-z
x,-y,z
1/2+x,1/2+y,z
1/2-x,1/2+y,-z
1/2-x,1/2-y,-z
1/2+x,1/2-y,z
loop_
_atom_site_type_symbol
_atom_site_label
_atom_site_fract_x
_atom_site_fract_y
_atom_site_fract_z
Si Si1 0.101915 0.325823 0.128622
Si Si2 0.833891 0.331393 0.452402
Si Si3 0.907161 0.669901 0.551472
Si Si4 0.866142 0.173241 0.692676
Si Si5 0.422688 0.176989 0.001123
Si Si6 0.741620 0.325346 0.131630
Si Si7 0.006208 0.325320 0.695334
O O1 0.116020 0.500000 0.120417
O O2 0.182225 0.249234 0.112889
O O3 0.029986 0.296974 0.216670
O O4 0.078003 0.279585 0.071538
O O5 0.818378 0.500000 0.446466
O O6 0.750000 0.250000 0.500000
O O7 0.873230 0.320949 0.500011
O O8 0.902042 0.278307 0.367120
O O9 0.907950 0.500000 0.570211
O O10 0.857008 0.759856 0.629007
O O11 0.000000 0.721832 0.500000
O O12 0.795090 0.207350 0.780240
O O13 0.946275 0.245652 0.679496
O O14 0.874785 0.000000 0.684965
O O15 0.334872 0.219930 0.075086
O O16 0.425359 0.000000 0.000868
O O17 0.500000 0.228106 0.000000
O O18 0.737313 0.500000 0.124876
O O19 0.002195 0.500000 0.686211
#
# Coordination Sequence:
#
# PCOD9178551 Si02
#       7
#     8   8   8   8   8   8   8
#     4   9  17  30  54  79  94 126 173 206 239 290
#     4  10  21  36  52  72 101 135 167 206 252 297
#     4  10  19  35  56  73  97 135 171 204 249 298
#     4  10  19  30  49  80 105 127 163 212 257 288
#     4   9  17  31  50  74 103 132 164 201 243 295
#     4   9  18  32  50  75 105 131 159 203 254 290
#     4   9  17  33  52  73 100 132 170 207 247 297
#
# _framework density 17.248508000000001
#
# number of rings (size 3 to 8) (size 9 to 14) (size 15 to 20)
#    0.000    2.571    1.429    0.857    0.000    2.000 
#    2.571    0.000    0.000    1.714    0.000    0.000 
#    0.000    0.000    0.000    0.000    0.000    0.000 
#
# Total GULP energy -156067.956204 kJ/mol
# GULP energy per Si atom -5573.855579 kJ/mol
# Density = 1.720925 g / cm^3
# Si number density = 17.248508 Si / 1000 Ang^3
#
#
#
# Elastic Constant Matrix: (Units=GPa)
#
#
# Indices 1 2 3 4 5 6 
#
# 1 86.1998 23.4489 66.2046 0.0001 -22.5411 0.0002
# 2 23.4489 18.4293 35.2508 0.0002 -5.7058 0.0002
# 3 66.2046 35.2508 126.3147 0.0000 -18.4463 0.0000
# 4 0.0001 0.0002 0.0000 19.1626 0.0000 -2.6435
# 5 -22.5411 -5.7058 -18.4463 0.0000 28.5411 0.0000
# 6 0.0002 0.0002 0.0000 -2.6435 0.0000 22.2848
#
#
#
# Elastic Compliance Matrix: (Units=1/GPa)
#
#
# Indices 1 2 3 4 5 6 
#
# 1 0.023518 -0.012870 -0.007065 0.000000 0.011435 0.000000
# 2 -0.012870 0.123596 -0.028293 -0.000001 -0.003742 -0.000001
# 3 -0.007065 -0.028293 0.019737 0.000000 0.001521 0.000000
# 4 0.000000 -0.000001 0.000000 0.053053 0.000000 0.006293
# 5 0.011435 -0.003742 0.001521 0.000000 0.044303 0.000000
# 6 0.000000 -0.000001 0.000000 0.006293 0.000000 0.045620
#
#
# Mechanical properties :
#
#
# Convention : Reuss Voigt Hill
#
# Bulk Modulus (GPa) = 14.20538 53.41690 33.81114
# Shear Modulus (GPa) = 11.63465 21.06700 16.35082
#
# Velocity S-wave (km/s) = 2.59999 3.49862 3.08223
# Velocity P-wave (km/s) = 4.15534 6.88162 5.68434
#
# Compressibility (1/GPa) = 0.07039587
#
# Stress axis : x y z
#
# Youngs Moduli (GPa) = 42.51972 8.09085 50.66515
#
# Poissons Ratio (x) = 0.10413 0.35794
# Poissons Ratio (y) = 0.54724 1.43347
# Poissons Ratio (z) = 0.30040 0.22891
#
# Static dielectric constant tensor:
#      x y z
#    x 1.560820 0.000000 -0.000320 
#    y 0.000000 1.581400 0.000000 
#    z -0.000320 0.000000 1.612520 
# 
# From -- ./inp_files/314428.got.cif
#   From: 2010.05.17/outbox.cif.g08.bks.cpg/sg12_158_cif.got.tgz:314428.got - 2010.06.03 13:09:07.
