data_PCOD9178885
_publ_section_title
;
Structure prediction by ZEFSAII (Michael W. Deem and Ramdas Pophale) SiO2 
 PCOD9178885
Probable space group: C 2/M
;
_chemical_formula_sum "Si O2"
_cell_formula_units_Z 48
_cell_length_a 14.395482
_cell_length_b 7.356382
_cell_length_c 20.676220
_cell_angle_alpha 90.000000
_cell_angle_beta 105.809461
_cell_angle_gamma 90.000000
_cell_volume 2106.758735
_symmetry_space_group_name_H-M "C 2/M"
_symmetry_group_IT_number 12
_symmetry_cell_setting 'monoclinic'
loop_
_space_group_symop_operation_xyz
x,y,z
-x,y,-z
-x,-y,-z
x,-y,z
1/2+x,1/2+y,z
1/2-x,1/2+y,-z
1/2-x,1/2-y,-z
1/2+x,1/2-y,z
loop_
_atom_site_type_symbol
_atom_site_label
_atom_site_fract_x
_atom_site_fract_y
_atom_site_fract_z
Si Si1 0.129906 0.777172 0.657006
Si Si2 0.138749 0.716000 0.991840
Si Si3 0.592976 0.720340 0.369422
Si Si4 0.547757 0.222036 0.110242
Si Si5 0.817344 0.709087 0.751353
Si Si6 0.883297 0.214387 0.486170
O O1 0.209843 0.712913 0.722849
O O2 0.156125 0.712685 0.589101
O O3 0.020149 0.726315 0.651334
O O4 0.131722 0.000000 0.655724
O O5 0.126468 0.500000 0.991539
O O6 0.104910 0.778550 0.056258
O O7 0.250000 0.750000 0.000000
O O8 0.062446 0.782498 0.923463
O O9 0.596279 0.500000 0.370314
O O10 0.640542 0.786641 0.312981
O O11 0.638947 0.785592 0.446344
O O12 0.605857 0.288061 0.183816
O O13 0.545677 0.000000 0.113364
O O14 0.803548 0.500000 0.768785
O O15 0.000000 0.230552 0.500000
O O16 0.861927 0.000000 0.483599
#
# Coordination Sequence:
#
# PCOD9178885 Si02
#       6
#     8   8   8   8   8   8
#     4   8  15  28  46  65  87 121 161 192 224 276
#     4   9  17  33  55  74  92 120 155 185 220 267
#     4   9  17  30  47  67  91 120 156 197 235 267
#     4   8  17  33  49  67  97 129 150 176 223 282
#     4  10  19  31  47  68  94 124 155 185 224 276
#     4   7  11  23  43  63  84 115 155 194 229 268
#
# _framework density 22.783814
#
# number of rings (size 3 to 8) (size 9 to 14) (size 15 to 20)
#    0.000    3.500    0.000    3.000    0.000    2.000 
#    0.000    5.833    0.000    4.500    0.000    0.000 
#    0.000    0.000    0.000    0.000    0.000    0.000 
#
# Total GULP energy -133874.099791 kJ/mol
# GULP energy per Si atom -5578.087491 kJ/mol
# Density = 2.273196 g / cm^3
# Si number density = 22.783814 Si / 1000 Ang^3
#
#
#
# Elastic Constant Matrix: (Units=GPa)
#
#
# Indices 1 2 3 4 5 6 
#
# 1 84.7437 -8.4599 32.1484 0.0000 30.7938 0.0000
# 2 -8.4599 82.2649 3.8088 0.0000 5.7013 0.0000
# 3 32.1484 3.8088 123.7540 0.0000 47.1798 0.0000
# 4 0.0000 0.0000 0.0000 2.6094 0.0000 -5.6762
# 5 30.7938 5.7013 47.1798 0.0000 34.4811 0.0000
# 6 0.0000 0.0000 0.0000 -5.6762 0.0000 4.3397
#
#
#
# Elastic Compliance Matrix: (Units=1/GPa)
#
#
# Indices 1 2 3 4 5 6 
#
# 1 0.018846 0.003307 0.003402 0.000000 -0.022033 0.000000
# 2 0.003307 0.012918 0.001429 0.000000 -0.007045 0.000000
# 3 0.003402 0.001429 0.017563 0.000000 -0.027305 0.000000
# 4 0.000000 0.000000 0.000000 -0.207683 0.000000 -0.271644
# 5 -0.022033 -0.007045 -0.027305 0.000000 0.087204 0.000000
# 6 0.000000 0.000000 0.000000 -0.271644 0.000000 -0.124874
#
#
# Mechanical properties :
#
#
# Convention : Reuss Voigt Hill
#
# Bulk Modulus (GPa) = 15.24299 38.41749 26.83024
# Shear Modulus (GPa) = -26.25547 25.83704 -0.20921
#
# Velocity S-wave (km/s) = -3.39835 3.37116 -0.30336
# Velocity P-wave (km/s) = 2.94848 5.66139 3.41744
#
# Compressibility (1/GPa) = 0.06560394
#
# Stress axis : x y z
#
# Youngs Moduli (GPa) = 53.06183 77.41092 56.93946
#
# Poissons Ratio (x) = -0.25604 -0.19372
# Poissons Ratio (y) = -0.17550 -0.08137
# Poissons Ratio (z) = -0.18052 -0.11063
#
# Static dielectric constant tensor:
#      x y z
#    x 1.877590 0.000000 0.044810 
#    y 0.000000 1.886570 0.000000 
#    z 0.044810 0.000000 1.854850 
# 
# From -- ./inp_files/261725.got.cif
#   From: 2010.05.17/outbox.cif.g08.bks.cpg/sg12_131_cif.got.tgz:261725.got - 2010.06.03 13:09:07.
