data_PCOD9178753
_publ_section_title
;
Structure prediction by ZEFSAII (Michael W. Deem and Ramdas Pophale) SiO2 
 PCOD9178753
Probable space group: C 2/M
;
_chemical_formula_sum "Si O2"
_cell_formula_units_Z 44
_cell_length_a 5.041076
_cell_length_b 13.762707
_cell_length_c 28.501532
_cell_angle_alpha 90.000000
_cell_angle_beta 90.665751
_cell_angle_gamma 90.000000
_cell_volume 1977.270082
_symmetry_space_group_name_H-M "C 2/M"
_symmetry_group_IT_number 12
_symmetry_cell_setting 'monoclinic'
loop_
_space_group_symop_operation_xyz
x,y,z
-x,y,-z
-x,-y,-z
x,-y,z
1/2+x,1/2+y,z
1/2-x,1/2+y,-z
1/2-x,1/2-y,-z
1/2+x,1/2-y,z
loop_
_atom_site_type_symbol
_atom_site_label
_atom_site_fract_x
_atom_site_fract_y
_atom_site_fract_z
Si Si1 0.932641 0.313222 0.296918
Si Si2 0.500000 0.821907 0.000000
Si Si3 0.058311 0.318205 0.198555
Si Si4 0.430718 0.818845 0.099745
Si Si5 0.878510 0.118466 0.549065
Si Si6 0.119611 0.384498 0.397215
O O1 0.627558 0.280898 0.295695
O O2 0.010968 0.361582 0.345744
O O3 0.002085 0.367875 0.248445
O O4 0.515507 0.873124 0.949354
O O5 0.250000 0.750000 0.000000
O O6 0.352664 0.273605 0.198269
O O7 0.993566 0.370162 0.149284
O O8 0.136211 0.773142 0.099773
O O9 0.082634 0.147626 0.590715
O O10 0.000000 0.150674 0.500000
O O11 0.585259 0.149511 0.563129
O O12 0.870094 0.000000 0.546799
O O13 0.126804 0.500000 0.401294
#
# Coordination Sequence:
#
# PCOD9178753 Si02
#       6
#     8   4   8   8   8   8
#     4  10  19  31  46  63  86 115 142 169 205 247
#     4   8  12  16  24  38  58  84 113 150 191 224
#     4   8  14  23  35  50  69  97 131 160 188 232
#     4   8  12  18  27  41  61  86 119 154 187 225
#     4   9  17  30  49  70  88 108 137 170 203 243
#     4  10  19  31  49  70  88 108 138 174 206 239
#
# _framework density 22.252903
#
# number of rings (size 3 to 8) (size 9 to 14) (size 15 to 20)
#    0.000    3.091    0.000    1.636    0.000    2.182 
#    0.000    0.000    0.000   10.909    0.000    0.000 
#    0.000    0.000    0.000    0.818    0.000    1.818 
#
# Total GULP energy -122591.323342 kJ/mol
# GULP energy per Si atom -5572.332879 kJ/mol
# Density = 2.220225 g / cm^3
# Si number density = 22.252903 Si / 1000 Ang^3
#
#
#
# Elastic Constant Matrix: (Units=GPa)
#
#
# Indices 1 2 3 4 5 6 
#
# 1 102.3149 -6.8236 -3.0015 0.0000 -1.9543 0.0000
# 2 -6.8236 44.1064 -2.0156 0.0000 -2.5984 0.0000
# 3 -3.0015 -2.0156 142.9592 0.0000 -5.9443 0.0000
# 4 0.0000 0.0000 0.0000 -8.6617 0.0000 3.0489
# 5 -1.9543 -2.5984 -5.9443 0.0000 36.4078 0.0000
# 6 0.0000 0.0000 0.0000 3.0489 0.0000 -0.4499
#
#
#
# Elastic Compliance Matrix: (Units=1/GPa)
#
#
# Indices 1 2 3 4 5 6 
#
# 1 0.009900 0.001584 0.000259 0.000000 0.000687 0.000000
# 2 0.001584 0.023043 0.000433 0.000000 0.001800 0.000000
# 3 0.000259 0.000433 0.007056 0.000000 0.001197 0.000000
# 4 0.000000 0.000000 0.000000 0.083344 0.000000 0.564752
# 5 0.000687 0.001800 0.001197 0.000000 0.027827 0.000000
# 6 0.000000 0.000000 0.000000 0.564752 0.000000 1.604391
#
#
# Mechanical properties :
#
#
# Convention : Reuss Voigt Hill
#
# Bulk Modulus (GPa) = 22.44618 29.52211 25.98415
# Shear Modulus (GPa) = 2.83148 25.54066 14.18607
#
# Velocity S-wave (km/s) = 1.12924 3.39151 2.52760
# Velocity P-wave (km/s) = 3.43642 5.35088 4.49672
#
# Compressibility (1/GPa) = 0.04455102
#
# Stress axis : x y z
#
# Youngs Moduli (GPa) = 101.00924 43.39652 141.71720
#
# Poissons Ratio (x) = -0.06874 -0.03667
# Poissons Ratio (y) = -0.15999 -0.06136
# Poissons Ratio (z) = -0.02614 -0.01879
#
# Static dielectric constant tensor:
#      x y z
#    x 1.780630 0.000000 0.006410 
#    y 0.000000 1.792890 0.000000 
#    z 0.006410 0.000000 1.952530 
# 
# From -- ./inp_files/354773.got.cif
#   From: 2010.05.17/outbox.cif.g08.bks.cpg/sg12_178_cif.got.tgz:354773.got - 2010.06.03 13:09:07.
