data_PCOD9178864
_publ_section_title
;
Structure prediction by ZEFSAII (Michael W. Deem and Ramdas Pophale) SiO2 
 PCOD9178864
Probable space group: C 2/M
;
_chemical_formula_sum "Si O2"
_cell_formula_units_Z 56
_cell_length_a 31.096097
_cell_length_b 14.153424
_cell_length_c 25.772781
_cell_angle_alpha 90.000000
_cell_angle_beta 162.400824
_cell_angle_gamma 90.000000
_cell_volume 3429.632107
_symmetry_space_group_name_H-M "C 2/M"
_symmetry_group_IT_number 12
_symmetry_cell_setting 'monoclinic'
loop_
_space_group_symop_operation_xyz
x,y,z
-x,y,-z
-x,-y,-z
x,-y,z
1/2+x,1/2+y,z
1/2-x,1/2+y,-z
1/2-x,1/2-y,-z
1/2+x,1/2-y,z
loop_
_atom_site_type_symbol
_atom_site_label
_atom_site_fract_x
_atom_site_fract_y
_atom_site_fract_z
Si Si1 0.724373 0.886108 0.506347
Si Si2 0.055440 0.110025 0.325694
Si Si3 0.667880 0.887062 0.602774
Si Si4 0.929933 0.886765 0.836266
Si Si5 0.252146 0.611132 0.926822
Si Si6 0.001230 0.293560 0.685921
Si Si7 0.750888 0.384909 0.194578
O O1 0.836448 0.854931 0.679685
O O2 0.576099 0.840545 0.353039
O O3 0.799736 0.864502 0.538488
O O4 0.711025 0.000000 0.494282
O O5 0.023017 0.182742 0.334114
O O6 0.063009 0.000000 0.349614
O O7 0.920550 0.118568 0.131342
O O8 0.832017 0.872082 0.773906
O O9 0.575983 0.834034 0.454183
O O10 0.654558 0.857164 0.647218
O O11 0.638855 0.000000 0.565073
O O12 0.943002 0.000000 0.845822
O O13 0.089600 0.850390 0.019142
O O14 0.215248 0.500000 0.890340
O O15 0.214257 0.640501 0.824390
O O16 0.161891 0.672297 0.863223
O O17 0.751564 0.500000 0.196388
#
# Coordination Sequence:
#
# PCOD9178864 Si02
#       7
#     8   8   8   8   8   8   8
#     4   9  16  29  48  68  91 119 147 181 224 267
#     4  10  20  34  49  63  85 122 161 189 217 259
#     4   9  17  26  41  67  96 121 144 174 218 267
#     4   8  12  22  40  62  90 120 146 169 201 257
#     4  10  19  31  47  67  93 122 147 177 224 275
#     4  11  20  30  44  68  96 119 147 187 226 260
#     4   9  15  25  42  64  93 124 145 167 211 277
#
# _framework density 16.328282000000002
#
# number of rings (size 3 to 8) (size 9 to 14) (size 15 to 20)
#    0.000    2.571    1.429    3.429    0.000    2.286 
#    0.000    2.143    0.000    0.000    0.000    2.000 
#    0.000    9.143    0.000    0.000    0.000    0.000 
#
# Total GULP energy -155948.795786 kJ/mol
# GULP energy per Si atom -5569.599849 kJ/mol
# Density = 1.629112 g / cm^3
# Si number density = 16.328282 Si / 1000 Ang^3
#
#
#
# Elastic Constant Matrix: (Units=GPa)
#
#
# Indices 1 2 3 4 5 6 
#
# 1 66.3137 34.4371 21.4607 0.0000 6.2221 0.0000
# 2 34.4371 43.6222 12.0011 0.0004 2.5056 0.0001
# 3 21.4607 12.0011 30.7566 0.0003 13.5543 0.0000
# 4 0.0000 0.0004 0.0003 11.1816 0.0000 3.6223
# 5 6.2221 2.5056 13.5543 0.0000 22.6527 0.0000
# 6 0.0000 0.0001 0.0000 3.6223 0.0000 14.8748
#
#
#
# Elastic Compliance Matrix: (Units=1/GPa)
#
#
# Indices 1 2 3 4 5 6 
#
# 1 0.029603 -0.019638 -0.014080 0.000001 0.002466 0.000000
# 2 -0.019638 0.039018 -0.002713 -0.000001 0.002701 0.000000
# 3 -0.014080 -0.002713 0.056443 -0.000001 -0.029606 0.000000
# 4 0.000001 -0.000001 -0.000001 0.097092 0.000001 -0.023644
# 5 0.002466 0.002701 -0.029606 0.000001 0.060883 0.000000
# 6 0.000000 0.000000 0.000000 -0.023644 0.000000 0.072986
#
#
# Mechanical properties :
#
#
# Convention : Reuss Voigt Hill
#
# Bulk Modulus (GPa) = 19.15569 30.72115 24.93842
# Shear Modulus (GPa) = 11.20354 14.59475 12.89914
#
# Velocity S-wave (km/s) = 2.62227 2.99295 2.81372
# Velocity P-wave (km/s) = 4.57444 5.54970 5.08550
#
# Compressibility (1/GPa) = 0.05220380
#
# Stress axis : x y z
#
# Youngs Moduli (GPa) = 33.78019 25.62910 17.71688
#
# Poissons Ratio (x) = 0.50330 0.24945
# Poissons Ratio (y) = 0.66337 0.04806
# Poissons Ratio (z) = 0.47562 0.06952
#
# Static dielectric constant tensor:
#      x y z
#    x 1.579970 0.000000 0.021160 
#    y 0.000000 1.529450 0.000000 
#    z 0.021160 0.000000 1.600960 
# 
# From -- ./inp_files/370799.got.cif
#   From: 2010.05.17/outbox.cif.g08.bks.cpg/sg12_186_cif.got.tgz:370799.got - 2010.06.03 13:09:07.
