data_PCOD9178736
_publ_section_title
;
Structure prediction by ZEFSAII (Michael W. Deem and Ramdas Pophale) SiO2 
 PCOD9178736
Probable space group: C 2/M
;
_chemical_formula_sum "Si O2"
_cell_formula_units_Z 48
_cell_length_a 5.630840
_cell_length_b 26.740272
_cell_length_c 13.772382
_cell_angle_alpha 90.000000
_cell_angle_beta 114.469821
_cell_angle_gamma 90.000000
_cell_volume 1887.448681
_symmetry_space_group_name_H-M "C 2/M"
_symmetry_group_IT_number 12
_symmetry_cell_setting 'monoclinic'
loop_
_space_group_symop_operation_xyz
x,y,z
-x,y,-z
-x,-y,-z
x,-y,z
1/2+x,1/2+y,z
1/2-x,1/2+y,-z
1/2-x,1/2-y,-z
1/2+x,1/2-y,z
loop_
_atom_site_type_symbol
_atom_site_label
_atom_site_fract_x
_atom_site_fract_y
_atom_site_fract_z
Si Si1 0.773418 0.641610 0.868535
Si Si2 0.519200 0.803441 0.645462
Si Si3 0.991923 0.185748 0.367150
Si Si4 0.815206 0.439575 0.377153
Si Si5 0.291396 0.940211 0.726910
Si Si6 0.193683 0.182615 0.101429
O O1 0.655649 0.674253 0.759199
O O2 0.825620 0.586153 0.836323
O O3 0.525422 0.643226 0.898409
O O4 0.066786 0.663442 0.922306
O O5 0.235328 0.828535 0.597213
O O6 0.483700 0.745413 0.614295
O O7 0.665623 0.799786 0.775615
O O8 0.717255 0.830632 0.607397
O O9 0.796853 0.500000 0.361769
O O10 0.512023 0.425011 0.347639
O O11 0.000000 0.431352 0.500000
O O12 0.978430 0.422627 0.308217
O O13 0.301807 0.000000 0.731370
O O14 0.000000 0.216298 0.000000
#
# Coordination Sequence:
#
# PCOD9178736 Si02
#       6
#     8   8   8   8   8   8
#     4  10  19  31  45  63  88 118 153 191 223 267
#     4   8  14  25  39  57  79 107 138 177 222 275
#     4   8  14  25  39  57  82 110 136 176 219 264
#     4   9  17  30  49  74  99 119 141 171 214 272
#     4  10  19  31  49  70  93 124 153 178 215 261
#     4  10  19  31  46  63  86 117 152 194 241 277
#
# _framework density 25.431156000000001
#
# number of rings (size 3 to 8) (size 9 to 14) (size 15 to 20)
#    0.000    2.833    0.000    2.000    0.000    2.000 
#    0.000   13.333    0.000    3.000    0.000    0.000 
#    0.000    0.000    0.000  240.000    0.000    0.000 
#
# Total GULP energy -133713.013837 kJ/mol
# GULP energy per Si atom -5571.375577 kJ/mol
# Density = 2.537327 g / cm^3
# Si number density = 25.431156 Si / 1000 Ang^3
#
#
#
# Elastic Constant Matrix: (Units=GPa)
#
#
# Indices 1 2 3 4 5 6 
#
# 1 295.5882 34.7728 60.5194 0.0000 0.5369 0.0000
# 2 34.7728 54.4844 2.5698 0.0000 4.1035 0.0000
# 3 60.5194 2.5698 83.2649 0.0000 17.5345 0.0000
# 4 0.0000 0.0000 0.0000 -13.2124 0.0000 -1.5608
# 5 0.5369 4.1035 17.5345 0.0000 63.0413 0.0000
# 6 0.0000 0.0000 0.0000 -1.5608 0.0000 39.1561
#
#
#
# Elastic Compliance Matrix: (Units=1/GPa)
#
#
# Indices 1 2 3 4 5 6 
#
# 1 0.004382 -0.002720 -0.003325 0.000000 0.001065 0.000000
# 2 -0.002720 0.020142 0.001728 0.000000 -0.001768 0.000000
# 3 -0.003325 0.001728 0.015286 0.000000 -0.004336 0.000000
# 4 0.000000 0.000000 0.000000 -0.075332 0.000000 -0.003003
# 5 0.001065 -0.001768 -0.004336 0.000000 0.017175 0.000000
# 6 0.000000 0.000000 0.000000 -0.003003 0.000000 0.025419
#
#
# Mechanical properties :
#
#
# Convention : Reuss Voigt Hill
#
# Bulk Modulus (GPa) = 32.07689 69.89573 50.98631
# Shear Modulus (GPa) = 191.58299 40.16202 115.87250
#
# Velocity S-wave (km/s) = 8.68893 3.97828 6.75738
# Velocity P-wave (km/s) = 10.64443 6.97469 8.99862
#
# Compressibility (1/GPa) = 0.03117510
#
# Stress axis : x y z
#
# Youngs Moduli (GPa) = 228.21021 49.64872 65.41740
#
# Poissons Ratio (x) = 0.13504 0.21752
# Poissons Ratio (y) = 0.62072 -0.11302
# Poissons Ratio (z) = 0.75883 -0.08578
#
# Static dielectric constant tensor:
#      x y z
#    x 2.282170 0.000000 -0.253570 
#    y 0.000000 2.021500 0.000000 
#    z -0.253570 0.000000 2.347690 
# 
# From -- ./inp_files/192512.got.cif
#   From: 2010.05.17/outbox.cif.g08.bks.cpg/sg12_97_cif.got.tgz:192512.got - 2010.06.03 13:09:07.
