data_PCOD9178334
_publ_section_title
;
Structure prediction by ZEFSAII (Michael W. Deem and Ramdas Pophale) SiO2 
 PCOD9178334
Probable space group: C 2/M
;
_chemical_formula_sum "Si O2"
_cell_formula_units_Z 40
_cell_length_a 12.912258
_cell_length_b 24.345191
_cell_length_c 14.271365
_cell_angle_alpha 90.000000
_cell_angle_beta 149.316165
_cell_angle_gamma 90.000000
_cell_volume 2289.321164
_symmetry_space_group_name_H-M "C 2/M"
_symmetry_group_IT_number 12
_symmetry_cell_setting 'monoclinic'
loop_
_space_group_symop_operation_xyz
x,y,z
-x,y,-z
-x,-y,-z
x,-y,z
1/2+x,1/2+y,z
1/2-x,1/2+y,-z
1/2-x,1/2-y,-z
1/2+x,1/2-y,z
loop_
_atom_site_type_symbol
_atom_site_label
_atom_site_fract_x
_atom_site_fract_y
_atom_site_fract_z
Si Si1 0.690506 0.758116 0.215394
Si Si2 0.568646 0.853389 0.268644
Si Si3 0.855726 0.436583 0.977399
Si Si4 0.425068 0.437899 0.548835
Si Si5 0.084549 0.724603 0.440293
O O1 0.626549 0.808921 0.232396
O O2 0.784980 0.714083 0.363490
O O3 0.896773 0.765834 0.315244
O O4 0.500000 0.744824 0.000000
O O5 0.764024 0.890745 0.440998
O O6 0.500623 0.824996 0.312244
O O7 0.406674 0.894073 0.097561
O O8 0.898428 0.500000 0.036295
O O9 0.624839 0.432063 0.766209
O O10 0.000000 0.424295 0.000000
O O11 0.500000 0.433836 0.500000
O O12 0.342763 0.500000 0.497249
O O13 0.250000 0.750000 0.500000
#
# Coordination Sequence:
#
# PCOD9178334 Si02
#       5
#     8   8   8   8   8
#     4  10  22  37  52  73 105 141 178 224 261 297
#     4  11  21  32  55  75 103 143 175 204 256 312
#     4  10  19  30  47  76 107 135 167 200 246 313
#     4  10  20  31  47  74 109 137 163 203 250 310
#     4   9  22  36  50  75 103 135 181 225 257 304
#
# _framework density 17.472429000000002
#
# number of rings (size 3 to 8) (size 9 to 14) (size 15 to 20)
#    0.000    2.000    2.000    1.200    5.600    4.800 
#    0.000    0.000    0.000    0.000    0.000   11.200 
#    0.000   19.200    0.000    0.000    0.000    0.000 
#
# Total GULP energy -111372.920767 kJ/mol
# GULP energy per Si atom -5568.646038 kJ/mol
# Density = 1.743266 g / cm^3
# Si number density = 17.472429 Si / 1000 Ang^3
#
#
#
# Elastic Constant Matrix: (Units=GPa)
#
#
# Indices 1 2 3 4 5 6 
#
# 1 46.7762 14.0825 34.4524 0.0000 -9.4863 0.0001
# 2 14.0825 54.4067 33.8311 0.0000 -23.8238 -0.0001
# 3 34.4524 33.8311 134.2457 0.0003 -24.3691 0.0000
# 4 0.0000 0.0000 0.0003 32.8791 0.0000 -13.2964
# 5 -9.4863 -23.8238 -24.3691 0.0000 24.8895 0.0002
# 6 0.0001 -0.0001 0.0000 -13.2964 0.0002 83.6320
#
#
#
# Elastic Compliance Matrix: (Units=1/GPa)
#
#
# Indices 1 2 3 4 5 6 
#
# 1 0.026880 -0.002290 -0.005910 0.000000 0.002267 0.000000
# 2 -0.002290 0.032872 -0.002606 0.000000 0.028039 0.000000
# 3 -0.005910 -0.002606 0.010654 0.000000 0.005684 0.000000
# 4 0.000000 0.000000 0.000000 0.032504 0.000000 0.005168
# 5 0.002267 0.028039 0.005684 0.000000 0.073446 0.000000
# 6 0.000000 0.000000 0.000000 0.005168 0.000000 0.012779
#
#
# Mechanical properties :
#
#
# Convention : Reuss Voigt Hill
#
# Bulk Modulus (GPa) = 20.49452 44.46228 32.47840
# Shear Modulus (GPa) = 22.02520 38.48430 30.25475
#
# Velocity S-wave (km/s) = 3.55430 4.69825 4.16573
# Velocity P-wave (km/s) = 5.34782 7.41173 6.46270
#
# Compressibility (1/GPa) = 0.04879353
#
# Stress axis : x y z
#
# Youngs Moduli (GPa) = 37.20177 30.42147 93.85797
#
# Poissons Ratio (x) = 0.06967 0.55469
# Poissons Ratio (y) = 0.08520 0.24462
# Poissons Ratio (z) = 0.21986 0.07929
#
# Static dielectric constant tensor:
#      x y z
#    x 1.630170 0.000000 -0.017730 
#    y 0.000000 1.643550 0.000000 
#    z -0.017730 0.000000 1.623000 
# 
# From -- ./inp_files/136472.got.cif
#   From: 2010.05.17/outbox.cif.g08.bks.cpg/sg12_69_cif.got.tgz:136472.got - 2010.06.03 13:09:07.
