data_PCOD9178133
_publ_section_title
;
Structure prediction by ZEFSAII (Michael W. Deem and Ramdas Pophale) SiO2 
 PCOD9178133
Probable space group: C 2/M
;
_chemical_formula_sum "Si O2"
_cell_formula_units_Z 44
_cell_length_a 19.503039
_cell_length_b 7.640057
_cell_length_c 18.035048
_cell_angle_alpha 90.000000
_cell_angle_beta 37.787439
_cell_angle_gamma 90.000000
_cell_volume 1646.599720
_symmetry_space_group_name_H-M "C 2/M"
_symmetry_group_IT_number 12
_symmetry_cell_setting 'monoclinic'
loop_
_space_group_symop_operation_xyz
x,y,z
-x,y,-z
-x,-y,-z
x,-y,z
1/2+x,1/2+y,z
1/2-x,1/2+y,-z
1/2-x,1/2-y,-z
1/2+x,1/2-y,z
loop_
_atom_site_type_symbol
_atom_site_label
_atom_site_fract_x
_atom_site_fract_y
_atom_site_fract_z
Si Si1 0.341139 0.788570 0.658326
Si Si2 0.881895 0.696057 0.462857
Si Si3 0.091390 0.201340 0.865683
Si Si4 0.082274 0.299271 0.089521
Si Si5 0.660475 0.500000 0.611077
Si Si6 0.677999 0.293838 0.162268
O O1 0.400762 0.738740 0.530979
O O2 0.213197 0.717759 0.761692
O O3 0.373889 0.738586 0.713535
O O4 0.343258 0.000000 0.653639
O O5 0.932449 0.500000 0.406559
O O6 0.748097 0.649039 0.572399
O O7 0.901197 0.845168 0.386157
O O8 0.028160 0.197863 0.840744
O O9 0.107957 0.000000 0.874047
O O10 0.000000 0.279809 0.000000
O O11 0.061152 0.500000 0.087860
O O12 0.116210 0.288951 0.145647
O O13 0.192308 0.230385 0.952002
O O14 0.683964 0.500000 0.142249
#
# Coordination Sequence:
#
# PCOD9178133 Si02
#       6
#     8   8   8   8   4   8
#     4  10  19  30  46  71  98 121 156 198 234 271
#     4   8  15  27  44  67  96 124 150 190 237 291
#     4  10  19  31  46  64  93 129 160 191 231 277
#     4  10  20  33  46  60  88 128 166 200 234 271
#     4   8  14  28  46  64  94 126 148 182 246 302
#     4  10  20  31  46  65  87 122 166 203 233 274
#
# _framework density 26.721734000000001
#
# number of rings (size 3 to 8) (size 9 to 14) (size 15 to 20)
#    0.545    2.000    1.818    1.091    1.273    2.545 
#    0.000    0.000    0.000    0.000    0.000    0.000 
#    0.000    8.727    0.000    0.000    0.000    0.000 
#
# Total GULP energy -122589.035127 kJ/mol
# GULP energy per Si atom -5572.228869 kJ/mol
# Density = 2.666091 g / cm^3
# Si number density = 26.721734 Si / 1000 Ang^3
#
#
#
# Elastic Constant Matrix: (Units=GPa)
#
#
# Indices 1 2 3 4 5 6 
#
# 1 105.3120 7.6244 49.2425 0.0001 21.4669 -0.0002
# 2 7.6244 89.7717 8.3477 0.0003 3.1447 -0.0004
# 3 49.2425 8.3477 131.1254 0.0000 -0.4983 0.0000
# 4 0.0001 0.0003 0.0000 13.3718 0.0000 22.0313
# 5 21.4669 3.1447 -0.4983 0.0000 56.9833 0.0000
# 6 -0.0002 -0.0004 0.0000 22.0313 0.0000 32.9228
#
#
#
# Elastic Compliance Matrix: (Units=1/GPa)
#
#
# Indices 1 2 3 4 5 6 
#
# 1 0.012744 -0.000470 -0.004774 0.000001 -0.004817 -0.000001
# 2 -0.000470 0.011245 -0.000541 0.000005 -0.000448 -0.000003
# 3 -0.004774 -0.000541 0.009461 -0.000001 0.001911 0.000000
# 4 0.000001 0.000005 -0.000001 -0.729344 -0.000001 0.488063
# 5 -0.004817 -0.000448 0.001911 -0.000001 0.019405 0.000001
# 6 -0.000001 -0.000003 0.000000 0.488063 0.000001 -0.296229
#
#
# Mechanical properties :
#
#
# Convention : Reuss Voigt Hill
#
# Bulk Modulus (GPa) = 45.70419 50.73758 48.22089
# Shear Modulus (GPa) = -5.24189 38.05521 16.40666
#
# Velocity S-wave (km/s) = -1.40211 3.77786 2.48055
# Velocity P-wave (km/s) = 3.81047 6.16913 5.12727
#
# Compressibility (1/GPa) = 0.02187983
#
# Stress axis : x y z
#
# Youngs Moduli (GPa) = 78.46967 88.92607 105.69836
#
# Poissons Ratio (x) = 0.04177 0.50462
# Poissons Ratio (y) = 0.03685 0.05721
# Poissons Ratio (z) = 0.37463 0.04813
#
# Static dielectric constant tensor:
#      x y z
#    x 2.175060 0.000000 -0.055080 
#    y 0.000000 2.010070 0.000000 
#    z -0.055080 0.000000 2.200080 
# 
# From -- ./inp_files/273556.got.cif
#   From: 2010.05.17/outbox.cif.g08.bks.cpg/sg12_137_cif.got.tgz:273556.got - 2010.06.03 13:09:07.
