data_PCOD9178427
_publ_section_title
;
Structure prediction by ZEFSAII (Michael W. Deem and Ramdas Pophale) SiO2 
 PCOD9178427
Probable space group: C 2/M
;
_chemical_formula_sum "Si O2"
_cell_formula_units_Z 40
_cell_length_a 5.201261
_cell_length_b 19.473000
_cell_length_c 21.099870
_cell_angle_alpha 90.000000
_cell_angle_beta 93.637426
_cell_angle_gamma 90.000000
_cell_volume 2132.777361
_symmetry_space_group_name_H-M "C 2/M"
_symmetry_group_IT_number 12
_symmetry_cell_setting 'monoclinic'
loop_
_space_group_symop_operation_xyz
x,y,z
-x,y,-z
-x,-y,-z
x,-y,z
1/2+x,1/2+y,z
1/2-x,1/2+y,-z
1/2-x,1/2-y,-z
1/2+x,1/2-y,z
loop_
_atom_site_type_symbol
_atom_site_label
_atom_site_fract_x
_atom_site_fract_y
_atom_site_fract_z
Si Si1 0.702300 0.779308 0.929107
Si Si2 0.447267 0.701804 0.292266
Si Si3 0.456333 0.577372 0.195395
Si Si4 0.563913 0.924077 0.889658
Si Si5 0.080437 0.204597 0.565923
O O1 0.461851 0.738723 0.896261
O O2 0.639451 0.859006 0.932477
O O3 0.750000 0.750000 0.000000
O O4 0.202964 0.752936 0.284252
O O5 0.430543 0.638390 0.244524
O O6 0.450826 0.673520 0.364870
O O7 0.428824 0.500000 0.222230
O O8 0.732794 0.580103 0.165082
O O9 0.225869 0.583678 0.140440
O O10 0.592909 0.000000 0.919079
O O11 0.871320 0.267241 0.564315
O O12 0.000000 0.165892 0.500000
#
# Coordination Sequence:
#
# PCOD9178427 Si02
#       5
#     8   8   8   8   8
#     4  10  21  37  55  79 104 127 159 202 246 284
#     4  10  19  30  48  75 100 128 169 210 248 291
#     4  10  21  35  51  74 104 135 164 201 249 296
#     4  10  21  37  55  74 100 135 167 194 240 304
#     4   8  14  25  41  63  93 126 161 203 246 287
#
# _framework density 18.754887
#
# number of rings (size 3 to 8) (size 9 to 14) (size 15 to 20)
#    0.000    2.400    0.000    2.400    0.000    4.800 
#    0.000    4.000    0.000    0.600    0.000    0.000 
#    0.000   20.800    0.000    0.000    0.000    3.200 
#
# Total GULP energy -111474.207610 kJ/mol
# GULP energy per Si atom -5573.710381 kJ/mol
# Density = 1.871220 g / cm^3
# Si number density = 18.754887 Si / 1000 Ang^3
#
#
#
# Elastic Constant Matrix: (Units=GPa)
#
#
# Indices 1 2 3 4 5 6 
#
# 1 108.1673 2.8480 -5.3458 0.0000 -1.0906 0.0000
# 2 2.8480 119.9717 50.1327 0.0000 12.1860 0.0000
# 3 -5.3458 50.1327 53.8109 0.0000 0.3269 0.0000
# 4 0.0000 0.0000 0.0000 -0.9633 0.0000 -1.6665
# 5 -1.0906 12.1860 0.3269 0.0000 16.8655 0.0000
# 6 0.0000 0.0000 0.0000 -1.6665 0.0000 22.3250
#
#
#
# Elastic Compliance Matrix: (Units=1/GPa)
#
#
# Indices 1 2 3 4 5 6 
#
# 1 0.009395 -0.001241 0.002081 0.000000 0.001464 0.000000
# 2 -0.001241 0.015574 -0.014565 0.000000 -0.011051 0.000000
# 3 0.002081 -0.014565 0.032299 0.000000 0.010033 0.000000
# 4 0.000000 0.000000 0.000000 -0.919396 0.000000 -0.068632
# 5 0.001464 -0.011051 0.010033 0.000000 0.067177 0.000000
# 6 0.000000 0.000000 0.000000 -0.068632 0.000000 0.039670
#
#
# Mechanical properties :
#
#
# Convention : Reuss Voigt Hill
#
# Bulk Modulus (GPa) = 33.53837 41.91329 37.72583
# Shear Modulus (GPa) = -6.96484 23.26644 8.15080
#
# Velocity S-wave (km/s) = -1.92916 3.52597 2.08696
# Velocity P-wave (km/s) = 3.59987 6.24284 5.09569
#
# Compressibility (1/GPa) = 0.02981659
#
# Stress axis : x y z
#
# Youngs Moduli (GPa) = 106.43698 64.21115 30.96067
#
# Poissons Ratio (x) = 0.07971 -0.06443
# Poissons Ratio (y) = 0.13212 0.45095
# Poissons Ratio (z) = -0.22149 0.93525
#
# Static dielectric constant tensor:
#      x y z
#    x 1.730720 0.000000 -0.010310 
#    y 0.000000 1.634280 0.000000 
#    z -0.010310 0.000000 1.651060 
# 
# From -- ./inp_files/297557.got.cif
#   From: 2010.05.17/outbox.cif.g08.bks.cpg/sg12_149_cif.got.tgz:297557.got - 2010.06.03 13:09:07.
