data_PCOD9178916
_publ_section_title
;
Structure prediction by ZEFSAII (Michael W. Deem and Ramdas Pophale) SiO2 
 PCOD9178916
Probable space group: C 2/M
;
_chemical_formula_sum "Si O2"
_cell_formula_units_Z 64
_cell_length_a 20.502481
_cell_length_b 8.393586
_cell_length_c 23.629859
_cell_angle_alpha 90.000000
_cell_angle_beta 56.476112
_cell_angle_gamma 90.000000
_cell_volume 3390.016267
_symmetry_space_group_name_H-M "C 2/M"
_symmetry_group_IT_number 12
_symmetry_cell_setting 'monoclinic'
loop_
_space_group_symop_operation_xyz
x,y,z
-x,y,-z
-x,-y,-z
x,-y,z
1/2+x,1/2+y,z
1/2-x,1/2+y,-z
1/2-x,1/2-y,-z
1/2+x,1/2-y,z
loop_
_atom_site_type_symbol
_atom_site_label
_atom_site_fract_x
_atom_site_fract_y
_atom_site_fract_z
Si Si1 0.565750 0.309417 0.878745
Si Si2 0.004121 0.311140 0.698228
Si Si3 0.182071 0.192127 0.917862
Si Si4 0.250113 0.693061 0.584075
Si Si5 0.878765 0.187962 0.443410
Si Si6 0.649355 0.689832 0.173856
Si Si7 0.132194 0.308181 0.731457
Si Si8 0.391253 0.694845 0.933225
O O1 0.559489 0.500000 0.887484
O O2 0.610836 0.250404 0.912573
O O3 0.615909 0.269198 0.799244
O O4 0.477826 0.250582 0.910220
O O5 0.999489 0.500000 0.704503
O O6 0.044360 0.267379 0.619386
O O7 0.063905 0.257251 0.719797
O O8 0.919489 0.240211 0.751099
O O9 0.264690 0.246956 0.854096
O O10 0.180601 0.000000 0.918659
O O11 0.168393 0.246013 0.989066
O O12 0.243432 0.500000 0.580404
O O13 0.188954 0.772761 0.570065
O O14 0.337232 0.738632 0.522211
O O15 0.215245 0.731464 0.662256
O O16 0.892459 0.000000 0.439049
O O17 0.652026 0.500000 0.170743
O O18 0.627905 0.750294 0.120757
O O19 0.127809 0.500000 0.739000
O O20 0.391471 0.500000 0.931776
#
# Coordination Sequence:
#
# PCOD9178916 Si02
#       8
#     8   8   8   8   8   8   8   8
#     4  10  19  33  53  75  99 131 171 208 245 295
#     4  10  19  31  47  69  99 133 167 203 250 302
#     4  10  21  36  53  73 101 134 165 204 255 304
#     4   8  15  26  39  62  97 133 164 198 247 297
#     4   9  15  24  41  65  95 129 165 204 244 290
#     4  11  21  34  53  76 101 129 167 212 250 295
#     4   9  17  29  46  69  99 132 164 203 248 292
#     4   9  18  34  55  76  97 127 168 209 250 298
#
# _framework density 18.878964
#
# number of rings (size 3 to 8) (size 9 to 14) (size 15 to 20)
#    0.000    2.500    1.250    2.625    0.000    4.500 
#    0.000    1.250    0.000    1.500    0.000    0.875 
#    0.000    7.000    0.000    0.000    0.000    0.000 
#
# Total GULP energy -178351.009281 kJ/mol
# GULP energy per Si atom -5573.469040 kJ/mol
# Density = 1.883599 g / cm^3
# Si number density = 18.878964 Si / 1000 Ang^3
#
#
#
# Elastic Constant Matrix: (Units=GPa)
#
#
# Indices 1 2 3 4 5 6 
#
# 1 31.6076 1.7908 -1.2550 0.0000 -11.8312 -0.0002
# 2 1.7908 4.4473 -3.1271 0.0000 -0.9059 -0.0008
# 3 -1.2550 -3.1271 70.4295 0.0000 -16.8251 -0.0001
# 4 0.0000 0.0000 0.0000 23.7647 0.0000 -2.6800
# 5 -11.8312 -0.9059 -16.8251 0.0000 13.4136 0.0000
# 6 -0.0002 -0.0008 -0.0001 -2.6800 0.0000 13.8875
#
#
#
# Elastic Compliance Matrix: (Units=1/GPa)
#
#
# Indices 1 2 3 4 5 6 
#
# 1 0.062971 0.006260 0.021089 0.000000 0.082417 0.000002
# 2 0.006260 0.249524 0.023610 0.000001 0.051988 0.000015
# 3 0.021089 0.023610 0.029196 0.000000 0.056817 0.000002
# 4 0.000000 0.000001 0.000000 0.043015 0.000001 0.008301
# 5 0.082417 0.051988 0.056817 0.000001 0.222025 0.000005
# 6 0.000002 0.000015 0.000002 0.008301 0.000005 0.073609
#
#
# Mechanical properties :
#
#
# Convention : Reuss Voigt Hill
#
# Bulk Modulus (GPa) = 2.25424 11.25576 6.75500
# Shear Modulus (GPa) = 6.88429 17.48487 12.18458
#
# Velocity S-wave (km/s) = 1.91166 3.04658 2.54324
# Velocity P-wave (km/s) = 2.46358 4.28376 3.49427
#
# Compressibility (1/GPa) = 0.44360807
#
# Stress axis : x y z
#
# Youngs Moduli (GPa) = 15.88042 4.00763 34.25140
#
# Poissons Ratio (x) = -0.02509 -0.72233
# Poissons Ratio (y) = -0.09941 -0.80868
# Poissons Ratio (z) = -0.33490 -0.09462
#
# Static dielectric constant tensor:
#      x y z
#    x 1.638120 0.000000 -0.007780 
#    y 0.000000 1.658860 0.000000 
#    z -0.007780 0.000000 1.693360 
# 
# From -- ./inp_files/345952.got.cif
#   From: 2010.05.17/outbox.cif.g08.bks.cpg/sg12_173_cif.got.tgz:345952.got - 2010.06.03 13:09:07.
