data_PCOD9178239
_publ_section_title
;
Structure prediction by ZEFSAII (Michael W. Deem and Ramdas Pophale) SiO2 
 PCOD9178239
Probable space group: C 2/M
;
_chemical_formula_sum "Si O2"
_cell_formula_units_Z 48
_cell_length_a 22.872890
_cell_length_b 15.298999
_cell_length_c 12.277318
_cell_angle_alpha 90.000000
_cell_angle_beta 40.256931
_cell_angle_gamma 90.000000
_cell_volume 2776.294114
_symmetry_space_group_name_H-M "C 2/M"
_symmetry_group_IT_number 12
_symmetry_cell_setting 'monoclinic'
loop_
_space_group_symop_operation_xyz
x,y,z
-x,y,-z
-x,-y,-z
x,-y,z
1/2+x,1/2+y,z
1/2-x,1/2+y,-z
1/2-x,1/2-y,-z
1/2+x,1/2-y,z
loop_
_atom_site_type_symbol
_atom_site_label
_atom_site_fract_x
_atom_site_fract_y
_atom_site_fract_z
Si Si1 0.570937 0.711867 0.747234
Si Si2 0.715054 0.667962 0.357765
Si Si3 0.600032 0.604112 0.324603
Si Si4 0.649203 0.902421 0.660169
Si Si5 0.206475 0.143701 0.729596
Si Si6 0.594720 0.401718 0.081392
O O1 0.630248 0.684672 0.558241
O O2 0.584427 0.816443 0.746418
O O3 0.619469 0.661255 0.777062
O O4 0.472916 0.672446 0.866462
O O5 0.676371 0.634923 0.299457
O O6 0.786452 0.610309 0.325154
O O7 0.760605 0.761550 0.280031
O O8 0.500000 0.638931 0.500000
O O9 0.595927 0.500000 0.342629
O O10 0.619061 0.621684 0.170756
O O11 0.716427 0.894651 0.459745
O O12 0.608474 0.000000 0.719437
O O13 0.176908 0.094650 0.879774
O O14 0.552151 0.500000 0.144416
#
# Coordination Sequence:
#
# PCOD9178239 Si02
#       6
#     8   8   8   8   8   8
#     4   9  18  31  47  72 100 128 162 196 237 292
#     4   9  17  32  49  69  98 128 162 200 235 284
#     4  10  19  30  47  71  97 128 165 198 235 291
#     4   9  17  31  53  73  95 129 163 199 238 281
#     4   9  19  31  47  73 100 125 158 199 246 290
#     4  11  21  31  48  75 104 129 155 199 249 286
#
# _framework density 17.289234
#
# number of rings (size 3 to 8) (size 9 to 14) (size 15 to 20)
#    0.000    2.500    1.667    3.500    0.000    4.667 
#    0.000    0.000    0.000    9.000    0.000   10.500 
#    0.000    0.000    0.000    0.000    0.000    0.000 
#
# Total GULP energy -133647.943577 kJ/mol
# GULP energy per Si atom -5568.664316 kJ/mol
# Density = 1.724988 g / cm^3
# Si number density = 17.289234 Si / 1000 Ang^3
#
#
#
# Elastic Constant Matrix: (Units=GPa)
#
#
# Indices 1 2 3 4 5 6 
#
# 1 98.6665 20.6774 41.5780 0.0000 20.8519 0.0000
# 2 20.6774 61.2715 18.1931 0.0000 11.0337 0.0000
# 3 41.5780 18.1931 46.1259 0.0000 21.0066 0.0000
# 4 0.0000 0.0000 0.0000 13.3915 0.0000 5.8722
# 5 20.8519 11.0337 21.0066 0.0000 21.5220 0.0000
# 6 0.0000 0.0000 0.0000 5.8722 0.0000 16.1749
#
#
#
# Elastic Compliance Matrix: (Units=1/GPa)
#
#
# Indices 1 2 3 4 5 6 
#
# 1 0.016500 -0.001184 -0.013326 0.000000 -0.002373 0.000000
# 2 -0.001184 0.018789 -0.004463 0.000000 -0.004129 0.000000
# 3 -0.013326 -0.004463 0.051360 0.000000 -0.034932 0.000000
# 4 0.000000 0.000000 0.000000 0.088813 0.000000 -0.032243
# 5 -0.002373 -0.004129 -0.034932 0.000000 0.084975 0.000000
# 6 0.000000 0.000000 0.000000 -0.032243 0.000000 0.073530
#
#
# Mechanical properties :
#
#
# Convention : Reuss Voigt Hill
#
# Bulk Modulus (GPa) = 20.53201 40.77342 30.65272
# Shear Modulus (GPa) = 12.88169 18.59203 15.73686
#
# Velocity S-wave (km/s) = 2.73256 3.28282 3.02024
# Velocity P-wave (km/s) = 4.67517 6.16470 5.47086
#
# Compressibility (1/GPa) = 0.04870444
#
# Stress axis : x y z
#
# Youngs Moduli (GPa) = 60.60535 53.22204 19.47029
#
# Poissons Ratio (x) = 0.06303 0.25945
# Poissons Ratio (y) = 0.07178 0.08689
# Poissons Ratio (z) = 0.80760 0.23752
#
# Static dielectric constant tensor:
#      x y z
#    x 1.575800 0.000000 0.010470 
#    y 0.000000 1.623810 0.000000 
#    z 0.010470 0.000000 1.625790 
# 
# From -- ./inp_files/142713.got.cif
#   From: 2010.05.17/outbox.cif.g08.bks.cpg/sg12_72_cif.got.tgz:142713.got - 2010.06.03 13:09:07.
