data_PCOD9178824
_publ_section_title
;
Structure prediction by ZEFSAII (Michael W. Deem and Ramdas Pophale) SiO2 
 PCOD9178824
Probable space group: C 2/M
;
_chemical_formula_sum "Si O2"
_cell_formula_units_Z 64
_cell_length_a 15.334349
_cell_length_b 18.281956
_cell_length_c 12.972447
_cell_angle_alpha 90.000000
_cell_angle_beta 93.044714
_cell_angle_gamma 90.000000
_cell_volume 3631.586717
_symmetry_space_group_name_H-M "C 2/M"
_symmetry_group_IT_number 12
_symmetry_cell_setting 'monoclinic'
loop_
_space_group_symop_operation_xyz
x,y,z
-x,y,-z
-x,-y,-z
x,-y,z
1/2+x,1/2+y,z
1/2-x,1/2+y,-z
1/2-x,1/2-y,-z
1/2+x,1/2-y,z
loop_
_atom_site_type_symbol
_atom_site_label
_atom_site_fract_x
_atom_site_fract_y
_atom_site_fract_z
Si Si1 0.239833 0.085569 0.899632
Si Si2 0.452429 0.417707 0.660431
Si Si3 0.091672 0.713476 0.806993
Si Si4 0.410465 0.086162 0.049290
Si Si5 0.597993 0.272637 0.227865
Si Si6 0.768033 0.806050 0.296628
Si Si7 0.101068 0.821390 0.001128
Si Si8 0.360749 0.417121 0.432796
O O1 0.235782 0.135260 0.797561
O O2 0.228829 0.000000 0.874350
O O3 0.331458 0.095867 0.964277
O O4 0.164930 0.113894 0.972290
O O5 0.439868 0.500000 0.700745
O O6 0.423887 0.353517 0.733074
O O7 0.398327 0.411461 0.550561
O O8 0.554289 0.409779 0.636080
O O9 0.105903 0.631669 0.848001
O O10 0.158040 0.746281 0.727826
O O11 0.991356 0.726863 0.770042
O O12 0.106316 0.761918 0.910822
O O13 0.419332 0.000000 0.071554
O O14 0.500000 0.112075 0.000000
O O15 0.675809 0.234554 0.293954
O O16 0.624938 0.283139 0.110221
O O17 0.795103 0.853474 0.397089
O O18 0.000000 0.845356 0.000000
O O19 0.326170 0.500000 0.417383
#
# Coordination Sequence:
#
# PCOD9178824 Si02
#       8
#     8   8   8   8   8   8   8   8
#     4  10  20  32  46  71 102 136 174 208 244 293
#     4   9  19  36  57  77 101 130 165 207 261 317
#     4  10  19  34  48  70 103 139 171 204 249 297
#     4  10  19  31  47  64  91 136 180 210 236 278
#     4  11  20  32  52  79 103 132 171 209 253 300
#     4  11  20  31  52  77 104 132 167 211 255 301
#     4   9  19  32  47  69 102 138 166 202 253 300
#     4   9  18  36  57  77 102 131 161 208 266 313
#
# _framework density 17.623149999999999
#
# number of rings (size 3 to 8) (size 9 to 14) (size 15 to 20)
#    0.000    2.125    1.250    4.500    0.000    3.250 
#    0.000    1.250    0.000    0.000    0.000    0.000 
#    0.000    3.000    0.000    0.000    0.000    0.000 
#
# Total GULP energy -178627.811896 kJ/mol
# GULP energy per Si atom -5582.119122 kJ/mol
# Density = 1.758304 g / cm^3
# Si number density = 17.623150 Si / 1000 Ang^3
#
#
#
# Elastic Constant Matrix: (Units=GPa)
#
#
# Indices 1 2 3 4 5 6 
#
# 1 34.5222 13.4037 -1.5826 0.0000 9.6623 0.0000
# 2 13.4037 51.1504 -3.8941 0.0000 4.8608 0.0000
# 3 -1.5826 -3.8941 7.8744 0.0000 3.6400 0.0000
# 4 0.0000 0.0000 0.0000 24.2710 0.0000 8.2435
# 5 9.6623 4.8608 3.6400 0.0000 13.5661 0.0000
# 6 0.0000 0.0000 0.0000 8.2435 0.0000 26.7046
#
#
#
# Elastic Compliance Matrix: (Units=1/GPa)
#
#
# Indices 1 2 3 4 5 6 
#
# 1 0.041497 -0.006198 0.020447 0.000000 -0.032821 0.000000
# 2 -0.006198 0.022908 0.013512 0.000000 -0.007419 0.000000
# 3 0.020447 0.013512 0.167535 0.000000 -0.064357 0.000000
# 4 0.000000 0.000000 0.000000 0.046027 0.000000 -0.014208
# 5 -0.032821 -0.007419 -0.064357 0.000000 0.117016 0.000000
# 6 0.000000 0.000000 0.000000 -0.014208 0.000000 0.041833
#
#
# Mechanical properties :
#
#
# Convention : Reuss Voigt Hill
#
# Bulk Modulus (GPa) = 3.47874 12.15567 7.81720
# Shear Modulus (GPa) = 10.47965 18.61634 14.54799
#
# Velocity S-wave (km/s) = 2.44120 3.25369 2.87628
# Velocity P-wave (km/s) = 3.15026 4.58562 3.93396
#
# Compressibility (1/GPa) = 0.28746077
#
# Stress axis : x y z
#
# Youngs Moduli (GPa) = 24.09809 43.65257 5.96892
#
# Poissons Ratio (x) = 0.27058 -0.12204
# Poissons Ratio (y) = 0.14937 -0.08065
# Poissons Ratio (z) = -0.49273 -0.58985
#
# Static dielectric constant tensor:
#      x y z
#    x 1.609160 0.000000 0.009400 
#    y 0.000000 1.608950 0.000000 
#    z 0.009400 0.000000 1.593880 
# 
# From -- ./inp_files/146155.got.cif
#   From: 2010.05.17/outbox.cif.g08.bks.cpg/sg12_74_cif.got.tgz:146155.got - 2010.06.03 13:09:07.
