data_PCOD9178949
_publ_section_title
;
Structure prediction by ZEFSAII (Michael W. Deem and Ramdas Pophale) SiO2 
 PCOD9178949
Probable space group: C 2/M
;
_chemical_formula_sum "Si O2"
_cell_formula_units_Z 64
_cell_length_a 14.938107
_cell_length_b 7.675264
_cell_length_c 29.932748
_cell_angle_alpha 90.000000
_cell_angle_beta 116.793481
_cell_angle_gamma 90.000000
_cell_volume 3063.447325
_symmetry_space_group_name_H-M "C 2/M"
_symmetry_group_IT_number 12
_symmetry_cell_setting 'monoclinic'
loop_
_space_group_symop_operation_xyz
x,y,z
-x,y,-z
-x,-y,-z
x,-y,z
1/2+x,1/2+y,z
1/2-x,1/2+y,-z
1/2-x,1/2-y,-z
1/2+x,1/2-y,z
loop_
_atom_site_type_symbol
_atom_site_label
_atom_site_fract_x
_atom_site_fract_y
_atom_site_fract_z
Si Si1 0.108859 0.712868 0.225903
Si Si2 0.823375 0.289038 0.578720
Si Si3 0.949467 0.292307 0.883298
Si Si4 0.330546 0.709638 0.246039
Si Si5 0.451253 0.206026 0.690518
Si Si6 0.895752 0.208412 0.496994
Si Si7 0.665589 0.294539 0.945293
Si Si8 0.731737 0.286515 0.864373
O O1 0.103561 0.500000 0.225005
O O2 0.225258 0.761496 0.244473
O O3 0.050504 0.773495 0.168172
O O4 0.070271 0.778334 0.264758
O O5 0.820333 0.500000 0.579667
O O6 0.882230 0.241722 0.546674
O O7 0.708362 0.225575 0.548348
O O8 0.881332 0.223308 0.635445
O O9 0.940016 0.500000 0.878402
O O10 0.052138 0.254388 0.931486
O O11 0.847302 0.231020 0.883469
O O12 0.331604 0.500000 0.246025
O O13 0.431126 0.770841 0.292203
O O14 0.326995 0.769606 0.193422
O O15 0.430444 0.000000 0.688161
O O16 0.000000 0.277053 0.500000
O O17 0.896427 0.000000 0.490433
O O18 0.667336 0.500000 0.940920
O O19 0.690221 0.219368 0.901802
O O20 0.750000 0.250000 0.000000
O O21 0.729636 0.500000 0.864116
#
# Coordination Sequence:
#
# PCOD9178949 Si02
#       8
#     8   8   8   8   8   8   8   8
#     4   8  16  31  52  74  98 129 162 194 236 290
#     4   9  19  33  48  71 103 132 159 196 246 296
#     4   9  17  34  56  74  93 125 165 199 236 288
#     4   9  17  32  53  75  96 127 169 202 231 281
#     4  10  19  31  47  72 106 135 155 190 245 292
#     4   9  18  34  55  74  92 123 170 214 245 281
#     4  11  22  35  50  72  99 127 160 202 249 294
#     4   8  17  34  54  72  96 129 162 197 243 293
#
# _framework density 20.891496
#
# number of rings (size 3 to 8) (size 9 to 14) (size 15 to 20)
#    0.000    2.875    0.000    2.625    0.000    2.250 
#    0.000   10.000    0.000    0.000    0.000    0.000 
#    0.000    0.000    0.000    0.000    0.000    0.000 
#
# Total GULP energy -178532.526505 kJ/mol
# GULP energy per Si atom -5579.141453 kJ/mol
# Density = 2.084395 g / cm^3
# Si number density = 20.891496 Si / 1000 Ang^3
#
#
#
# Elastic Constant Matrix: (Units=GPa)
#
#
# Indices 1 2 3 4 5 6 
#
# 1 93.6425 -0.4967 38.8550 0.0000 16.1365 0.0000
# 2 -0.4967 31.8857 -2.2616 0.0000 -0.2112 0.0000
# 3 38.8550 -2.2616 64.2474 0.0000 25.2761 0.0000
# 4 0.0000 0.0000 0.0000 16.4749 0.0000 5.1720
# 5 16.1365 -0.2112 25.2761 0.0000 19.1505 0.0000
# 6 0.0000 0.0000 0.0000 5.1720 0.0000 15.2337
#
#
#
# Elastic Compliance Matrix: (Units=1/GPa)
#
#
# Indices 1 2 3 4 5 6 
#
# 1 0.014277 -0.000363 -0.008139 0.000000 -0.001292 0.000000
# 2 -0.000363 0.031499 0.002229 0.000000 -0.002288 0.000000
# 3 -0.008139 0.002229 0.037146 0.000000 -0.042146 0.000000
# 4 0.000000 0.000000 0.000000 0.067940 0.000000 -0.023066
# 5 -0.001292 -0.002288 -0.042146 0.000000 0.108908 0.000000
# 6 0.000000 0.000000 0.000000 -0.023066 0.000000 0.073475
#
#
# Mechanical properties :
#
#
# Convention : Reuss Voigt Hill
#
# Bulk Modulus (GPa) = 14.20953 29.10766 21.65859
# Shear Modulus (GPa) = 13.54097 20.41707 16.97902
#
# Velocity S-wave (km/s) = 2.54865 3.12956 2.85392
# Velocity P-wave (km/s) = 3.93411 5.19826 4.60972
#
# Compressibility (1/GPa) = 0.07037532
#
# Stress axis : x y z
#
# Youngs Moduli (GPa) = 70.04503 31.74674 26.92072
#
# Poissons Ratio (x) = 0.01154 0.21910
# Poissons Ratio (y) = 0.02546 -0.06000
# Poissons Ratio (z) = 0.57007 -0.07076
#
# Static dielectric constant tensor:
#      x y z
#    x 1.729470 0.000000 -0.026670 
#    y 0.000000 1.802950 0.000000 
#    z -0.026670 0.000000 1.710020 
# 
# From -- ./inp_files/375054.got.cif
#   From: 2010.05.17/outbox.cif.g08.bks.cpg/sg12_188_cif.got.tgz:375054.got - 2010.06.03 13:09:07.
