data_PCOD9178157
_publ_section_title
;
Structure prediction by ZEFSAII (Michael W. Deem and Ramdas Pophale) SiO2 
 PCOD9178157
Probable space group: C 2/M
;
_chemical_formula_sum "Si O2"
_cell_formula_units_Z 64
_cell_length_a 17.926769
_cell_length_b 20.908059
_cell_length_c 16.803560
_cell_angle_alpha 90.000000
_cell_angle_beta 31.346752
_cell_angle_gamma 90.000000
_cell_volume 3276.429872
_symmetry_space_group_name_H-M "C 2/M"
_symmetry_group_IT_number 12
_symmetry_cell_setting 'monoclinic'
loop_
_space_group_symop_operation_xyz
x,y,z
-x,y,-z
-x,-y,-z
x,-y,z
1/2+x,1/2+y,z
1/2-x,1/2+y,-z
1/2-x,1/2-y,-z
1/2+x,1/2-y,z
loop_
_atom_site_type_symbol
_atom_site_label
_atom_site_fract_x
_atom_site_fract_y
_atom_site_fract_z
Si Si1 0.919843 0.799305 0.412375
Si Si2 0.158241 0.156321 0.772093
Si Si3 0.670981 0.153480 0.534340
Si Si4 0.048211 0.432242 0.864832
Si Si5 0.251389 0.210835 0.108310
Si Si6 0.218679 0.694341 0.733976
Si Si7 0.387589 0.887819 0.872790
Si Si8 0.829129 0.859480 0.055825
O O1 0.812928 0.843785 0.459465
O O2 0.884982 0.726521 0.419362
O O3 0.870528 0.805165 0.549425
O O4 0.086475 0.808366 0.244421
O O5 0.276753 0.135521 0.601051
O O6 0.154247 0.234720 0.776448
O O7 0.193834 0.132413 0.828396
O O8 0.999791 0.135119 0.890383
O O9 0.538558 0.114406 0.689175
O O10 0.127918 0.500000 0.778481
O O11 0.132786 0.365777 0.777045
O O12 0.915920 0.430872 0.924062
O O13 0.000000 0.432025 0.000000
O O14 0.282167 0.187477 0.170294
O O15 0.278525 0.286454 0.086060
O O16 0.348041 0.178939 0.952884
O O17 0.263856 0.900724 0.921088
#
# Coordination Sequence:
#
# PCOD9178157 Si02
#       8
#     8   8   8   8   8   8   8   8
#     4  10  19  30  46  74 109 143 175 212 262 327
#     4   9  20  34  50  79 120 149 166 207 263 340
#     4  10  20  30  47  73 113 145 175 210 265 326
#     4  11  23  40  58  76 102 143 194 242 272 300
#     4  11  20  29  48  77 110 142 179 213 262 332
#     4  10  19  34  53  72 106 147 185 215 265 322
#     4  12  21  33  54  79 103 140 183 227 270 315
#     4  10  20  31  50  77 113 146 176 206 260 333
#
# _framework density 19.533456999999999
#
# number of rings (size 3 to 8) (size 9 to 14) (size 15 to 20)
#    0.000    1.625    3.750    2.250    5.250    0.500 
#    0.000    0.000    0.000    2.250    0.000    3.500 
#    0.000    0.000    0.000    0.000    0.000    0.000 
#
# Total GULP energy -178424.812997 kJ/mol
# GULP energy per Si atom -5575.775406 kJ/mol
# Density = 1.948900 g / cm^3
# Si number density = 19.533457 Si / 1000 Ang^3
#
#
#
# Elastic Constant Matrix: (Units=GPa)
#
#
# Indices 1 2 3 4 5 6 
#
# 1 132.3097 25.7943 48.6551 -0.0052 0.6435 0.0027
# 2 25.7943 14.1795 -0.9591 -0.0078 -1.3867 0.0060
# 3 48.6551 -0.9591 99.1309 -0.0074 8.1125 0.0057
# 4 -0.0052 -0.0078 -0.0074 0.9756 0.0054 -6.8281
# 5 0.6435 -1.3867 8.1125 0.0054 31.5565 -0.0034
# 6 0.0027 0.0060 0.0057 -6.8281 -0.0034 -15.2038
#
#
#
# Elastic Compliance Matrix: (Units=1/GPa)
#
#
# Indices 1 2 3 4 5 6 
#
# 1 0.016745 -0.030992 -0.008559 -0.000076 0.000497 0.000022
# 2 -0.030992 0.128208 0.016282 0.000321 0.002080 -0.000094
# 3 -0.008559 0.016282 0.014682 0.000070 -0.002884 -0.000020
# 4 -0.000076 0.000321 0.000070 0.247395 -0.000056 -0.111106
# 5 0.000497 0.002080 -0.002884 -0.000056 0.032512 0.000018
# 6 0.000022 -0.000094 -0.000020 -0.111106 0.000018 -0.015875
#
#
# Mechanical properties :
#
#
# Convention : Reuss Voigt Hill
#
# Bulk Modulus (GPa) = 8.84207 43.62230 26.23219
# Shear Modulus (GPa) = 9.84436 14.94100 12.39268
#
# Velocity S-wave (km/s) = 2.24737 2.76867 2.52153
# Velocity P-wave (km/s) = 3.35719 5.70975 4.68359
#
# Compressibility (1/GPa) = 0.11309563
#
# Stress axis : x y z
#
# Youngs Moduli (GPa) = 59.71850 7.79984 68.10904
#
# Poissons Ratio (x) = 0.24173 0.58297
# Poissons Ratio (y) = 1.85080 -1.10893
# Poissons Ratio (z) = 0.51115 -0.12699
#
# Static dielectric constant tensor:
#      x y z
#    x 1.745130 0.000000 0.003110 
#    y 0.000000 1.678250 0.000000 
#    z 0.003110 0.000000 1.686550 
# 
# From -- ./inp_files/279379.got.cif
#   From: 2010.05.17/outbox.cif.g08.bks.cpg/sg12_140_cif.got.tgz:279379.got - 2010.06.03 13:09:07.
