data_PCOD9178482
_publ_section_title
;
Structure prediction by ZEFSAII (Michael W. Deem and Ramdas Pophale) SiO2 
 PCOD9178482
Probable space group: C 2/M
;
_chemical_formula_sum "Si O2"
_cell_formula_units_Z 64
_cell_length_a 21.533198
_cell_length_b 14.204954
_cell_length_c 13.677337
_cell_angle_alpha 90.000000
_cell_angle_beta 111.400235
_cell_angle_gamma 90.000000
_cell_volume 3895.156688
_symmetry_space_group_name_H-M "C 2/M"
_symmetry_group_IT_number 12
_symmetry_cell_setting 'monoclinic'
loop_
_space_group_symop_operation_xyz
x,y,z
-x,y,-z
-x,-y,-z
x,-y,z
1/2+x,1/2+y,z
1/2-x,1/2+y,-z
1/2-x,1/2-y,-z
1/2+x,1/2-y,z
loop_
_atom_site_type_symbol
_atom_site_label
_atom_site_fract_x
_atom_site_fract_y
_atom_site_fract_z
Si Si1 0.563214 0.284739 0.238870
Si Si2 0.980402 0.608105 0.878698
Si Si3 0.522541 0.270553 0.624081
Si Si4 0.059318 0.893937 0.920721
Si Si5 0.406644 0.891347 0.219958
Si Si6 0.271997 0.774579 0.123114
Si Si7 0.357797 0.392000 0.227307
Si Si8 0.653880 0.388845 0.157025
O O1 0.570948 0.179628 0.201117
O O2 0.539598 0.286819 0.337509
O O3 0.497577 0.323240 0.144380
O O4 0.624837 0.348390 0.241435
O O5 0.956648 0.500000 0.867245
O O6 0.046104 0.611578 0.848271
O O7 0.000000 0.635411 0.000000
O O8 0.500000 0.269790 0.500000
O O9 0.556080 0.172429 0.678024
O O10 0.579693 0.348942 0.677103
O O11 0.115973 0.890451 0.869958
O O12 0.030926 0.000000 0.903551
O O13 0.094314 0.876664 0.043472
O O14 0.336864 0.841633 0.156828
O O15 0.398262 0.000000 0.244020
O O16 0.296091 0.679585 0.191923
O O17 0.214851 0.829031 0.149362
O O18 0.250000 0.750000 0.000000
O O19 0.343588 0.500000 0.245590
O O20 0.669192 0.500000 0.170871
#
# Coordination Sequence:
#
# PCOD9178482 Si02
#       8
#     8   8   8   8   8   8   8   8
#     4  10  19  30  49  70 103 132 162 213 264 311
#     4   9  17  28  45  68  98 134 168 200 245 304
#     4   9  19  35  56  81 100 125 169 224 275 314
#     4   9  16  28  46  70  98 131 165 201 248 302
#     4   9  19  34  51  75 105 139 175 213 253 301
#     4  11  21  31  49  72 106 145 177 206 234 290
#     4   9  18  33  50  72 103 135 171 210 251 303
#     4  11  21  31  47  73 104 138 173 206 245 301
#
# _framework density 16.430662000000002
#
# number of rings (size 3 to 8) (size 9 to 14) (size 15 to 20)
#    0.000    2.375    1.250    2.625    1.750    2.500 
#    0.000    0.625    0.000    3.000    0.000    1.750 
#    0.000    0.000    0.000    0.000    0.000    0.000 
#
# Total GULP energy -178409.833104 kJ/mol
# GULP energy per Si atom -5575.307284 kJ/mol
# Density = 1.639326 g / cm^3
# Si number density = 16.430662 Si / 1000 Ang^3
#
#
#
# Elastic Constant Matrix: (Units=GPa)
#
#
# Indices 1 2 3 4 5 6 
#
# 1 63.6964 46.6535 36.1004 0.0000 -10.5959 0.0000
# 2 46.6535 119.1967 43.9383 0.0000 -9.1981 0.0000
# 3 36.1004 43.9383 106.3101 0.0000 -13.6244 0.0000
# 4 0.0000 0.0000 0.0000 9.7530 0.0000 -3.2693
# 5 -10.5959 -9.1981 -13.6244 0.0000 10.9927 0.0000
# 6 0.0000 0.0000 0.0000 -3.2693 0.0000 23.7221
#
#
#
# Elastic Compliance Matrix: (Units=1/GPa)
#
#
# Indices 1 2 3 4 5 6 
#
# 1 0.025712 -0.007593 -0.003841 0.000000 0.013670 0.000000
# 2 -0.007593 0.012276 -0.002517 0.000000 -0.000166 0.000000
# 3 -0.003841 -0.002517 0.013085 0.000000 0.010409 0.000000
# 4 0.000000 0.000000 0.000000 0.107499 0.000000 0.014815
# 5 0.013670 -0.000166 0.010409 0.000000 0.116908 0.000000
# 6 0.000000 0.000000 0.000000 0.014815 0.000000 0.044197
#
#
# Mechanical properties :
#
#
# Convention : Reuss Voigt Hill
#
# Bulk Modulus (GPa) = 43.15624 60.28753 51.72189
# Shear Modulus (GPa) = 14.07255 19.72762 16.90009
#
# Velocity S-wave (km/s) = 2.92975 3.46881 3.21061
# Velocity P-wave (km/s) = 6.14551 7.26741 6.72988
#
# Compressibility (1/GPa) = 0.02317162
#
# Stress axis : x y z
#
# Youngs Moduli (GPa) = 38.89293 81.45835 76.42350
#
# Poissons Ratio (x) = 0.61849 0.29355
# Poissons Ratio (y) = 0.29530 0.19234
# Poissons Ratio (z) = 0.14939 0.20501
#
# Static dielectric constant tensor:
#      x y z
#    x 1.561520 0.000000 -0.014550 
#    y 0.000000 1.607100 0.000000 
#    z -0.014550 0.000000 1.518590 
# 
# From -- ./inp_files/167290.got.cif
#   From: 2010.05.17/outbox.cif.g08.bks.cpg/sg12_84_cif.got.tgz:167290.got - 2010.06.03 13:09:07.
