data_PCOD9178544
_publ_section_title
;
Structure prediction by ZEFSAII (Michael W. Deem and Ramdas Pophale) SiO2 
 PCOD9178544
Probable space group: C 2/M
;
_chemical_formula_sum "Si O2"
_cell_formula_units_Z 64
_cell_length_a 19.708472
_cell_length_b 7.487246
_cell_length_c 20.335260
_cell_angle_alpha 90.000000
_cell_angle_beta 82.929797
_cell_angle_gamma 90.000000
_cell_volume 2977.898070
_symmetry_space_group_name_H-M "C 2/M"
_symmetry_group_IT_number 12
_symmetry_cell_setting 'monoclinic'
loop_
_space_group_symop_operation_xyz
x,y,z
-x,y,-z
-x,-y,-z
x,-y,z
1/2+x,1/2+y,z
1/2-x,1/2+y,-z
1/2-x,1/2-y,-z
1/2+x,1/2-y,z
loop_
_atom_site_type_symbol
_atom_site_label
_atom_site_fract_x
_atom_site_fract_y
_atom_site_fract_z
Si Si1 0.438415 0.218136 0.366513
Si Si2 0.575720 0.208237 0.415355
Si Si3 0.441579 0.219726 0.214885
Si Si4 0.829654 0.285983 0.478776
Si Si5 0.707885 0.792683 0.800455
Si Si6 0.079663 0.294350 0.145029
Si Si7 0.847244 0.216407 0.727679
Si Si8 0.718433 0.787316 0.074405
O O1 0.500910 0.280490 0.405455
O O2 0.449556 0.274616 0.290098
O O3 0.365981 0.272641 0.406676
O O4 0.440705 0.000000 0.365132
O O5 0.621731 0.284540 0.468411
O O6 0.619894 0.222309 0.343742
O O7 0.564411 0.000000 0.432915
O O8 0.367517 0.281759 0.199556
O O9 0.504191 0.283879 0.162226
O O10 0.444465 0.000000 0.213296
O O11 0.834621 0.500000 0.478848
O O12 0.750000 0.250000 0.500000
O O13 0.769466 0.720213 0.748362
O O14 0.734917 0.782927 0.871771
O O15 0.701942 0.000000 0.782224
O O16 0.071303 0.500000 0.124985
O O17 0.109972 0.287074 0.215437
O O18 0.141006 0.216041 0.093840
O O19 0.848851 0.000000 0.730154
O O20 0.715185 0.000000 0.084211
O O21 0.750000 0.750000 0.000000
#
# Coordination Sequence:
#
# PCOD9178544 Si02
#       8
#     8   8   8   8   8   8   8   8
#     4   9  17  32  56  77  97 133 182 223 257 305
#     4  10  19  34  54  74  98 134 181 223 259 309
#     4   9  16  30  55  81 102 131 174 223 260 297
#     4  10  22  36  53  76 103 136 175 222 272 320
#     4   9  19  33  52  79 108 136 172 213 259 308
#     4   9  17  33  56  80 104 134 176 217 250 294
#     4  10  19  30  49  78 106 135 168 210 263 316
#     4  10  20  35  57  81 108 142 175 210 252 302
#
# _framework density 21.491668000000001
#
# number of rings (size 3 to 8) (size 9 to 14) (size 15 to 20)
#    0.000    2.500    1.250    1.125    1.750    3.000 
#    0.000    1.875    0.000    5.250    0.000    0.000 
#    0.000    0.000    0.000    0.000    0.000    0.000 
#
# Total GULP energy -178557.724639 kJ/mol
# GULP energy per Si atom -5579.928895 kJ/mol
# Density = 2.144275 g / cm^3
# Si number density = 21.491668 Si / 1000 Ang^3
#
#
#
# Elastic Constant Matrix: (Units=GPa)
#
#
# Indices 1 2 3 4 5 6 
#
# 1 196.6010 -1.2945 47.0374 0.0000 -26.5548 0.0000
# 2 -1.2945 62.2971 -14.0917 0.0000 0.6408 0.0000
# 3 47.0374 -14.0917 68.5318 0.0000 -33.4323 0.0000
# 4 0.0000 0.0000 0.0000 8.2716 0.0000 -2.3799
# 5 -26.5548 0.6408 -33.4323 0.0000 32.1826 0.0000
# 6 0.0000 0.0000 0.0000 -2.3799 0.0000 15.6856
#
#
#
# Elastic Compliance Matrix: (Units=1/GPa)
#
#
# Indices 1 2 3 4 5 6 
#
# 1 0.006148 -0.000751 -0.003837 0.000000 0.001103 0.000000
# 2 -0.000751 0.017651 0.007443 0.000000 0.006761 0.000000
# 3 -0.003837 0.007443 0.034749 0.000000 0.032785 0.000000
# 4 0.000000 0.000000 0.000000 0.126415 0.000000 0.019181
# 5 0.001103 0.006761 0.032785 0.000000 0.065906 0.000000
# 6 0.000000 0.000000 0.000000 0.019181 0.000000 0.066663
#
#
# Mechanical properties :
#
#
# Convention : Reuss Voigt Hill
#
# Bulk Modulus (GPa) = 15.56208 43.41469 29.48838
# Shear Modulus (GPa) = 15.00417 30.94653 22.97535
#
# Velocity S-wave (km/s) = 2.64510 3.79876 3.27316
# Velocity P-wave (km/s) = 4.07252 6.28374 5.29484
#
# Compressibility (1/GPa) = 0.06425877
#
# Stress axis : x y z
#
# Youngs Moduli (GPa) = 162.64548 56.65511 28.77768
#
# Poissons Ratio (x) = 0.04257 0.11041
# Poissons Ratio (y) = 0.12222 -0.21420
# Poissons Ratio (z) = 0.62401 -0.42171
#
# Static dielectric constant tensor:
#      x y z
#    x 1.811630 0.000000 -0.022570 
#    y 0.000000 1.856180 0.000000 
#    z -0.022570 0.000000 1.733890 
# 
# From -- ./inp_files/314013.got.cif
#   From: 2010.05.17/outbox.cif.g08.bks.cpg/sg12_158_cif.got.tgz:314013.got - 2010.06.03 13:09:07.
