data_PCOD9178295
_publ_section_title
;
Structure prediction by ZEFSAII (Michael W. Deem and Ramdas Pophale) SiO2 
 PCOD9178295
Probable space group: C 2/M
;
_chemical_formula_sum "Si O2"
_cell_formula_units_Z 64
_cell_length_a 23.848129
_cell_length_b 8.390524
_cell_length_c 21.462662
_cell_angle_alpha 90.000000
_cell_angle_beta 60.615140
_cell_angle_gamma 90.000000
_cell_volume 3742.108518
_symmetry_space_group_name_H-M "C 2/M"
_symmetry_group_IT_number 12
_symmetry_cell_setting 'monoclinic'
loop_
_space_group_symop_operation_xyz
x,y,z
-x,y,-z
-x,-y,-z
x,-y,z
1/2+x,1/2+y,z
1/2-x,1/2+y,-z
1/2-x,1/2-y,-z
1/2+x,1/2-y,z
loop_
_atom_site_type_symbol
_atom_site_label
_atom_site_fract_x
_atom_site_fract_y
_atom_site_fract_z
Si Si1 0.288685 0.307023 0.918078
Si Si2 0.440561 0.809106 0.285011
Si Si3 0.240692 0.306294 0.412379
Si Si4 0.935474 0.810112 0.848472
Si Si5 0.054971 0.692581 0.018760
Si Si6 0.827650 0.190114 0.255515
Si Si7 0.145032 0.310630 0.560785
Si Si8 0.815745 0.307925 0.121574
O O1 0.289196 0.500000 0.919252
O O2 0.362431 0.250350 0.878297
O O3 0.248776 0.255706 0.878860
O O4 0.250000 0.250000 0.000000
O O5 0.511302 0.754594 0.227710
O O6 0.389193 0.753812 0.260504
O O7 0.415208 0.747511 0.366346
O O8 0.438742 0.000000 0.286756
O O9 0.245278 0.500000 0.416347
O O10 0.263520 0.266304 0.330330
O O11 0.171979 0.255032 0.478858
O O12 0.295202 0.226389 0.425803
O O13 0.955507 0.761784 0.907361
O O14 0.934733 0.000000 0.844115
O O15 0.054459 0.500000 0.023853
O O16 0.123553 0.743950 0.953449
O O17 0.000000 0.739660 0.000000
O O18 0.823708 0.250793 0.187560
O O19 0.832785 0.000000 0.252033
O O20 0.135831 0.500000 0.560076
O O21 0.816631 0.500000 0.122029
#
# Coordination Sequence:
#
# PCOD9178295 Si02
#       8
#     8   8   8   8   8   8   8   8
#     4  10  21  37  55  72  90 120 159 203 246 283
#     4  10  19  31  48  70  99 133 163 192 233 286
#     4   8  14  25  41  64  95 126 155 190 230 271
#     4  11  22  34  50  72  95 120 157 202 244 280
#     4  10  20  33  50  70  93 125 159 188 229 285
#     4  10  19  30  47  73 103 130 157 195 239 280
#     4   8  14  25  42  64  91 126 162 189 221 275
#     4  10  20  34  50  69  96 127 159 194 237 287
#
# _framework density 17.102657000000001
#
# number of rings (size 3 to 8) (size 9 to 14) (size 15 to 20)
#    0.000    2.375    1.250    1.875    0.000    3.750 
#    0.000    0.000    0.000    0.000    0.000    0.875 
#    0.000    7.000    0.000    0.000    0.000    0.000 
#
# Total GULP energy -178273.845076 kJ/mol
# GULP energy per Si atom -5571.057659 kJ/mol
# Density = 1.706373 g / cm^3
# Si number density = 17.102657 Si / 1000 Ang^3
#
#
#
# Elastic Constant Matrix: (Units=GPa)
#
#
# Indices 1 2 3 4 5 6 
#
# 1 54.2151 10.8014 22.2226 0.0000 -24.7925 0.0000
# 2 10.8014 9.2255 10.7743 0.0003 -4.7494 -0.0007
# 3 22.2226 10.7743 129.9186 0.0001 -32.0564 0.0001
# 4 0.0000 0.0003 0.0001 18.3133 0.0000 -0.1616
# 5 -24.7925 -4.7494 -32.0564 0.0000 19.3915 0.0000
# 6 0.0000 -0.0007 0.0001 -0.1616 0.0000 9.5241
#
#
#
# Elastic Compliance Matrix: (Units=1/GPa)
#
#
# Indices 1 2 3 4 5 6 
#
# 1 0.070342 -0.048144 0.018986 0.000000 0.109528 -0.000003
# 2 -0.048144 0.158719 -0.017773 -0.000002 -0.052061 0.000011
# 3 0.018986 -0.017773 0.018306 0.000000 0.050182 -0.000001
# 4 0.000000 -0.000002 0.000000 0.054613 0.000000 0.000927
# 5 0.109528 -0.052061 0.050182 0.000000 0.261809 -0.000003
# 6 -0.000003 0.000011 -0.000001 0.000927 -0.000003 0.105012
#
#
# Mechanical properties :
#
#
# Convention : Reuss Voigt Hill
#
# Bulk Modulus (GPa) = 6.51452 31.21733 18.86593
# Shear Modulus (GPa) = 6.14377 19.41649 12.78013
#
# Velocity S-wave (km/s) = 1.89739 3.37306 2.73657
# Velocity P-wave (km/s) = 2.93555 5.78469 4.58694
#
# Compressibility (1/GPa) = 0.15350318
#
# Stress axis : x y z
#
# Youngs Moduli (GPa) = 14.21633 6.30042 54.62816
#
# Poissons Ratio (x) = 0.30333 -1.03716
# Poissons Ratio (y) = 0.68443 0.97093
# Poissons Ratio (z) = -0.26991 0.11198
#
# Static dielectric constant tensor:
#      x y z
#    x 1.556940 0.000000 -0.022330 
#    y 0.000000 1.606510 0.000000 
#    z -0.022330 0.000000 1.628570 
# 
# From -- ./inp_files/320056.got.cif
#   From: 2010.05.17/outbox.cif.g08.bks.cpg/sg12_161_cif.got.tgz:320056.got - 2010.06.03 13:09:07.
