data_PCOD9178065
_publ_section_title
;
Structure prediction by ZEFSAII (Michael W. Deem and Ramdas Pophale) SiO2 
 PCOD9178065
Probable space group: C 2/M
;
_chemical_formula_sum "Si O2"
_cell_formula_units_Z 40
_cell_length_a 15.875725
_cell_length_b 7.668147
_cell_length_c 21.198062
_cell_angle_alpha 90.000000
_cell_angle_beta 34.858985
_cell_angle_gamma 90.000000
_cell_volume 1474.962359
_symmetry_space_group_name_H-M "C 2/M"
_symmetry_group_IT_number 12
_symmetry_cell_setting 'monoclinic'
loop_
_space_group_symop_operation_xyz
x,y,z
-x,y,-z
-x,-y,-z
x,-y,z
1/2+x,1/2+y,z
1/2-x,1/2+y,-z
1/2-x,1/2-y,-z
1/2+x,1/2-y,z
loop_
_atom_site_type_symbol
_atom_site_label
_atom_site_fract_x
_atom_site_fract_y
_atom_site_fract_z
Si Si1 0.346162 0.293360 0.663749
Si Si2 0.980154 0.714447 0.269693
Si Si3 0.707420 0.294447 0.869231
Si Si4 0.334512 0.712258 0.523657
Si Si5 0.913303 0.293835 0.926879
O O1 0.364662 0.500000 0.648792
O O2 0.211713 0.265244 0.794214
O O3 0.502461 0.220004 0.594352
O O4 0.330234 0.240162 0.601298
O O5 0.981543 0.500000 0.269556
O O6 0.829235 0.774014 0.396283
O O7 0.134757 0.778197 0.202737
O O8 0.985285 0.771052 0.192951
O O9 0.718018 0.500000 0.858875
O O10 0.592907 0.262073 0.996182
O O11 0.332740 0.500000 0.519398
O O12 0.931280 0.500000 0.917470
O O13 0.750000 0.250000 0.000000
#
# Coordination Sequence:
#
# PCOD9178065 Si02
#       5
#     8   8   8   8   8
#     4   9  17  30  50  70  89 118 152 188 228 269
#     4   8  15  28  47  69  91 117 150 187 224 266
#     4  10  19  30  46  68  95 124 152 186 225 267
#     4   8  15  30  49  68  90 117 152 189 226 271
#     4   9  16  28  47  69  93 121 151 185 227 270
#
# _framework density 27.119335
#
# number of rings (size 3 to 8) (size 9 to 14) (size 15 to 20)
#    0.000    3.200    0.000    3.600    0.000    0.800 
#    0.000    3.000    0.000   19.200    0.000    0.000 
#    0.000    0.000    0.000    0.000    0.000    0.000 
#
# Total GULP energy -111661.857421 kJ/mol
# GULP energy per Si atom -5583.092871 kJ/mol
# Density = 2.705761 g / cm^3
# Si number density = 27.119335 Si / 1000 Ang^3
#
#
#
# Elastic Constant Matrix: (Units=GPa)
#
#
# Indices 1 2 3 4 5 6 
#
# 1 41.3113 -6.5113 -17.6251 -0.0001 4.6493 0.0002
# 2 -6.5113 54.0467 -17.7291 -0.0002 1.9514 0.0007
# 3 -17.6251 -17.7291 168.3217 0.0000 -9.4551 -0.0001
# 4 -0.0001 -0.0002 0.0000 20.5334 0.0000 3.3314
# 5 4.6493 1.9514 -9.4551 0.0000 54.6115 -0.0002
# 6 0.0002 0.0007 -0.0001 3.3314 -0.0002 2.1199
#
#
#
# Elastic Compliance Matrix: (Units=1/GPa)
#
#
# Indices 1 2 3 4 5 6 
#
# 1 0.026417 0.004270 0.003111 0.000001 -0.001863 -0.000005
# 2 0.004270 0.019861 0.002503 0.000002 -0.000640 -0.000009
# 3 0.003111 0.002503 0.006574 0.000000 0.000784 -0.000001
# 4 0.000001 0.000002 0.000000 0.065368 0.000000 -0.102725
# 5 -0.001863 -0.000640 0.000784 0.000000 0.018628 0.000002
# 6 -0.000005 -0.000009 -0.000001 -0.102725 0.000002 0.633152
#
#
# Mechanical properties :
#
#
# Convention : Reuss Voigt Hill
#
# Bulk Modulus (GPa) = 13.76997 19.99433 16.88215
# Shear Modulus (GPa) = 6.45629 35.82263 21.13946
#
# Velocity S-wave (km/s) = 1.54462 3.63840 2.79498
# Velocity P-wave (km/s) = 2.87571 5.00393 4.08099
#
# Compressibility (1/GPa) = 0.07262181
#
# Stress axis : x y z
#
# Youngs Moduli (GPa) = 37.85500 50.34944 152.10339
#
# Poissons Ratio (x) = -0.21501 -0.47323
# Poissons Ratio (y) = -0.16165 -0.38074
# Poissons Ratio (z) = -0.11778 -0.12603
#
# Static dielectric constant tensor:
#      x y z
#    x 2.348740 0.000000 0.022880 
#    y 0.000000 1.970370 0.000000 
#    z 0.022880 0.000000 2.142110 
# 
# From -- ./inp_files/152758.got.cif
#   From: 2010.05.17/outbox.cif.g08.bks.cpg/sg12_77_cif.got.tgz:152758.got - 2010.06.03 13:09:07.
