data_PCOD9178170
_publ_section_title
;
Structure prediction by ZEFSAII (Michael W. Deem and Ramdas Pophale) SiO2 
 PCOD9178170
Probable space group: C 2/M
;
_chemical_formula_sum "Si O2"
_cell_formula_units_Z 56
_cell_length_a 21.017160
_cell_length_b 8.161086
_cell_length_c 34.391404
_cell_angle_alpha 90.000000
_cell_angle_beta 34.477931
_cell_angle_gamma 90.000000
_cell_volume 3339.307578
_symmetry_space_group_name_H-M "C 2/M"
_symmetry_group_IT_number 12
_symmetry_cell_setting 'monoclinic'
loop_
_space_group_symop_operation_xyz
x,y,z
-x,y,-z
-x,-y,-z
x,-y,z
1/2+x,1/2+y,z
1/2-x,1/2+y,-z
1/2-x,1/2-y,-z
1/2+x,1/2-y,z
loop_
_atom_site_type_symbol
_atom_site_label
_atom_site_fract_x
_atom_site_fract_y
_atom_site_fract_z
Si Si1 0.799966 0.180607 0.337394
Si Si2 0.032906 0.000000 0.419027
Si Si3 0.120202 0.806557 0.823298
Si Si4 0.253590 0.696392 0.953329
Si Si5 0.017840 0.698316 0.035152
Si Si6 0.184346 0.000000 0.421894
Si Si7 0.495933 0.189007 0.809913
Si Si8 0.653760 0.813190 0.331130
O O1 0.758165 0.334846 0.383342
O O2 0.926266 0.207295 0.258242
O O3 0.723767 0.183132 0.336504
O O4 0.786962 0.000000 0.361776
O O5 0.111380 0.000000 0.418449
O O6 0.065622 0.166157 0.379799
O O7 0.905827 0.000000 0.498183
O O8 0.046026 0.715776 0.828050
O O9 0.250977 0.772414 0.748836
O O10 0.076352 0.760254 0.887653
O O11 0.103887 0.000000 0.824731
O O12 0.258234 0.500000 0.949728
O O13 0.365954 0.764359 0.876992
O O14 0.250000 0.750000 0.000000
O O15 0.139186 0.751822 0.990211
O O16 0.015506 0.500000 0.037052
O O17 0.000000 0.752817 0.000000
O O18 0.510823 0.000000 0.792044
O O19 0.611265 0.000000 0.346460
#
# Coordination Sequence:
#
# PCOD9178170 Si02
#       8
#     8   4   8   8   8   4   8   8
#     4   9  16  27  40  59  87 120 157 198 241 290
#     4   9  16  24  40  56  85 122 156 196 237 285
#     4  10  19  30  47  68  90 121 162 208 249 295
#     4  11  21  33  49  72  97 124 164 215 254 293
#     4  10  22  37  51  69  96 132 169 203 256 310
#     4   9  16  26  36  60  86 120 161 190 236 299
#     4  11  19  29  47  68  92 121 162 211 248 291
#     4   8  16  26  38  60  84 113 159 200 237 282
#
# _framework density 16.769943000000001
#
# number of rings (size 3 to 8) (size 9 to 14) (size 15 to 20)
#    0.000    2.286    2.143    3.000    4.000    1.429 
#    0.000    2.857    0.000    0.000    0.000    0.000 
#    0.000    0.000    0.000    1.286    4.571    1.143 
#
# Total GULP energy -156098.905794 kJ/mol
# GULP energy per Si atom -5574.960921 kJ/mol
# Density = 1.673177 g / cm^3
# Si number density = 16.769943 Si / 1000 Ang^3
#
#
#
# Elastic Constant Matrix: (Units=GPa)
#
#
# Indices 1 2 3 4 5 6 
#
# 1 43.4502 17.9053 27.5999 0.0023 2.4114 0.0251
# 2 17.9053 101.5810 68.4192 -0.0134 -1.8049 -0.0027
# 3 27.5999 68.4192 134.9441 0.0049 -2.8158 0.0057
# 4 0.0023 -0.0134 0.0049 27.1144 -0.0008 -2.3066
# 5 2.4114 -1.8049 -2.8158 -0.0008 8.1994 0.0020
# 6 0.0251 -0.0027 0.0057 -2.3066 0.0020 9.2095
#
#
#
# Elastic Compliance Matrix: (Units=1/GPa)
#
#
# Indices 1 2 3 4 5 6 
#
# 1 0.027425 -0.001661 -0.004979 -0.000009 -0.010141 -0.000072
# 2 -0.001661 0.015054 -0.007266 0.000010 0.001307 0.000016
# 3 -0.004979 -0.007266 0.012197 -0.000005 0.004054 0.000002
# 4 -0.000009 0.000010 -0.000005 0.037684 0.000005 0.009438
# 5 -0.010141 0.001307 0.004054 0.000005 0.126622 -0.000001
# 6 -0.000072 0.000016 0.000002 0.009438 -0.000001 0.110948
#
#
# Mechanical properties :
#
#
# Convention : Reuss Voigt Hill
#
# Bulk Modulus (GPa) = 37.22263 56.42492 46.82378
# Shear Modulus (GPa) = 13.63533 19.97472 16.80503
#
# Velocity S-wave (km/s) = 2.85455 3.45498 3.16902
# Velocity P-wave (km/s) = 5.75403 7.04524 6.43211
#
# Compressibility (1/GPa) = 0.02686537
#
# Stress axis : x y z
#
# Youngs Moduli (GPa) = 36.46368 66.42683 81.98604
#
# Poissons Ratio (x) = 0.11033 0.40817
# Poissons Ratio (y) = 0.06056 0.59569
# Poissons Ratio (z) = 0.18154 0.48264
#
# Static dielectric constant tensor:
#      x y z
#    x 1.525240 0.000000 0.001240 
#    y 0.000000 1.600560 -0.000010 
#    z 0.001240 -0.000010 1.535070 
# 
# From -- ./inp_files/377694.got.cif
#   From: 2010.05.17/outbox.cif.g08.bks.cpg/sg12_189_cif.got.tgz:377694.got - 2010.06.03 13:09:07.
