data_PCOD9178871
_publ_section_title
;
Structure prediction by ZEFSAII (Michael W. Deem and Ramdas Pophale) SiO2 
 PCOD9178871
Probable space group: C 2/M
;
_chemical_formula_sum "Si O2"
_cell_formula_units_Z 56
_cell_length_a 15.404737
_cell_length_b 9.145550
_cell_length_c 18.374491
_cell_angle_alpha 90.000000
_cell_angle_beta 84.586338
_cell_angle_gamma 90.000000
_cell_volume 2577.139507
_symmetry_space_group_name_H-M "C 2/M"
_symmetry_group_IT_number 12
_symmetry_cell_setting 'monoclinic'
loop_
_space_group_symop_operation_xyz
x,y,z
-x,y,-z
-x,-y,-z
x,-y,z
1/2+x,1/2+y,z
1/2-x,1/2+y,-z
1/2-x,1/2-y,-z
1/2+x,1/2-y,z
loop_
_atom_site_type_symbol
_atom_site_label
_atom_site_fract_x
_atom_site_fract_y
_atom_site_fract_z
Si Si1 0.930286 0.666151 0.683132
Si Si2 0.684518 0.826582 0.607160
Si Si3 0.364424 0.822217 0.543157
Si Si4 0.030065 0.670576 0.165467
Si Si5 0.226183 0.834028 0.743830
Si Si6 0.901156 0.168102 0.974722
Si Si7 0.665196 0.167925 0.884942
O O1 0.965802 0.500000 0.676480
O O2 0.932081 0.723942 0.600614
O O3 0.970017 0.734269 0.752819
O O4 0.826791 0.662387 0.710024
O O5 0.621037 0.797898 0.543650
O O6 0.776862 0.764438 0.571111
O O7 0.671721 0.747494 0.684973
O O8 0.689079 0.000000 0.618638
O O9 0.351773 0.000000 0.552056
O O10 0.058613 0.500000 0.167148
O O11 0.932965 0.671278 0.140701
O O12 0.090672 0.756090 0.104162
O O13 0.220750 0.752159 0.820601
O O14 0.195454 0.000000 0.754410
O O15 0.842045 0.254409 0.036778
O O16 0.874809 0.000000 0.971188
O O17 0.000000 0.171267 0.000000
O O18 0.691723 0.000000 0.889986
#
# Coordination Sequence:
#
# PCOD9178871 Si02
#       7
#     8   8   8   8   8   8   8
#     4   8  15  29  48  69  92 119 150 185 227 269
#     4   9  15  24  41  65  91 118 152 190 224 262
#     4   8  14  25  42  64  90 120 152 186 224 266
#     4   9  17  31  51  71  91 116 149 189 227 265
#     4  10  19  31  47  67  94 124 152 185 227 272
#     4   9  17  30  48  69  92 118 150 185 221 266
#     4  10  19  31  49  71  92 116 150 189 227 267
#
# _framework density 21.729517999999999
#
# number of rings (size 3 to 8) (size 9 to 14) (size 15 to 20)
#    0.000    3.000    0.000    2.571    0.000    2.857 
#    0.000    4.286    0.000    0.857    0.000    6.000 
#    0.000    0.000    0.000    0.000    0.000    0.000 
#
# Total GULP energy -156153.874632 kJ/mol
# GULP energy per Si atom -5576.924094 kJ/mol
# Density = 2.168006 g / cm^3
# Si number density = 21.729518 Si / 1000 Ang^3
#
#
#
# Elastic Constant Matrix: (Units=GPa)
#
#
# Indices 1 2 3 4 5 6 
#
# 1 33.9215 40.9950 94.9258 0.0000 -10.6340 0.0000
# 2 40.9950 84.9262 10.0748 0.0000 2.0734 0.0000
# 3 94.9258 10.0748 16.4675 0.0000 44.4422 0.0000
# 4 0.0000 0.0000 0.0000 32.4517 0.0000 -5.4175
# 5 -10.6340 2.0734 44.4422 0.0000 27.6612 0.0000
# 6 0.0000 0.0000 0.0000 -5.4175 0.0000 0.3626
#
#
#
# Elastic Compliance Matrix: (Units=1/GPa)
#
#
# Indices 1 2 3 4 5 6 
#
# 1 0.004501 -0.002920 0.008819 0.000000 -0.012219 0.000000
# 2 -0.002920 0.013577 -0.004288 0.000000 0.004749 0.000000
# 3 0.008819 -0.004288 -0.000749 0.000000 0.004915 0.000000
# 4 0.000000 0.000000 0.000000 -0.020619 0.000000 -0.308102
# 5 -0.012219 0.004749 0.004915 0.000000 0.023202 0.000000
# 6 0.000000 0.000000 0.000000 -0.308102 0.000000 -1.845594
#
#
# Mechanical properties :
#
#
# Convention : Reuss Voigt Hill
#
# Bulk Modulus (GPa) = 48.66265 47.47850 48.07057
# Shear Modulus (GPa) = -2.74416 11.38305 4.31945
#
# Velocity S-wave (km/s) = -1.12499 2.29126 1.41143
# Velocity P-wave (km/s) = 4.55586 5.37560 4.98262
#
# Compressibility (1/GPa) = 0.02054964
#
# Stress axis : x y z
#
# Youngs Moduli (GPa) = 222.17763 73.65162 -1335.31201
#
# Poissons Ratio (x) = 0.21510 11.77552
# Poissons Ratio (y) = 0.64886 -5.72579
# Poissons Ratio (z) = -1.95929 0.31582
#
# Static dielectric constant tensor:
#      x y z
#    x 1.858040 0.000000 0.032480 
#    y 0.000000 1.733540 0.000000 
#    z 0.032480 0.000000 1.823830 
# 
# From -- ./inp_files/280299.got.cif
#   From: 2010.05.17/outbox.cif.g08.bks.cpg/sg12_141_cif.got.tgz:280299.got - 2010.06.03 13:09:07.
