data_PCOD9178357
_publ_section_title
;
Structure prediction by ZEFSAII (Michael W. Deem and Ramdas Pophale) SiO2 
 PCOD9178357
Probable space group: C 2/M
;
_chemical_formula_sum "Si O2"
_cell_formula_units_Z 48
_cell_length_a 20.934264
_cell_length_b 8.794210
_cell_length_c 32.233311
_cell_angle_alpha 90.000000
_cell_angle_beta 28.840454
_cell_angle_gamma 90.000000
_cell_volume 2862.475548
_symmetry_space_group_name_H-M "C 2/M"
_symmetry_group_IT_number 12
_symmetry_cell_setting 'monoclinic'
loop_
_space_group_symop_operation_xyz
x,y,z
-x,y,-z
-x,-y,-z
x,-y,z
1/2+x,1/2+y,z
1/2-x,1/2+y,-z
1/2-x,1/2-y,-z
1/2+x,1/2-y,z
loop_
_atom_site_type_symbol
_atom_site_label
_atom_site_fract_x
_atom_site_fract_y
_atom_site_fract_z
Si Si1 0.815746 0.181147 0.579529
Si Si2 0.259510 0.817939 0.948454
Si Si3 0.681824 0.681173 0.782946
Si Si4 0.510895 0.181916 0.041847
Si Si5 0.941612 0.681384 0.591856
Si Si6 0.559048 0.182655 0.768610
O O1 0.877141 0.236000 0.588584
O O2 0.661243 0.221255 0.673435
O O3 0.907664 0.260461 0.492826
O O4 0.828853 0.000000 0.568157
O O5 0.406104 0.780585 0.848034
O O6 0.246882 0.000000 0.957911
O O7 0.250000 0.750000 0.000000
O O8 0.142162 0.751237 0.987741
O O9 0.665670 0.500000 0.795155
O O10 0.613283 0.759852 0.860777
O O11 0.838115 0.714508 0.687484
O O12 0.607631 0.737799 0.783338
O O13 0.517358 0.000000 0.041050
O O14 0.500000 0.226146 0.000000
O O15 0.940870 0.500000 0.585325
O O16 0.569372 0.000000 0.769332
#
# Coordination Sequence:
#
# PCOD9178357 Si02
#       6
#     8   8   8   8   8   8
#     4   9  15  24  39  62  92 128 161 192 238 291
#     4  11  21  34  54  78 103 134 171 210 253 302
#     4  10  19  30  48  71  96 130 168 206 251 301
#     4  11  24  39  53  72 101 135 172 215 259 303
#     4   9  16  25  38  62  94 125 158 198 244 291
#     4   9  18  30  46  70 101 131 163 203 246 297
#
# _framework density 16.768702999999999
#
# number of rings (size 3 to 8) (size 9 to 14) (size 15 to 20)
#    0.000    2.167    1.667    3.500    0.000    4.667 
#    0.000    0.000    0.000    0.000    0.000    1.167 
#    0.000    0.000    0.000    0.000    0.000    0.000 
#
# Total GULP energy -133740.454164 kJ/mol
# GULP energy per Si atom -5572.518924 kJ/mol
# Density = 1.673054 g / cm^3
# Si number density = 16.768703 Si / 1000 Ang^3
#
#
#
# Elastic Constant Matrix: (Units=GPa)
#
#
# Indices 1 2 3 4 5 6 
#
# 1 66.1099 29.3331 59.8457 -0.0004 1.4092 0.0041
# 2 29.3331 47.1943 52.4135 -0.0007 -1.3094 0.0054
# 3 59.8457 52.4135 188.1543 0.0001 -11.4792 -0.0010
# 4 -0.0004 -0.0007 0.0001 30.2334 -0.0001 -2.6719
# 5 1.4092 -1.3094 -11.4792 -0.0001 14.5551 -0.0002
# 6 0.0041 0.0054 -0.0010 -2.6719 -0.0002 20.4677
#
#
#
# Elastic Compliance Matrix: (Units=1/GPa)
#
#
# Indices 1 2 3 4 5 6 
#
# 1 0.024513 -0.009076 -0.005739 0.000000 -0.007716 -0.000003
# 2 -0.009076 0.034285 -0.006747 0.000000 -0.001358 -0.000008
# 3 -0.005739 -0.006747 0.009472 0.000000 0.007419 0.000003
# 4 0.000000 0.000000 0.000000 0.033462 0.000000 0.004368
# 5 -0.007716 -0.001358 0.007419 0.000000 0.075181 0.000003
# 6 -0.000003 -0.000008 0.000003 0.004368 0.000003 0.049428
#
#
# Mechanical properties :
#
#
# Convention : Reuss Voigt Hill
#
# Bulk Modulus (GPa) = 39.76666 64.96034 52.36350
# Shear Modulus (GPa) = 17.99543 23.70898 20.85220
#
# Velocity S-wave (km/s) = 3.27946 3.76424 3.53018
# Velocity P-wave (km/s) = 6.17301 7.59709 6.92177
#
# Compressibility (1/GPa) = 0.02514669
#
# Stress axis : x y z
#
# Youngs Moduli (GPa) = 40.79401 29.16701 105.56987
#
# Poissons Ratio (x) = 0.26472 0.60591
# Poissons Ratio (y) = 0.37025 0.71226
# Poissons Ratio (z) = 0.23413 0.19678
#
# Static dielectric constant tensor:
#      x y z
#    x 1.514850 0.000000 -0.022290 
#    y 0.000000 1.562380 0.000000 
#    z -0.022290 0.000000 1.641310 
# 
# From -- ./inp_files/280544.got.cif
#   From: 2010.05.17/outbox.cif.g08.bks.cpg/sg12_141_cif.got.tgz:280544.got - 2010.06.03 13:09:07.
