data_PCOD9178309
_publ_section_title
;
Structure prediction by ZEFSAII (Michael W. Deem and Ramdas Pophale) SiO2 
 PCOD9178309
Probable space group: C 2/M
;
_chemical_formula_sum "Si O2"
_cell_formula_units_Z 36
_cell_length_a 5.530302
_cell_length_b 27.966146
_cell_length_c 9.867152
_cell_angle_alpha 90.000000
_cell_angle_beta 71.765941
_cell_angle_gamma 90.000000
_cell_volume 1449.436357
_symmetry_space_group_name_H-M "C 2/M"
_symmetry_group_IT_number 12
_symmetry_cell_setting 'monoclinic'
loop_
_space_group_symop_operation_xyz
x,y,z
-x,y,-z
-x,-y,-z
x,-y,z
1/2+x,1/2+y,z
1/2-x,1/2+y,-z
1/2-x,1/2-y,-z
1/2+x,1/2-y,z
loop_
_atom_site_type_symbol
_atom_site_label
_atom_site_fract_x
_atom_site_fract_y
_atom_site_fract_z
Si Si1 0.500000 0.167333 0.500000
Si Si2 0.797574 0.000000 0.407805
Si Si3 0.269485 0.123292 0.195874
Si Si4 0.250732 0.594061 0.237152
Si Si5 0.000000 0.162906 0.500000
Si Si6 0.901318 0.733112 0.162113
O O1 0.619488 0.132718 0.362627
O O2 0.246428 0.192841 0.496180
O O3 0.500000 0.000000 0.500000
O O4 0.816348 0.046456 0.309276
O O5 0.000000 0.000000 0.500000
O O6 0.518732 0.090144 0.169117
O O7 0.116857 0.128413 0.365140
O O8 0.368323 0.176682 0.152781
O O9 0.030304 0.111556 0.142186
O O10 0.621942 0.754834 0.229217
O O11 0.000000 0.753736 0.000000
#
# Coordination Sequence:
#
# PCOD9178309 Si02
#       6
#     4   4   8   8   4   8
#     4   8  14  25  40  61  94 129 174 197 244 283
#     4  12  22  30  48  78 115 148 193 228 260 301
#     4  10  19  34  52  75 108 145 179 214 270 330
#     4  10  19  30  47  73 107 147 180 217 262 310
#     4   8  16  26  44  68  96 133 168 201 240 306
#     4  10  21  38  60  84 106 130 174 238 286 319
#
# _framework density 24.837240000000001
#
# number of rings (size 3 to 8) (size 9 to 14) (size 15 to 20)
#    0.000    2.222    1.111    2.667    6.222    0.000 
#    0.000    1.111    0.000    0.000    0.000    4.667 
#    0.000    0.000    0.000    0.000    0.000    0.000 
#
# Total GULP energy -100362.763529 kJ/mol
# GULP energy per Si atom -5575.709085 kJ/mol
# Density = 2.478071 g / cm^3
# Si number density = 24.837240 Si / 1000 Ang^3
#
#
#
# Elastic Constant Matrix: (Units=GPa)
#
#
# Indices 1 2 3 4 5 6 
#
# 1 364.0729 66.7755 43.7226 0.0000 -23.5104 0.0000
# 2 66.7755 111.2803 14.2481 0.0000 -0.2050 0.0000
# 3 43.7226 14.2481 63.8074 0.0000 3.9414 0.0000
# 4 0.0000 0.0000 0.0000 50.7830 0.0000 -3.9281
# 5 -23.5104 -0.2050 3.9414 0.0000 22.4101 0.0000
# 6 0.0000 0.0000 0.0000 -3.9281 0.0000 36.9433
#
#
#
# Elastic Compliance Matrix: (Units=1/GPa)
#
#
# Indices 1 2 3 4 5 6 
#
# 1 0.003645 -0.001880 -0.002338 0.000000 0.004218 0.000000
# 2 -0.001880 0.010225 -0.000889 0.000000 -0.001722 0.000000
# 3 -0.002338 -0.000889 0.017818 0.000000 -0.005595 0.000000
# 4 0.000000 0.000000 0.000000 0.019855 0.000000 0.002111
# 5 0.004218 -0.001722 -0.005595 0.000000 0.050016 0.000000
# 6 0.000000 0.000000 0.000000 0.002111 0.000000 0.027293
#
#
# Mechanical properties :
#
#
# Convention : Reuss Voigt Hill
#
# Bulk Modulus (GPa) = 46.56678 87.62812 67.09745
# Shear Modulus (GPa) = 34.19429 49.65491 41.92460
#
# Velocity S-wave (km/s) = 3.71446 4.47611 4.11295
# Velocity P-wave (km/s) = 6.09802 7.87855 7.04476
#
# Compressibility (1/GPa) = 0.02147454
#
# Stress axis : x y z
#
# Youngs Moduli (GPa) = 274.37455 97.79961 56.12184
#
# Poissons Ratio (x) = 0.18385 0.13122
# Poissons Ratio (y) = 0.51579 0.04987
# Poissons Ratio (z) = 0.64153 0.08691
#
# Static dielectric constant tensor:
#      x y z
#    x 2.232740 0.000000 0.114120 
#    y 0.000000 1.855120 0.000000 
#    z 0.114120 0.000000 2.081630 
# 
# From -- ./inp_files/115849.got.cif
#   From: 2010.05.17/outbox.cif.g08.bks.cpg/sg12_58_cif.got.tgz:115849.got - 2010.06.03 13:09:07.
