data_PCOD9178882
_publ_section_title
;
Structure prediction by ZEFSAII (Michael W. Deem and Ramdas Pophale) SiO2 
 PCOD9178882
Probable space group: C 2/M
;
_chemical_formula_sum "Si O2"
_cell_formula_units_Z 64
_cell_length_a 22.676749
_cell_length_b 9.453098
_cell_length_c 15.002055
_cell_angle_alpha 90.000000
_cell_angle_beta 65.147673
_cell_angle_gamma 90.000000
_cell_volume 2918.109746
_symmetry_space_group_name_H-M "C 2/M"
_symmetry_group_IT_number 12
_symmetry_cell_setting 'monoclinic'
loop_
_space_group_symop_operation_xyz
x,y,z
-x,y,-z
-x,-y,-z
x,-y,z
1/2+x,1/2+y,z
1/2-x,1/2+y,-z
1/2-x,1/2-y,-z
1/2+x,1/2-y,z
loop_
_atom_site_type_symbol
_atom_site_label
_atom_site_fract_x
_atom_site_fract_y
_atom_site_fract_z
Si Si1 0.456982 0.338905 0.444726
Si Si2 0.313973 0.660061 0.736268
Si Si3 0.476058 0.838240 0.160869
Si Si4 0.615906 0.662387 0.901020
Si Si5 0.792235 0.660405 0.042525
Si Si6 0.273933 0.661904 0.325984
Si Si7 0.934839 0.838892 0.777185
Si Si8 0.134187 0.338195 0.612369
O O1 0.500000 0.285852 0.500000
O O2 0.435838 0.500000 0.478343
O O3 0.506237 0.347704 0.330489
O O4 0.398668 0.240478 0.450017
O O5 0.330249 0.500000 0.695690
O O6 0.253584 0.647609 0.841856
O O7 0.289027 0.760789 0.674258
O O8 0.373481 0.713641 0.758981
O O9 0.444057 0.745840 0.103499
O O10 0.538448 0.761998 0.163259
O O11 0.421024 0.840952 0.274305
O O12 0.488615 0.000000 0.126649
O O13 0.600593 0.500000 0.933060
O O14 0.646878 0.748906 0.962688
O O15 0.671430 0.659088 0.787838
O O16 0.807279 0.500000 0.002316
O O17 0.750000 0.750000 0.000000
O O18 0.261543 0.500000 0.358493
O O19 0.306303 0.750606 0.384657
O O20 0.920215 0.000000 0.817269
O O21 0.151287 0.500000 0.582641
#
# Coordination Sequence:
#
# PCOD9178882 Si02
#       8
#     8   8   8   8   8   8   8   8
#     4   9  17  29  46  68  93 120 150 185 224 265
#     4   9  18  31  47  67  92 121 151 183 221 267
#     4   9  16  26  42  66  92 117 148 187 226 262
#     4   9  16  27  44  66  90 117 149 185 225 266
#     4  10  19  31  47  68  93 120 150 184 223 266
#     4   9  16  26  43  66  90 115 147 188 228 264
#     4   9  17  30  47  67  92 122 152 182 221 268
#     4   9  16  26  42  64  90 118 149 186 225 265
#
# _framework density 21.932008
#
# number of rings (size 3 to 8) (size 9 to 14) (size 15 to 20)
#    0.000    2.875    0.000    1.875    0.000    7.250 
#    0.000    0.000    0.000    1.500    0.000    5.250 
#    0.000    0.000    0.000    0.000    0.000    0.000 
#
# Total GULP energy -178781.896523 kJ/mol
# GULP energy per Si atom -5586.934266 kJ/mol
# Density = 2.188209 g / cm^3
# Si number density = 21.932008 Si / 1000 Ang^3
#
#
#
# Elastic Constant Matrix: (Units=GPa)
#
#
# Indices 1 2 3 4 5 6 
#
# 1 147.4434 112.4792 56.2558 0.0000 64.0600 0.0000
# 2 112.4792 210.4459 60.3211 0.0000 74.9836 -0.0001
# 3 56.2558 60.3211 70.1234 0.0000 22.8231 0.0000
# 4 0.0000 0.0000 0.0000 -5.8351 0.0000 63.4494
# 5 64.0600 74.9836 22.8231 0.0000 73.9686 0.0000
# 6 0.0000 -0.0001 0.0000 63.4494 0.0000 -112.6695
#
#
#
# Elastic Compliance Matrix: (Units=1/GPa)
#
#
# Indices 1 2 3 4 5 6 
#
# 1 0.015424 -0.003568 -0.006819 0.000000 -0.007637 0.000000
# 2 -0.003568 0.009713 -0.003662 0.000000 -0.005627 0.000000
# 3 -0.006819 -0.003662 0.021955 0.000000 0.002843 0.000000
# 4 0.000000 0.000000 0.000000 0.033449 0.000000 0.018837
# 5 -0.007637 -0.005627 0.002843 0.000000 0.024959 0.000000
# 6 0.000000 0.000000 0.000000 0.018837 0.000000 0.001732
#
#
# Mechanical properties :
#
#
# Convention : Reuss Voigt Hill
#
# Bulk Modulus (GPa) = 52.64462 98.45830 75.55146
# Shear Modulus (GPa) = 35.29523 4.35658 19.82591
#
# Velocity S-wave (km/s) = 4.01596 1.41093 3.00987
# Velocity P-wave (km/s) = 6.74979 6.90248 6.82656
#
# Compressibility (1/GPa) = 0.01899529
#
# Stress axis : x y z
#
# Youngs Moduli (GPa) = 64.83461 102.95122 45.54709
#
# Poissons Ratio (x) = 0.36736 0.31057
# Poissons Ratio (y) = 0.23135 0.16678
# Poissons Ratio (z) = 0.44208 0.37697
#
# Static dielectric constant tensor:
#      x y z
#    x 1.789670 0.000000 -0.053150 
#    y 0.000000 1.768270 0.000000 
#    z -0.053150 0.000000 1.837790 
# 
# From -- ./inp_files/287720.got.cif
#   From: 2010.05.17/outbox.cif.g08.bks.cpg/sg12_144_cif.got.tgz:287720.got - 2010.06.03 13:09:07.
