data_PCOD9178502
_publ_section_title
;
Structure prediction by ZEFSAII (Michael W. Deem and Ramdas Pophale) SiO2 
 PCOD9178502
Probable space group: C 2/M
;
_chemical_formula_sum "Si O2"
_cell_formula_units_Z 64
_cell_length_a 23.748427
_cell_length_b 9.163700
_cell_length_c 21.998819
_cell_angle_alpha 90.000000
_cell_angle_beta 129.125767
_cell_angle_gamma 90.000000
_cell_volume 3713.932219
_symmetry_space_group_name_H-M "C 2/M"
_symmetry_group_IT_number 12
_symmetry_cell_setting 'monoclinic'
loop_
_space_group_symop_operation_xyz
x,y,z
-x,y,-z
-x,-y,-z
x,-y,z
1/2+x,1/2+y,z
1/2-x,1/2+y,-z
1/2-x,1/2-y,-z
1/2+x,1/2-y,z
loop_
_atom_site_type_symbol
_atom_site_label
_atom_site_fract_x
_atom_site_fract_y
_atom_site_fract_z
Si Si1 0.568707 0.669688 0.232594
Si Si2 0.996477 0.828912 0.690326
Si Si3 0.176102 0.669196 0.217816
Si Si4 0.079223 0.329175 0.031420
Si Si5 0.858968 0.673216 0.167927
Si Si6 0.184101 0.325515 0.730968
Si Si7 0.899699 0.171847 0.078162
Si Si8 0.036546 0.173396 0.587278
O O1 0.586189 0.500000 0.232297
O O2 0.566690 0.694011 0.303888
O O3 0.623285 0.771621 0.234030
O O4 0.485287 0.692820 0.153820
O O5 0.061724 0.722948 0.753966
O O6 0.984425 0.808752 0.610670
O O7 0.020002 0.000000 0.715083
O O8 0.194242 0.500000 0.240050
O O9 0.131942 0.681205 0.124646
O O10 0.247987 0.763893 0.259166
O O11 0.070729 0.500000 0.008529
O O12 0.108275 0.242795 0.993198
O O13 0.000000 0.275548 0.000000
O O14 0.855494 0.500000 0.156208
O O15 0.809429 0.713427 0.192345
O O16 0.852136 0.754492 0.099005
O O17 0.179547 0.500000 0.724566
O O18 0.110725 0.254944 0.654577
O O19 0.885301 0.000000 0.066749
O O20 0.000000 0.223571 0.500000
O O21 0.051835 0.000000 0.592097
#
# Coordination Sequence:
#
# PCOD9178502 Si02
#       8
#     8   8   8   8   8   8   8   8
#     4   9  17  29  46  70 100 132 166 206 249 294
#     4   8  15  28  47  75 105 131 163 202 245 292
#     4  11  22  34  51  72  98 135 172 211 256 304
#     4  10  20  34  49  70 100 131 169 217 263 304
#     4   9  17  30  49  70  95 129 166 207 253 297
#     4  10  21  36  53  75 104 136 169 207 250 302
#     4  10  19  30  49  74  98 128 167 214 260 301
#     4   9  17  32  57  85 110 135 164 201 245 297
#
# _framework density 17.232409000000001
#
# number of rings (size 3 to 8) (size 9 to 14) (size 15 to 20)
#    0.000    2.500    1.250    2.250    0.000    5.000 
#    0.000    0.625    0.000    0.750    0.000    0.000 
#    0.000    0.000    0.000    0.000    0.000    0.000 
#
# Total GULP energy -178345.408710 kJ/mol
# GULP energy per Si atom -5573.294022 kJ/mol
# Density = 1.719319 g / cm^3
# Si number density = 17.232409 Si / 1000 Ang^3
#
#
#
# Elastic Constant Matrix: (Units=GPa)
#
#
# Indices 1 2 3 4 5 6 
#
# 1 57.0222 34.1193 19.0459 0.0000 -15.2307 0.0000
# 2 34.1193 50.7603 19.4312 0.0000 -8.6645 0.0000
# 3 19.0459 19.4312 39.6194 0.0000 -18.6269 0.0000
# 4 0.0000 0.0000 0.0000 16.7745 0.0000 -4.9021
# 5 -15.2307 -8.6645 -18.6269 0.0000 24.3536 0.0000
# 6 0.0000 0.0000 0.0000 -4.9021 0.0000 25.3359
#
#
#
# Elastic Compliance Matrix: (Units=1/GPa)
#
#
# Indices 1 2 3 4 5 6 
#
# 1 0.033095 -0.020048 0.000469 0.000000 0.013924 0.000000
# 2 -0.020048 0.036407 -0.012528 0.000000 -0.009168 0.000000
# 3 0.000469 -0.012528 0.045598 0.000000 0.030712 0.000000
# 4 0.000000 0.000000 0.000000 0.063187 0.000000 0.012226
# 5 0.013924 -0.009168 0.030712 0.000000 0.069998 0.000000
# 6 0.000000 0.000000 0.000000 0.012226 0.000000 0.041835
#
#
# Mechanical properties :
#
#
# Convention : Reuss Voigt Hill
#
# Bulk Modulus (GPa) = 19.65179 32.51053 26.08116
# Shear Modulus (GPa) = 13.46627 18.27983 15.87305
#
# Velocity S-wave (km/s) = 2.79848 3.26050 3.03828
# Velocity P-wave (km/s) = 4.67661 5.75164 5.24176
#
# Compressibility (1/GPa) = 0.05088596
#
# Stress axis : x y z
#
# Youngs Moduli (GPa) = 30.21569 27.46701 21.93078
#
# Poissons Ratio (x) = 0.55067 -0.01029
# Poissons Ratio (y) = 0.60578 0.27475
# Poissons Ratio (z) = -0.01418 0.34411
#
# Static dielectric constant tensor:
#      x y z
#    x 1.595700 0.000000 -0.023740 
#    y 0.000000 1.576810 0.000000 
#    z -0.023740 0.000000 1.580770 
# 
# From -- ./inp_files/324292.got.cif
#   From: 2010.05.17/outbox.cif.g08.bks.cpg/sg12_163_cif.got.tgz:324292.got - 2010.06.03 13:09:07.
