data_PCOD9178548
_publ_section_title
;
Structure prediction by ZEFSAII (Michael W. Deem and Ramdas Pophale) SiO2 
 PCOD9178548
Probable space group: C 2/M
;
_chemical_formula_sum "Si O2"
_cell_formula_units_Z 64
_cell_length_a 23.940076
_cell_length_b 8.397004
_cell_length_c 23.557933
_cell_angle_alpha 90.000000
_cell_angle_beta 44.968766
_cell_angle_gamma 90.000000
_cell_volume 3346.841847
_symmetry_space_group_name_H-M "C 2/M"
_symmetry_group_IT_number 12
_symmetry_cell_setting 'monoclinic'
loop_
_space_group_symop_operation_xyz
x,y,z
-x,y,-z
-x,-y,-z
x,-y,z
1/2+x,1/2+y,z
1/2-x,1/2+y,-z
1/2-x,1/2-y,-z
1/2+x,1/2-y,z
loop_
_atom_site_type_symbol
_atom_site_label
_atom_site_fract_x
_atom_site_fract_y
_atom_site_fract_z
Si Si1 0.287220 0.693714 0.561002
Si Si2 0.745412 0.310078 0.167743
Si Si3 0.876139 0.823851 0.221054
Si Si4 0.215132 0.817716 0.316097
Si Si5 0.371868 0.690833 0.385019
Si Si6 0.914788 0.179371 0.062126
Si Si7 0.815695 0.690239 0.907948
Si Si8 0.996391 0.690201 0.786648
O O1 0.282929 0.500000 0.565730
O O2 0.318869 0.750360 0.600093
O O3 0.344400 0.738962 0.467837
O O4 0.200269 0.756194 0.604733
O O5 0.736970 0.500000 0.174692
O O6 0.714549 0.248614 0.252204
O O7 0.838164 0.267985 0.094350
O O8 0.703772 0.240713 0.142444
O O9 0.807195 0.693714 0.268267
O O10 0.899723 0.838383 0.139248
O O11 0.950742 0.772549 0.203470
O O12 0.846933 0.000000 0.260464
O O13 0.188418 0.000000 0.330297
O O14 0.378127 0.500000 0.378481
O O15 0.454350 0.765311 0.305397
O O16 0.920083 0.000000 0.032692
O O17 0.000000 0.261095 0.000000
O O18 0.815119 0.500000 0.911621
O O19 0.905704 0.745139 0.854932
O O20 0.750000 0.750000 0.000000
O O21 0.997978 0.500000 0.792474
#
# Coordination Sequence:
#
# PCOD9178548 Si02
#       8
#     8   8   8   8   8   8   8   8
#     4   9  17  30  50  80 119 154 182 220 270 325
#     4  10  21  37  57  82 108 141 184 226 274 332
#     4  10  19  30  49  79 108 139 180 220 267 325
#     4   9  17  32  54  79 113 150 179 216 268 324
#     4  10  19  30  50  82 115 149 188 225 268 326
#     4   9  19  34  52  77 108 141 173 219 278 330
#     4  11  26  45  63  81 104 142 189 238 288 335
#     4  11  23  38  55  76 108 146 183 228 283 335
#
# _framework density 19.122505
#
# number of rings (size 3 to 8) (size 9 to 14) (size 15 to 20)
#    0.000    2.125    1.250    1.875    1.750    3.750 
#    0.000    0.000    0.000    0.750    0.000    5.250 
#    0.000    0.000    0.000    0.000    0.000    0.000 
#
# Total GULP energy -178177.214503 kJ/mol
# GULP energy per Si atom -5568.037953 kJ/mol
# Density = 1.907898 g / cm^3
# Si number density = 19.122505 Si / 1000 Ang^3
#
#
#
# Elastic Constant Matrix: (Units=GPa)
#
#
# Indices 1 2 3 4 5 6 
#
# 1 75.7065 7.6377 24.6751 -0.0005 12.4192 -0.0002
# 2 7.6377 34.6793 10.0930 -0.0010 -0.9182 -0.0028
# 3 24.6751 10.0930 58.4098 0.0002 -2.8474 -0.0014
# 4 -0.0005 -0.0010 0.0002 22.9367 0.0002 -2.6192
# 5 12.4192 -0.9182 -2.8474 0.0002 26.1693 -0.0016
# 6 -0.0002 -0.0028 -0.0014 -2.6192 -0.0016 7.8074
#
#
#
# Elastic Compliance Matrix: (Units=1/GPa)
#
#
# Indices 1 2 3 4 5 6 
#
# 1 0.017313 -0.001891 -0.007430 0.000000 -0.009091 -0.000004
# 2 -0.001891 0.030576 -0.004412 0.000003 0.001490 0.000011
# 3 -0.007430 -0.004412 0.021299 0.000000 0.005689 0.000003
# 4 0.000000 0.000003 0.000000 0.045335 0.000001 0.015209
# 5 -0.009091 0.001490 0.005689 0.000001 0.043198 0.000011
# 6 -0.000004 0.000011 0.000003 0.015209 0.000011 0.133186
#
#
# Mechanical properties :
#
#
# Convention : Reuss Voigt Hill
#
# Bulk Modulus (GPa) = 23.96868 28.17857 26.07362
# Shear Modulus (GPa) = 15.04756 19.80866 17.42811
#
# Velocity S-wave (km/s) = 2.80822 3.22200 3.02220
# Velocity P-wave (km/s) = 4.80378 5.34879 5.08359
#
# Compressibility (1/GPa) = 0.04172112
#
# Stress axis : x y z
#
# Youngs Moduli (GPa) = 57.76112 32.70577 46.95078
#
# Poissons Ratio (x) = 0.06185 0.34885
# Poissons Ratio (y) = 0.10924 0.20714
# Poissons Ratio (z) = 0.42917 0.14429
#
# Static dielectric constant tensor:
#      x y z
#    x 1.660430 0.000000 0.039460 
#    y 0.000000 1.695680 0.000000 
#    z 0.039460 0.000000 1.759150 
# 
# From -- ./inp_files/345985.got.cif
#   From: 2010.05.17/outbox.cif.g08.bks.cpg/sg12_173_cif.got.tgz:345985.got - 2010.06.03 13:09:07.
