data_PCOD9178284
_publ_section_title
;
Structure prediction by ZEFSAII (Michael W. Deem and Ramdas Pophale) SiO2 
 PCOD9178284
Probable space group: C 2/M
;
_chemical_formula_sum "Si O2"
_cell_formula_units_Z 56
_cell_length_a 28.688590
_cell_length_b 10.494338
_cell_length_c 15.480977
_cell_angle_alpha 90.000000
_cell_angle_beta 136.341802
_cell_angle_gamma 90.000000
_cell_volume 3217.621407
_symmetry_space_group_name_H-M "C 2/M"
_symmetry_group_IT_number 12
_symmetry_cell_setting 'monoclinic'
loop_
_space_group_symop_operation_xyz
x,y,z
-x,y,-z
-x,-y,-z
x,-y,z
1/2+x,1/2+y,z
1/2-x,1/2+y,-z
1/2-x,1/2-y,-z
1/2+x,1/2-y,z
loop_
_atom_site_type_symbol
_atom_site_label
_atom_site_fract_x
_atom_site_fract_y
_atom_site_fract_z
Si Si1 0.175518 0.363786 0.924817
Si Si2 0.308981 0.346243 0.607492
Si Si3 0.307542 0.647960 0.808087
Si Si4 0.909687 0.849976 0.097735
Si Si5 0.292591 0.269032 0.197890
Si Si6 0.437230 0.346153 0.663393
Si Si7 0.434485 0.652282 0.463279
O O1 0.141816 0.500000 0.894684
O O2 0.130043 0.243522 0.891071
O O3 0.195857 0.347955 0.852439
O O4 0.242808 0.356029 0.073744
O O5 0.295151 0.500000 0.575663
O O6 0.250000 0.250000 0.500000
O O7 0.320183 0.327238 0.724798
O O8 0.375496 0.310152 0.642077
O O9 0.287667 0.500000 0.789638
O O10 0.248637 0.730962 0.772120
O O11 0.373276 0.665445 0.956534
O O12 0.988272 0.814724 0.202134
O O13 0.903485 0.000000 0.114711
O O14 0.364974 0.322443 0.320567
O O15 0.434781 0.500000 0.656852
O O16 0.430567 0.297767 0.556187
O O17 0.500000 0.702589 0.500000
O O18 0.442943 0.500000 0.480970
#
# Coordination Sequence:
#
# PCOD9178284 Si02
#       7
#     8   8   8   8   8   8   8
#     4  10  20  32  50  76 104 133 166 206 250 299
#     4  10  20  35  54  76 103 133 169 209 249 294
#     4   9  18  32  52  76  99 128 165 207 249 294
#     4   9  18  34  54  76 102 131 166 205 251 301
#     4  10  19  31  49  70 101 136 166 201 250 301
#     4   9  18  32  52  76 101 131 167 209 250 294
#     4  10  19  30  47  72  99 129 168 208 245 291
#
# _framework density 17.404160999999998
#
# number of rings (size 3 to 8) (size 9 to 14) (size 15 to 20)
#    0.000    2.429    0.000    2.571    0.000    5.714 
#    0.000    6.429    0.000    9.429    0.000    5.000 
#    0.000    0.000    0.000    0.000    0.000    0.000 
#
# Total GULP energy -155998.437844 kJ/mol
# GULP energy per Si atom -5571.372780 kJ/mol
# Density = 1.736455 g / cm^3
# Si number density = 17.404161 Si / 1000 Ang^3
#
#
#
# Elastic Constant Matrix: (Units=GPa)
#
#
# Indices 1 2 3 4 5 6 
#
# 1 147.0817 38.3973 65.8017 0.0000 3.5840 0.0000
# 2 38.3973 57.3236 24.1285 0.0000 2.8122 0.0000
# 3 65.8017 24.1285 68.4513 0.0000 12.4867 0.0000
# 4 0.0000 0.0000 0.0000 1.4616 0.0000 6.1549
# 5 3.5840 2.8122 12.4867 0.0000 33.9126 0.0000
# 6 0.0000 0.0000 0.0000 6.1549 0.0000 14.8615
#
#
#
# Elastic Compliance Matrix: (Units=1/GPa)
#
#
# Indices 1 2 3 4 5 6 
#
# 1 0.012969 -0.003933 -0.011675 0.000000 0.003254 0.000000
# 2 -0.003933 0.021710 -0.003880 0.000000 0.000044 0.000000
# 3 -0.011675 -0.003880 0.028854 0.000000 -0.009068 0.000000
# 4 0.000000 0.000000 0.000000 -0.919523 0.000000 0.380823
# 5 0.003254 0.000044 -0.009068 0.000000 0.032479 0.000000
# 6 0.000000 0.000000 0.000000 0.380823 0.000000 -0.090430
#
#
# Mechanical properties :
#
#
# Convention : Reuss Voigt Hill
#
# Bulk Modulus (GPa) = 40.71983 58.83461 49.77722
# Shear Modulus (GPa) = -5.76847 19.68241 6.95697
#
# Velocity S-wave (km/s) = -1.82253 3.36654 2.00149
# Velocity P-wave (km/s) = 4.36103 6.99927 5.83131
#
# Compressibility (1/GPa) = 0.02455806
#
# Stress axis : x y z
#
# Youngs Moduli (GPa) = 77.10436 46.06122 34.65770
#
# Poissons Ratio (x) = 0.18116 0.40462
# Poissons Ratio (y) = 0.30325 0.13447
# Poissons Ratio (z) = 0.90017 0.17872
#
# Static dielectric constant tensor:
#      x y z
#    x 1.592720 0.000000 -0.008910 
#    y 0.000000 1.595810 0.000000 
#    z -0.008910 0.000000 1.588910 
# 
# From -- ./inp_files/245682.got.cif
#   From: 2010.05.17/outbox.cif.g08.bks.cpg/sg12_123_cif.got.tgz:245682.got - 2010.06.03 13:09:07.
