data_PCOD9178048
_publ_section_title
;
Structure prediction by ZEFSAII (Michael W. Deem and Ramdas Pophale) SiO2 
 PCOD9178048
Probable space group: C 2/M
;
_chemical_formula_sum "Si O2"
_cell_formula_units_Z 64
_cell_length_a 19.564370
_cell_length_b 7.625109
_cell_length_c 21.540396
_cell_angle_alpha 90.000000
_cell_angle_beta 85.402662
_cell_angle_gamma 90.000000
_cell_volume 3203.067248
_symmetry_space_group_name_H-M "C 2/M"
_symmetry_group_IT_number 12
_symmetry_cell_setting 'monoclinic'
loop_
_space_group_symop_operation_xyz
x,y,z
-x,y,-z
-x,-y,-z
x,-y,z
1/2+x,1/2+y,z
1/2-x,1/2+y,-z
1/2-x,1/2-y,-z
1/2+x,1/2-y,z
loop_
_atom_site_type_symbol
_atom_site_label
_atom_site_fract_x
_atom_site_fract_y
_atom_site_fract_z
Si Si1 0.078329 0.215094 0.006507
Si Si2 0.148106 0.704468 0.469954
Si Si3 0.532342 0.713983 0.386369
Si Si4 0.879083 0.201575 0.391882
Si Si5 0.872469 0.792110 0.732948
Si Si6 0.756740 0.712816 0.649894
Si Si7 0.785695 0.208084 0.063349
Si Si8 0.352948 0.706744 0.870094
O O1 0.107760 0.275211 0.071500
O O2 0.078924 0.000000 0.006429
O O3 0.135794 0.270531 0.951352
O O4 0.000000 0.269821 0.000000
O O5 0.162538 0.500000 0.479373
O O6 0.073720 0.724777 0.443672
O O7 0.149946 0.795647 0.535990
O O8 0.199892 0.773458 0.413545
O O9 0.533066 0.500000 0.388788
O O10 0.454730 0.779428 0.388788
O O11 0.574253 0.774858 0.322534
O O12 0.820536 0.278300 0.352191
O O13 0.888415 0.000000 0.371577
O O14 0.797975 0.766180 0.707703
O O15 0.875350 0.718165 0.802103
O O16 0.884977 0.000000 0.736241
O O17 0.756621 0.500000 0.647759
O O18 0.729398 0.276685 0.115686
O O19 0.788296 0.000000 0.071644
O O20 0.750000 0.250000 0.000000
O O21 0.368045 0.500000 0.868426
#
# Coordination Sequence:
#
# PCOD9178048 Si02
#       8
#     8   8   8   8   8   8   8   8
#     4   8  14  26  45  71  99 121 145 182 224 260
#     4  10  19  30  46  68  92 118 149 185 229 283
#     4   9  18  32  48  65  88 119 153 189 230 275
#     4  10  19  31  47  67  91 117 148 190 237 279
#     4   9  18  33  50  66  86 119 159 190 223 270
#     4   9  19  33  47  66  91 117 148 190 234 273
#     4   9  16  27  46  71  96 122 152 185 220 259
#     4   9  17  30  49  69  91 122 157 190 222 266
#
# _framework density 19.980848999999999
#
# number of rings (size 3 to 8) (size 9 to 14) (size 15 to 20)
#    0.000    2.875    0.000    2.250    0.000    3.500 
#    0.000    1.250    0.000   13.875    0.000    0.000 
#    0.000    0.000    0.000    0.000    0.000    0.000 
#
# Total GULP energy -178342.054913 kJ/mol
# GULP energy per Si atom -5573.189216 kJ/mol
# Density = 1.993537 g / cm^3
# Si number density = 19.980849 Si / 1000 Ang^3
#
#
#
# Elastic Constant Matrix: (Units=GPa)
#
#
# Indices 1 2 3 4 5 6 
#
# 1 114.4145 -5.3347 13.4054 0.0000 13.2318 0.0000
# 2 -5.3347 39.5028 -4.0891 0.0000 0.6004 0.0000
# 3 13.4054 -4.0891 67.6797 0.0000 9.1623 0.0000
# 4 0.0000 0.0000 0.0000 12.0888 0.0000 -0.4598
# 5 13.2318 0.6004 9.1623 0.0000 11.4004 0.0000
# 6 0.0000 0.0000 0.0000 -0.4598 0.0000 16.7355
#
#
#
# Elastic Compliance Matrix: (Units=1/GPa)
#
#
# Indices 1 2 3 4 5 6 
#
# 1 0.010197 0.001517 -0.000354 0.000000 -0.011631 0.000000
# 2 0.001517 0.025785 0.001885 0.000000 -0.004634 0.000000
# 3 -0.000354 0.001885 0.016738 0.000000 -0.013141 0.000000
# 4 0.000000 0.000000 0.000000 0.082808 0.000000 0.002275
# 5 -0.011631 -0.004634 -0.013141 0.000000 0.112022 0.000000
# 6 0.000000 0.000000 0.000000 0.002275 0.000000 0.059816
#
#
# Mechanical properties :
#
#
# Convention : Reuss Voigt Hill
#
# Bulk Modulus (GPa) = 17.00165 25.50669 21.25417
# Shear Modulus (GPa) = 15.58240 22.55263 19.06751
#
# Velocity S-wave (km/s) = 2.79564 3.36328 3.09251
# Velocity P-wave (km/s) = 4.35296 5.27972 4.83858
#
# Compressibility (1/GPa) = 0.05881782
#
# Stress axis : x y z
#
# Youngs Moduli (GPa) = 98.06350 38.78213 59.74287
#
# Poissons Ratio (x) = -0.05884 0.02112
# Poissons Ratio (y) = -0.14879 -0.11259
# Poissons Ratio (z) = 0.03467 -0.07309
#
# Static dielectric constant tensor:
#      x y z
#    x 1.737840 0.000000 -0.023730 
#    y 0.000000 1.773520 0.000000 
#    z -0.023730 0.000000 1.700590 
# 
# From -- ./inp_files/319101.got.cif
#   From: 2010.05.17/outbox.cif.g08.bks.cpg/sg12_160_cif.got.tgz:319101.got - 2010.06.03 13:09:07.
