data_PCOD9178543
_publ_section_title
;
Structure prediction by ZEFSAII (Michael W. Deem and Ramdas Pophale) SiO2 
 PCOD9178543
Probable space group: C 2/M
;
_chemical_formula_sum "Si O2"
_cell_formula_units_Z 64
_cell_length_a 22.577838
_cell_length_b 9.110522
_cell_length_c 19.966673
_cell_angle_alpha 90.000000
_cell_angle_beta 59.726423
_cell_angle_gamma 90.000000
_cell_volume 3546.974770
_symmetry_space_group_name_H-M "C 2/M"
_symmetry_group_IT_number 12
_symmetry_cell_setting 'monoclinic'
loop_
_space_group_symop_operation_xyz
x,y,z
-x,y,-z
-x,-y,-z
x,-y,z
1/2+x,1/2+y,z
1/2-x,1/2+y,-z
1/2-x,1/2-y,-z
1/2+x,1/2-y,z
loop_
_atom_site_type_symbol
_atom_site_label
_atom_site_fract_x
_atom_site_fract_y
_atom_site_fract_z
Si Si1 0.613925 0.676728 0.973374
Si Si2 0.395692 0.329132 0.171090
Si Si3 0.400776 0.175235 0.883892
Si Si4 0.539571 0.173335 0.738869
Si Si5 0.229574 0.329345 0.274082
Si Si6 0.727126 0.821335 0.126647
Si Si7 0.277087 0.673972 0.586352
Si Si8 0.646777 0.325796 0.591463
O O1 0.610679 0.500000 0.979042
O O2 0.586660 0.716553 0.915106
O O3 0.694356 0.722943 0.930334
O O4 0.580292 0.747133 0.057481
O O5 0.416356 0.500000 0.168710
O O6 0.426035 0.230049 0.211926
O O7 0.312819 0.324815 0.223531
O O8 0.459149 0.201509 0.795301
O O9 0.327891 0.228270 0.896484
O O10 0.397362 0.000000 0.897172
O O11 0.576513 0.257361 0.657689
O O12 0.550709 0.000000 0.725171
O O13 0.210275 0.500000 0.294063
O O14 0.206354 0.277349 0.213903
O O15 0.205568 0.236089 0.350806
O O16 0.727024 0.000000 0.126724
O O17 0.264739 0.500000 0.596101
O O18 0.334136 0.702066 0.496811
O O19 0.208181 0.753457 0.599488
O O20 0.647422 0.500000 0.602833
#
# Coordination Sequence:
#
# PCOD9178543 Si02
#       8
#     8   8   8   8   8   8   8   8
#     4   9  18  33  54  76  95 123 167 211 251 298
#     4   9  18  32  49  71  99 130 163 201 248 298
#     4  10  21  35  50  71 100 133 167 208 253 289
#     4  11  22  33  48  71 101 135 169 204 243 292
#     4   9  16  29  52  76  98 129 164 200 247 294
#     4   8  16  33  54  74  98 128 166 209 248 290
#     4  10  19  30  49  78 105 126 157 201 246 291
#     4  10  20  33  49  71 102 136 163 194 240 294
#
# _framework density 18.043545999999999
#
# number of rings (size 3 to 8) (size 9 to 14) (size 15 to 20)
#    0.000    2.500    1.250    3.000    0.000    3.500 
#    0.000    5.000    0.000    0.750    0.000    5.250 
#    0.000    0.000    0.000    0.000    0.000    0.000 
#
# Total GULP energy -178500.515095 kJ/mol
# GULP energy per Si atom -5578.141097 kJ/mol
# Density = 1.800248 g / cm^3
# Si number density = 18.043546 Si / 1000 Ang^3
#
#
#
# Elastic Constant Matrix: (Units=GPa)
#
#
# Indices 1 2 3 4 5 6 
#
# 1 18.4408 2.9210 0.7716 0.0000 4.6561 -0.0001
# 2 2.9210 36.7736 38.3345 0.0001 0.0531 -0.0002
# 3 0.7716 38.3345 106.3883 0.0000 10.4990 -0.0001
# 4 0.0000 0.0001 0.0000 32.6490 0.0000 2.1681
# 5 4.6561 0.0531 10.4990 0.0000 22.2649 0.0000
# 6 -0.0001 -0.0002 -0.0001 2.1681 0.0000 14.2894
#
#
#
# Elastic Compliance Matrix: (Units=1/GPa)
#
#
# Indices 1 2 3 4 5 6 
#
# 1 0.059122 -0.009138 0.004281 0.000000 -0.014361 0.000000
# 2 -0.009138 0.046245 -0.017593 0.000000 0.010097 0.000001
# 3 0.004281 -0.017593 0.016563 0.000000 -0.008664 0.000000
# 4 0.000000 0.000000 0.000000 0.030941 0.000000 -0.004695
# 5 -0.014361 0.010097 -0.008664 0.000000 0.051978 0.000000
# 6 0.000000 0.000001 0.000000 -0.004695 0.000000 0.070694
#
#
# Mechanical properties :
#
#
# Convention : Reuss Voigt Hill
#
# Bulk Modulus (GPa) = 12.98218 27.29521 20.13869
# Shear Modulus (GPa) = 14.44586 21.81235 18.12911
#
# Velocity S-wave (km/s) = 2.83258 3.48066 3.17321
# Velocity P-wave (km/s) = 4.23185 5.59585 4.96095
#
# Compressibility (1/GPa) = 0.07702868
#
# Stress axis : x y z
#
# Youngs Moduli (GPa) = 16.91417 21.62406 60.37634
#
# Poissons Ratio (x) = 0.19761 -0.25848
# Poissons Ratio (y) = 0.15457 1.06222
# Poissons Ratio (z) = -0.07241 0.38044
#
# Static dielectric constant tensor:
#      x y z
#    x 1.617230 0.000000 -0.011840 
#    y 0.000000 1.608800 0.000000 
#    z -0.011840 0.000000 1.642370 
# 
# From -- ./inp_files/326811.got.cif
#   From: 2010.05.17/outbox.cif.g08.bks.cpg/sg12_164_cif.got.tgz:326811.got - 2010.06.03 13:09:07.
