data_PCOD9178718
_publ_section_title
;
Structure prediction by ZEFSAII (Michael W. Deem and Ramdas Pophale) SiO2 
 PCOD9178718
Probable space group: C 2/M
;
_chemical_formula_sum "Si O2"
_cell_formula_units_Z 52
_cell_length_a 13.664853
_cell_length_b 20.280839
_cell_length_c 12.387602
_cell_angle_alpha 90.000000
_cell_angle_beta 47.373283
_cell_angle_gamma 90.000000
_cell_volume 2525.962613
_symmetry_space_group_name_H-M "C 2/M"
_symmetry_group_IT_number 12
_symmetry_cell_setting 'monoclinic'
loop_
_space_group_symop_operation_xyz
x,y,z
-x,y,-z
-x,-y,-z
x,-y,z
1/2+x,1/2+y,z
1/2-x,1/2+y,-z
1/2-x,1/2-y,-z
1/2+x,1/2-y,z
loop_
_atom_site_type_symbol
_atom_site_label
_atom_site_fract_x
_atom_site_fract_y
_atom_site_fract_z
Si Si1 0.753846 0.077857 0.798255
Si Si2 0.709091 0.078746 0.085854
Si Si3 0.828827 0.214844 0.037741
Si Si4 0.221319 0.837859 0.499208
Si Si5 0.083029 0.422835 0.737711
Si Si6 0.500000 0.647284 0.500000
Si Si7 0.363423 0.736552 0.246560
O O1 0.627103 0.102566 0.823359
O O2 0.888113 0.108000 0.650270
O O3 0.761291 0.000000 0.773777
O O4 0.736781 0.086798 0.937366
O O5 0.796666 0.136703 0.072755
O O6 0.554223 0.099925 0.212811
O O7 0.728809 0.000000 0.098761
O O8 0.797861 0.246475 0.178246
O O9 0.750000 0.250000 0.000000
O O10 0.982675 0.225426 0.892898
O O11 0.284455 0.909174 0.430729
O O12 0.333708 0.792925 0.357240
O O13 0.196245 0.824927 0.642490
O O14 0.090151 0.820671 0.526868
O O15 0.056958 0.500000 0.770708
#
# Coordination Sequence:
#
# PCOD9178718 Si02
#       7
#     8   8   8   8   8   4   8
#     4   9  17  29  50  82 119 152 188 238 290 349
#     4  10  20  36  58  85 115 153 199 242 291 348
#     4  11  24  41  64  87 117 157 199 247 292 355
#     4  10  21  39  58  84 120 155 190 246 292 353
#     4   9  18  33  55  86 118 149 190 240 296 350
#     4  10  19  30  56  82 114 152 197 232 298 350
#     4  10  24  42  58  86 119 151 203 241 296 350
#
# _framework density 20.586210999999999
#
# number of rings (size 3 to 8) (size 9 to 14) (size 15 to 20)
#    0.000    2.154    0.000    2.538    6.462    2.462 
#    0.000    3.077    0.000    1.846    0.000    0.000 
#    0.000    0.000    0.000    0.000    0.000    0.000 
#
# Total GULP energy -144796.538574 kJ/mol
# GULP energy per Si atom -5569.097637 kJ/mol
# Density = 2.053936 g / cm^3
# Si number density = 20.586211 Si / 1000 Ang^3
#
#
#
# Elastic Constant Matrix: (Units=GPa)
#
#
# Indices 1 2 3 4 5 6 
#
# 1 70.6870 13.0292 35.7132 0.0000 -0.4964 0.0000
# 2 13.0292 36.1093 1.6536 0.0000 2.2555 0.0000
# 3 35.7132 1.6536 91.0598 0.0001 9.9735 0.0000
# 4 0.0000 0.0000 0.0001 27.9369 0.0000 -3.7102
# 5 -0.4964 2.2555 9.9735 0.0000 33.6832 0.0000
# 6 0.0000 0.0000 0.0000 -3.7102 0.0000 30.3200
#
#
#
# Elastic Compliance Matrix: (Units=1/GPa)
#
#
# Indices 1 2 3 4 5 6 
#
# 1 0.019371 -0.006823 -0.007808 0.000000 0.003054 0.000000
# 2 -0.006823 0.030222 0.002439 0.000000 -0.002846 0.000000
# 3 -0.007808 0.002439 0.014500 0.000000 -0.004572 0.000000
# 4 0.000000 0.000000 0.000000 0.036386 0.000000 0.004452
# 5 0.003054 -0.002846 -0.004572 0.000000 0.031278 0.000000
# 6 0.000000 0.000000 0.000000 0.004452 0.000000 0.033526
#
#
# Mechanical properties :
#
#
# Convention : Reuss Voigt Hill
#
# Bulk Modulus (GPa) = 25.18292 33.18312 29.18302
# Shear Modulus (GPa) = 24.64240 28.21871 26.43056
#
# Velocity S-wave (km/s) = 3.46357 3.70639 3.58704
# Velocity P-wave (km/s) = 5.31550 5.87116 5.60023
#
# Compressibility (1/GPa) = 0.03970945
#
# Stress axis : x y z
#
# Youngs Moduli (GPa) = 51.62480 33.08893 68.96374
#
# Poissons Ratio (x) = 0.22575 0.53844
# Poissons Ratio (y) = 0.35222 -0.16819
# Poissons Ratio (z) = 0.40307 -0.08070
#
# Static dielectric constant tensor:
#      x y z
#    x 1.786830 0.000000 0.000030 
#    y 0.000000 1.886330 0.000000 
#    z 0.000030 0.000000 1.731540 
# 
# From -- ./inp_files/135832.got.cif
#   From: 2010.05.17/outbox.cif.g08.bks.cpg/sg12_68_cif.got.tgz:135832.got - 2010.06.03 13:09:07.
