data_PCOD9178762
_publ_section_title
;
Structure prediction by ZEFSAII (Michael W. Deem and Ramdas Pophale) SiO2 
 PCOD9178762
Probable space group: C 2/M
;
_chemical_formula_sum "Si O2"
_cell_formula_units_Z 36
_cell_length_a 13.508738
_cell_length_b 12.859021
_cell_length_c 25.126122
_cell_angle_alpha 90.000000
_cell_angle_beta 156.924992
_cell_angle_gamma 90.000000
_cell_volume 1710.657828
_symmetry_space_group_name_H-M "C 2/M"
_symmetry_group_IT_number 12
_symmetry_cell_setting 'monoclinic'
loop_
_space_group_symop_operation_xyz
x,y,z
-x,y,-z
-x,-y,-z
x,-y,z
1/2+x,1/2+y,z
1/2-x,1/2+y,-z
1/2-x,1/2-y,-z
1/2+x,1/2-y,z
loop_
_atom_site_type_symbol
_atom_site_label
_atom_site_fract_x
_atom_site_fract_y
_atom_site_fract_z
Si Si1 0.126783 0.121029 0.776801
Si Si2 0.068260 0.832367 0.199519
Si Si3 0.000000 0.221035 0.000000
Si Si4 0.146868 0.384819 0.905247
Si Si5 0.096879 0.376553 0.491132
O O1 0.360766 0.199825 0.890596
O O2 0.025507 0.130151 0.788195
O O3 0.883708 0.157666 0.622306
O O4 0.195711 0.000000 0.800687
O O5 0.358418 0.863408 0.334902
O O6 0.049979 0.707987 0.186150
O O7 0.863637 0.876847 0.057460
O O8 0.205509 0.148084 0.074965
O O9 0.040677 0.500000 0.851407
O O10 0.130485 0.500000 0.515580
O O11 0.000000 0.331162 0.500000
#
# Coordination Sequence:
#
# PCOD9178762 Si02
#       5
#     8   8   4   8   8
#     4   9  16  28  48  71  92 113 142 184 225 258
#     4   9  17  29  49  70  84 110 150 189 222 257
#     4  10  20  30  42  64  94 126 150 172 210 266
#     4  10  19  31  46  64  89 120 150 181 217 259
#     4   8  13  24  45  70  91 109 136 181 229 262
#
# _framework density 21.044535
#
# number of rings (size 3 to 8) (size 9 to 14) (size 15 to 20)
#    0.000    2.889    0.000    4.000    0.000    0.000 
#    0.000    2.222    0.000   18.000    0.000    0.000 
#    0.000    0.000    0.000    0.000    0.000    0.000 
#
# Total GULP energy -100332.330769 kJ/mol
# GULP energy per Si atom -5574.018376 kJ/mol
# Density = 2.099664 g / cm^3
# Si number density = 21.044535 Si / 1000 Ang^3
#
#
#
# Elastic Constant Matrix: (Units=GPa)
#
#
# Indices 1 2 3 4 5 6 
#
# 1 29.5163 -1.6535 -12.6015 0.0018 -1.1169 -0.0002
# 2 -1.6535 100.5499 -6.6423 -0.0001 5.9528 -0.0005
# 3 -12.6015 -6.6423 62.9708 0.0021 11.1369 -0.0032
# 4 0.0018 -0.0001 0.0021 24.3515 0.0004 3.0548
# 5 -1.1169 5.9528 11.1369 0.0004 16.4411 0.0000
# 6 -0.0002 -0.0005 -0.0032 3.0548 0.0000 7.9708
#
#
#
# Elastic Compliance Matrix: (Units=1/GPa)
#
#
# Indices 1 2 3 4 5 6 
#
# 1 0.037342 0.001368 0.008244 -0.000004 -0.003543 0.000006
# 2 0.001368 0.010430 0.002301 0.000000 -0.005242 0.000002
# 3 0.008244 0.002301 0.020247 -0.000003 -0.013988 0.000010
# 4 -0.000004 0.000000 -0.000003 0.043139 0.000001 -0.016533
# 5 -0.003543 -0.005242 -0.013988 0.000001 0.071956 -0.000007
# 6 0.000006 0.000002 0.000010 -0.016533 -0.000007 0.131793
#
#
# Mechanical properties :
#
#
# Convention : Reuss Voigt Hill
#
# Bulk Modulus (GPa) = 10.88794 16.80471 13.84632
# Shear Modulus (GPa) = 15.54265 24.01497 19.77881
#
# Velocity S-wave (km/s) = 2.72059 3.38176 3.06903
# Velocity P-wave (km/s) = 3.87993 4.82193 4.37635
#
# Compressibility (1/GPa) = 0.09184477
#
# Stress axis : x y z
#
# Youngs Moduli (GPa) = 26.77974 95.87560 49.39084
#
# Poissons Ratio (x) = -0.13119 -0.40716
# Poissons Ratio (y) = -0.03664 -0.11366
# Poissons Ratio (z) = -0.22076 -0.22063
#
# Static dielectric constant tensor:
#      x y z
#    x 1.814890 0.000000 -0.004970 
#    y 0.000000 1.745770 0.000000 
#    z -0.004970 0.000000 1.797930 
# 
# From -- ./inp_files/152308.got.cif
#   From: 2010.05.17/outbox.cif.g08.bks.cpg/sg12_77_cif.got.tgz:152308.got - 2010.06.03 13:09:07.
