data_PCOD9178578
_publ_section_title
;
Structure prediction by ZEFSAII (Michael W. Deem and Ramdas Pophale) SiO2 
 PCOD9178578
Probable space group: C 2/M
;
_chemical_formula_sum "Si O2"
_cell_formula_units_Z 64
_cell_length_a 25.510308
_cell_length_b 7.730461
_cell_length_c 16.294815
_cell_angle_alpha 90.000000
_cell_angle_beta 69.593403
_cell_angle_gamma 90.000000
_cell_volume 3011.772766
_symmetry_space_group_name_H-M "C 2/M"
_symmetry_group_IT_number 12
_symmetry_cell_setting 'monoclinic'
loop_
_space_group_symop_operation_xyz
x,y,z
-x,y,-z
-x,-y,-z
x,-y,z
1/2+x,1/2+y,z
1/2-x,1/2+y,-z
1/2-x,1/2-y,-z
1/2+x,1/2-y,z
loop_
_atom_site_type_symbol
_atom_site_label
_atom_site_fract_x
_atom_site_fract_y
_atom_site_fract_z
Si Si1 0.021521 0.201674 0.188644
Si Si2 0.470865 0.288223 0.638274
Si Si3 0.779780 0.706962 0.249353
Si Si4 0.283880 0.295163 0.063162
Si Si5 0.288604 0.708329 0.556413
Si Si6 0.906890 0.701891 0.190300
Si Si7 0.911649 0.210834 0.003273
Si Si8 0.413285 0.710937 0.504752
O O1 0.041700 0.276123 0.263912
O O2 0.954498 0.213126 0.219326
O O3 0.037317 0.000000 0.180216
O O4 0.049505 0.274860 0.091542
O O5 0.471155 0.500000 0.639490
O O6 0.533372 0.233559 0.577712
O O7 0.428168 0.238215 0.590069
O O8 0.783017 0.500000 0.256098
O O9 0.761903 0.738573 0.164861
O O10 0.739423 0.772124 0.343334
O O11 0.843533 0.773636 0.227644
O O12 0.286689 0.500000 0.065370
O O13 0.347873 0.231938 0.021752
O O14 0.250000 0.250000 0.000000
O O15 0.291673 0.500000 0.560614
O O16 0.250000 0.750000 0.500000
O O17 0.352207 0.772423 0.511954
O O18 0.905234 0.500000 0.212154
O O19 0.926246 0.724060 0.085553
O O20 0.914401 0.000000 0.006030
O O21 0.413247 0.500000 0.502070
#
# Coordination Sequence:
#
# PCOD9178578 Si02
#       8
#     8   8   8   8   8   8   8   8
#     4  10  19  30  50  77 100 126 166 214 258 302
#     4   8  15  28  48  75 101 127 164 211 258 305
#     4   9  20  37  52  73 106 143 181 218 262 317
#     4  10  20  35  56  79 105 139 176 217 265 317
#     4  10  21  35  55  81 108 140 178 223 272 320
#     4  10  20  33  49  69 101 139 170 205 255 310
#     4   9  19  34  49  71 101 132 170 212 256 303
#     4   8  15  30  50  73 102 131 165 210 259 307
#
# _framework density 21.249943999999999
#
# number of rings (size 3 to 8) (size 9 to 14) (size 15 to 20)
#    0.000    2.750    0.000    1.875    1.750    4.500 
#    0.000    3.750    0.000    0.750    0.000    1.750 
#    0.000    0.000    0.000    0.000    0.000    0.000 
#
# Total GULP energy -178532.209744 kJ/mol
# GULP energy per Si atom -5579.131555 kJ/mol
# Density = 2.120158 g / cm^3
# Si number density = 21.249944 Si / 1000 Ang^3
#
#
#
# Elastic Constant Matrix: (Units=GPa)
#
#
# Indices 1 2 3 4 5 6 
#
# 1 102.8314 -4.8276 33.0161 0.0000 9.5466 0.0000
# 2 -4.8276 29.9505 0.3902 0.0000 -5.7068 0.0000
# 3 33.0161 0.3902 51.0298 0.0000 4.3825 0.0000
# 4 0.0000 0.0000 0.0000 10.0763 0.0000 3.9633
# 5 9.5466 -5.7068 4.3825 0.0000 21.3214 0.0000
# 6 0.0000 0.0000 0.0000 3.9633 0.0000 20.4110
#
#
#
# Elastic Compliance Matrix: (Units=1/GPa)
#
#
# Indices 1 2 3 4 5 6 
#
# 1 0.012666 0.001447 -0.007892 0.000000 -0.003662 0.000000
# 2 0.001447 0.035408 -0.002000 0.000000 0.009241 0.000000
# 3 -0.007892 -0.002000 0.024900 0.000000 -0.002120 0.000000
# 4 0.000000 0.000000 0.000000 0.107449 0.000000 -0.020864
# 5 -0.003662 0.009241 -0.002120 0.000000 0.051450 0.000000
# 6 0.000000 0.000000 0.000000 -0.020864 0.000000 0.053044
#
#
# Mechanical properties :
#
#
# Convention : Reuss Voigt Hill
#
# Bulk Modulus (GPa) = 17.83049 26.77434 22.30242
# Shear Modulus (GPa) = 15.60047 20.71060 18.15554
#
# Velocity S-wave (km/s) = 2.71244 3.12528 2.92615
# Velocity P-wave (km/s) = 4.26836 5.06460 4.68343
#
# Compressibility (1/GPa) = 0.05608371
#
# Stress axis : x y z
#
# Youngs Moduli (GPa) = 78.94972 28.24193 40.16133
#
# Poissons Ratio (x) = -0.04086 0.31694
# Poissons Ratio (y) = -0.11421 0.08034
# Poissons Ratio (z) = 0.62304 0.05649
#
# Static dielectric constant tensor:
#      x y z
#    x 1.811760 0.000000 0.026570 
#    y 0.000000 1.785090 0.000000 
#    z 0.026570 0.000000 1.814730 
# 
# From -- ./inp_files/243763.got.cif
#   From: 2010.05.17/outbox.cif.g08.bks.cpg/sg12_122_cif.got.tgz:243763.got - 2010.06.03 13:09:07.
