data_PCOD9178829
_publ_section_title
;
Structure prediction by ZEFSAII (Michael W. Deem and Ramdas Pophale) SiO2 
 PCOD9178829
Probable space group: C 2/M
;
_chemical_formula_sum "Si O2"
_cell_formula_units_Z 56
_cell_length_a 14.128800
_cell_length_b 9.393567
_cell_length_c 22.367151
_cell_angle_alpha 90.000000
_cell_angle_beta 56.257243
_cell_angle_gamma 90.000000
_cell_volume 2468.479614
_symmetry_space_group_name_H-M "C 2/M"
_symmetry_group_IT_number 12
_symmetry_cell_setting 'monoclinic'
loop_
_space_group_symop_operation_xyz
x,y,z
-x,y,-z
-x,-y,-z
x,-y,z
1/2+x,1/2+y,z
1/2-x,1/2+y,-z
1/2-x,1/2-y,-z
1/2+x,1/2-y,z
loop_
_atom_site_type_symbol
_atom_site_label
_atom_site_fract_x
_atom_site_fract_y
_atom_site_fract_z
Si Si1 0.920334 0.660477 0.793899
Si Si2 0.649383 0.329462 0.499295
Si Si3 0.337356 0.163317 0.219666
Si Si4 0.520885 0.340463 0.659543
Si Si5 0.730602 0.164554 0.361865
Si Si6 0.320102 0.341883 0.928645
Si Si7 0.552982 0.660804 0.919342
O O1 0.878808 0.500000 0.804459
O O2 0.837480 0.758387 0.861428
O O3 0.041126 0.658965 0.787425
O O4 0.947249 0.726949 0.720462
O O5 0.670324 0.500000 0.485361
O O6 0.750000 0.250000 0.500000
O O7 0.544021 0.314036 0.581698
O O8 0.650226 0.251551 0.435479
O O9 0.254553 0.251573 0.292280
O O10 0.362055 0.242437 0.148602
O O11 0.301497 0.000000 0.224105
O O12 0.475286 0.500000 0.683637
O O13 0.645412 0.339547 0.648191
O O14 0.695561 0.000000 0.365605
O O15 0.272017 0.500000 0.937738
O O16 0.444764 0.354254 0.913853
O O17 0.250000 0.250000 0.000000
O O18 0.597052 0.500000 0.916271
O O19 0.500000 0.718697 0.000000
#
# Coordination Sequence:
#
# PCOD9178829 Si02
#       7
#     8   8   8   8   8   8   8
#     4   9  16  25  38  55  75 101 135 171 207 250
#     4   9  15  21  29  43  65  94 129 167 205 246
#     4   9  16  25  38  56  77 102 134 172 211 252
#     4   8  14  22  31  45  67  96 129 165 205 246
#     4   9  15  22  32  46  67  97 132 168 205 247
#     4  10  19  31  47  65  87 113 143 179 217 259
#     4   9  18  32  48  65  86 114 146 179 217 260
#
# _framework density 22.686029000000001
#
# number of rings (size 3 to 8) (size 9 to 14) (size 15 to 20)
#    0.000    3.000    0.000    3.000    0.000    8.286 
#    0.000    0.000    0.000    0.000    0.000    0.000 
#    0.000    0.000    0.000    1.286    0.000   26.286 
#
# Total GULP energy -156421.183556 kJ/mol
# GULP energy per Si atom -5586.470841 kJ/mol
# Density = 2.263439 g / cm^3
# Si number density = 22.686029 Si / 1000 Ang^3
#
#
#
# Elastic Constant Matrix: (Units=GPa)
#
#
# Indices 1 2 3 4 5 6 
#
# 1 74.5970 10.0119 8.7365 0.0000 10.8776 0.0000
# 2 10.0119 217.4198 144.8952 0.0000 7.9177 0.0000
# 3 8.7365 144.8952 205.5419 0.0000 11.7770 0.0000
# 4 0.0000 0.0000 0.0000 39.8592 0.0000 3.7450
# 5 10.8776 7.9177 11.7770 0.0000 12.3919 0.0000
# 6 0.0000 0.0000 0.0000 3.7450 0.0000 -5.9508
#
#
#
# Elastic Compliance Matrix: (Units=1/GPa)
#
#
# Indices 1 2 3 4 5 6 
#
# 1 0.015412 -0.000561 0.000523 0.000000 -0.013668 0.000000
# 2 -0.000561 0.008696 -0.006151 0.000000 0.000782 0.000000
# 3 0.000523 -0.006151 0.009498 0.000000 -0.005555 0.000000
# 4 0.000000 0.000000 0.000000 0.023688 0.000000 0.014907
# 5 -0.013668 0.000782 -0.005555 0.000000 0.097476 0.000000
# 6 0.000000 0.000000 0.000000 0.014907 0.000000 -0.158664
#
#
# Mechanical properties :
#
#
# Convention : Reuss Voigt Hill
#
# Bulk Modulus (GPa) = 47.10602 91.64955 69.37778
# Shear Modulus (GPa) = 321.35809 31.52108 176.43958
#
# Velocity S-wave (km/s) = 11.91479 3.73158 8.82856
# Velocity P-wave (km/s) = 14.49456 7.68460 11.60054
#
# Compressibility (1/GPa) = 0.02122871
#
# Stress axis : x y z
#
# Youngs Moduli (GPa) = 64.88300 114.99397 105.29085
#
# Poissons Ratio (x) = 0.06448 -0.05510
# Poissons Ratio (y) = 0.03638 0.64767
# Poissons Ratio (z) = -0.03396 0.70735
#
# Static dielectric constant tensor:
#      x y z
#    x 1.847770 0.000000 -0.026630 
#    y 0.000000 1.798020 0.000000 
#    z -0.026630 0.000000 1.800920 
# 
# From -- ./inp_files/287066.got.cif
#   From: 2010.05.17/outbox.cif.g08.bks.cpg/sg12_144_cif.got.tgz:287066.got - 2010.06.03 13:09:07.
