data_PCOD9178587
_publ_section_title
;
Structure prediction by ZEFSAII (Michael W. Deem and Ramdas Pophale) SiO2 
 PCOD9178587
Probable space group: C 2/M
;
_chemical_formula_sum "Si O2"
_cell_formula_units_Z 32
_cell_length_a 12.831240
_cell_length_b 29.388211
_cell_length_c 9.704123
_cell_angle_alpha 90.000000
_cell_angle_beta 157.603116
_cell_angle_gamma 90.000000
_cell_volume 1394.267008
_symmetry_space_group_name_H-M "C 2/M"
_symmetry_group_IT_number 12
_symmetry_cell_setting 'monoclinic'
loop_
_space_group_symop_operation_xyz
x,y,z
-x,y,-z
-x,-y,-z
x,-y,z
1/2+x,1/2+y,z
1/2-x,1/2+y,-z
1/2-x,1/2-y,-z
1/2+x,1/2-y,z
loop_
_atom_site_type_symbol
_atom_site_label
_atom_site_fract_x
_atom_site_fract_y
_atom_site_fract_z
Si Si1 0.113535 0.099756 0.793107
Si Si2 0.475163 0.775385 0.615851
Si Si3 0.751666 0.318311 0.613282
Si Si4 0.383985 0.947860 0.700183
O O1 0.021149 0.151529 0.711330
O O2 0.925328 0.070005 0.664573
O O3 0.000000 0.091359 0.500000
O O4 0.425808 0.084247 0.162216
O O5 0.500000 0.799334 0.500000
O O6 0.289080 0.730561 0.366038
O O7 0.344948 0.806623 0.573552
O O8 0.750000 0.750000 0.000000
O O9 0.000000 0.341983 0.000000
O O10 0.399992 0.000000 0.672603
O O11 0.500000 0.947486 0.000000
#
# Coordination Sequence:
#
# PCOD9178587 Si02
#       4
#     8   8   8   8
#     4  10  19  30  50  77 110 152 193 234 283 346
#     4  11  23  39  59  81 114 153 194 245 292 344
#     4  11  22  35  56  83 112 154 199 239 289 349
#     4   9  17  29  46  73 111 152 189 229 285 348
#
# _framework density 22.951129000000002
#
# number of rings (size 3 to 8) (size 9 to 14) (size 15 to 20)
#    0.000    1.750    2.500    3.750    3.500    3.000 
#    0.000    0.000    0.000    0.000    0.000    0.000 
#    0.000    6.000    0.000    0.000    0.000    0.000 
#
# Total GULP energy -89399.672630 kJ/mol
# GULP energy per Si atom -5587.479539 kJ/mol
# Density = 2.289889 g / cm^3
# Si number density = 22.951129 Si / 1000 Ang^3
#
#
#
# Elastic Constant Matrix: (Units=GPa)
#
#
# Indices 1 2 3 4 5 6 
#
# 1 171.8322 54.1527 33.6347 0.0000 30.6415 0.0000
# 2 54.1527 131.0534 14.2932 0.0000 24.5788 0.0000
# 3 33.6347 14.2932 49.5114 0.0002 25.3952 0.0001
# 4 0.0000 0.0000 0.0002 14.7790 0.0001 17.7933
# 5 30.6415 24.5788 25.3952 0.0001 39.5942 0.0000
# 6 0.0000 0.0000 0.0001 17.7933 0.0000 37.5562
#
#
#
# Elastic Compliance Matrix: (Units=1/GPa)
#
#
# Indices 1 2 3 4 5 6 
#
# 1 0.007622 -0.002355 -0.003312 0.000000 -0.002313 0.000000
# 2 -0.002355 0.009368 0.001406 0.000000 -0.004895 0.000000
# 3 -0.003312 0.001406 0.031555 0.000000 -0.018549 0.000000
# 4 0.000000 0.000000 0.000000 0.157507 0.000000 -0.074623
# 5 -0.002313 -0.004895 -0.018549 0.000000 0.041982 0.000000
# 6 0.000000 0.000000 0.000000 -0.074623 0.000000 0.061982
#
#
# Mechanical properties :
#
#
# Convention : Reuss Voigt Hill
#
# Bulk Modulus (GPa) = 24.98492 61.83981 43.41237
# Shear Modulus (GPa) = 15.06569 35.07364 25.06967
#
# Velocity S-wave (km/s) = 2.56486 3.91345 3.30859
# Velocity P-wave (km/s) = 4.43634 6.88641 5.79240
#
# Compressibility (1/GPa) = 0.04002414
#
# Stress axis : x y z
#
# Youngs Moduli (GPa) = 131.19127 106.74468 31.69023
#
# Poissons Ratio (x) = 0.25135 0.10496
# Poissons Ratio (y) = 0.30891 -0.04455
# Poissons Ratio (z) = 0.43452 -0.15006
#
# Static dielectric constant tensor:
#      x y z
#    x 1.891300 0.000000 0.072240 
#    y 0.000000 1.905200 0.000000 
#    z 0.072240 0.000000 1.914830 
# 
# From -- ./inp_files/53949.got.cif
#   From: 2010.05.17/outbox.cif.g08.bks.cpg/sg12_27_cif.got.tgz:53949.got - 2010.06.03 13:09:07.
