data_PCOD9178254
_publ_section_title
;
Structure prediction by ZEFSAII (Michael W. Deem and Ramdas Pophale) SiO2 
 PCOD9178254
Probable space group: C 2/M
;
_chemical_formula_sum "Si O2"
_cell_formula_units_Z 40
_cell_length_a 14.948801
_cell_length_b 10.869232
_cell_length_c 10.797791
_cell_angle_alpha 90.000000
_cell_angle_beta 93.252490
_cell_angle_gamma 90.000000
_cell_volume 1751.620476
_symmetry_space_group_name_H-M "C 2/M"
_symmetry_group_IT_number 12
_symmetry_cell_setting 'monoclinic'
loop_
_space_group_symop_operation_xyz
x,y,z
-x,y,-z
-x,-y,-z
x,-y,z
1/2+x,1/2+y,z
1/2-x,1/2+y,-z
1/2-x,1/2-y,-z
1/2+x,1/2-y,z
loop_
_atom_site_type_symbol
_atom_site_label
_atom_site_fract_x
_atom_site_fract_y
_atom_site_fract_z
Si Si1 0.952730 0.637280 0.194153
Si Si2 0.454302 0.293950 0.611306
Si Si3 0.707729 0.364718 0.221926
Si Si4 0.814306 0.639225 0.464669
Si Si5 0.355342 0.136869 0.933301
O O1 0.946795 0.500000 0.249408
O O2 0.968418 0.745645 0.292201
O O3 0.049100 0.637163 0.129795
O O4 0.880398 0.652119 0.079414
O O5 0.500000 0.363283 0.500000
O O6 0.377164 0.356278 0.688461
O O7 0.405531 0.177745 0.539673
O O8 0.703646 0.500000 0.162243
O O9 0.795842 0.359140 0.315577
O O10 0.697707 0.250030 0.130008
O O11 0.790268 0.500000 0.502100
O O12 0.750000 0.750000 0.500000
O O13 0.315774 0.000000 0.911029
#
# Coordination Sequence:
#
# PCOD9178254 Si02
#       5
#     8   8   8   8   8
#     4   8  14  25  42  67  95 118 148 195 241 274
#     4  10  19  30  47  72 100 127 156 194 240 284
#     4   9  18  32  49  70  97 127 158 193 234 283
#     4   9  18  31  47  69  95 124 158 194 233 278
#     4   8  14  27  47  68  90 118 157 201 235 268
#
# _framework density 22.835996999999999
#
# number of rings (size 3 to 8) (size 9 to 14) (size 15 to 20)
#    0.000    3.200    0.000    1.800    0.000    6.800 
#    0.000    8.000    0.000    1.200    0.000    0.000 
#    0.000    0.000    0.000    0.000    0.000    2.400 
#
# Total GULP energy -111561.587268 kJ/mol
# GULP energy per Si atom -5578.079363 kJ/mol
# Density = 2.278402 g / cm^3
# Si number density = 22.835997 Si / 1000 Ang^3
#
#
#
# Elastic Constant Matrix: (Units=GPa)
#
#
# Indices 1 2 3 4 5 6 
#
# 1 88.6167 41.2140 4.0524 0.0000 5.3246 0.0000
# 2 41.2140 188.2260 63.8431 0.0000 27.1956 0.0000
# 3 4.0524 63.8431 89.0127 0.0000 -1.7290 0.0000
# 4 0.0000 0.0000 0.0000 20.4802 0.0000 6.6189
# 5 5.3246 27.1956 -1.7290 0.0000 41.9980 0.0000
# 6 0.0000 0.0000 0.0000 6.6189 0.0000 24.7509
#
#
#
# Elastic Compliance Matrix: (Units=1/GPa)
#
#
# Indices 1 2 3 4 5 6 
#
# 1 0.012822 -0.003607 0.002019 0.000000 0.000793 0.000000
# 2 -0.003607 0.009134 -0.006498 0.000000 -0.005725 0.000000
# 3 0.002019 -0.006498 0.015892 0.000000 0.004606 0.000000
# 4 0.000000 0.000000 0.000000 0.053447 0.000000 -0.014293
# 5 0.000793 -0.005725 0.004606 0.000000 0.027607 0.000000
# 6 0.000000 0.000000 0.000000 -0.014293 0.000000 0.044225
#
#
# Mechanical properties :
#
#
# Convention : Reuss Voigt Hill
#
# Bulk Modulus (GPa) = 46.13430 64.89713 55.51572
# Shear Modulus (GPa) = 26.80620 34.56224 30.68422
#
# Velocity S-wave (km/s) = 3.42988 3.89459 3.66960
# Velocity P-wave (km/s) = 5.99431 6.97884 6.50523
#
# Compressibility (1/GPa) = 0.02167585
#
# Stress axis : x y z
#
# Youngs Moduli (GPa) = 77.99080 109.48572 62.92282
#
# Poissons Ratio (x) = 0.39489 -0.12701
# Poissons Ratio (y) = 0.28129 0.40887
# Poissons Ratio (z) = -0.15743 0.71143
#
# Static dielectric constant tensor:
#      x y z
#    x 1.970050 0.000000 -0.116620 
#    y 0.000000 1.812550 0.000000 
#    z -0.116620 0.000000 1.902410 
# 
# From -- ./inp_files/152887.got.cif
#   From: 2010.05.17/outbox.cif.g08.bks.cpg/sg12_77_cif.got.tgz:152887.got - 2010.06.03 13:09:07.
