data_PCOD9178029
_publ_section_title
;
Structure prediction by ZEFSAII (Michael W. Deem and Ramdas Pophale) SiO2 
 PCOD9178029
Probable space group: C 2/M
;
_chemical_formula_sum "Si O2"
_cell_formula_units_Z 56
_cell_length_a 30.640583
_cell_length_b 7.576712
_cell_length_c 18.959557
_cell_angle_alpha 90.000000
_cell_angle_beta 140.811859
_cell_angle_gamma 90.000000
_cell_volume 2781.204763
_symmetry_space_group_name_H-M "C 2/M"
_symmetry_group_IT_number 12
_symmetry_cell_setting 'monoclinic'
loop_
_space_group_symop_operation_xyz
x,y,z
-x,y,-z
-x,-y,-z
x,-y,z
1/2+x,1/2+y,z
1/2-x,1/2+y,-z
1/2-x,1/2-y,-z
1/2+x,1/2-y,z
loop_
_atom_site_type_symbol
_atom_site_label
_atom_site_fract_x
_atom_site_fract_y
_atom_site_fract_z
Si Si1 0.365804 0.283696 0.247679
Si Si2 0.566490 0.295305 0.045257
Si Si3 0.216722 0.298564 0.048615
Si Si4 0.214642 0.209610 0.208973
Si Si5 0.635800 0.712333 0.590947
Si Si6 0.003164 0.212061 0.340329
Si Si7 0.068728 0.290040 0.885787
O O1 0.364078 0.500000 0.244361
O O2 0.291944 0.222668 0.123109
O O3 0.371020 0.228028 0.336140
O O4 0.434155 0.222708 0.293477
O O5 0.569009 0.500000 0.070899
O O6 0.643849 0.223805 0.155453
O O7 0.500000 0.213756 0.000000
O O8 0.557766 0.285678 0.949743
O O9 0.215483 0.500000 0.022682
O O10 0.220469 0.297573 0.139281
O O11 0.140902 0.216632 0.942640
O O12 0.287348 0.239181 0.337862
O O13 0.206891 0.000000 0.186692
O O14 0.632111 0.500000 0.587874
O O15 0.572840 0.777872 0.464371
O O16 0.992357 0.255605 0.245121
O O17 0.003183 0.000000 0.347228
O O18 0.077836 0.500000 0.905337
#
# Coordination Sequence:
#
# PCOD9178029 Si02
#       7
#     8   8   8   8   8   8   8
#     4   8  14  27  47  67  86 118 168 209 230 260
#     4   9  18  34  56  78  96 115 144 184 229 282
#     4   8  15  29  46  63  89 124 157 191 231 274
#     4   9  16  27  47  73  95 116 145 185 232 276
#     4   9  17  30  47  66  92 127 165 200 230 265
#     4  10  19  30  46  66  91 129 169 199 228 266
#     4  10  20  32  46  69 100 127 151 186 236 285
#
# _framework density 20.135158000000001
#
# number of rings (size 3 to 8) (size 9 to 14) (size 15 to 20)
#    0.000    3.000    0.000    2.143    0.000    4.286 
#    0.000    2.857    0.000    5.143    0.000    0.000 
#    0.000    0.000    0.000    0.000    0.000    0.000 
#
# Total GULP energy -156112.913366 kJ/mol
# GULP energy per Si atom -5575.461192 kJ/mol
# Density = 2.008933 g / cm^3
# Si number density = 20.135158 Si / 1000 Ang^3
#
#
#
# Elastic Constant Matrix: (Units=GPa)
#
#
# Indices 1 2 3 4 5 6 
#
# 1 110.4577 0.5709 51.1957 0.0000 32.4599 0.0000
# 2 0.5709 58.1815 0.9925 0.0000 4.1057 0.0000
# 3 51.1957 0.9925 147.9939 0.0000 24.3271 0.0000
# 4 0.0000 0.0000 0.0000 18.1657 0.0000 0.3250
# 5 32.4599 4.1057 24.3271 0.0000 24.5137 0.0000
# 6 0.0000 0.0000 0.0000 0.3250 0.0000 11.2554
#
#
#
# Elastic Compliance Matrix: (Units=1/GPa)
#
#
# Indices 1 2 3 4 5 6 
#
# 1 0.015569 0.001191 -0.002357 0.000000 -0.018477 0.000000
# 2 0.001191 0.017508 0.000253 0.000000 -0.004761 0.000000
# 3 -0.002357 0.000253 0.008442 0.000000 -0.005299 0.000000
# 4 0.000000 0.000000 0.000000 0.055077 0.000000 -0.001590
# 5 -0.018477 -0.004761 -0.005299 0.000000 0.071316 0.000000
# 6 0.000000 0.000000 0.000000 -0.001590 0.000000 0.088892
#
#
# Mechanical properties :
#
#
# Convention : Reuss Voigt Hill
#
# Bulk Modulus (GPa) = 25.19293 46.90570 36.04931
# Shear Modulus (GPa) = 18.39188 28.37856 23.38522
#
# Velocity S-wave (km/s) = 3.02557 3.75827 3.41165
# Velocity P-wave (km/s) = 4.97438 6.49452 5.78460
#
# Compressibility (1/GPa) = 0.03969368
#
# Stress axis : x y z
#
# Youngs Moduli (GPa) = 64.23009 57.11825 118.46018
#
# Poissons Ratio (x) = -0.06804 0.27917
# Poissons Ratio (y) = -0.07652 -0.02998
# Poissons Ratio (z) = 0.15137 -0.01446
#
# Static dielectric constant tensor:
#      x y z
#    x 1.732150 0.000000 0.047430 
#    y 0.000000 1.777080 0.000000 
#    z 0.047430 0.000000 1.744080 
# 
# From -- ./inp_files/287330.got.cif
#   From: 2010.05.17/outbox.cif.g08.bks.cpg/sg12_144_cif.got.tgz:287330.got - 2010.06.03 13:09:07.
