data_PCOD9178616
_publ_section_title
;
Structure prediction by ZEFSAII (Michael W. Deem and Ramdas Pophale) SiO2 
 PCOD9178616
Probable space group: C 2/M
;
_chemical_formula_sum "Si O2"
_cell_formula_units_Z 64
_cell_length_a 22.573732
_cell_length_b 12.696680
_cell_length_c 21.244645
_cell_angle_alpha 90.000000
_cell_angle_beta 147.264822
_cell_angle_gamma 90.000000
_cell_volume 3292.646240
_symmetry_space_group_name_H-M "C 2/M"
_symmetry_group_IT_number 12
_symmetry_cell_setting 'monoclinic'
loop_
_space_group_symop_operation_xyz
x,y,z
-x,y,-z
-x,-y,-z
x,-y,z
1/2+x,1/2+y,z
1/2-x,1/2+y,-z
1/2-x,1/2-y,-z
1/2+x,1/2-y,z
loop_
_atom_site_type_symbol
_atom_site_label
_atom_site_fract_x
_atom_site_fract_y
_atom_site_fract_z
Si Si1 0.123549 0.379532 0.870852
Si Si2 0.679478 0.626660 0.739137
Si Si3 0.603461 0.198144 0.137803
Si Si4 0.004490 0.125013 0.120379
Si Si5 0.284676 0.737053 0.935547
Si Si6 0.797875 0.380044 0.653067
Si Si7 0.573534 0.733914 0.312239
Si Si8 0.945247 0.123991 0.568804
O O1 0.123164 0.500000 0.889068
O O2 0.205505 0.355895 0.887144
O O3 0.005234 0.334688 0.749890
O O4 0.166094 0.303557 0.963347
O O5 0.688520 0.500000 0.742247
O O6 0.779025 0.675339 0.787815
O O7 0.713745 0.676005 0.836534
O O8 0.550369 0.656803 0.620911
O O9 0.589396 0.317761 0.149513
O O10 0.611228 0.134211 0.210905
O O11 0.500000 0.169489 0.000000
O O12 0.031756 0.158879 0.217283
O O13 0.000943 0.000000 0.111948
O O14 0.889804 0.181209 0.999012
O O15 0.802662 0.500000 0.633121
O O16 0.818938 0.290243 0.620034
O O17 0.674530 0.364603 0.569288
O O18 0.566991 0.675813 0.373090
O O19 0.962939 0.000000 0.595492
#
# Coordination Sequence:
#
# PCOD9178616 Si02
#       8
#     8   8   8   8   8   8   8   8
#     4  10  19  30  50  80 120 155 183 230 284 343
#     4  11  22  37  57  81 113 152 190 234 285 337
#     4  11  23  41  58  85 114 147 192 237 292 339
#     4  10  21  37  58  84 115 151 192 235 283 341
#     4  10  19  34  49  81 116 151 194 228 280 344
#     4  10  22  38  59  87 115 151 191 235 286 339
#     4  10  19  35  58  86 119 145 187 231 290 344
#     4  10  21  38  60  85 115 151 193 234 282 341
#
# _framework density 19.437252999999998
#
# number of rings (size 3 to 8) (size 9 to 14) (size 15 to 20)
#    0.000    1.750    2.500    2.250    0.000    1.750 
#    0.000    1.875    0.000    0.750    0.000    3.500 
#    0.000    0.000    0.000    0.000    0.000    0.000 
#
# Total GULP energy -178159.448151 kJ/mol
# GULP energy per Si atom -5567.482755 kJ/mol
# Density = 1.939301 g / cm^3
# Si number density = 19.437253 Si / 1000 Ang^3
#
#
#
# Elastic Constant Matrix: (Units=GPa)
#
#
# Indices 1 2 3 4 5 6 
#
# 1 78.6140 17.1699 36.8715 0.0000 21.5498 0.0000
# 2 17.1699 123.4053 51.6506 0.0000 22.1120 0.0000
# 3 36.8715 51.6506 94.7580 0.0000 13.5376 0.0000
# 4 0.0000 0.0000 0.0000 14.6283 0.0000 9.0971
# 5 21.5498 22.1120 13.5376 0.0000 35.1643 0.0000
# 6 0.0000 0.0000 0.0000 9.0971 0.0000 21.1897
#
#
#
# Elastic Compliance Matrix: (Units=1/GPa)
#
#
# Indices 1 2 3 4 5 6 
#
# 1 0.018139 0.002075 -0.006788 0.000000 -0.009808 0.000000
# 2 0.002075 0.011509 -0.006206 0.000000 -0.006119 0.000000
# 3 -0.006788 -0.006206 0.016323 0.000000 0.001778 0.000000
# 4 0.000000 0.000000 0.000000 0.093260 0.000000 -0.040038
# 5 -0.009808 -0.006119 0.001778 0.000000 0.037612 0.000000
# 6 0.000000 0.000000 0.000000 -0.040038 0.000000 0.064382
#
#
# Mechanical properties :
#
#
# Convention : Reuss Voigt Hill
#
# Bulk Modulus (GPa) = 41.43813 56.46237 48.95025
# Shear Modulus (GPa) = 18.44286 26.93547 22.68916
#
# Velocity S-wave (km/s) = 3.08367 3.72663 3.42029
# Velocity P-wave (km/s) = 5.83471 6.90135 6.39032
#
# Compressibility (1/GPa) = 0.02413237
#
# Stress axis : x y z
#
# Youngs Moduli (GPa) = 55.12853 86.89060 61.26222
#
# Poissons Ratio (x) = -0.18026 0.41584
# Poissons Ratio (y) = -0.11437 0.38021
# Poissons Ratio (z) = 0.37421 0.53926
#
# Static dielectric constant tensor:
#      x y z
#    x 1.809170 0.000000 -0.004690 
#    y 0.000000 1.625750 0.000000 
#    z -0.004690 0.000000 1.767670 
# 
# From -- ./inp_files/349389.got.cif
#   From: 2010.05.17/outbox.cif.g08.bks.cpg/sg12_175_cif.got.tgz:349389.got - 2010.06.03 13:09:07.
