data_PCOD9178724
_publ_section_title
;
Structure prediction by ZEFSAII (Michael W. Deem and Ramdas Pophale) SiO2 
 PCOD9178724
Probable space group: C 2/M
;
_chemical_formula_sum "Si O2"
_cell_formula_units_Z 48
_cell_length_a 9.655111
_cell_length_b 29.296106
_cell_length_c 8.476916
_cell_angle_alpha 90.000000
_cell_angle_beta 86.380679
_cell_angle_gamma 90.000000
_cell_volume 2392.974015
_symmetry_space_group_name_H-M "C 2/M"
_symmetry_group_IT_number 12
_symmetry_cell_setting 'monoclinic'
loop_
_space_group_symop_operation_xyz
x,y,z
-x,y,-z
-x,-y,-z
x,-y,z
1/2+x,1/2+y,z
1/2-x,1/2+y,-z
1/2-x,1/2-y,-z
1/2+x,1/2-y,z
loop_
_atom_site_type_symbol
_atom_site_label
_atom_site_fract_x
_atom_site_fract_y
_atom_site_fract_z
Si Si1 0.620756 0.263425 0.121250
Si Si2 0.852102 0.448135 0.252413
Si Si3 0.971595 0.950740 0.812496
Si Si4 0.000000 0.607068 0.500000
Si Si5 0.500000 0.119177 0.000000
Si Si6 0.019720 0.149501 0.810933
Si Si7 0.663267 0.828762 0.246018
O O1 0.600937 0.312612 0.208621
O O2 0.612112 0.223217 0.249017
O O3 0.500000 0.261848 0.000000
O O4 0.750000 0.250000 0.000000
O O5 0.906448 0.500000 0.240096
O O6 0.691039 0.450084 0.217629
O O7 0.892478 0.425429 0.415223
O O8 0.923332 0.414128 0.125040
O O9 0.020881 0.901890 0.743090
O O10 0.028735 0.000000 0.749055
O O11 0.000000 0.951373 0.000000
O O12 0.089046 0.639712 0.379673
O O13 0.388919 0.150149 0.916748
O O14 0.170361 0.169708 0.760443
O O15 0.000000 0.142321 0.000000
#
# Coordination Sequence:
#
# PCOD9178724 Si02
#       7
#     8   8   8   4   4   8   8
#     4  11  20  33  61  93 118 155 202 265 320 367
#     4  10  20  37  59  87 122 165 213 263 314 371
#     4   9  18  33  58  90 119 150 195 262 321 364
#     4  10  25  40  58  82 132 176 209 240 316 392
#     4  10  19  30  60  88 118 154 213 268 316 350
#     4  10  19  34  59  89 123 149 205 261 321 359
#     4  11  21  38  57  90 124 167 204 262 310 385
#
# _framework density 20.058720999999998
#
# number of rings (size 3 to 8) (size 9 to 14) (size 15 to 20)
#    0.000    1.833    4.167    2.500    0.000    0.000 
#    0.000    5.833    0.000    2.000    0.000    0.000 
#    0.000    0.000    0.000    0.000    0.000    0.000 
#
# Total GULP energy -133623.590871 kJ/mol
# GULP energy per Si atom -5567.649620 kJ/mol
# Density = 2.001307 g / cm^3
# Si number density = 20.058721 Si / 1000 Ang^3
#
#
#
# Elastic Constant Matrix: (Units=GPa)
#
#
# Indices 1 2 3 4 5 6 
#
# 1 72.5109 24.3218 15.3308 0.0000 4.3434 0.0000
# 2 24.3218 194.1701 17.4218 0.0000 4.8857 0.0000
# 3 15.3308 17.4218 40.8990 0.0000 10.4037 0.0000
# 4 0.0000 0.0000 0.0000 3.5204 0.0000 -0.0170
# 5 4.3434 4.8857 10.4037 0.0000 19.0131 0.0000
# 6 0.0000 0.0000 0.0000 -0.0170 0.0000 28.4349
#
#
#
# Elastic Compliance Matrix: (Units=1/GPa)
#
#
# Indices 1 2 3 4 5 6 
#
# 1 0.015371 -0.001463 -0.005043 0.000000 -0.000376 0.000000
# 2 -0.001463 0.005494 -0.001763 0.000000 -0.000113 0.000000
# 3 -0.005043 -0.001763 0.030998 0.000000 -0.015357 0.000000
# 4 0.000000 0.000000 0.000000 0.284058 0.000000 0.000170
# 5 -0.000376 -0.000113 -0.015357 0.000000 0.061113 0.000000
# 6 0.000000 0.000000 0.000000 0.000170 0.000000 0.035168
#
#
# Mechanical properties :
#
#
# Convention : Reuss Voigt Hill
#
# Bulk Modulus (GPa) = 28.30881 46.85875 37.58378
# Shear Modulus (GPa) = 10.85739 26.89407 18.87573
#
# Velocity S-wave (km/s) = 2.32907 3.66562 3.07094
# Velocity P-wave (km/s) = 4.62346 6.42862 5.59927
#
# Compressibility (1/GPa) = 0.03532469
#
# Stress axis : x y z
#
# Youngs Moduli (GPa) = 65.05945 182.00101 32.26005
#
# Poissons Ratio (x) = 0.26634 0.16267
# Poissons Ratio (y) = 0.09521 0.05688
# Poissons Ratio (z) = 0.32807 0.32091
#
# Static dielectric constant tensor:
#      x y z
#    x 1.681420 0.000000 0.008700 
#    y 0.000000 1.810780 0.000000 
#    z 0.008700 0.000000 1.724430 
# 
# From -- ./inp_files/42295.got.cif
#   From: 2010.05.17/outbox.cif.g08.bks.cpg/sg12_22_cif.got.tgz:42295.got - 2010.06.03 13:09:07.
