data_PCOD9178759
_publ_section_title
;
Structure prediction by ZEFSAII (Michael W. Deem and Ramdas Pophale) SiO2 
 PCOD9178759
Probable space group: C 2/M
;
_chemical_formula_sum "Si O2"
_cell_formula_units_Z 48
_cell_length_a 14.009617
_cell_length_b 7.492688
_cell_length_c 17.983241
_cell_angle_alpha 90.000000
_cell_angle_beta 110.362993
_cell_angle_gamma 90.000000
_cell_volume 1769.727357
_symmetry_space_group_name_H-M "C 2/M"
_symmetry_group_IT_number 12
_symmetry_cell_setting 'monoclinic'
loop_
_space_group_symop_operation_xyz
x,y,z
-x,y,-z
-x,-y,-z
x,-y,z
1/2+x,1/2+y,z
1/2-x,1/2+y,-z
1/2-x,1/2-y,-z
1/2+x,1/2-y,z
loop_
_atom_site_type_symbol
_atom_site_label
_atom_site_fract_x
_atom_site_fract_y
_atom_site_fract_z
Si Si1 0.822086 0.788183 0.086779
Si Si2 0.965269 0.300030 0.909429
Si Si3 0.422829 0.207260 0.578554
Si Si4 0.935323 0.286618 0.740988
Si Si5 0.350708 0.701795 0.405223
Si Si6 0.670871 0.712689 0.757555
O O1 0.923520 0.684466 0.096420
O O2 0.774054 0.730301 0.151959
O O3 0.844579 0.000000 0.096764
O O4 0.750000 0.750000 0.000000
O O5 0.922288 0.500000 0.913760
O O6 0.913535 0.218815 0.819361
O O7 0.000000 0.219055 0.000000
O O8 0.382326 0.269594 0.648158
O O9 0.528426 0.302830 0.584900
O O10 0.351009 0.217563 0.487196
O O11 0.451195 0.000000 0.595058
O O12 0.921187 0.500000 0.744590
O O13 0.052798 0.245731 0.748968
O O14 0.312328 0.500000 0.403243
O O15 0.306217 0.786993 0.317555
O O16 0.684788 0.500000 0.753259
#
# Coordination Sequence:
#
# PCOD9178759 Si02
#       6
#     8   8   8   8   8   8
#     4  10  19  31  46  64  87 114 145 179 216 256
#     4   9  17  30  47  65  86 114 147 180 214 253
#     4   9  14  19  28  45  70  98 127 158 194 236
#     4   8  14  23  35  52  75 103 133 165 201 242
#     4   9  14  20  30  45  67  96 129 160 193 235
#     4   8  15  25  36  51  73 102 133 166 202 242
#
# _framework density 27.122820000000001
#
# number of rings (size 3 to 8) (size 9 to 14) (size 15 to 20)
#    0.000    3.167    0.000    2.500    0.000    2.333 
#    0.000    0.000    0.000    0.000    0.000    0.000 
#    0.000    1.333    0.000    2.667    0.000   15.667 
#
# Total GULP energy -133743.050558 kJ/mol
# GULP energy per Si atom -5572.627107 kJ/mol
# Density = 2.706109 g / cm^3
# Si number density = 27.122820 Si / 1000 Ang^3
#
#
#
# Elastic Constant Matrix: (Units=GPa)
#
#
# Indices 1 2 3 4 5 6 
#
# 1 96.9540 -0.3710 25.8931 0.0000 -35.6597 0.0000
# 2 -0.3710 95.7552 8.9489 0.0000 -3.7161 0.0000
# 3 25.8931 8.9489 351.0978 0.0000 -44.8585 0.0000
# 4 0.0000 0.0000 0.0000 4.9104 0.0000 -0.0128
# 5 -35.6597 -3.7161 -44.8585 0.0000 41.3685 0.0000
# 6 0.0000 0.0000 0.0000 -0.0128 0.0000 -1.7019
#
#
#
# Elastic Compliance Matrix: (Units=1/GPa)
#
#
# Indices 1 2 3 4 5 6 
#
# 1 0.015254 0.000539 0.000636 0.000000 0.013886 0.000000
# 2 0.000539 0.010508 -0.000148 0.000000 0.001248 0.000000
# 3 0.000636 -0.000148 0.003336 0.000000 0.004151 0.000000
# 4 0.000000 0.000000 0.000000 0.203647 0.000000 -0.001528
# 5 0.013886 0.001248 0.004151 0.000000 0.040757 0.000000
# 6 0.000000 0.000000 0.000000 -0.001528 0.000000 -0.587576
#
#
# Mechanical properties :
#
#
# Convention : Reuss Voigt Hill
#
# Bulk Modulus (GPa) = 32.10367 68.08320 50.09344
# Shear Modulus (GPa) = -16.35355 42.87114 13.25880
#
# Velocity S-wave (km/s) = -2.45816 3.98003 2.21338
# Velocity P-wave (km/s) = 1.95074 6.80273 5.00412
#
# Compressibility (1/GPa) = 0.03114909
#
# Stress axis : x y z
#
# Youngs Moduli (GPa) = 65.55688 95.16883 299.80224
#
# Poissons Ratio (x) = -0.05126 -0.19053
# Poissons Ratio (y) = -0.03531 0.04442
# Poissons Ratio (z) = -0.04166 0.01410
#
# Static dielectric constant tensor:
#      x y z
#    x 2.572550 0.000000 0.312000 
#    y 0.000000 2.364170 0.000000 
#    z 0.312000 0.000000 2.465830 
# 
# From -- ./inp_files/287127.got.cif
#   From: 2010.05.17/outbox.cif.g08.bks.cpg/sg12_144_cif.got.tgz:287127.got - 2010.06.03 13:09:07.
