data_PCOD9178351
_publ_section_title
;
Structure prediction by ZEFSAII (Michael W. Deem and Ramdas Pophale) SiO2 
 PCOD9178351
Probable space group: C 2/M
;
_chemical_formula_sum "Si O2"
_cell_formula_units_Z 64
_cell_length_a 25.877109
_cell_length_b 8.665608
_cell_length_c 24.182409
_cell_angle_alpha 90.000000
_cell_angle_beta 133.407985
_cell_angle_gamma 90.000000
_cell_volume 3939.466091
_symmetry_space_group_name_H-M "C 2/M"
_symmetry_group_IT_number 12
_symmetry_cell_setting 'monoclinic'
loop_
_space_group_symop_operation_xyz
x,y,z
-x,y,-z
-x,-y,-z
x,-y,z
1/2+x,1/2+y,z
1/2-x,1/2+y,-z
1/2-x,1/2-y,-z
1/2+x,1/2-y,z
loop_
_atom_site_type_symbol
_atom_site_label
_atom_site_fract_x
_atom_site_fract_y
_atom_site_fract_z
Si Si1 0.830233 0.685177 0.344436
Si Si2 0.062601 0.817115 0.667971
Si Si3 0.695050 0.185486 0.190989
Si Si4 0.224248 0.184645 0.090139
Si Si5 0.032876 0.312411 0.082788
Si Si6 0.910367 0.685664 0.075817
Si Si7 0.945355 0.320814 0.511860
Si Si8 0.123015 0.814955 0.830911
O O1 0.825843 0.500000 0.342046
O O2 0.880262 0.733741 0.329647
O O3 0.753836 0.758404 0.277567
O O4 0.871593 0.735086 0.430690
O O5 0.078678 0.775843 0.743043
O O6 0.984570 0.771502 0.588819
O O7 0.073135 0.000000 0.669237
O O8 0.714626 0.255472 0.145664
O O9 0.614931 0.234754 0.147295
O O10 0.697218 0.000000 0.187999
O O11 0.297512 0.251105 0.119769
O O12 0.226314 0.000000 0.090923
O O13 0.158042 0.245560 0.005795
O O14 0.032594 0.500000 0.081604
O O15 0.980639 0.265178 0.093662
O O16 0.000000 0.260556 0.000000
O O17 0.905602 0.500000 0.070580
O O18 0.909421 0.743370 0.137739
O O19 0.938410 0.500000 0.522973
O O20 0.000000 0.315732 0.500000
O O21 0.126118 0.000000 0.838259
#
# Coordination Sequence:
#
# PCOD9178351 Si02
#       8
#     8   8   8   8   8   8   8   8
#     4  10  19  31  47  72 105 135 165 204 252 302
#     4  10  19  30  48  71 100 136 170 204 246 298
#     4  11  20  33  54  77 101 134 172 211 253 301
#     4  12  23  35  52  75 103 136 171 210 254 303
#     4   9  18  35  56  75  98 129 167 213 260 302
#     4  11  22  38  57  74  97 134 175 213 254 303
#     4   8  16  29  45  67 100 135 164 200 246 300
#     4  11  23  37  51  74 106 137 171 211 253 299
#
# _framework density 16.245856
#
# number of rings (size 3 to 8) (size 9 to 14) (size 15 to 20)
#    0.000    1.750    2.500    4.125    0.000    4.250 
#    0.000    3.125    0.000    0.000    0.000    0.875 
#    0.000    0.000    0.000    0.000    0.000    0.000 
#
# Total GULP energy -178597.427912 kJ/mol
# GULP energy per Si atom -5581.169622 kJ/mol
# Density = 1.620888 g / cm^3
# Si number density = 16.245856 Si / 1000 Ang^3
#
#
#
# Elastic Constant Matrix: (Units=GPa)
#
#
# Indices 1 2 3 4 5 6 
#
# 1 111.1587 24.7989 60.8332 0.0000 5.5351 0.0000
# 2 24.7989 48.4535 31.1124 0.0000 1.4125 0.0000
# 3 60.8332 31.1124 122.3718 0.0000 22.6775 0.0000
# 4 0.0000 0.0000 0.0000 28.6337 0.0000 -3.2873
# 5 5.5351 1.4125 22.6775 0.0000 13.7430 0.0000
# 6 0.0000 0.0000 0.0000 -3.2873 0.0000 15.7931
#
#
#
# Elastic Compliance Matrix: (Units=1/GPa)
#
#
# Indices 1 2 3 4 5 6 
#
# 1 0.013107 -0.002282 -0.007203 0.000000 0.006842 0.000000
# 2 -0.002282 0.026333 -0.007533 0.000000 0.010642 0.000000
# 3 -0.007203 -0.007533 0.018707 0.000000 -0.027194 0.000000
# 4 0.000000 0.000000 0.000000 0.035779 0.000000 0.007447
# 5 0.006842 0.010642 -0.027194 0.000000 0.113787 0.000000
# 6 0.000000 0.000000 0.000000 0.007447 0.000000 0.064869
#
#
# Mechanical properties :
#
#
# Convention : Reuss Voigt Hill
#
# Bulk Modulus (GPa) = 41.47564 57.27478 49.37521
# Shear Modulus (GPa) = 15.89042 22.64995 19.27018
#
# Velocity S-wave (km/s) = 3.13089 3.73795 3.44780
# Velocity P-wave (km/s) = 6.21734 7.34583 6.80502
#
# Compressibility (1/GPa) = 0.02411054
#
# Stress axis : x y z
#
# Youngs Moduli (GPa) = 76.29693 37.97519 53.45530
#
# Poissons Ratio (x) = 0.08667 0.38505
# Poissons Ratio (y) = 0.17414 0.40266
# Poissons Ratio (z) = 0.54958 0.28605
#
# Static dielectric constant tensor:
#      x y z
#    x 1.517780 0.000000 0.010260 
#    y 0.000000 1.550040 0.000000 
#    z 0.010260 0.000000 1.563320 
# 
# From -- ./inp_files/348591.got.cif
#   From: 2010.05.17/outbox.cif.g08.bks.cpg/sg12_175_cif.got.tgz:348591.got - 2010.06.03 13:09:07.
