data_PCOD9178314
_publ_section_title
;
Structure prediction by ZEFSAII (Michael W. Deem and Ramdas Pophale) SiO2 
 PCOD9178314
Probable space group: C 2/M
;
_chemical_formula_sum "Si O2"
_cell_formula_units_Z 48
_cell_length_a 24.839471
_cell_length_b 12.537181
_cell_length_c 17.586096
_cell_angle_alpha 90.000000
_cell_angle_beta 156.885926
_cell_angle_gamma 90.000000
_cell_volume 2149.914033
_symmetry_space_group_name_H-M "C 2/M"
_symmetry_group_IT_number 12
_symmetry_cell_setting 'monoclinic'
loop_
_space_group_symop_operation_xyz
x,y,z
-x,y,-z
-x,-y,-z
x,-y,z
1/2+x,1/2+y,z
1/2-x,1/2+y,-z
1/2-x,1/2-y,-z
1/2+x,1/2-y,z
loop_
_atom_site_type_symbol
_atom_site_label
_atom_site_fract_x
_atom_site_fract_y
_atom_site_fract_z
Si Si1 0.624352 0.119979 0.767141
Si Si2 0.555263 0.772124 0.995506
Si Si3 0.806199 0.122129 0.624914
Si Si4 0.349066 0.215598 0.035025
Si Si5 0.588496 0.376231 0.395661
Si Si6 0.332269 0.807022 0.411612
O O1 0.707531 0.219327 0.840178
O O2 0.461621 0.136157 0.542791
O O3 0.665514 0.000000 0.798301
O O4 0.652539 0.138102 0.894587
O O5 0.600857 0.834145 0.979241
O O6 0.683476 0.693619 0.181139
O O7 0.500000 0.829294 0.000000
O O8 0.429518 0.697245 0.809489
O O9 0.795602 0.135034 0.520146
O O10 0.682569 0.146781 0.521402
O O11 0.845803 0.000000 0.688696
O O12 0.455787 0.310362 0.196091
O O13 0.558415 0.500000 0.365747
O O14 0.636041 0.317685 0.533372
#
# Coordination Sequence:
#
# PCOD9178314 Si02
#       6
#     8   8   8   8   8   8
#     4  10  20  34  54  77 101 131 168 210 250 291
#     4   9  19  34  52  73 104 137 164 201 250 301
#     4   9  17  30  49  70  96 133 170 203 245 297
#     4   9  19  36  54  73 100 135 171 204 244 297
#     4   9  17  31  51  70  92 130 175 210 240 285
#     4  10  19  30  47  74 104 127 159 208 254 295
#
# _framework density 22.326473
#
# number of rings (size 3 to 8) (size 9 to 14) (size 15 to 20)
#    0.000    2.667    0.000    1.500    0.000    6.333 
#    0.000    1.667    0.000    5.000    0.000    7.000 
#    0.000    0.000    0.000    0.000    0.000    0.000 
#
# Total GULP energy -133827.648529 kJ/mol
# GULP energy per Si atom -5576.152022 kJ/mol
# Density = 2.227566 g / cm^3
# Si number density = 22.326473 Si / 1000 Ang^3
#
#
#
# Elastic Constant Matrix: (Units=GPa)
#
#
# Indices 1 2 3 4 5 6 
#
# 1 82.9306 -14.4137 -12.3510 0.0000 10.1560 0.0000
# 2 -14.4137 39.0089 1.8983 0.0000 -8.4844 0.0000
# 3 -12.3510 1.8983 77.9911 0.0000 14.2184 0.0000
# 4 0.0000 0.0000 0.0000 6.5524 0.0000 6.3209
# 5 10.1560 -8.4844 14.2184 0.0000 24.2125 0.0000
# 6 0.0000 0.0000 0.0000 6.3209 0.0000 14.7732
#
#
#
# Elastic Compliance Matrix: (Units=1/GPa)
#
#
# Indices 1 2 3 4 5 6 
#
# 1 0.013978 0.003576 0.003323 0.000000 -0.006561 0.000000
# 2 0.003576 0.029199 -0.001944 0.000000 0.009873 0.000000
# 3 0.003323 -0.001944 0.015425 0.000000 -0.011133 0.000000
# 4 0.000000 0.000000 0.000000 0.259879 0.000000 -0.111193
# 5 -0.006561 0.009873 -0.011133 0.000000 0.054051 0.000000
# 6 0.000000 0.000000 0.000000 -0.111193 0.000000 0.115266
#
#
# Mechanical properties :
#
#
# Convention : Reuss Voigt Hill
#
# Bulk Modulus (GPa) = 14.59613 16.68862 15.64237
# Shear Modulus (GPa) = 9.98552 24.09409 17.03980
#
# Velocity S-wave (km/s) = 2.11712 3.28864 2.76562
# Velocity P-wave (km/s) = 3.53950 4.68094 4.14966
#
# Compressibility (1/GPa) = 0.06851133
#
# Stress axis : x y z
#
# Youngs Moduli (GPa) = 71.53979 34.24815 64.82895
#
# Poissons Ratio (x) = -0.12248 -0.21541
# Poissons Ratio (y) = -0.25584 0.12605
# Poissons Ratio (z) = -0.23771 0.06659
#
# Static dielectric constant tensor:
#      x y z
#    x 1.969710 0.000000 -0.007890 
#    y 0.000000 1.773120 0.000000 
#    z -0.007890 0.000000 1.878730 
# 
# From -- ./inp_files/328199.got.cif
#   From: 2010.05.17/outbox.cif.g08.bks.cpg/sg12_165_cif.got.tgz:328199.got - 2010.06.03 13:09:07.
