data_PCOD9178937
_publ_section_title
;
Structure prediction by ZEFSAII (Michael W. Deem and Ramdas Pophale) SiO2 
 PCOD9178937
Probable space group: C 2/M
;
_chemical_formula_sum "Si O2"
_cell_formula_units_Z 64
_cell_length_a 31.027646
_cell_length_b 8.639190
_cell_length_c 15.426140
_cell_angle_alpha 90.000000
_cell_angle_beta 100.971941
_cell_angle_gamma 90.000000
_cell_volume 4059.448029
_symmetry_space_group_name_H-M "C 2/M"
_symmetry_group_IT_number 12
_symmetry_cell_setting 'monoclinic'
loop_
_space_group_symop_operation_xyz
x,y,z
-x,y,-z
-x,-y,-z
x,-y,z
1/2+x,1/2+y,z
1/2-x,1/2+y,-z
1/2-x,1/2-y,-z
1/2+x,1/2-y,z
loop_
_atom_site_type_symbol
_atom_site_label
_atom_site_fract_x
_atom_site_fract_y
_atom_site_fract_z
Si Si1 0.377037 0.186328 0.754430
Si Si2 0.037872 0.185496 0.708381
Si Si3 0.694586 0.686709 0.560670
Si Si4 0.057085 0.685260 0.378839
Si Si5 0.439479 0.683829 0.917845
Si Si6 0.791419 0.313070 0.626356
Si Si7 0.901542 0.812753 0.428736
Si Si8 0.532747 0.815675 0.893882
O O1 0.408360 0.223573 0.684248
O O2 0.397718 0.264878 0.846318
O O3 0.327874 0.235574 0.709730
O O4 0.378054 0.000000 0.765997
O O5 0.072436 0.232798 0.647630
O O6 0.047250 0.259194 0.805262
O O7 0.989548 0.238686 0.660168
O O8 0.038426 0.000000 0.716552
O O9 0.694739 0.500000 0.556115
O O10 0.740857 0.734925 0.621289
O O11 0.695105 0.750937 0.463073
O O12 0.649599 0.734423 0.589572
O O13 0.052081 0.500000 0.378584
O O14 0.075482 0.743527 0.477428
O O15 0.444765 0.500000 0.918551
O O16 0.482611 0.759412 0.890140
O O17 0.439820 0.743482 0.016532
O O18 0.792880 0.500000 0.623273
O O19 0.903629 0.000000 0.435932
O O20 0.533700 0.000000 0.899875
#
# Coordination Sequence:
#
# PCOD9178937 Si02
#       8
#     8   8   8   8   8   8   8   8
#     4  10  19  31  47  71 101 131 160 195 239 284
#     4  11  22  35  49  67  95 131 169 204 239 280
#     4   9  17  30  48  69  93 124 161 199 241 284
#     4  11  21  32  47  68  98 132 169 202 234 279
#     4  11  21  33  52  74  97 126 158 194 240 291
#     4   9  17  30  48  69  95 125 158 197 240 286
#     4  10  21  34  48  68  97 131 167 205 241 281
#     4  11  21  35  52  71  96 125 159 201 242 283
#
# _framework density 15.765689999999999
#
# number of rings (size 3 to 8) (size 9 to 14) (size 15 to 20)
#    0.000    1.750    2.500    4.125    0.000    3.500 
#    0.000    0.000    0.000    0.000    0.000    0.875 
#    0.000    0.000    0.000    0.000    0.000    0.000 
#
# Total GULP energy -178612.778040 kJ/mol
# GULP energy per Si atom -5581.649314 kJ/mol
# Density = 1.572981 g / cm^3
# Si number density = 15.765690 Si / 1000 Ang^3
#
#
#
# Elastic Constant Matrix: (Units=GPa)
#
#
# Indices 1 2 3 4 5 6 
#
# 1 80.6309 16.6204 54.9826 0.0000 14.2508 0.0000
# 2 16.6204 31.5020 22.0592 0.0000 3.4508 0.0000
# 3 54.9826 22.0592 109.2594 0.0000 14.9682 0.0000
# 4 0.0000 0.0000 0.0000 25.5361 0.0000 2.7047
# 5 14.2508 3.4508 14.9682 0.0000 25.3784 0.0000
# 6 0.0000 0.0000 0.0000 2.7047 0.0000 13.8272
#
#
#
# Elastic Compliance Matrix: (Units=1/GPa)
#
#
# Indices 1 2 3 4 5 6 
#
# 1 0.020020 -0.003995 -0.008488 0.000000 -0.005692 0.000000
# 2 -0.003995 0.037779 -0.005680 0.000000 0.000456 0.000000
# 3 -0.008488 -0.005680 0.015026 0.000000 -0.003324 0.000000
# 4 0.000000 0.000000 0.000000 0.039989 0.000000 -0.007822
# 5 -0.005692 0.000456 -0.003324 0.000000 0.044498 0.000000
# 6 0.000000 0.000000 0.000000 -0.007822 0.000000 0.073851
#
#
# Mechanical properties :
#
#
# Convention : Reuss Voigt Hill
#
# Bulk Modulus (GPa) = 27.39780 45.41297 36.40538
# Shear Modulus (GPa) = 17.87915 21.46367 19.67141
#
# Velocity S-wave (km/s) = 3.37123 3.69374 3.53616
# Velocity P-wave (km/s) = 5.70696 6.85996 6.30985
#
# Compressibility (1/GPa) = 0.03649928
#
# Stress axis : x y z
#
# Youngs Moduli (GPa) = 49.95027 26.46983 66.55100
#
# Poissons Ratio (x) = 0.10575 0.56490
# Poissons Ratio (y) = 0.19955 0.37798
# Poissons Ratio (z) = 0.42399 0.15034
#
# Static dielectric constant tensor:
#      x y z
#    x 1.533650 0.000000 0.012230 
#    y 0.000000 1.530680 0.000000 
#    z 0.012230 0.000000 1.507880 
# 
# From -- ./inp_files/248462.got.cif
#   From: 2010.05.17/outbox.cif.g08.bks.cpg/sg12_125_cif.got.tgz:248462.got - 2010.06.03 13:09:07.
