data_PCOD9178684
_publ_section_title
;
Structure prediction by ZEFSAII (Michael W. Deem and Ramdas Pophale) SiO2 
 PCOD9178684
Probable space group: C 2/M
;
_chemical_formula_sum "Si O2"
_cell_formula_units_Z 56
_cell_length_a 20.823316
_cell_length_b 13.792420
_cell_length_c 17.215479
_cell_angle_alpha 90.000000
_cell_angle_beta 40.568940
_cell_angle_gamma 90.000000
_cell_volume 3215.621919
_symmetry_space_group_name_H-M "C 2/M"
_symmetry_group_IT_number 12
_symmetry_cell_setting 'monoclinic'
loop_
_space_group_symop_operation_xyz
x,y,z
-x,y,-z
-x,-y,-z
x,-y,z
1/2+x,1/2+y,z
1/2-x,1/2+y,-z
1/2-x,1/2-y,-z
1/2+x,1/2-y,z
loop_
_atom_site_type_symbol
_atom_site_label
_atom_site_fract_x
_atom_site_fract_y
_atom_site_fract_z
Si Si1 0.376846 0.896987 0.726098
Si Si2 0.391139 0.888024 0.450962
Si Si3 0.698097 0.885278 0.789718
Si Si4 0.643052 0.203541 0.002330
Si Si5 0.433880 0.115325 0.240570
Si Si6 0.717510 0.390773 0.005641
Si Si7 0.617782 0.738070 0.404034
O O1 0.491153 0.894011 0.642590
O O2 0.311907 0.895352 0.862230
O O3 0.353143 0.807838 0.693820
O O4 0.358750 0.000000 0.701039
O O5 0.381802 0.857109 0.369662
O O6 0.360612 0.804526 0.539735
O O7 0.353391 0.000000 0.496740
O O8 0.654684 0.823213 0.901378
O O9 0.633727 0.866091 0.771984
O O10 0.810212 0.853229 0.668013
O O11 0.691688 0.000000 0.814384
O O12 0.647210 0.315125 0.026313
O O13 0.540756 0.161594 0.128746
O O14 0.738451 0.153702 0.955963
O O15 0.449823 0.000000 0.231954
O O16 0.679227 0.500000 0.051343
O O17 0.500000 0.718468 0.500000
#
# Coordination Sequence:
#
# PCOD9178684 Si02
#       7
#     8   8   8   8   8   8   8
#     4   9  15  29  50  77 105 126 158 212 264 309
#     4   9  17  31  54  79 102 128 167 218 266 308
#     4  11  23  36  51  75 104 140 184 218 253 311
#     4  11  20  34  56  79 109 140 170 213 265 310
#     4  10  20  35  55  77 102 136 180 225 260 300
#     4  10  19  30  53  82 109 134 166 211 261 312
#     4  10  20  33  52  77 104 133 170 210 269 317
#
# _framework density 17.414981999999998
#
# number of rings (size 3 to 8) (size 9 to 14) (size 15 to 20)
#    0.000    2.000    2.857    2.143    0.000    3.714 
#    0.000    0.000    0.000    4.286    0.000    0.000 
#    0.000    0.000    0.000    0.000    0.000    0.000 
#
# Total GULP energy -155988.121322 kJ/mol
# GULP energy per Si atom -5571.004333 kJ/mol
# Density = 1.737534 g / cm^3
# Si number density = 17.414982 Si / 1000 Ang^3
#
#
#
# Elastic Constant Matrix: (Units=GPa)
#
#
# Indices 1 2 3 4 5 6 
#
# 1 57.1301 43.1382 8.4563 0.0000 15.0646 0.0000
# 2 43.1382 67.0459 6.6339 0.0000 9.2866 0.0000
# 3 8.4563 6.6339 29.8304 0.0000 11.5793 0.0000
# 4 0.0000 0.0000 0.0000 12.1829 0.0000 -0.5051
# 5 15.0646 9.2866 11.5793 0.0000 27.5223 0.0000
# 6 0.0000 0.0000 0.0000 -0.5051 0.0000 19.6644
#
#
#
# Elastic Compliance Matrix: (Units=1/GPa)
#
#
# Indices 1 2 3 4 5 6 
#
# 1 0.038145 -0.022680 -0.000760 0.000000 -0.012907 0.000000
# 2 -0.022680 0.029205 -0.001266 0.000000 0.003092 0.000000
# 3 -0.000760 -0.001266 0.040269 0.000000 -0.016099 0.000000
# 4 0.000000 0.000000 0.000000 0.082170 0.000000 0.002111
# 5 -0.012907 0.003092 -0.016099 0.000000 0.049129 0.000000
# 6 0.000000 0.000000 0.000000 0.002111 0.000000 0.050907
#
#
# Mechanical properties :
#
#
# Convention : Reuss Voigt Hill
#
# Bulk Modulus (GPa) = 17.17984 30.05147 23.61565
# Shear Modulus (GPa) = 13.94161 18.25913 16.10037
#
# Velocity S-wave (km/s) = 2.83247 3.24153 3.04388
# Velocity P-wave (km/s) = 4.53691 5.59496 5.09348
#
# Compressibility (1/GPa) = 0.05820778
#
# Stress axis : x y z
#
# Youngs Moduli (GPa) = 26.21563 34.24099 24.83303
#
# Poissons Ratio (x) = 0.77659 0.01886
# Poissons Ratio (y) = 0.59458 0.03143
# Poissons Ratio (z) = 0.01991 0.04334
#
# Static dielectric constant tensor:
#      x y z
#    x 1.594210 0.000000 0.028560 
#    y 0.000000 1.622810 0.000000 
#    z 0.028560 0.000000 1.589830 
# 
# From -- ./inp_files/225206.got.cif
#   From: 2010.05.17/outbox.cif.g08.bks.cpg/sg12_113_cif.got.tgz:225206.got - 2010.06.03 13:09:07.
