data_PCOD9178959
_publ_section_title
;
Structure prediction by ZEFSAII (Michael W. Deem and Ramdas Pophale) SiO2 
 PCOD9178959
Probable space group: C 2/M
;
_chemical_formula_sum "Si O2"
_cell_formula_units_Z 64
_cell_length_a 5.447737
_cell_length_b 23.478921
_cell_length_c 23.881406
_cell_angle_alpha 90.000000
_cell_angle_beta 78.548867
_cell_angle_gamma 90.000000
_cell_volume 2993.795020
_symmetry_space_group_name_H-M "C 2/M"
_symmetry_group_IT_number 12
_symmetry_cell_setting 'monoclinic'
loop_
_space_group_symop_operation_xyz
x,y,z
-x,y,-z
-x,-y,-z
x,-y,z
1/2+x,1/2+y,z
1/2-x,1/2+y,-z
1/2-x,1/2-y,-z
1/2+x,1/2-y,z
loop_
_atom_site_type_symbol
_atom_site_label
_atom_site_fract_x
_atom_site_fract_y
_atom_site_fract_z
Si Si1 0.773664 0.894638 0.965142
Si Si2 0.770952 0.185893 0.476143
Si Si3 0.531181 0.122190 0.693796
Si Si4 0.478915 0.434592 0.154534
Si Si5 0.065868 0.833571 0.654932
Si Si6 0.391426 0.770367 0.065958
Si Si7 0.474112 0.240169 0.759495
Si Si8 0.938681 0.434271 0.198434
O O1 0.709547 0.834072 0.939138
O O2 0.886005 0.933015 0.910981
O O3 0.500000 0.914565 0.000000
O O4 0.000000 0.889294 0.000000
O O5 0.500000 0.158520 0.500000
O O6 0.750000 0.250000 0.500000
O O7 0.835696 0.190863 0.407917
O O8 0.000000 0.158317 0.500000
O O9 0.286129 0.124815 0.666631
O O10 0.492862 0.176776 0.735846
O O11 0.547150 0.070006 0.735410
O O12 0.802505 0.135086 0.655555
O O13 0.433902 0.500000 0.174769
O O14 0.678307 0.407248 0.188629
O O15 0.200551 0.408745 0.164376
O O16 0.022457 0.783892 0.704062
O O17 0.645891 0.766792 0.090266
O O18 0.500000 0.751189 0.000000
O O19 0.196513 0.250661 0.791838
O O20 0.926468 0.500000 0.179803
#
# Coordination Sequence:
#
# PCOD9178959 Si02
#       8
#     8   8   8   8   8   8   8   8
#     4  11  21  33  55  85 111 141 179 212 253 315
#     4  10  21  27  43  67 110 156 177 206 247 295
#     4  10  19  31  54  72  96 132 178 226 257 305
#     4  10  22  39  58  78 109 140 164 212 279 339
#     4  10  19  31  47  75 108 143 178 206 259 310
#     4   9  16  28  47  71 101 134 173 210 242 276
#     4   8  16  25  44  64  96 130 165 198 246 298
#     4  10  21  39  59  79 100 132 177 225 284 323
#
# _framework density 21.377548999999998
#
# number of rings (size 3 to 8) (size 9 to 14) (size 15 to 20)
#    0.000    2.250    0.000    4.125   10.500    0.500 
#    0.000    0.000    0.000   13.500    0.000    0.000 
#    0.000   10.000    0.000    0.000    0.000    0.000 
#
# Total GULP energy -178380.787898 kJ/mol
# GULP energy per Si atom -5574.399622 kJ/mol
# Density = 2.132889 g / cm^3
# Si number density = 21.377549 Si / 1000 Ang^3
#
#
#
# Elastic Constant Matrix: (Units=GPa)
#
#
# Indices 1 2 3 4 5 6 
#
# 1 169.6151 15.0629 5.9912 0.0000 -16.0433 0.0000
# 2 15.0629 10.7664 8.1505 0.0000 -2.2379 0.0000
# 3 5.9912 8.1505 60.8791 0.0000 -11.0853 0.0000
# 4 0.0000 0.0000 0.0000 24.6850 0.0000 3.3562
# 5 -16.0433 -2.2379 -11.0853 0.0000 35.5903 0.0000
# 6 0.0000 0.0000 0.0000 3.3562 0.0000 4.7624
#
#
#
# Elastic Compliance Matrix: (Units=1/GPa)
#
#
# Indices 1 2 3 4 5 6 
#
# 1 0.007028 -0.010133 0.001193 0.000000 0.002903 0.000000
# 2 -0.010133 0.118147 -0.015159 0.000000 -0.001860 0.000000
# 3 0.001193 -0.015159 0.019360 0.000000 0.005615 0.000000
# 4 0.000000 0.000000 0.000000 0.044803 0.000000 -0.031574
# 5 0.002903 -0.001860 0.005615 0.000000 0.031038 0.000000
# 6 0.000000 0.000000 0.000000 -0.031574 0.000000 0.232228
#
#
# Mechanical properties :
#
#
# Convention : Reuss Voigt Hill
#
# Bulk Modulus (GPa) = 10.38003 33.29665 21.83834
# Shear Modulus (GPa) = 9.38237 27.14461 18.26349
#
# Velocity S-wave (km/s) = 2.09724 3.56725 2.92606
# Velocity P-wave (km/s) = 3.27577 5.70757 4.65334
#
# Compressibility (1/GPa) = 0.09633880
#
# Stress axis : x y z
#
# Youngs Moduli (GPa) = 142.28892 8.46401 51.65164
#
# Poissons Ratio (x) = 0.08576 -0.06165
# Poissons Ratio (y) = 1.44178 0.78300
# Poissons Ratio (z) = -0.16982 0.12831
#
# Static dielectric constant tensor:
#      x y z
#    x 1.996480 0.000000 0.016590 
#    y 0.000000 1.781980 0.000000 
#    z 0.016590 0.000000 1.769040 
# 
# From -- ./inp_files/331443.got.cif
#   From: 2010.05.17/outbox.cif.g08.bks.cpg/sg12_166_cif.got.tgz:331443.got - 2010.06.03 13:09:07.
