data_PCOD9178243
_publ_section_title
;
Structure prediction by ZEFSAII (Michael W. Deem and Ramdas Pophale) SiO2 
 PCOD9178243
Probable space group: C 2/M
;
_chemical_formula_sum "Si O2"
_cell_formula_units_Z 64
_cell_length_a 16.213243
_cell_length_b 7.501421
_cell_length_c 20.966937
_cell_angle_alpha 90.000000
_cell_angle_beta 68.054440
_cell_angle_gamma 90.000000
_cell_volume 2365.270282
_symmetry_space_group_name_H-M "C 2/M"
_symmetry_group_IT_number 12
_symmetry_cell_setting 'monoclinic'
loop_
_space_group_symop_operation_xyz
x,y,z
-x,y,-z
-x,-y,-z
x,-y,z
1/2+x,1/2+y,z
1/2-x,1/2+y,-z
1/2-x,1/2-y,-z
1/2+x,1/2-y,z
loop_
_atom_site_type_symbol
_atom_site_label
_atom_site_fract_x
_atom_site_fract_y
_atom_site_fract_z
Si Si1 0.279109 0.294656 0.073614
Si Si2 0.667270 0.284121 0.328472
Si Si3 0.032161 0.208697 0.584276
Si Si4 0.888720 0.294094 0.165662
Si Si5 0.442493 0.714905 0.953724
Si Si6 0.432657 0.216909 0.287233
Si Si7 0.869212 0.709257 0.799078
Si Si8 0.687953 0.713887 0.458215
O O1 0.263999 0.500000 0.061897
O O2 0.340430 0.296820 0.120323
O O3 0.187998 0.210735 0.126447
O O4 0.343267 0.218843 0.000002
O O5 0.671634 0.500000 0.323667
O O6 0.565771 0.221118 0.372621
O O7 0.685216 0.223389 0.251602
O O8 0.715480 0.225460 0.379651
O O9 0.091736 0.282337 0.509993
O O10 0.085875 0.226627 0.635339
O O11 0.018830 0.000000 0.574869
O O12 0.860994 0.500000 0.171611
O O13 0.995476 0.286167 0.120524
O O14 0.877128 0.226441 0.241193
O O15 0.440317 0.500000 0.949550
O O16 0.500000 0.762279 0.000000
O O17 0.533601 0.283057 0.244192
O O18 0.430594 0.000000 0.287826
O O19 0.879838 0.500000 0.809191
O O20 0.681522 0.500000 0.454932
O O21 0.750000 0.750000 0.500000
#
# Coordination Sequence:
#
# PCOD9178243 Si02
#       8
#     8   8   8   8   8   8   8   8
#     4   9  18  32  50  70  93 125 162 199 237 279
#     4   9  18  34  54  73  95 125 161 199 237 278
#     4   9  18  34  55  73  91 125 168 199 229 278
#     4  10  19  30  47  71  98 126 156 195 242 287
#     4   8  15  29  47  67  92 124 162 197 232 279
#     4   9  19  34  50  71  99 128 157 194 241 285
#     4   9  18  34  53  71  95 127 162 197 234 282
#     4  10  21  35  51  74 103 129 155 195 242 283
#
# _framework density 27.058216999999999
#
# number of rings (size 3 to 8) (size 9 to 14) (size 15 to 20)
#    0.000    2.875    0.000    1.500    0.000    7.250 
#    0.000    5.625    0.000    3.750    0.000    0.000 
#    0.000    0.000    0.000    0.000    0.000    0.000 
#
# Total GULP energy -178893.777545 kJ/mol
# GULP energy per Si atom -5590.430548 kJ/mol
# Density = 2.699663 g / cm^3
# Si number density = 27.058217 Si / 1000 Ang^3
#
#
#
# Elastic Constant Matrix: (Units=GPa)
#
#
# Indices 1 2 3 4 5 6 
#
# 1 78.8952 2.5575 23.5297 0.0000 11.4417 0.0000
# 2 2.5575 83.7360 0.8138 0.0000 2.3916 0.0000
# 3 23.5297 0.8138 193.6832 0.0000 12.2341 0.0000
# 4 0.0000 0.0000 0.0000 15.1492 0.0000 8.1003
# 5 11.4417 2.3916 12.2341 0.0000 56.6366 0.0000
# 6 0.0000 0.0000 0.0000 8.1003 0.0000 18.4274
#
#
#
# Elastic Compliance Matrix: (Units=1/GPa)
#
#
# Indices 1 2 3 4 5 6 
#
# 1 0.013475 -0.000329 -0.001485 0.000000 -0.002388 0.000000
# 2 -0.000329 0.011965 0.000018 0.000000 -0.000443 0.000000
# 3 -0.001485 0.000018 0.005398 0.000000 -0.000867 0.000000
# 4 0.000000 0.000000 0.000000 0.086293 0.000000 -0.037933
# 5 -0.002388 -0.000443 -0.000867 0.000000 0.018345 0.000000
# 6 0.000000 0.000000 0.000000 -0.037933 0.000000 0.070941
#
#
# Mechanical properties :
#
#
# Convention : Reuss Voigt Hill
#
# Bulk Modulus (GPa) = 36.70321 45.56847 41.13584
# Shear Modulus (GPa) = 22.82158 40.00352 31.41255
#
# Velocity S-wave (km/s) = 2.90733 3.84920 3.41093
# Velocity P-wave (km/s) = 4.98639 6.05249 5.54512
#
# Compressibility (1/GPa) = 0.02724557
#
# Stress axis : x y z
#
# Youngs Moduli (GPa) = 74.21268 83.57838 185.24924
#
# Poissons Ratio (x) = 0.02749 0.27506
# Poissons Ratio (y) = 0.02441 -0.00327
# Poissons Ratio (z) = 0.11019 -0.00147
#
# Static dielectric constant tensor:
#      x y z
#    x 2.248670 0.000000 -0.027070 
#    y 0.000000 2.001020 0.000000 
#    z -0.027070 0.000000 2.110240 
# 
# From -- ./inp_files/319897.got.cif
#   From: 2010.05.17/outbox.cif.g08.bks.cpg/sg12_160_cif.got.tgz:319897.got - 2010.06.03 13:09:07.
