data_PCOD9178249
_publ_section_title
;
Structure prediction by ZEFSAII (Michael W. Deem and Ramdas Pophale) SiO2 
 PCOD9178249
Probable space group: C 2/M
;
_chemical_formula_sum "Si O2"
_cell_formula_units_Z 64
_cell_length_a 29.784811
_cell_length_b 11.142558
_cell_length_c 9.681655
_cell_angle_alpha 90.000000
_cell_angle_beta 86.453158
_cell_angle_gamma 90.000000
_cell_volume 3206.983236
_symmetry_space_group_name_H-M "C 2/M"
_symmetry_group_IT_number 12
_symmetry_cell_setting 'monoclinic'
loop_
_space_group_symop_operation_xyz
x,y,z
-x,y,-z
-x,-y,-z
x,-y,z
1/2+x,1/2+y,z
1/2-x,1/2+y,-z
1/2-x,1/2-y,-z
1/2+x,1/2-y,z
loop_
_atom_site_type_symbol
_atom_site_label
_atom_site_fract_x
_atom_site_fract_y
_atom_site_fract_z
Si Si1 0.834215 0.636132 0.918924
Si Si2 0.563773 0.761410 0.546907
Si Si3 0.772855 0.641155 0.670787
Si Si4 0.417924 0.366835 0.189586
Si Si5 0.660443 0.138145 0.558844
Si Si6 0.981913 0.635386 0.696981
Si Si7 0.679666 0.269251 0.811357
Si Si8 0.436524 0.860871 0.989192
O O1 0.821064 0.500000 0.960531
O O2 0.812567 0.658324 0.775188
O O3 0.888153 0.642022 0.919457
O O4 0.815783 0.730324 0.032426
O O5 0.564537 0.652221 0.656391
O O6 0.615319 0.796967 0.522091
O O7 0.542175 0.767295 0.398441
O O8 0.533423 0.857159 0.637732
O O9 0.764871 0.500000 0.652187
O O10 0.795506 0.688393 0.526163
O O11 0.726705 0.689011 0.741324
O O12 0.430973 0.500000 0.137241
O O13 0.363281 0.356342 0.198266
O O14 0.433797 0.251898 0.094723
O O15 0.665018 0.155430 0.721399
O O16 0.655788 0.000000 0.523241
O O17 0.964716 0.500000 0.671633
O O18 0.972999 0.656483 0.860233
O O19 0.441083 0.000000 0.042845
#
# Coordination Sequence:
#
# PCOD9178249 Si02
#       8
#     8   8   8   8   8   8   8   8
#     4   9  17  30  49  73 100 129 165 214 265 310
#     4  10  20  34  55  80 107 141 174 216 270 327
#     4  10  19  30  47  71  99 131 169 213 262 312
#     4  10  22  39  56  77 111 150 185 220 265 321
#     4  10  19  31  49  73 100 130 166 212 264 313
#     4  10  19  34  57  86 114 137 173 225 276 325
#     4  10  19  32  50  70  98 135 176 214 253 307
#     4   9  19  35  57  84 111 141 178 223 272 321
#
# _framework density 19.95645
#
# number of rings (size 3 to 8) (size 9 to 14) (size 15 to 20)
#    0.000    2.250    0.000    3.750    0.000    6.500 
#    0.000    4.375    0.000    1.500    0.000    0.000 
#    0.000    0.000    0.000    0.000    0.000    0.000 
#
# Total GULP energy -178242.726712 kJ/mol
# GULP energy per Si atom -5570.085210 kJ/mol
# Density = 1.991103 g / cm^3
# Si number density = 19.956450 Si / 1000 Ang^3
#
#
#
# Elastic Constant Matrix: (Units=GPa)
#
#
# Indices 1 2 3 4 5 6 
#
# 1 73.2215 24.8869 9.1896 0.0000 -17.8152 0.0000
# 2 24.8869 79.9972 33.5980 0.0000 -2.5763 0.0000
# 3 9.1896 33.5980 57.3973 0.0000 -9.0266 0.0000
# 4 0.0000 0.0000 0.0000 19.1815 0.0000 -3.5790
# 5 -17.8152 -2.5763 -9.0266 0.0000 32.5497 0.0000
# 6 0.0000 0.0000 0.0000 -3.5790 0.0000 13.6415
#
#
#
# Elastic Compliance Matrix: (Units=1/GPa)
#
#
# Indices 1 2 3 4 5 6 
#
# 1 0.017905 -0.006236 0.002350 0.000000 0.009958 0.000000
# 2 -0.006236 0.018813 -0.010787 0.000000 -0.004916 0.000000
# 3 0.002350 -0.010787 0.024497 0.000000 0.007226 0.000000
# 4 0.000000 0.000000 0.000000 0.054817 0.000000 0.014382
# 5 0.009958 -0.004916 0.007226 0.000000 0.037787 0.000000
# 6 0.000000 0.000000 0.000000 0.014382 0.000000 0.077079
#
#
# Mechanical properties :
#
#
# Convention : Reuss Voigt Hill
#
# Bulk Modulus (GPa) = 31.37989 38.44059 34.91024
# Shear Modulus (GPa) = 18.45931 22.60396 20.53163
#
# Velocity S-wave (km/s) = 3.04465 3.36916 3.21101
# Velocity P-wave (km/s) = 5.30266 5.86848 5.59273
#
# Compressibility (1/GPa) = 0.03186754
#
# Stress axis : x y z
#
# Youngs Moduli (GPa) = 55.85131 53.15606 40.82197
#
# Poissons Ratio (x) = 0.33150 -0.09593
# Poissons Ratio (y) = 0.34831 0.44033
# Poissons Ratio (z) = -0.13124 0.57338
#
# Static dielectric constant tensor:
#      x y z
#    x 1.743550 0.000000 0.002620 
#    y 0.000000 1.687280 0.000000 
#    z 0.002620 0.000000 1.728420 
# 
# From -- ./inp_files/110473.got.cif
#   From: 2010.05.17/outbox.cif.g08.bks.cpg/sg12_56_cif.got.tgz:110473.got - 2010.06.03 13:09:07.
