data_PCOD9178848
_publ_section_title
;
Structure prediction by ZEFSAII (Michael W. Deem and Ramdas Pophale) SiO2 
 PCOD9178848
Probable space group: C 2/M
;
_chemical_formula_sum "Si O2"
_cell_formula_units_Z 56
_cell_length_a 19.760325
_cell_length_b 7.571039
_cell_length_c 31.186855
_cell_angle_alpha 90.000000
_cell_angle_beta 37.447839
_cell_angle_gamma 90.000000
_cell_volume 2836.955533
_symmetry_space_group_name_H-M "C 2/M"
_symmetry_group_IT_number 12
_symmetry_cell_setting 'monoclinic'
loop_
_space_group_symop_operation_xyz
x,y,z
-x,y,-z
-x,-y,-z
x,-y,z
1/2+x,1/2+y,z
1/2-x,1/2+y,-z
1/2-x,1/2-y,-z
1/2+x,1/2-y,z
loop_
_atom_site_type_symbol
_atom_site_label
_atom_site_fract_x
_atom_site_fract_y
_atom_site_fract_z
Si Si1 0.585975 0.705040 0.997006
Si Si2 0.872956 0.283359 0.562899
Si Si3 0.105668 0.782928 0.849078
Si Si4 0.021964 0.294521 0.722477
Si Si5 0.215200 0.790418 0.565674
Si Si6 0.182395 0.795305 0.718686
Si Si7 0.769987 0.716612 0.843079
O O1 0.608887 0.500000 0.995885
O O2 0.699503 0.779117 0.920005
O O3 0.500000 0.706889 0.000000
O O4 0.513523 0.780043 0.072470
O O5 0.873012 0.500000 0.563532
O O6 0.809097 0.227211 0.551900
O O7 0.795821 0.221139 0.641110
O O8 0.000000 0.225245 0.500000
O O9 0.136288 0.720251 0.786231
O O10 0.201116 0.732538 0.835248
O O11 0.100424 0.000000 0.852096
O O12 0.012439 0.500000 0.738374
O O13 0.097140 0.279952 0.642000
O O14 0.091798 0.211142 0.726206
O O15 0.897435 0.224378 0.779250
O O16 0.250000 0.750000 0.500000
O O17 0.208136 0.000000 0.573928
O O18 0.206492 0.000000 0.716022
O O19 0.768514 0.500000 0.844238
#
# Coordination Sequence:
#
# PCOD9178848 Si02
#       7
#     8   8   8   8   8   8   8
#     4   7  10  19  36  60  89 114 143 192 241 266
#     4   8  15  28  46  66  86 112 148 187 220 254
#     4   8  13  23  42  65  87 115 154 198 235 266
#     4  10  19  31  47  66  93 125 151 180 221 271
#     4  10  20  34  52  72  94 119 148 184 225 269
#     4   9  17  29  45  65  90 118 148 185 229 275
#     4   8  14  24  41  66  90 116 154 194 228 264
#
# _framework density 19.739471000000002
#
# number of rings (size 3 to 8) (size 9 to 14) (size 15 to 20)
#    0.000    3.429    0.000    3.429    0.000    1.143 
#    0.000    5.000    0.000   15.857    0.000    1.000 
#    0.000    8.571    0.000    0.000    0.000    0.000 
#
# Total GULP energy -155956.077847 kJ/mol
# GULP energy per Si atom -5569.859923 kJ/mol
# Density = 1.969454 g / cm^3
# Si number density = 19.739471 Si / 1000 Ang^3
#
#
#
# Elastic Constant Matrix: (Units=GPa)
#
#
# Indices 1 2 3 4 5 6 
#
# 1 62.4692 -3.6433 101.2748 -0.0012 3.2544 0.0128
# 2 -3.6433 43.4840 -2.0784 0.0098 0.0121 -0.0147
# 3 101.2748 -2.0784 229.3223 0.0002 4.2183 -0.0015
# 4 -0.0012 0.0098 0.0002 2.8461 -0.0003 -3.7907
# 5 3.2544 0.0121 4.2183 -0.0003 41.6881 0.0002
# 6 0.0128 -0.0147 -0.0015 -3.7907 0.0002 7.9485
#
#
#
# Elastic Compliance Matrix: (Units=1/GPa)
#
#
# Indices 1 2 3 4 5 6 
#
# 1 0.057058 0.003580 -0.025131 -0.000292 -0.001912 -0.000229
# 2 0.003580 0.023232 -0.001368 -0.000079 -0.000148 0.000000
# 3 -0.025131 -0.001368 0.015439 0.000130 0.000400 0.000103
# 4 -0.000292 -0.000079 0.000130 0.963170 0.000014 0.459347
# 5 -0.001912 -0.000148 0.000400 0.000014 0.024097 0.000009
# 6 -0.000229 0.000000 0.000103 0.459347 0.000009 0.344878
#
#
# Mechanical properties :
#
#
# Convention : Reuss Voigt Hill
#
# Bulk Modulus (GPa) = 20.04328 58.48687 39.26507
# Shear Modulus (GPa) = 3.35494 26.47803 14.91648
#
# Velocity S-wave (km/s) = 1.30510 3.66645 2.75192
# Velocity P-wave (km/s) = 3.52803 6.90055 5.48017
#
# Compressibility (1/GPa) = 0.04989203
#
# Stress axis : x y z
#
# Youngs Moduli (GPa) = 17.52594 43.04485 64.76957
#
# Poissons Ratio (x) = -0.15410 1.62771
# Poissons Ratio (y) = -0.06274 0.08859
# Poissons Ratio (z) = 0.44044 0.05887
#
# Static dielectric constant tensor:
#      x y z
#    x 1.661730 -0.000040 0.013750 
#    y -0.000040 1.775770 -0.000040 
#    z 0.013750 -0.000040 1.738580 
# 
# From -- ./inp_files/318825.got.cif
#   From: 2010.05.17/outbox.cif.g08.bks.cpg/sg12_160_cif.got.tgz:318825.got - 2010.06.03 13:09:07.
