data_PCOD9178237
_publ_section_title
;
Structure prediction by ZEFSAII (Michael W. Deem and Ramdas Pophale) SiO2 
 PCOD9178237
Probable space group: C 2/M
;
_chemical_formula_sum "Si O2"
_cell_formula_units_Z 56
_cell_length_a 15.262662
_cell_length_b 9.415336
_cell_length_c 18.995830
_cell_angle_alpha 90.000000
_cell_angle_beta 109.080136
_cell_angle_gamma 90.000000
_cell_volume 2579.792777
_symmetry_space_group_name_H-M "C 2/M"
_symmetry_group_IT_number 12
_symmetry_cell_setting 'monoclinic'
loop_
_space_group_symop_operation_xyz
x,y,z
-x,y,-z
-x,-y,-z
x,-y,z
1/2+x,1/2+y,z
1/2-x,1/2+y,-z
1/2-x,1/2-y,-z
1/2+x,1/2-y,z
loop_
_atom_site_type_symbol
_atom_site_label
_atom_site_fract_x
_atom_site_fract_y
_atom_site_fract_z
Si Si1 0.849218 0.329763 0.527829
Si Si2 0.147663 0.661337 0.626850
Si Si3 0.894569 0.337133 0.038236
Si Si4 0.496566 0.337924 0.827126
Si Si5 0.871045 0.164228 0.667906
Si Si6 0.718578 0.663120 0.099445
Si Si7 0.830612 0.839447 0.234472
O O1 0.837787 0.500000 0.532408
O O2 0.750000 0.250000 0.500000
O O3 0.890704 0.305087 0.460951
O O4 0.897639 0.262162 0.608627
O O5 0.119906 0.500000 0.638364
O O6 0.259880 0.663357 0.647289
O O7 0.129791 0.769623 0.684526
O O8 0.912604 0.500000 0.024600
O O9 0.977845 0.263629 0.102164
O O10 0.806987 0.337068 0.069454
O O11 0.860939 0.245692 0.963255
O O12 0.478806 0.500000 0.845734
O O13 0.416732 0.288938 0.752993
O O14 0.587424 0.343415 0.801185
O O15 0.900038 0.000000 0.662977
O O16 0.695456 0.500000 0.107573
O O17 0.751425 0.743281 0.178150
O O18 0.798411 0.000000 0.238926
#
# Coordination Sequence:
#
# PCOD9178237 Si02
#       7
#     8   8   8   8   8   8   8
#     4   9  17  30  49  71  93 120 157 197 233 274
#     4   9  18  32  49  69  93 122 155 191 233 279
#     4   9  16  26  43  68  94 121 156 194 230 272
#     4   9  18  32  48  69  97 126 156 191 234 279
#     4   9  18  33  52  71  93 123 159 196 231 275
#     4   9  16  27  44  65  92 125 157 191 230 273
#     4  10  19  30  47  71  97 124 155 193 234 277
#
# _framework density 21.707172
#
# number of rings (size 3 to 8) (size 9 to 14) (size 15 to 20)
#    0.000    2.857    0.000    2.571    0.000    7.429 
#    0.000    0.714    0.000    5.143    0.000    6.000 
#    0.000    0.000    0.000    0.000    0.000    0.000 
#
# Total GULP energy -156375.724196 kJ/mol
# GULP energy per Si atom -5584.847293 kJ/mol
# Density = 2.165777 g / cm^3
# Si number density = 21.707172 Si / 1000 Ang^3
#
#
#
# Elastic Constant Matrix: (Units=GPa)
#
#
# Indices 1 2 3 4 5 6 
#
# 1 23.3336 55.2120 97.3448 0.0000 -7.8308 0.0000
# 2 55.2120 117.6300 29.5111 0.0000 -4.3799 0.0000
# 3 97.3448 29.5111 13.3887 0.0000 24.3322 0.0000
# 4 0.0000 0.0000 0.0000 42.9042 0.0000 4.4340
# 5 -7.8308 -4.3799 24.3322 0.0000 29.9657 0.0000
# 6 0.0000 0.0000 0.0000 4.4340 0.0000 -1.3477
#
#
#
# Elastic Compliance Matrix: (Units=1/GPa)
#
#
# Indices 1 2 3 4 5 6 
#
# 1 0.002025 -0.004157 0.011394 0.000000 -0.009330 0.000000
# 2 -0.004157 0.011995 -0.005401 0.000000 0.005052 0.000000
# 3 0.011394 -0.005401 0.000477 0.000000 0.001801 0.000000
# 4 0.000000 0.000000 0.000000 0.017394 0.000000 0.057226
# 5 -0.009330 0.005052 0.001801 0.000000 0.030209 0.000000
# 6 0.000000 0.000000 0.000000 0.057226 0.000000 -0.553734
#
#
# Mechanical properties :
#
#
# Convention : Reuss Voigt Hill
#
# Bulk Modulus (GPa) = 55.03188 57.60977 56.32083
# Shear Modulus (GPa) = -10.21971 12.45675 1.11852
#
# Velocity S-wave (km/s) = -2.17214 2.39812 0.71861
# Velocity P-wave (km/s) = 4.37219 5.85364 5.16629
#
# Compressibility (1/GPa) = 0.01817128
#
# Stress axis : x y z
#
# Youngs Moduli (GPa) = 493.77796 83.36623 2097.14326
#
# Poissons Ratio (x) = 0.34652 -23.89544
# Poissons Ratio (y) = 2.05243 11.32605
# Poissons Ratio (z) = -5.62625 0.45024
#
# Static dielectric constant tensor:
#      x y z
#    x 1.845720 0.000000 0.006080 
#    y 0.000000 1.744030 0.000000 
#    z 0.006080 0.000000 1.779180 
# 
# From -- ./inp_files/319321.got.cif
#   From: 2010.05.17/outbox.cif.g08.bks.cpg/sg12_160_cif.got.tgz:319321.got - 2010.06.03 13:09:07.
