data_PCOD9178729
_publ_section_title
;
Structure prediction by ZEFSAII (Michael W. Deem and Ramdas Pophale) SiO2 
 PCOD9178729
Probable space group: C 2/M
;
_chemical_formula_sum "Si O2"
_cell_formula_units_Z 48
_cell_length_a 14.387688
_cell_length_b 17.047484
_cell_length_c 12.340357
_cell_angle_alpha 90.000000
_cell_angle_beta 38.825928
_cell_angle_gamma 90.000000
_cell_volume 1897.651162
_symmetry_space_group_name_H-M "C 2/M"
_symmetry_group_IT_number 12
_symmetry_cell_setting 'monoclinic'
loop_
_space_group_symop_operation_xyz
x,y,z
-x,y,-z
-x,-y,-z
x,-y,z
1/2+x,1/2+y,z
1/2-x,1/2+y,-z
1/2-x,1/2-y,-z
1/2+x,1/2-y,z
loop_
_atom_site_type_symbol
_atom_site_label
_atom_site_fract_x
_atom_site_fract_y
_atom_site_fract_z
Si Si1 0.139339 0.665200 0.190637
Si Si2 0.155277 0.163395 0.793428
Si Si3 0.749959 0.000000 0.318531
Si Si4 0.436750 0.000000 0.719234
Si Si5 0.661584 0.000000 0.803184
Si Si6 0.608754 0.332294 0.217575
Si Si7 0.056262 0.000000 0.325477
Si Si8 0.340486 0.832630 0.205946
O O1 0.203532 0.660751 0.253669
O O2 0.066121 0.584024 0.221490
O O3 0.042401 0.744317 0.273709
O O4 0.284497 0.668725 0.983378
O O5 0.164838 0.248899 0.729786
O O6 0.166558 0.079610 0.726312
O O7 0.000000 0.163100 0.000000
O O8 0.588472 0.000000 0.516250
O O9 0.711123 0.000000 0.223818
O O10 0.684397 0.081752 0.719922
O O11 0.766648 0.000000 0.814186
O O12 0.500000 0.000000 0.000000
O O13 0.523913 0.414981 0.302839
O O14 0.714864 0.329554 0.226808
O O15 0.000000 0.000000 0.500000
O O16 0.500000 0.834381 0.000000
#
# Coordination Sequence:
#
# PCOD9178729 Si02
#       8
#     8   8   4   4   4   8   4   8
#     4   9  17  30  48  71  93 120 164 190 230 281
#     4   9  16  27  44  70  90 119 156 191 228 271
#     4   9  17  28  41  64  93 115 149 187 233 270
#     4   9  17  30  43  66  92 121 149 191 231 277
#     4   8  14  27  44  63  89 119 154 188 227 274
#     4   9  17  30  47  71  94 124 154 197 234 278
#     4  10  19  31  44  75 102 123 156 200 251 285
#     4   8  14  25  43  68  89 111 151 192 229 262
#
# _framework density 25.294428
#
# number of rings (size 3 to 8) (size 9 to 14) (size 15 to 20)
#    0.000    3.167    0.000    0.750    0.000    0.000 
#   12.000    0.000    0.000    0.000   34.667    4.667 
#    0.000    0.000    0.000    0.000    0.000    0.000 
#
# Total GULP energy -133726.975525 kJ/mol
# GULP energy per Si atom -5571.957314 kJ/mol
# Density = 2.523686 g / cm^3
# Si number density = 25.294428 Si / 1000 Ang^3
#
#
#
# Elastic Constant Matrix: (Units=GPa)
#
#
# Indices 1 2 3 4 5 6 
#
# 1 112.7460 8.0494 -10.9320 -0.0001 -8.9663 0.0000
# 2 8.0494 378.0327 31.1989 -0.0002 3.2544 0.0001
# 3 -10.9320 31.1989 31.8204 -0.0001 -4.7064 -0.0002
# 4 -0.0001 -0.0002 -0.0001 -15.3474 0.0001 7.5269
# 5 -8.9663 3.2544 -4.7064 0.0001 14.1422 0.0001
# 6 0.0000 0.0001 -0.0002 7.5269 0.0001 -46.3059
#
#
#
# Elastic Compliance Matrix: (Units=1/GPa)
#
#
# Indices 1 2 3 4 5 6 
#
# 1 0.010117 -0.000737 0.005439 0.000000 0.008394 0.000000
# 2 -0.000737 0.002970 -0.003508 0.000000 -0.002318 0.000000
# 3 0.005439 -0.003508 0.039299 0.000000 0.017334 0.000000
# 4 0.000000 0.000000 0.000000 -0.070802 0.000001 -0.011509
# 5 0.008394 -0.002318 0.017334 0.000001 0.082334 0.000000
# 6 0.000000 0.000000 0.000000 -0.011509 0.000000 -0.023466
#
#
# Mechanical properties :
#
#
# Convention : Reuss Voigt Hill
#
# Bulk Modulus (GPa) = 18.25639 64.35907 41.30773
# Shear Modulus (GPa) = 88.77520 23.44995 56.11258
#
# Velocity S-wave (km/s) = 5.93068 3.04810 4.71507
# Velocity P-wave (km/s) = 7.35734 6.15525 6.78298
#
# Compressibility (1/GPa) = 0.05477535
#
# Stress axis : x y z
#
# Youngs Moduli (GPa) = 98.84299 336.64826 25.44605
#
# Poissons Ratio (x) = 0.24798 -0.13841
# Poissons Ratio (y) = 0.07281 0.08927
# Poissons Ratio (z) = -0.53765 1.18109
#
# Static dielectric constant tensor:
#      x y z
#    x 2.007090 0.000000 -0.011600 
#    y 0.000000 2.131160 0.000000 
#    z -0.011600 0.000000 1.948530 
# 
# From -- ./inp_files/226793.got.cif
#   From: 2010.05.17/outbox.cif.g08.bks.cpg/sg12_114_cif.got.tgz:226793.got - 2010.06.03 13:09:07.
