data_PCOD9178595
_publ_section_title
;
Structure prediction by ZEFSAII (Michael W. Deem and Ramdas Pophale) SiO2 
 PCOD9178595
Probable space group: C 2/M
;
_chemical_formula_sum "Si O2"
_cell_formula_units_Z 64
_cell_length_a 20.007702
_cell_length_b 9.225759
_cell_length_c 20.777109
_cell_angle_alpha 90.000000
_cell_angle_beta 82.939805
_cell_angle_gamma 90.000000
_cell_volume 3806.088458
_symmetry_space_group_name_H-M "C 2/M"
_symmetry_group_IT_number 12
_symmetry_cell_setting 'monoclinic'
loop_
_space_group_symop_operation_xyz
x,y,z
-x,y,-z
-x,-y,-z
x,-y,z
1/2+x,1/2+y,z
1/2-x,1/2+y,-z
1/2-x,1/2-y,-z
1/2+x,1/2-y,z
loop_
_atom_site_type_symbol
_atom_site_label
_atom_site_fract_x
_atom_site_fract_y
_atom_site_fract_z
Si Si1 0.306536 0.827995 0.451101
Si Si2 0.001765 0.671889 0.826744
Si Si3 0.197395 0.831522 0.961423
Si Si4 0.166462 0.329534 0.694553
Si Si5 0.839612 0.670636 0.163013
Si Si6 0.474281 0.328900 0.301735
Si Si7 0.053342 0.830438 0.046962
Si Si8 0.548733 0.326273 0.553335
O O1 0.250000 0.750000 0.500000
O O2 0.292078 0.810161 0.375904
O O3 0.380416 0.758957 0.455308
O O4 0.308156 0.000000 0.464004
O O5 0.994388 0.500000 0.824270
O O6 0.080387 0.702384 0.836519
O O7 0.988349 0.742834 0.758918
O O8 0.956022 0.740380 0.887323
O O9 0.189602 0.761809 0.891945
O O10 0.215153 0.000000 0.953350
O O11 0.250000 0.750000 0.000000
O O12 0.125798 0.820292 0.005936
O O13 0.143632 0.500000 0.697515
O O14 0.194443 0.303939 0.762900
O O15 0.102897 0.224156 0.695309
O O16 0.833695 0.500000 0.148560
O O17 0.480137 0.500000 0.289901
O O18 0.489561 0.297055 0.374536
O O19 0.038579 0.000000 0.062547
O O20 0.000000 0.778648 0.000000
O O21 0.500000 0.290042 0.500000
O O22 0.562944 0.500000 0.550008
#
# Coordination Sequence:
#
# PCOD9178595 Si02
#       8
#     8   8   8   8   8   8   8   8
#     4  10  19  32  52  78 108 138 173 215 260 306
#     4  10  19  30  50  78 106 133 165 211 256 299
#     4  11  23  37  54  75 103 136 167 207 252 304
#     4   8  16  30  48  73 102 132 168 211 256 302
#     4   9  17  31  51  75 101 130 168 207 251 302
#     4   9  16  27  47  74 103 134 169 210 254 301
#     4  10  20  35  54  78 104 129 167 212 254 297
#     4   9  18  33  53  77 105 138 177 214 255 309
#
# _framework density 16.815162999999998
#
# number of rings (size 3 to 8) (size 9 to 14) (size 15 to 20)
#    0.000    2.500    1.250    2.250    0.000    4.500 
#    0.000    0.000    2.750    0.000    0.000    0.000 
#    0.000    0.000    0.000    0.000    0.000    0.000 
#
# Total GULP energy -178274.976324 kJ/mol
# GULP energy per Si atom -5571.093010 kJ/mol
# Density = 1.677689 g / cm^3
# Si number density = 16.815163 Si / 1000 Ang^3
#
#
#
# Elastic Constant Matrix: (Units=GPa)
#
#
# Indices 1 2 3 4 5 6 
#
# 1 34.6971 32.6460 38.9425 0.0000 11.5879 0.0000
# 2 32.6460 75.0078 79.8204 0.0000 11.3008 0.0000
# 3 38.9425 79.8204 167.9036 0.0000 13.7775 0.0000
# 4 0.0000 0.0000 0.0000 31.3232 0.0000 -1.4496
# 5 11.5879 11.3008 13.7775 0.0000 24.0527 0.0000
# 6 0.0000 0.0000 0.0000 -1.4496 0.0000 21.6895
#
#
#
# Elastic Compliance Matrix: (Units=1/GPa)
#
#
# Indices 1 2 3 4 5 6 
#
# 1 0.054541 -0.018736 -0.002423 0.000000 -0.016085 0.000000
# 2 -0.018736 0.034155 -0.011874 0.000000 -0.000219 0.000000
# 3 -0.002423 -0.011874 0.012181 0.000000 -0.000232 0.000000
# 4 0.000000 0.000000 0.000000 0.032024 0.000000 0.002140
# 5 -0.016085 -0.000219 -0.000232 0.000000 0.049561 0.000000
# 6 0.000000 0.000000 0.000000 0.002140 0.000000 0.046248
#
#
# Mechanical properties :
#
#
# Convention : Reuss Voigt Hill
#
# Bulk Modulus (GPa) = 28.72577 64.49180 46.60879
# Shear Modulus (GPa) = 16.31959 23.82639 20.07299
#
# Velocity S-wave (km/s) = 3.11871 3.76833 3.45881
# Velocity P-wave (km/s) = 5.48533 7.57433 6.61284
#
# Compressibility (1/GPa) = 0.03481194
#
# Stress axis : x y z
#
# Youngs Moduli (GPa) = 18.33481 29.27818 82.09277
#
# Poissons Ratio (x) = 0.54857 0.19889
# Poissons Ratio (y) = 0.34353 0.97473
# Poissons Ratio (z) = 0.04442 0.34764
#
# Static dielectric constant tensor:
#      x y z
#    x 1.536910 0.000000 0.001310 
#    y 0.000000 1.563650 0.000000 
#    z 0.001310 0.000000 1.594740 
# 
# From -- ./inp_files/319136.got.cif
#   From: 2010.05.17/outbox.cif.g08.bks.cpg/sg12_160_cif.got.tgz:319136.got - 2010.06.03 13:09:07.
