data_PCOD9178009
_publ_section_title
;
Structure prediction by ZEFSAII (Michael W. Deem and Ramdas Pophale) SiO2 
 PCOD9178009
Probable space group: C 2/M
;
_chemical_formula_sum "Si O2"
_cell_formula_units_Z 60
_cell_length_a 18.054306
_cell_length_b 13.835524
_cell_length_c 15.105439
_cell_angle_alpha 90.000000
_cell_angle_beta 74.133594
_cell_angle_gamma 90.000000
_cell_volume 3629.447243
_symmetry_space_group_name_H-M "C 2/M"
_symmetry_group_IT_number 12
_symmetry_cell_setting 'monoclinic'
loop_
_space_group_symop_operation_xyz
x,y,z
-x,y,-z
-x,-y,-z
x,-y,z
1/2+x,1/2+y,z
1/2-x,1/2+y,-z
1/2-x,1/2-y,-z
1/2+x,1/2-y,z
loop_
_atom_site_type_symbol
_atom_site_label
_atom_site_fract_x
_atom_site_fract_y
_atom_site_fract_z
Si Si1 0.678638 0.114691 0.925596
Si Si2 0.449375 0.766681 0.930633
Si Si3 0.799575 0.890740 0.495170
Si Si4 0.421459 0.885044 0.213591
Si Si5 0.400914 0.609876 0.635304
Si Si6 0.867317 0.308116 0.420157
Si Si7 0.355598 0.614215 0.852938
Si Si8 0.000000 0.260025 0.500000
O O1 0.646231 0.129831 0.836732
O O2 0.767699 0.143242 0.902739
O O3 0.672880 0.000000 0.944908
O O4 0.622198 0.171166 0.009269
O O5 0.503964 0.831745 0.850611
O O6 0.415606 0.676545 0.888738
O O7 0.500000 0.738758 0.000000
O O8 0.833440 0.885154 0.583993
O O9 0.842545 0.805272 0.428591
O O10 0.709461 0.866218 0.528440
O O11 0.813254 0.000000 0.458461
O O12 0.397341 0.842612 0.315756
O O13 0.434758 0.000000 0.216191
O O14 0.432647 0.500000 0.621134
O O15 0.370406 0.627569 0.743464
O O16 0.462448 0.688915 0.585146
O O17 0.933325 0.318604 0.472670
O O18 0.363359 0.500000 0.868794
#
# Coordination Sequence:
#
# PCOD9178009 Si02
#       8
#     8   8   8   8   8   8   8   4
#     4   9  18  33  54  75  92 118 161 210 248 276
#     4  10  20  33  49  72 101 130 155 189 242 296
#     4   9  18  33  51  71  97 127 163 203 238 275
#     4  10  19  33  53  74  96 122 160 205 243 281
#     4   9  17  30  49  71  93 122 162 207 243 269
#     4  10  19  31  50  73  97 129 161 196 240 284
#     4  10  19  31  50  74  98 126 161 197 235 284
#     4  10  19  30  45  70 102 130 158 192 236 288
#
# _framework density 16.531441999999998
#
# number of rings (size 3 to 8) (size 9 to 14) (size 15 to 20)
#    0.000    2.400    0.000    3.000    0.000    4.533 
#    0.000    2.000    0.000    0.800    0.000   10.267 
#    0.000    0.000    0.000    0.000    0.000    0.000 
#
# Total GULP energy -167317.064192 kJ/mol
# GULP energy per Si atom -5577.235473 kJ/mol
# Density = 1.649382 g / cm^3
# Si number density = 16.531442 Si / 1000 Ang^3
#
#
#
# Elastic Constant Matrix: (Units=GPa)
#
#
# Indices 1 2 3 4 5 6 
#
# 1 96.9378 50.2499 43.8680 0.0000 -4.6779 0.0000
# 2 50.2499 76.0784 43.2618 0.0000 3.0552 0.0000
# 3 43.8680 43.2618 79.4089 0.0000 -5.7954 0.0000
# 4 0.0000 0.0000 0.0000 22.3737 0.0000 1.6378
# 5 -4.6779 3.0552 -5.7954 0.0000 13.5498 0.0000
# 6 0.0000 0.0000 0.0000 1.6378 0.0000 24.4697
#
#
#
# Elastic Compliance Matrix: (Units=1/GPa)
#
#
# Indices 1 2 3 4 5 6 
#
# 1 0.017308 -0.009445 -0.003948 0.000000 0.006416 0.000000
# 2 -0.009445 0.025328 -0.009533 0.000000 -0.013049 0.000000
# 3 -0.003948 -0.009533 0.020670 0.000000 0.009627 0.000000
# 4 0.000000 0.000000 0.000000 0.044915 0.000000 -0.003006
# 5 0.006416 -0.013049 0.009627 0.000000 0.083077 0.000000
# 6 0.000000 0.000000 0.000000 -0.003006 0.000000 0.041068
#
#
# Mechanical properties :
#
#
# Convention : Reuss Voigt Hill
#
# Bulk Modulus (GPa) = 57.29190 58.57605 57.93397
# Shear Modulus (GPa) = 17.60345 19.74836 18.67591
#
# Velocity S-wave (km/s) = 3.26674 3.46004 3.36478
# Velocity P-wave (km/s) = 6.99717 7.17444 7.08636
#
# Compressibility (1/GPa) = 0.01745448
#
# Stress axis : x y z
#
# Youngs Moduli (GPa) = 57.77721 39.48257 48.37887
#
# Poissons Ratio (x) = 0.37290 0.19099
# Poissons Ratio (y) = 0.54569 0.46121
# Poissons Ratio (z) = 0.22809 0.37640
#
# Static dielectric constant tensor:
#      x y z
#    x 1.556840 0.000000 -0.004780 
#    y 0.000000 1.548710 0.000000 
#    z -0.004780 0.000000 1.528000 
# 
# From -- ./inp_files/156583.got.cif
#   From: 2010.05.17/outbox.cif.g08.bks.cpg/sg12_79_cif.got.tgz:156583.got - 2010.06.03 13:09:07.
