data_PCOD9178659
_publ_section_title
;
Structure prediction by ZEFSAII (Michael W. Deem and Ramdas Pophale) SiO2 
 PCOD9178659
Probable space group: C 2/M
;
_chemical_formula_sum "Si O2"
_cell_formula_units_Z 56
_cell_length_a 30.626570
_cell_length_b 9.170862
_cell_length_c 12.670319
_cell_angle_alpha 90.000000
_cell_angle_beta 105.414502
_cell_angle_gamma 90.000000
_cell_volume 3430.724061
_symmetry_space_group_name_H-M "C 2/M"
_symmetry_group_IT_number 12
_symmetry_cell_setting 'monoclinic'
loop_
_space_group_symop_operation_xyz
x,y,z
-x,y,-z
-x,-y,-z
x,-y,z
1/2+x,1/2+y,z
1/2-x,1/2+y,-z
1/2-x,1/2-y,-z
1/2+x,1/2-y,z
loop_
_atom_site_type_symbol
_atom_site_label
_atom_site_fract_x
_atom_site_fract_y
_atom_site_fract_z
Si Si1 0.802441 0.826005 0.427549
Si Si2 0.050703 0.826988 0.362062
Si Si3 0.452171 0.673609 0.027368
Si Si4 0.543322 0.173703 0.745541
Si Si5 0.300580 0.173377 0.652599
Si Si6 0.615175 0.674123 0.204775
Si Si7 0.604371 0.327208 0.615382
O O1 0.751931 0.795913 0.353184
O O2 0.807937 0.741600 0.541131
O O3 0.843475 0.790141 0.376058
O O4 0.805661 0.000000 0.452127
O O5 0.083379 0.789213 0.284990
O O6 0.076844 0.804318 0.488534
O O7 0.004701 0.737036 0.325562
O O8 0.039996 0.000000 0.346296
O O9 0.450749 0.500000 0.050123
O O10 0.412535 0.707967 0.918866
O O11 0.500000 0.701307 0.000000
O O12 0.449482 0.763341 0.132691
O O13 0.581735 0.234769 0.692520
O O14 0.542525 0.000000 0.745430
O O15 0.337533 0.244166 0.752303
O O16 0.306493 0.000000 0.652035
O O17 0.622615 0.500000 0.213641
O O18 0.601326 0.500000 0.638430
#
# Coordination Sequence:
#
# PCOD9178659 Si02
#       7
#     8   8   8   8   8   8   8
#     4   9  18  34  53  76 106 143 181 213 252 312
#     4  10  19  35  56  77 103 143 184 214 249 309
#     4  10  20  38  60  76  97 138 187 222 250 306
#     4  12  25  36  50  77 113 141 171 221 273 315
#     4  10  19  30  51  82 113 138 166 215 273 316
#     4  10  19  34  57  80 105 137 178 219 256 309
#     4  10  20  36  57  75 102 145 187 216 246 308
#
# _framework density 16.323084999999999
#
# number of rings (size 3 to 8) (size 9 to 14) (size 15 to 20)
#    0.000    1.857    2.857    2.143    0.000    4.857 
#    0.000    0.000    0.000    0.857    0.000    0.000 
#    0.000    0.000    0.000    0.000    0.000    0.000 
#
# Total GULP energy -156328.909621 kJ/mol
# GULP energy per Si atom -5583.175344 kJ/mol
# Density = 1.628593 g / cm^3
# Si number density = 16.323085 Si / 1000 Ang^3
#
#
#
# Elastic Constant Matrix: (Units=GPa)
#
#
# Indices 1 2 3 4 5 6 
#
# 1 146.0390 76.2049 73.1417 0.0000 9.9047 0.0000
# 2 76.2049 63.6422 54.6390 0.0000 0.6639 0.0000
# 3 73.1417 54.6390 73.2577 0.0000 1.2179 0.0000
# 4 0.0000 0.0000 0.0000 21.2757 0.0000 5.5762
# 5 9.9047 0.6639 1.2179 0.0000 29.2915 0.0000
# 6 0.0000 0.0000 0.0000 5.5762 0.0000 23.8823
#
#
#
# Elastic Compliance Matrix: (Units=1/GPa)
#
#
# Indices 1 2 3 4 5 6 
#
# 1 0.020075 -0.019055 -0.005729 0.000000 -0.006118 0.000000
# 2 -0.019055 0.061778 -0.027155 0.000000 0.006172 0.000000
# 3 -0.005729 -0.027155 0.039609 0.000000 0.000906 0.000000
# 4 0.000000 0.000000 0.000000 0.050066 0.000000 -0.011690
# 5 -0.006118 0.006172 0.000906 0.000000 0.036031 0.000000
# 6 0.000000 0.000000 0.000000 -0.011690 0.000000 0.044601
#
#
# Mechanical properties :
#
#
# Convention : Reuss Voigt Hill
#
# Bulk Modulus (GPa) = 56.87062 76.76780 66.81921
# Shear Modulus (GPa) = 13.81597 20.15346 16.98471
#
# Velocity S-wave (km/s) = 2.91246 3.51758 3.22923
# Velocity P-wave (km/s) = 6.79898 7.97685 7.41135
#
# Compressibility (1/GPa) = 0.01758377
#
# Stress axis : x y z
#
# Youngs Moduli (GPa) = 49.81293 16.18693 25.24680
#
# Poissons Ratio (x) = 0.30844 0.14465
# Poissons Ratio (y) = 0.94919 0.68557
# Poissons Ratio (z) = 0.28540 0.43955
#
# Static dielectric constant tensor:
#      x y z
#    x 1.548530 0.000000 0.011500 
#    y 0.000000 1.539360 0.000000 
#    z 0.011500 0.000000 1.525060 
# 
# From -- ./inp_files/186864.got.cif
#   From: 2010.05.17/outbox.cif.g08.bks.cpg/sg12_94_cif.got.tgz:186864.got - 2010.06.03 13:09:07.
