data_PCOD9178636
_publ_section_title
;
Structure prediction by ZEFSAII (Michael W. Deem and Ramdas Pophale) SiO2 
 PCOD9178636
Probable space group: C 2/M
;
_chemical_formula_sum "Si O2"
_cell_formula_units_Z 64
_cell_length_a 25.546097
_cell_length_b 8.277111
_cell_length_c 24.511742
_cell_angle_alpha 90.000000
_cell_angle_beta 46.721290
_cell_angle_gamma 90.000000
_cell_volume 3773.334650
_symmetry_space_group_name_H-M "C 2/M"
_symmetry_group_IT_number 12
_symmetry_cell_setting 'monoclinic'
loop_
_space_group_symop_operation_xyz
x,y,z
-x,y,-z
-x,-y,-z
x,-y,z
1/2+x,1/2+y,z
1/2-x,1/2+y,-z
1/2-x,1/2-y,-z
1/2+x,1/2-y,z
loop_
_atom_site_type_symbol
_atom_site_label
_atom_site_fract_x
_atom_site_fract_y
_atom_site_fract_z
Si Si1 0.316502 0.694737 0.682529
Si Si2 0.603178 0.809570 0.564831
Si Si3 0.110354 0.188186 0.679479
Si Si4 0.437243 0.811922 0.998677
Si Si5 0.267317 0.690893 0.597174
Si Si6 0.668549 0.197716 0.838210
Si Si7 0.451526 0.195981 0.164958
Si Si8 0.475652 0.194494 0.577325
O O1 0.316832 0.500000 0.682465
O O2 0.300270 0.746004 0.631634
O O3 0.249219 0.749615 0.767326
O O4 0.394198 0.753052 0.645508
O O5 0.594601 0.781515 0.634972
O O6 0.673708 0.721665 0.491340
O O7 0.533738 0.751666 0.580484
O O8 0.612920 0.000000 0.547134
O O9 0.192932 0.222270 0.637081
O O10 0.062064 0.242440 0.764946
O O11 0.100478 0.000000 0.676061
O O12 0.476217 0.743918 0.917264
O O13 0.421083 0.000000 0.998324
O O14 0.500000 0.811236 0.000000
O O15 0.368268 0.742488 0.079451
O O16 0.251534 0.500000 0.612794
O O17 0.616147 0.242580 0.825300
O O18 0.667513 0.000000 0.840709
O O19 0.453095 0.000000 0.164244
O O20 0.500000 0.253560 0.500000
O O21 0.477068 0.000000 0.575389
#
# Coordination Sequence:
#
# PCOD9178636 Si02
#       8
#     8   8   8   8   8   8   8   8
#     4  10  19  30  51  77 102 131 163 202 242 288
#     4  11  23  39  55  70  94 130 168 210 250 293
#     4  12  24  35  49  72 102 135 168 205 245 293
#     4   7  11  20  42  70  97 128 161 197 233 281
#     4  11  21  35  53  75 101 131 166 203 243 292
#     4   8  13  25  44  73 103 128 162 199 238 286
#     4   9  15  28  48  71  99 132 167 199 237 288
#     4  10  21  37  54  72  95 125 164 207 252 296
#
# _framework density 16.961124999999999
#
# number of rings (size 3 to 8) (size 9 to 14) (size 15 to 20)
#    0.000    2.250    2.500    3.750    0.000    1.750 
#    0.000    0.000    0.000    4.125    0.000    0.875 
#    0.000    0.000    0.000    0.000    0.000    0.000 
#
# Total GULP energy -178438.144237 kJ/mol
# GULP energy per Si atom -5576.192007 kJ/mol
# Density = 1.692252 g / cm^3
# Si number density = 16.961125 Si / 1000 Ang^3
#
#
#
# Elastic Constant Matrix: (Units=GPa)
#
#
# Indices 1 2 3 4 5 6 
#
# 1 47.3014 -1.9444 29.9144 0.0014 6.6409 -0.0014
# 2 -1.9444 12.0766 -5.0518 0.0040 -2.1376 0.0124
# 3 29.9144 -5.0518 138.2553 0.0005 -2.7674 0.0010
# 4 0.0014 0.0040 0.0005 14.9255 -0.0003 -3.0573
# 5 6.6409 -2.1376 -2.7674 -0.0003 16.5532 -0.0001
# 6 -0.0014 0.0124 0.0010 -3.0573 -0.0001 8.3090
#
#
#
# Elastic Compliance Matrix: (Units=1/GPa)
#
#
# Indices 1 2 3 4 5 6 
#
# 1 0.026560 -0.000300 -0.005992 -0.000001 -0.011696 0.000005
# 2 -0.000300 0.086298 0.003455 -0.000054 0.011842 -0.000149
# 3 -0.005992 0.003455 0.008742 -0.000002 0.004312 -0.000008
# 4 -0.000001 -0.000054 -0.000002 0.072461 -0.000005 0.026662
# 5 -0.011696 0.011842 0.004312 -0.000005 0.067354 -0.000021
# 6 0.000005 -0.000149 -0.000008 0.026662 -0.000021 0.130162
#
#
# Mechanical properties :
#
#
# Convention : Reuss Voigt Hill
#
# Bulk Modulus (GPa) = 8.62620 27.05221 17.83920
# Shear Modulus (GPa) = 11.47069 19.60520 15.53795
#
# Velocity S-wave (km/s) = 2.60339 3.40353 3.02998
# Velocity P-wave (km/s) = 3.75948 5.60620 4.77301
#
# Compressibility (1/GPa) = 0.11592593
#
# Stress axis : x y z
#
# Youngs Moduli (GPa) = 37.65035 11.58778 114.38984
#
# Poissons Ratio (x) = 0.00348 0.68542
# Poissons Ratio (y) = 0.01131 -0.39525
# Poissons Ratio (z) = 0.22560 -0.04004
#
# Static dielectric constant tensor:
#      x y z
#    x 1.542190 0.000000 0.002190 
#    y 0.000000 1.591030 0.000000 
#    z 0.002190 0.000000 1.605570 
# 
# From -- ./inp_files/348530.got.cif
#   From: 2010.05.17/outbox.cif.g08.bks.cpg/sg12_175_cif.got.tgz:348530.got - 2010.06.03 13:09:07.
