data_PCOD9178067
_publ_section_title
;
Structure prediction by ZEFSAII (Michael W. Deem and Ramdas Pophale) SiO2 
 PCOD9178067
Probable space group: C 2/M
;
_chemical_formula_sum "Si O2"
_cell_formula_units_Z 48
_cell_length_a 22.773529
_cell_length_b 13.721849
_cell_length_c 20.606315
_cell_angle_alpha 90.000000
_cell_angle_beta 153.128502
_cell_angle_gamma 90.000000
_cell_volume 2910.536944
_symmetry_space_group_name_H-M "C 2/M"
_symmetry_group_IT_number 12
_symmetry_cell_setting 'monoclinic'
loop_
_space_group_symop_operation_xyz
x,y,z
-x,y,-z
-x,-y,-z
x,-y,z
1/2+x,1/2+y,z
1/2-x,1/2+y,-z
1/2-x,1/2-y,-z
1/2+x,1/2-y,z
loop_
_atom_site_type_symbol
_atom_site_label
_atom_site_fract_x
_atom_site_fract_y
_atom_site_fract_z
Si Si1 0.649137 0.387078 0.124371
Si Si2 0.395285 0.725639 0.667308
Si Si3 0.488323 0.889228 0.679113
Si Si4 0.242805 0.290106 0.891971
Si Si5 0.281824 0.388361 0.665633
Si Si6 0.129319 0.115560 0.853946
O O1 0.672442 0.500000 0.126177
O O2 0.682841 0.312800 0.100707
O O3 0.729440 0.368026 0.269453
O O4 0.500000 0.380673 0.000000
O O5 0.250000 0.750000 0.500000
O O6 0.473093 0.824401 0.728907
O O7 0.377660 0.683761 0.721829
O O8 0.476451 0.646422 0.705447
O O9 0.604298 0.844347 0.752256
O O10 0.355881 0.884439 0.506999
O O11 0.515813 0.000000 0.722848
O O12 0.207016 0.179692 0.877311
O O13 0.317563 0.342651 0.025121
O O14 0.331542 0.500000 0.708610
O O15 0.145106 0.000000 0.864066
#
# Coordination Sequence:
#
# PCOD9178067 Si02
#       6
#     8   8   8   8   8   8
#     4  10  19  30  46  68  95 126 159 199 246 294
#     4   9  17  29  46  70  95 122 157 196 235 279
#     4   9  17  29  45  67  94 123 157 197 239 282
#     4  10  20  32  48  72  98 124 158 198 237 285
#     4   9  17  28  44  67  95 126 157 193 242 293
#     4  10  19  32  52  73  96 128 162 199 242 284
#
# _framework density 16.491803000000001
#
# number of rings (size 3 to 8) (size 9 to 14) (size 15 to 20)
#    0.000    2.500    0.000    3.000    0.000    2.667 
#    0.000    2.500    0.000    1.500    0.000   10.500 
#    0.000    0.000    0.000    0.000    0.000    0.000 
#
# Total GULP energy -133654.872987 kJ/mol
# GULP energy per Si atom -5568.953041 kJ/mol
# Density = 1.645427 g / cm^3
# Si number density = 16.491803 Si / 1000 Ang^3
#
#
#
# Elastic Constant Matrix: (Units=GPa)
#
#
# Indices 1 2 3 4 5 6 
#
# 1 97.3705 54.7761 21.2550 0.0000 -2.5718 0.0000
# 2 54.7761 131.1804 28.1349 0.0000 0.2120 0.0000
# 3 21.2550 28.1349 37.9315 0.0000 3.8145 0.0000
# 4 0.0000 0.0000 0.0000 14.9131 0.0000 -0.5059
# 5 -2.5718 0.2120 3.8145 0.0000 21.9728 0.0000
# 6 0.0000 0.0000 0.0000 -0.5059 0.0000 23.4387
#
#
#
# Elastic Compliance Matrix: (Units=1/GPa)
#
#
# Indices 1 2 3 4 5 6 
#
# 1 0.014085 -0.004922 -0.004490 0.000000 0.002476 0.000000
# 2 -0.004922 0.010811 -0.005285 0.000000 0.000237 0.000000
# 3 -0.004490 -0.005285 0.033431 0.000000 -0.006278 0.000000
# 4 0.000000 0.000000 0.000000 0.067104 0.000000 0.001448
# 5 0.002476 0.000237 -0.006278 0.000000 0.046888 0.000000
# 6 0.000000 0.000000 0.000000 0.001448 0.000000 0.042696
#
#
# Mechanical properties :
#
#
# Convention : Reuss Voigt Hill
#
# Bulk Modulus (GPa) = 34.56377 52.75717 43.66047
# Shear Modulus (GPa) = 19.68086 22.88602 21.28344
#
# Velocity S-wave (km/s) = 3.45827 3.72925 3.59632
# Velocity P-wave (km/s) = 6.07864 7.11354 6.61636
#
# Compressibility (1/GPa) = 0.02893203
#
# Stress axis : x y z
#
# Youngs Moduli (GPa) = 70.99953 92.49422 29.91251
#
# Poissons Ratio (x) = 0.45527 0.13432
# Poissons Ratio (y) = 0.34947 0.15808
# Poissons Ratio (z) = 0.31882 0.48882
#
# Static dielectric constant tensor:
#      x y z
#    x 1.551670 0.000000 0.014480 
#    y 0.000000 1.557610 0.000000 
#    z 0.014480 0.000000 1.630470 
# 
# From -- ./inp_files/164000.got.cif
#   From: 2010.05.17/outbox.cif.g08.bks.cpg/sg12_82_cif.got.tgz:164000.got - 2010.06.03 13:09:07.
