data_PCOD9178192
_publ_section_title
;
Structure prediction by ZEFSAII (Michael W. Deem and Ramdas Pophale) SiO2 
 PCOD9178192
Probable space group: C 2/M
;
_chemical_formula_sum "Si O2"
_cell_formula_units_Z 40
_cell_length_a 13.198179
_cell_length_b 13.645894
_cell_length_c 15.586470
_cell_angle_alpha 90.000000
_cell_angle_beta 62.719577
_cell_angle_gamma 90.000000
_cell_volume 2494.911041
_symmetry_space_group_name_H-M "C 2/M"
_symmetry_group_IT_number 12
_symmetry_cell_setting 'monoclinic'
loop_
_space_group_symop_operation_xyz
x,y,z
-x,y,-z
-x,-y,-z
x,-y,z
1/2+x,1/2+y,z
1/2-x,1/2+y,-z
1/2-x,1/2-y,-z
1/2+x,1/2-y,z
loop_
_atom_site_type_symbol
_atom_site_label
_atom_site_fract_x
_atom_site_fract_y
_atom_site_fract_z
Si Si1 0.421734 0.613397 0.113506
Si Si2 0.162099 0.266758 0.611497
Si Si3 0.524343 0.114253 0.394810
Si Si4 0.776534 0.748403 0.749335
Si Si5 0.528592 0.385024 0.259432
O O1 0.378134 0.500000 0.129347
O O2 0.321662 0.693800 0.158486
O O3 0.496834 0.622834 0.171055
O O4 0.500000 0.627192 0.000000
O O5 0.250000 0.250000 0.500000
O O6 0.222148 0.280236 0.679688
O O7 0.085590 0.360074 0.618186
O O8 0.072871 0.175684 0.654183
O O9 0.500000 0.153778 0.500000
O O10 0.631866 0.166186 0.311944
O O11 0.545701 0.000000 0.393065
O O12 0.851250 0.833168 0.765073
O O13 0.528586 0.500000 0.282540
#
# Coordination Sequence:
#
# PCOD9178192 Si02
#       5
#     8   8   8   8   8
#     4   9  18  34  55  77  98 125 164 206 251 298
#     4  10  19  32  47  68  99 130 166 201 238 288
#     4  10  19  30  47  70  94 125 164 200 239 285
#     4  10  19  33  52  70 101 131 160 207 242 293
#     4   9  20  34  50  73 100 132 166 203 247 296
#
# _framework density 16.032636
#
# number of rings (size 3 to 8) (size 9 to 14) (size 15 to 20)
#    0.000    2.400    2.000    0.600    0.000    3.200 
#    0.000    1.000    0.000    0.600    0.000    0.000 
#    0.000    0.000    0.000    0.000    0.000    0.000 
#
# Total GULP energy -111419.529092 kJ/mol
# GULP energy per Si atom -5570.976455 kJ/mol
# Density = 1.599615 g / cm^3
# Si number density = 16.032636 Si / 1000 Ang^3
#
#
#
# Elastic Constant Matrix: (Units=GPa)
#
#
# Indices 1 2 3 4 5 6 
#
# 1 88.4705 28.2698 25.4588 0.0000 -1.5010 0.0000
# 2 28.2698 65.0403 27.0285 0.0000 -0.6582 0.0000
# 3 25.4588 27.0285 86.1898 0.0000 -10.5491 0.0000
# 4 0.0000 0.0000 0.0000 -8.6698 0.0000 14.7161
# 5 -1.5010 -0.6582 -10.5491 0.0000 13.6006 0.0000
# 6 0.0000 0.0000 0.0000 14.7161 0.0000 13.6167
#
#
#
# Elastic Compliance Matrix: (Units=1/GPa)
#
#
# Indices 1 2 3 4 5 6 
#
# 1 0.013580 -0.004836 -0.002585 0.000000 -0.000741 0.000000
# 2 -0.004836 0.019581 -0.005150 0.000000 -0.003581 0.000000
# 3 -0.002585 -0.005150 0.015375 0.000000 0.011391 0.000000
# 4 0.000000 0.000000 0.000000 -0.040694 0.000000 0.043979
# 5 -0.000741 -0.003581 0.011391 0.000000 0.082106 0.000000
# 6 0.000000 0.000000 0.000000 0.043979 0.000000 0.025910
#
#
# Mechanical properties :
#
#
# Convention : Reuss Voigt Hill
#
# Bulk Modulus (GPa) = 42.74736 44.57942 43.66339
# Shear Modulus (GPa) = 33.60236 14.30574 23.95405
#
# Velocity S-wave (km/s) = 4.58304 2.99036 3.86953
# Velocity P-wave (km/s) = 7.39772 6.30784 6.87441
#
# Compressibility (1/GPa) = 0.02339326
#
# Stress axis : x y z
#
# Youngs Moduli (GPa) = 73.63886 51.07007 65.03929
#
# Poissons Ratio (x) = 0.24695 0.16816
# Poissons Ratio (y) = 0.35608 0.33498
# Poissons Ratio (z) = 0.19039 0.26303
#
# Static dielectric constant tensor:
#      x y z
#    x 1.526510 0.000000 0.006500 
#    y 0.000000 1.531440 0.000000 
#    z 0.006500 0.000000 1.519870 
# 
# From -- ./inp_files/129111.got.cif
#   From: 2010.05.17/outbox.cif.g08.bks.cpg/sg12_65_cif.got.tgz:129111.got - 2010.06.03 13:09:07.
