data_PCOD9178219
_publ_section_title
;
Structure prediction by ZEFSAII (Michael W. Deem and Ramdas Pophale) SiO2 
 PCOD9178219
Probable space group: C 2/M
;
_chemical_formula_sum "Si O2"
_cell_formula_units_Z 64
_cell_length_a 24.208386
_cell_length_b 20.389837
_cell_length_c 8.284509
_cell_angle_alpha 90.000000
_cell_angle_beta 124.796965
_cell_angle_gamma 90.000000
_cell_volume 3358.028907
_symmetry_space_group_name_H-M "C 2/M"
_symmetry_group_IT_number 12
_symmetry_cell_setting 'monoclinic'
loop_
_space_group_symop_operation_xyz
x,y,z
-x,y,-z
-x,-y,-z
x,-y,z
1/2+x,1/2+y,z
1/2-x,1/2+y,-z
1/2-x,1/2-y,-z
1/2+x,1/2-y,z
loop_
_atom_site_type_symbol
_atom_site_label
_atom_site_fract_x
_atom_site_fract_y
_atom_site_fract_z
Si Si1 0.065954 0.306704 0.541517
Si Si2 0.867931 0.427086 0.212542
Si Si3 0.258583 0.154984 0.868623
Si Si4 0.155192 0.779122 0.889588
Si Si5 0.931563 0.637734 0.816011
Si Si6 0.924959 0.778722 0.937045
Si Si7 0.303996 0.073045 0.464121
Si Si8 0.288330 0.319746 0.557221
O O1 0.076529 0.370957 0.672072
O O2 0.127634 0.258819 0.684719
O O3 0.059532 0.329041 0.346683
O O4 0.000000 0.272918 0.500000
O O5 0.892772 0.500000 0.216769
O O6 0.833386 0.427547 0.331864
O O7 0.812190 0.401150 0.996131
O O8 0.201430 0.161461 0.909849
O O9 0.224276 0.150279 0.639445
O O10 0.298118 0.224622 0.945459
O O11 0.095928 0.795992 0.915013
O O12 0.918480 0.699697 0.909694
O O13 0.866952 0.592154 0.684879
O O14 0.000000 0.606249 0.000000
O O15 0.865891 0.809006 0.729382
O O16 0.000000 0.795091 0.000000
O O17 0.248928 0.129676 0.386375
O O18 0.279257 0.000000 0.460868
O O19 0.250000 0.250000 0.500000
#
# Coordination Sequence:
#
# PCOD9178219 Si02
#       8
#     8   8   8   8   8   8   8   8
#     4  10  19  30  47  71 104 144 187 224 266 323
#     4   9  20  36  52  73 107 146 186 228 273 329
#     4  10  20  32  54  80 104 141 179 233 281 325
#     4  10  19  32  50  76 106 139 183 228 279 328
#     4  10  19  32  50  75 112 150 188 231 277 331
#     4  11  21  34  54  82 116 149 185 229 283 337
#     4  10  21  37  56  79 109 150 193 234 280 339
#     4  12  21  35  58  84 112 144 186 239 282 335
#
# _framework density 19.058799
#
# number of rings (size 3 to 8) (size 9 to 14) (size 15 to 20)
#    0.000    1.750    2.500    3.000    3.500    2.000 
#    0.000    0.000    0.000    0.375    0.000    0.000 
#    0.000    4.500    0.000    0.000    0.000    0.000 
#
# Total GULP energy -178632.517834 kJ/mol
# GULP energy per Si atom -5582.266182 kJ/mol
# Density = 1.901542 g / cm^3
# Si number density = 19.058799 Si / 1000 Ang^3
#
#
#
# Elastic Constant Matrix: (Units=GPa)
#
#
# Indices 1 2 3 4 5 6 
#
# 1 79.8206 -1.8008 18.7727 0.0000 5.9886 0.0000
# 2 -1.8008 35.4592 11.8621 0.0000 12.3100 0.0000
# 3 18.7727 11.8621 112.4860 0.0000 10.4401 0.0000
# 4 0.0000 0.0000 0.0000 11.8836 0.0000 2.1918
# 5 5.9886 12.3100 10.4401 0.0000 31.6527 0.0000
# 6 0.0000 0.0000 0.0000 2.1918 0.0000 17.7079
#
#
#
# Elastic Compliance Matrix: (Units=1/GPa)
#
#
# Indices 1 2 3 4 5 6 
#
# 1 0.013306 0.002356 -0.002218 0.000000 -0.002702 0.000000
# 2 0.002356 0.033625 -0.002769 0.000000 -0.012610 0.000000
# 3 -0.002218 -0.002769 0.009711 0.000000 -0.001706 0.000000
# 4 0.000000 0.000000 0.000000 0.086116 0.000000 -0.010659
# 5 -0.002702 -0.012610 -0.001706 0.000000 0.037571 0.000000
# 6 0.000000 0.000000 0.000000 -0.010659 0.000000 0.057791
#
#
# Mechanical properties :
#
#
# Convention : Reuss Voigt Hill
#
# Bulk Modulus (GPa) = 19.46331 31.71487 25.58909
# Shear Modulus (GPa) = 19.19331 25.51093 22.35212
#
# Velocity S-wave (km/s) = 3.17686 3.66257 3.42833
# Velocity P-wave (km/s) = 4.86734 5.87900 5.39692
#
# Compressibility (1/GPa) = 0.05137871
#
# Stress axis : x y z
#
# Youngs Moduli (GPa) = 75.15599 29.73995 102.98085
#
# Poissons Ratio (x) = -0.07006 0.22844
# Poissons Ratio (y) = -0.17705 0.28513
# Poissons Ratio (z) = 0.16671 0.08234
#
# Static dielectric constant tensor:
#      x y z
#    x 1.725310 0.000000 -0.023570 
#    y 0.000000 1.646340 0.000000 
#    z -0.023570 0.000000 1.703620 
# 
# From -- ./inp_files/99124.got.cif
#   From: 2010.05.17/outbox.cif.g08.bks.cpg/sg12_50_cif.got.tgz:99124.got - 2010.06.03 13:09:07.
