data_PCOD9178289
_publ_section_title
;
Structure prediction by ZEFSAII (Michael W. Deem and Ramdas Pophale) SiO2 
 PCOD9178289
Probable space group: C 2/M
;
_chemical_formula_sum "Si O2"
_cell_formula_units_Z 64
_cell_length_a 29.139791
_cell_length_b 14.159751
_cell_length_c 12.377999
_cell_angle_alpha 90.000000
_cell_angle_beta 134.920697
_cell_angle_gamma 90.000000
_cell_volume 3616.410899
_symmetry_space_group_name_H-M "C 2/M"
_symmetry_group_IT_number 12
_symmetry_cell_setting 'monoclinic'
loop_
_space_group_symop_operation_xyz
x,y,z
-x,y,-z
-x,-y,-z
x,-y,z
1/2+x,1/2+y,z
1/2-x,1/2+y,-z
1/2-x,1/2-y,-z
1/2+x,1/2-y,z
loop_
_atom_site_type_symbol
_atom_site_label
_atom_site_fract_x
_atom_site_fract_y
_atom_site_fract_z
Si Si1 0.575906 0.798657 0.664227
Si Si2 0.842618 0.808726 0.697670
Si Si3 0.199823 0.610497 0.452535
Si Si4 0.576672 0.396748 0.606452
Si Si5 0.565058 0.387206 0.334590
Si Si6 0.962742 0.389073 0.184140
Si Si7 0.954426 0.215185 0.029812
Si Si8 0.108179 0.610205 0.502520
O O1 0.500000 0.797974 0.500000
O O2 0.598036 0.690668 0.715064
O O3 0.575672 0.860737 0.771060
O O4 0.614701 0.838278 0.626908
O O5 0.828958 0.695772 0.668113
O O6 0.775548 0.865012 0.588482
O O7 0.882493 0.840081 0.657371
O O8 0.888305 0.829322 0.875956
O O9 0.190062 0.500000 0.403522
O O10 0.164111 0.623437 0.508254
O O11 0.500000 0.405401 0.500000
O O12 0.606238 0.500000 0.674871
O O13 0.582121 0.370994 0.488470
O O14 0.563744 0.500000 0.315274
O O15 0.495378 0.343896 0.185720
O O16 0.957111 0.500000 0.151765
O O17 0.941821 0.318870 0.055515
O O18 0.038789 0.365501 0.332968
O O19 0.000000 0.222190 0.000000
O O20 0.103110 0.500000 0.520032
#
# Coordination Sequence:
#
# PCOD9178289 Si02
#       8
#     8   8   8   8   8   8   8   8
#     4   9  15  26  44  67  98 124 151 190 234 282
#     4  10  21  34  49  70  94 124 166 200 236 283
#     4  10  20  34  51  69  92 122 158 202 243 283
#     4   9  16  25  41  66  95 126 155 186 231 281
#     4  10  19  32  50  72 100 131 161 196 238 285
#     4  10  19  30  47  73 101 128 157 191 238 293
#     4  10  20  32  47  69  97 128 160 196 238 282
#     4   9  16  27  46  71  95 120 152 191 236 280
#
# _framework density 17.697105000000001
#
# number of rings (size 3 to 8) (size 9 to 14) (size 15 to 20)
#    0.000    2.375    0.000    5.250    0.000    5.000 
#    0.000    0.000    0.000    0.750    0.000    0.000 
#    0.000    8.000    0.000    0.000    0.000    0.000 
#
# Total GULP energy -178303.670396 kJ/mol
# GULP energy per Si atom -5571.989700 kJ/mol
# Density = 1.765683 g / cm^3
# Si number density = 17.697105 Si / 1000 Ang^3
#
#
#
# Elastic Constant Matrix: (Units=GPa)
#
#
# Indices 1 2 3 4 5 6 
#
# 1 55.6367 15.9560 13.1712 0.0000 9.5574 0.0000
# 2 15.9560 75.5080 11.9473 0.0000 4.9239 0.0000
# 3 13.1712 11.9473 23.4222 0.0000 9.4036 0.0000
# 4 0.0000 0.0000 0.0000 23.5441 0.0000 -6.6218
# 5 9.5574 4.9239 9.4036 0.0000 9.2786 0.0000
# 6 0.0000 0.0000 0.0000 -6.6218 0.0000 28.1407
#
#
#
# Elastic Compliance Matrix: (Units=1/GPa)
#
#
# Indices 1 2 3 4 5 6 
#
# 1 0.022876 -0.003012 -0.004231 0.000000 -0.017677 0.000000
# 2 -0.003012 0.014803 -0.006658 0.000000 0.001994 0.000000
# 3 -0.004231 -0.006658 0.076379 0.000000 -0.069517 0.000000
# 4 0.000000 0.000000 0.000000 0.045484 0.000000 0.010703
# 5 -0.017677 0.001994 -0.069517 0.000000 0.195377 0.000000
# 6 0.000000 0.000000 0.000000 0.010703 0.000000 0.038054
#
#
# Mechanical properties :
#
#
# Convention : Reuss Voigt Hill
#
# Bulk Modulus (GPa) = 11.59316 26.30176 18.94746
# Shear Modulus (GPa) = 11.12280 19.75886 15.44083
#
# Velocity S-wave (km/s) = 2.50973 3.34504 2.95703
# Velocity P-wave (km/s) = 3.86826 5.46017 4.73164
#
# Compressibility (1/GPa) = 0.08625773
#
# Stress axis : x y z
#
# Youngs Moduli (GPa) = 43.71463 67.55161 13.09253
#
# Poissons Ratio (x) = 0.20346 0.05539
# Poissons Ratio (y) = 0.13166 0.08717
# Poissons Ratio (z) = 0.18494 0.44976
#
# Static dielectric constant tensor:
#      x y z
#    x 1.597480 0.000000 -0.004450 
#    y 0.000000 1.659240 0.000000 
#    z -0.004450 0.000000 1.587840 
# 
# From -- ./inp_files/189469.got.cif
#   From: 2010.05.17/outbox.cif.g08.bks.cpg/sg12_95_cif.got.tgz:189469.got - 2010.06.03 13:09:07.
