data_PCOD9178350
_publ_section_title
;
Structure prediction by ZEFSAII (Michael W. Deem and Ramdas Pophale) SiO2 
 PCOD9178350
Probable space group: C 2/M
;
_chemical_formula_sum "Si O2"
_cell_formula_units_Z 64
_cell_length_a 31.028864
_cell_length_b 8.689930
_cell_length_c 15.430263
_cell_angle_alpha 90.000000
_cell_angle_beta 101.306273
_cell_angle_gamma 90.000000
_cell_volume 4079.851535
_symmetry_space_group_name_H-M "C 2/M"
_symmetry_group_IT_number 12
_symmetry_cell_setting 'monoclinic'
loop_
_space_group_symop_operation_xyz
x,y,z
-x,y,-z
-x,-y,-z
x,-y,z
1/2+x,1/2+y,z
1/2-x,1/2+y,-z
1/2-x,1/2-y,-z
1/2+x,1/2-y,z
loop_
_atom_site_type_symbol
_atom_site_label
_atom_site_fract_x
_atom_site_fract_y
_atom_site_fract_z
Si Si1 0.552148 0.683309 0.434432
Si Si2 0.808360 0.314451 0.383231
Si Si3 0.218194 0.314563 0.108007
Si Si4 0.685241 0.683676 0.922233
Si Si5 0.643000 0.813976 0.419067
Si Si6 0.371020 0.185410 0.248784
Si Si7 0.959090 0.314949 0.377491
Si Si8 0.286728 0.814193 0.696550
O O1 0.550887 0.500000 0.441355
O O2 0.595172 0.738932 0.401146
O O3 0.506546 0.743944 0.376303
O O4 0.553845 0.756390 0.531618
O O5 0.805955 0.500000 0.380799
O O6 0.832119 0.270116 0.481994
O O7 0.837965 0.264672 0.313004
O O8 0.759691 0.247975 0.356007
O O9 0.216126 0.500000 0.103154
O O10 0.268402 0.268236 0.104562
O O11 0.207490 0.264800 0.201349
O O12 0.187808 0.246713 0.020694
O O13 0.683955 0.500000 0.923075
O O14 0.646355 0.747310 0.847702
O O15 0.673655 0.768081 0.350787
O O16 0.638307 0.000000 0.417277
O O17 0.420166 0.229008 0.296750
O O18 0.369243 0.000000 0.244158
O O19 0.962226 0.500000 0.381747
O O20 0.284521 0.000000 0.694762
#
# Coordination Sequence:
#
# PCOD9178350 Si02
#       8
#     8   8   8   8   8   8   8   8
#     4  11  21  32  48  73  99 125 163 207 246 279
#     4  10  19  31  46  68  99 132 167 199 234 284
#     4   9  18  32  46  67  95 125 162 202 242 284
#     4  10  19  30  48  70  95 126 159 200 245 287
#     4  10  20  35  50  67  96 135 172 200 238 290
#     4  10  19  31  49  72  97 130 161 193 238 290
#     4  10  19  34  53  70  96 130 163 196 244 297
#     4  10  20  33  50  70  95 130 170 208 241 279
#
# _framework density 15.686845999999999
#
# number of rings (size 3 to 8) (size 9 to 14) (size 15 to 20)
#    0.000    2.000    2.500    3.000    0.000    3.000 
#    0.000    0.000    0.000    0.000    0.000    0.875 
#    0.000    7.000    0.000    0.000    0.000    0.000 
#
# Total GULP energy -178575.337965 kJ/mol
# GULP energy per Si atom -5580.479311 kJ/mol
# Density = 1.565114 g / cm^3
# Si number density = 15.686846 Si / 1000 Ang^3
#
#
#
# Elastic Constant Matrix: (Units=GPa)
#
#
# Indices 1 2 3 4 5 6 
#
# 1 128.9375 31.6971 67.2090 0.0000 11.8020 0.0000
# 2 31.6971 25.7453 26.6439 0.0000 5.1663 0.0000
# 3 67.2090 26.6439 91.9292 0.0000 13.5054 0.0000
# 4 0.0000 0.0000 0.0000 16.5480 0.0000 4.6902
# 5 11.8020 5.1663 13.5054 0.0000 24.9310 0.0000
# 6 0.0000 0.0000 0.0000 4.6902 0.0000 23.5241
#
#
#
# Elastic Compliance Matrix: (Units=1/GPa)
#
#
# Indices 1 2 3 4 5 6 
#
# 1 0.013992 -0.009440 -0.007397 0.000000 -0.000661 0.000000
# 2 -0.009440 0.062064 -0.010706 0.000000 -0.002593 0.000000
# 3 -0.007397 -0.010706 0.020152 0.000000 -0.005196 0.000000
# 4 0.000000 0.000000 0.000000 0.064050 0.000000 -0.012770
# 5 -0.000661 -0.002593 -0.005196 0.000000 0.043776 0.000000
# 6 0.000000 0.000000 0.000000 -0.012770 0.000000 0.045056
#
#
# Mechanical properties :
#
#
# Convention : Reuss Voigt Hill
#
# Bulk Modulus (GPa) = 24.31685 55.30133 39.80909
# Shear Modulus (GPa) = 15.72915 21.07143 18.40029
#
# Velocity S-wave (km/s) = 3.16997 3.66902 3.42859
# Velocity P-wave (km/s) = 5.37898 7.29923 6.41140
#
# Compressibility (1/GPa) = 0.04112375
#
# Stress axis : x y z
#
# Youngs Moduli (GPa) = 71.46781 16.11247 49.62295
#
# Poissons Ratio (x) = 0.15209 0.36705
# Poissons Ratio (y) = 0.67462 0.53125
# Poissons Ratio (z) = 0.52863 0.17250
#
# Static dielectric constant tensor:
#      x y z
#    x 1.512930 0.000000 0.000030 
#    y 0.000000 1.524080 0.000000 
#    z 0.000030 0.000000 1.512800 
# 
# From -- ./inp_files/244066.got.cif
#   From: 2010.05.17/outbox.cif.g08.bks.cpg/sg12_123_cif.got.tgz:244066.got - 2010.06.03 13:09:07.
