data_PCOD9178064
_publ_section_title
;
Structure prediction by ZEFSAII (Michael W. Deem and Ramdas Pophale) SiO2 
 PCOD9178064
Probable space group: C 2/M
;
_chemical_formula_sum "Si O2"
_cell_formula_units_Z 56
_cell_length_a 19.816600
_cell_length_b 7.533549
_cell_length_c 31.009907
_cell_angle_alpha 90.000000
_cell_angle_beta 37.725578
_cell_angle_gamma 90.000000
_cell_volume 2832.667648
_symmetry_space_group_name_H-M "C 2/M"
_symmetry_group_IT_number 12
_symmetry_cell_setting 'monoclinic'
loop_
_space_group_symop_operation_xyz
x,y,z
-x,y,-z
-x,-y,-z
x,-y,z
1/2+x,1/2+y,z
1/2-x,1/2+y,-z
1/2-x,1/2-y,-z
1/2+x,1/2-y,z
loop_
_atom_site_type_symbol
_atom_site_label
_atom_site_fract_x
_atom_site_fract_y
_atom_site_fract_z
Si Si1 0.579204 0.705970 0.002257
Si Si2 0.875533 0.213524 0.560871
Si Si3 0.118805 0.782423 0.843807
Si Si4 0.017908 0.293464 0.719042
Si Si5 0.217959 0.713021 0.564881
Si Si6 0.172619 0.789368 0.720581
Si Si7 0.769708 0.718052 0.848338
O O1 0.599645 0.500000 0.003162
O O2 0.694176 0.781218 0.926619
O O3 0.500000 0.707716 0.000000
O O4 0.501714 0.780525 0.079055
O O5 0.810064 0.279595 0.551829
O O6 0.796290 0.254116 0.641235
O O7 0.000000 0.281721 0.500000
O O8 0.881509 0.000000 0.554842
O O9 0.150004 0.723267 0.780210
O O10 0.208025 0.731667 0.835120
O O11 0.116712 0.000000 0.845141
O O12 0.000592 0.500000 0.716898
O O13 0.895405 0.218637 0.785607
O O14 0.099463 0.217467 0.641209
O O15 0.088132 0.284527 0.727635
O O16 0.213979 0.500000 0.571980
O O17 0.250000 0.750000 0.500000
O O18 0.156028 0.000000 0.729054
O O19 0.767312 0.500000 0.851337
#
# Coordination Sequence:
#
# PCOD9178064 Si02
#       7
#     8   8   8   8   8   8   8
#     4   7  10  19  37  61  88 115 145 185 227 261
#     4   9  19  36  53  67  88 119 152 184 219 263
#     4   8  14  24  40  66  94 116 146 190 231 260
#     4   9  18  32  47  64  90 122 152 182 219 266
#     4   9  18  31  47  66  88 115 145 181 222 262
#     4  10  19  30  46  68  95 122 145 179 226 269
#     4   8  13  24  44  65  85 116 156 190 220 260
#
# _framework density 19.769351
#
# number of rings (size 3 to 8) (size 9 to 14) (size 15 to 20)
#    0.000    3.429    0.000    3.000    0.000    3.714 
#    0.000    2.143    0.000    1.714    0.000    1.000 
#    0.000    8.571    0.000    0.000    0.000    0.000 
#
# Total GULP energy -155963.237420 kJ/mol
# GULP energy per Si atom -5570.115622 kJ/mol
# Density = 1.972435 g / cm^3
# Si number density = 19.769351 Si / 1000 Ang^3
#
#
#
# Elastic Constant Matrix: (Units=GPa)
#
#
# Indices 1 2 3 4 5 6 
#
# 1 62.4945 -3.0167 107.6617 -0.0068 0.0806 0.0152
# 2 -3.0167 47.6490 1.6828 -0.0002 -4.6258 -0.0163
# 3 107.6617 1.6828 247.0220 -0.0058 -5.0167 0.0063
# 4 -0.0068 -0.0002 -0.0058 0.6295 0.0026 0.6034
# 5 0.0806 -4.6258 -5.0167 0.0026 40.3012 -0.0031
# 6 0.0152 -0.0163 0.0063 0.6034 -0.0031 3.7387
#
#
#
# Elastic Compliance Matrix: (Units=1/GPa)
#
#
# Indices 1 2 3 4 5 6 
#
# 1 0.065856 0.004880 -0.028800 0.000779 -0.003157 -0.000327
# 2 0.004880 0.021587 -0.002229 -0.000053 0.002191 0.000089
# 3 -0.028800 -0.002229 0.016653 -0.000291 0.001875 0.000128
# 4 0.000779 -0.000053 -0.000291 1.879430 -0.000190 -0.303320
# 5 -0.003157 0.002191 0.001875 -0.000190 0.025304 0.000071
# 6 -0.000327 0.000089 0.000128 -0.303320 0.000071 0.316429
#
#
# Mechanical properties :
#
#
# Convention : Reuss Voigt Hill
#
# Bulk Modulus (GPa) = 19.30581 63.31345 41.30963
# Shear Modulus (GPa) = 2.08784 25.65637 13.87211
#
# Velocity S-wave (km/s) = 1.02878 3.60639 2.65183
# Velocity P-wave (km/s) = 3.34633 7.03114 5.50613
#
# Compressibility (1/GPa) = 0.05179787
#
# Stress axis : x y z
#
# Youngs Moduli (GPa) = 15.18475 46.32378 60.04744
#
# Poissons Ratio (x) = -0.22606 1.72935
# Poissons Ratio (y) = -0.07410 0.13387
# Poissons Ratio (z) = 0.43732 0.10328
#
# Static dielectric constant tensor:
#      x y z
#    x 1.656390 0.000000 -0.009390 
#    y 0.000000 1.738480 0.000000 
#    z -0.009390 0.000000 1.729810 
# 
# From -- ./inp_files/377623.got.cif
#   From: 2010.05.17/outbox.cif.g08.bks.cpg/sg12_189_cif.got.tgz:377623.got - 2010.06.03 13:09:07.
