data_PCOD9178889
_publ_section_title
;
Structure prediction by ZEFSAII (Michael W. Deem and Ramdas Pophale) SiO2 
 PCOD9178889
Probable space group: C 2/M
;
_chemical_formula_sum "Si O2"
_cell_formula_units_Z 56
_cell_length_a 22.893509
_cell_length_b 9.056805
_cell_length_c 21.413824
_cell_angle_alpha 90.000000
_cell_angle_beta 129.954196
_cell_angle_gamma 90.000000
_cell_volume 3403.507140
_symmetry_space_group_name_H-M "C 2/M"
_symmetry_group_IT_number 12
_symmetry_cell_setting 'monoclinic'
loop_
_space_group_symop_operation_xyz
x,y,z
-x,y,-z
-x,-y,-z
x,-y,z
1/2+x,1/2+y,z
1/2-x,1/2+y,-z
1/2-x,1/2-y,-z
1/2+x,1/2-y,z
loop_
_atom_site_type_symbol
_atom_site_label
_atom_site_fract_x
_atom_site_fract_y
_atom_site_fract_z
Si Si1 0.113570 0.824455 0.236443
Si Si2 0.318821 0.175382 0.969752
Si Si3 0.242213 0.668624 0.396452
Si Si4 0.415499 0.825217 0.914778
Si Si5 0.493251 0.177666 0.732349
Si Si6 0.357009 0.324970 0.123820
Si Si7 0.634800 0.830682 0.446622
O O1 0.196422 0.769087 0.316496
O O2 0.098095 0.768912 0.156200
O O3 0.052849 0.747864 0.241280
O O4 0.107632 0.000000 0.237712
O O5 0.356695 0.211073 0.929775
O O6 0.228242 0.202681 0.909136
O O7 0.330957 0.000000 0.989782
O O8 0.355984 0.265192 0.052076
O O9 0.246565 0.500000 0.377525
O O10 0.323602 0.731043 0.473793
O O11 0.189842 0.669460 0.423227
O O12 0.407878 0.000000 0.894297
O O13 0.500000 0.802583 0.000000
O O14 0.578047 0.239954 0.793875
O O15 0.446240 0.217286 0.637341
O O16 0.491601 0.000000 0.736807
O O17 0.371306 0.500000 0.134477
O O18 0.630068 0.000000 0.465188
#
# Coordination Sequence:
#
# PCOD9178889 Si02
#       7
#     8   8   8   8   8   8   8
#     4  11  21  31  46  69  97 126 158 196 234 276
#     4   9  19  34  50  69  95 127 158 191 235 281
#     4   9  16  27  43  63  91 125 156 186 227 280
#     4  10  20  34  51  69  93 126 160 192 230 279
#     4  10  19  31  47  68  96 128 159 192 235 283
#     4  10  19  31  49  72  96 122 156 197 235 275
#     4   8  15  26  41  63  90 120 154 191 229 272
#
# _framework density 16.453614999999999
#
# number of rings (size 3 to 8) (size 9 to 14) (size 15 to 20)
#    0.000    2.429    0.000    4.286    0.000    6.571 
#    0.000    0.000    0.000    0.000    0.000    1.000 
#    0.000    8.000    0.000    0.000    0.000    0.000 
#
# Total GULP energy -156148.100896 kJ/mol
# GULP energy per Si atom -5576.717889 kJ/mol
# Density = 1.641617 g / cm^3
# Si number density = 16.453615 Si / 1000 Ang^3
#
#
#
# Elastic Constant Matrix: (Units=GPa)
#
#
# Indices 1 2 3 4 5 6 
#
# 1 34.6437 22.4467 20.9488 0.0000 3.3773 0.0000
# 2 22.4467 76.5985 51.6932 0.0000 9.1843 0.0000
# 3 20.9488 51.6932 89.8560 0.0000 20.7245 0.0000
# 4 0.0000 0.0000 0.0000 28.0259 0.0000 5.9448
# 5 3.3773 9.1843 20.7245 0.0000 20.6179 0.0000
# 6 0.0000 0.0000 0.0000 5.9448 0.0000 17.0080
#
#
#
# Elastic Compliance Matrix: (Units=1/GPa)
#
#
# Indices 1 2 3 4 5 6 
#
# 1 0.036486 -0.007979 -0.004371 0.000000 0.001971 0.000000
# 2 -0.007979 0.023303 -0.012306 0.000000 0.003296 0.000000
# 3 -0.004371 -0.012306 0.023169 0.000000 -0.017091 0.000000
# 4 0.000000 0.000000 0.000000 0.038539 0.000000 -0.013470
# 5 0.001971 0.003296 -0.017091 0.000000 0.063890 0.000000
# 6 0.000000 0.000000 0.000000 -0.013470 0.000000 0.063504
#
#
# Mechanical properties :
#
#
# Convention : Reuss Voigt Hill
#
# Bulk Modulus (GPa) = 29.72013 43.47507 36.59760
# Shear Modulus (GPa) = 16.15942 20.19764 18.17853
#
# Velocity S-wave (km/s) = 3.13728 3.50744 3.32751
# Velocity P-wave (km/s) = 5.58798 6.54851 6.08722
#
# Compressibility (1/GPa) = 0.03364723
#
# Stress axis : x y z
#
# Youngs Moduli (GPa) = 27.40799 42.91354 43.16050
#
# Poissons Ratio (x) = 0.34239 0.18865
# Poissons Ratio (y) = 0.21868 0.53113
# Poissons Ratio (z) = 0.11979 0.52809
#
# Static dielectric constant tensor:
#      x y z
#    x 1.540250 0.000000 0.023950 
#    y 0.000000 1.553270 0.000000 
#    z 0.023950 0.000000 1.554060 
# 
# From -- ./inp_files/323806.got.cif
#   From: 2010.05.17/outbox.cif.g08.bks.cpg/sg12_162_cif.got.tgz:323806.got - 2010.06.03 13:09:07.
