data_PCOD9178562
_publ_section_title
;
Structure prediction by ZEFSAII (Michael W. Deem and Ramdas Pophale) SiO2 
 PCOD9178562
Probable space group: C 2/M
;
_chemical_formula_sum "Si O2"
_cell_formula_units_Z 64
_cell_length_a 30.987625
_cell_length_b 8.735363
_cell_length_c 31.829749
_cell_angle_alpha 90.000000
_cell_angle_beta 151.365252
_cell_angle_gamma 90.000000
_cell_volume 4128.965343
_symmetry_space_group_name_H-M "C 2/M"
_symmetry_group_IT_number 12
_symmetry_cell_setting 'monoclinic'
loop_
_space_group_symop_operation_xyz
x,y,z
-x,y,-z
-x,-y,-z
x,-y,z
1/2+x,1/2+y,z
1/2-x,1/2+y,-z
1/2-x,1/2-y,-z
1/2+x,1/2-y,z
loop_
_atom_site_type_symbol
_atom_site_label
_atom_site_fract_x
_atom_site_fract_y
_atom_site_fract_z
Si Si1 0.662074 0.683657 0.699843
Si Si2 0.372123 0.317038 0.747735
Si Si3 0.821824 0.684805 0.379745
Si Si4 0.863535 0.315410 0.558684
Si Si5 0.980238 0.684954 0.914931
Si Si6 0.833278 0.317132 0.626715
Si Si7 0.358475 0.185736 0.890811
Si Si8 0.479637 0.815583 0.579957
O O1 0.661580 0.500000 0.698736
O O2 0.663536 0.743766 0.653339
O O3 0.755514 0.736828 0.801291
O O4 0.573984 0.743408 0.647978
O O5 0.373146 0.500000 0.747652
O O6 0.274497 0.268255 0.683154
O O7 0.447916 0.255769 0.843937
O O8 0.378998 0.253685 0.706616
O O9 0.821689 0.500000 0.375896
O O10 0.902562 0.727146 0.480247
O O11 0.853185 0.500000 0.547216
O O12 0.876734 0.274703 0.618801
O O13 0.769404 0.242768 0.463510
O O14 0.941838 0.270950 0.593416
O O15 0.979058 0.500000 0.910763
O O16 0.908746 0.729105 0.890396
O O17 0.077495 0.734106 0.016077
O O18 0.832960 0.500000 0.629856
O O19 0.358814 0.000000 0.891754
O O20 0.488014 0.000000 0.585913
#
# Coordination Sequence:
#
# PCOD9178562 Si02
#       8
#     8   8   8   8   8   8   8   8
#     4  11  21  32  47  70  95 122 162 205 234 265
#     4  11  20  31  47  71 100 128 156 193 237 280
#     4  10  20  33  46  62  93 135 166 187 226 277
#     4   9  18  34  50  68  94 125 159 196 236 280
#     4   9  16  31  51  68  90 124 159 190 236 289
#     4  10  19  30  50  73  94 122 158 196 237 283
#     4   8  16  30  48  68  93 122 153 196 242 281
#     4  10  20  35  49  63  92 133 165 190 230 280
#
# _framework density 15.500251
#
# number of rings (size 3 to 8) (size 9 to 14) (size 15 to 20)
#    0.000    2.250    2.500    2.250    0.000    3.500 
#    0.000    2.500    0.000    0.000    0.000    0.875 
#    0.000    0.000    0.000    0.000    0.000    0.000 
#
# Total GULP energy -178465.919835 kJ/mol
# GULP energy per Si atom -5577.059995 kJ/mol
# Density = 1.546497 g / cm^3
# Si number density = 15.500251 Si / 1000 Ang^3
#
#
#
# Elastic Constant Matrix: (Units=GPa)
#
#
# Indices 1 2 3 4 5 6 
#
# 1 116.0013 32.1262 81.5629 0.0000 -12.3771 0.0000
# 2 32.1262 17.8339 30.4703 -0.0001 -6.0270 0.0002
# 3 81.5629 30.4703 128.3164 0.0000 -15.4751 0.0000
# 4 0.0000 -0.0001 0.0000 20.1741 0.0000 -1.2732
# 5 -12.3771 -6.0270 -15.4751 0.0000 26.8582 0.0000
# 6 0.0000 0.0002 0.0000 -1.2732 0.0000 20.9860
#
#
#
# Elastic Compliance Matrix: (Units=1/GPa)
#
#
# Indices 1 2 3 4 5 6 
#
# 1 0.020494 -0.024724 -0.007185 0.000000 -0.000244 0.000000
# 2 -0.024724 0.126196 -0.013122 0.000001 0.009364 -0.000001
# 3 -0.007185 -0.013122 0.015821 0.000000 0.002860 0.000000
# 4 0.000000 0.000001 0.000000 0.049759 0.000000 0.003019
# 5 -0.000244 0.009364 0.002860 0.000000 0.040870 0.000000
# 6 0.000000 -0.000001 0.000000 0.003019 0.000000 0.047834
#
#
# Mechanical properties :
#
#
# Convention : Reuss Voigt Hill
#
# Bulk Modulus (GPa) = 13.80286 61.16338 37.48312
# Shear Modulus (GPa) = 12.04285 21.46982 16.75633
#
# Velocity S-wave (km/s) = 2.79040 3.72577 3.29148
# Velocity P-wave (km/s) = 4.39386 7.61930 6.21931
#
# Compressibility (1/GPa) = 0.07244873
#
# Stress axis : x y z
#
# Youngs Moduli (GPa) = 48.79531 7.92421 63.20661
#
# Poissons Ratio (x) = 0.19592 0.45414
# Poissons Ratio (y) = 1.20643 0.82938
# Poissons Ratio (z) = 0.35059 0.10398
#
# Static dielectric constant tensor:
#      x y z
#    x 1.506060 0.000000 -0.005990 
#    y 0.000000 1.523730 0.000000 
#    z -0.005990 0.000000 1.512220 
# 
# From -- ./inp_files/248296.got.cif
#   From: 2010.05.17/outbox.cif.g08.bks.cpg/sg12_125_cif.got.tgz:248296.got - 2010.06.03 13:09:07.
