data_PCOD9178615
_publ_section_title
;
Structure prediction by ZEFSAII (Michael W. Deem and Ramdas Pophale) SiO2 
 PCOD9178615
Probable space group: C 2/M
;
_chemical_formula_sum "Si O2"
_cell_formula_units_Z 56
_cell_length_a 21.434250
_cell_length_b 9.733455
_cell_length_c 16.608338
_cell_angle_alpha 90.000000
_cell_angle_beta 57.487335
_cell_angle_gamma 90.000000
_cell_volume 2921.928003
_symmetry_space_group_name_H-M "C 2/M"
_symmetry_group_IT_number 12
_symmetry_cell_setting 'monoclinic'
loop_
_space_group_symop_operation_xyz
x,y,z
-x,y,-z
-x,-y,-z
x,-y,z
1/2+x,1/2+y,z
1/2-x,1/2+y,-z
1/2-x,1/2-y,-z
1/2+x,1/2-y,z
loop_
_atom_site_type_symbol
_atom_site_label
_atom_site_fract_x
_atom_site_fract_y
_atom_site_fract_z
Si Si1 0.184459 0.653134 0.371562
Si Si2 0.198657 0.663962 0.791474
Si Si3 0.774168 0.162159 0.907170
Si Si4 0.034315 0.342924 0.389233
Si Si5 0.435194 0.836071 0.220943
Si Si6 0.048587 0.838061 0.227947
Si Si7 0.323211 0.159160 0.444487
O O1 0.218027 0.500000 0.348775
O O2 0.246376 0.763503 0.309383
O O3 0.121912 0.657719 0.347323
O O4 0.146566 0.670478 0.485207
O O5 0.207125 0.500000 0.778285
O O6 0.227526 0.703517 0.859977
O O7 0.114703 0.695557 0.822999
O O8 0.862548 0.177927 0.834619
O O9 0.760066 0.000000 0.930223
O O10 0.750000 0.250000 0.000000
O O11 0.012965 0.500000 0.380467
O O12 0.020582 0.233927 0.329409
O O13 0.000000 0.312172 0.500000
O O14 0.507535 0.744851 0.185246
O O15 0.380720 0.805560 0.334750
O O16 0.451739 0.000000 0.210473
O O17 0.031482 0.000000 0.237356
O O18 0.250000 0.250000 0.500000
O O19 0.302994 0.000000 0.444674
#
# Coordination Sequence:
#
# PCOD9178615 Si02
#       7
#     8   8   8   8   8   8   8
#     4  10  19  30  50  80 112 151 200 245 285 336
#     4  10  20  38  61  84 114 150 192 242 288 345
#     4  10  23  43  67  93 117 147 193 247 307 367
#     4  10  20  35  55  80 117 162 204 243 288 351
#     4  10  21  37  58  83 119 165 201 239 294 350
#     4  11  23  39  60  89 123 154 194 252 303 352
#     4  10  19  31  49  77 115 160 206 244 283 337
#
# _framework density 19.165427000000001
#
# number of rings (size 3 to 8) (size 9 to 14) (size 15 to 20)
#    0.000    1.857    2.857    1.286    0.000    5.429 
#    0.000    2.143    0.000    4.286    0.000    0.000 
#    0.000    0.000    0.000    0.000    0.000    0.000 
#
# Total GULP energy -156204.812309 kJ/mol
# GULP energy per Si atom -5578.743297 kJ/mol
# Density = 1.912181 g / cm^3
# Si number density = 19.165427 Si / 1000 Ang^3
#
#
#
# Elastic Constant Matrix: (Units=GPa)
#
#
# Indices 1 2 3 4 5 6 
#
# 1 137.0456 60.8628 26.6378 0.0000 20.5091 0.0000
# 2 60.8628 60.3896 41.3599 0.0000 5.8805 0.0000
# 3 26.6378 41.3599 56.6386 0.0000 16.3448 0.0000
# 4 0.0000 0.0000 0.0000 27.8610 0.0000 -1.1809
# 5 20.5091 5.8805 16.3448 0.0000 18.2616 0.0000
# 6 0.0000 0.0000 0.0000 -1.1809 0.0000 34.1001
#
#
#
# Elastic Compliance Matrix: (Units=1/GPa)
#
#
# Indices 1 2 3 4 5 6 
#
# 1 0.031741 -0.054452 0.040531 0.000000 -0.054390 0.000000
# 2 -0.054452 0.129805 -0.100801 0.000000 0.109575 0.000000
# 3 0.040531 -0.100801 0.102427 0.000000 -0.104736 0.000000
# 4 0.000000 0.000000 0.000000 0.035945 0.000000 0.001245
# 5 -0.054390 0.109575 -0.104736 0.000000 0.174302 0.000000
# 6 0.000000 0.000000 0.000000 0.001245 0.000000 0.029368
#
#
# Mechanical properties :
#
#
# Convention : Reuss Voigt Hill
#
# Bulk Modulus (GPa) = 28.96101 56.86608 42.91354
# Shear Modulus (GPa) = 6.71553 24.39209 15.55381
#
# Velocity S-wave (km/s) = 1.87392 3.57138 2.85187
# Velocity P-wave (km/s) = 4.45264 6.83681 5.76923
#
# Compressibility (1/GPa) = 0.03452918
#
# Stress axis : x y z
#
# Youngs Moduli (GPa) = 31.50511 7.70386 9.76302
#
# Poissons Ratio (x) = 0.41949 -0.39571
# Poissons Ratio (y) = 1.71553 0.98412
# Poissons Ratio (z) = -1.27694 0.77655
#
# Static dielectric constant tensor:
#      x y z
#    x 1.749220 0.000000 0.014680 
#    y 0.000000 1.647880 0.000000 
#    z 0.014680 0.000000 1.646620 
# 
# From -- ./inp_files/280891.got.cif
#   From: 2010.05.17/outbox.cif.g08.bks.cpg/sg12_141_cif.got.tgz:280891.got - 2010.06.03 13:09:07.
