data_PCOD9178449
_publ_section_title
;
Structure prediction by ZEFSAII (Michael W. Deem and Ramdas Pophale) SiO2 
 PCOD9178449
Probable space group: C 2/M
;
_chemical_formula_sum "Si O2"
_cell_formula_units_Z 56
_cell_length_a 29.152607
_cell_length_b 13.891637
_cell_length_c 25.317194
_cell_angle_alpha 90.000000
_cell_angle_beta 160.868054
_cell_angle_gamma 90.000000
_cell_volume 3360.331268
_symmetry_space_group_name_H-M "C 2/M"
_symmetry_group_IT_number 12
_symmetry_cell_setting 'monoclinic'
loop_
_space_group_symop_operation_xyz
x,y,z
-x,y,-z
-x,-y,-z
x,-y,z
1/2+x,1/2+y,z
1/2-x,1/2+y,-z
1/2-x,1/2-y,-z
1/2+x,1/2-y,z
loop_
_atom_site_type_symbol
_atom_site_label
_atom_site_fract_x
_atom_site_fract_y
_atom_site_fract_z
Si Si1 0.119721 0.612450 0.381565
Si Si2 0.224894 0.110835 0.099353
Si Si3 0.504020 0.388893 0.066687
Si Si4 0.771598 0.710474 0.393524
Si Si5 0.031839 0.613997 0.473647
Si Si6 0.142109 0.887194 0.448659
Si Si7 0.393374 0.273112 0.125780
O O1 0.084268 0.500000 0.344623
O O2 0.169714 0.648141 0.493399
O O3 0.246886 0.626286 0.478597
O O4 0.988542 0.678222 0.222917
O O5 0.388622 0.129020 0.285195
O O6 0.207454 0.000000 0.062626
O O7 0.150468 0.179331 0.976911
O O8 0.147258 0.119054 0.071086
O O9 0.552274 0.500000 0.127983
O O10 0.610451 0.316636 0.210410
O O11 0.500000 0.372604 0.000000
O O12 0.849963 0.676150 0.425960
O O13 0.804180 0.819647 0.445458
O O14 0.068464 0.500000 0.511255
O O15 0.000000 0.637134 0.500000
O O16 0.993410 0.846340 0.266902
O O17 0.135139 0.000000 0.453531
O O18 0.250000 0.250000 0.000000
#
# Coordination Sequence:
#
# PCOD9178449 Si02
#       7
#     8   8   8   8   8   8   8
#     4  10  20  34  52  75 102 134 170 205 245 301
#     4  10  19  31  47  68  99 132 158 191 240 292
#     4  10  19  30  48  76 103 126 157 200 248 296
#     4  11  19  32  53  73  97 131 168 202 244 297
#     4  10  20  33  49  72 101 131 163 199 243 299
#     4  10  21  36  53  73 100 134 173 212 247 293
#     4  11  21  32  49  75 104 132 165 204 250 302
#
# _framework density 16.665023999999999
#
# number of rings (size 3 to 8) (size 9 to 14) (size 15 to 20)
#    0.000    1.714    0.000    7.714    0.000    6.857 
#    0.000    0.000    0.000    0.857    0.000    2.000 
#    0.000    0.000    0.000    0.000    0.000    0.000 
#
# Total GULP energy -156351.851121 kJ/mol
# GULP energy per Si atom -5583.994683 kJ/mol
# Density = 1.662709 g / cm^3
# Si number density = 16.665024 Si / 1000 Ang^3
#
#
#
# Elastic Constant Matrix: (Units=GPa)
#
#
# Indices 1 2 3 4 5 6 
#
# 1 50.8018 18.4707 3.3072 0.0003 7.4633 0.0003
# 2 18.4707 94.1466 30.2025 -0.0002 2.5924 0.0001
# 3 3.3072 30.2025 55.8088 0.0001 11.4051 0.0003
# 4 0.0003 -0.0002 0.0001 10.1352 -0.0001 -4.8043
# 5 7.4633 2.5924 11.4051 -0.0001 29.1935 0.0001
# 6 0.0003 0.0001 0.0003 -4.8043 0.0001 19.8639
#
#
#
# Elastic Compliance Matrix: (Units=1/GPa)
#
#
# Indices 1 2 3 4 5 6 
#
# 1 0.022276 -0.005066 0.002710 -0.000001 -0.006304 -0.000001
# 2 -0.005066 0.014085 -0.007967 0.000001 0.003157 0.000000
# 3 0.002710 -0.007967 0.023981 -0.000001 -0.009354 0.000000
# 4 -0.000001 0.000001 -0.000001 0.111443 0.000001 0.026954
# 5 -0.006304 0.003157 -0.009354 0.000001 0.039240 0.000000
# 6 -0.000001 0.000000 0.000000 0.026954 0.000000 0.056862
#
#
# Mechanical properties :
#
#
# Convention : Reuss Voigt Hill
#
# Bulk Modulus (GPa) = 25.19240 33.85758 29.52499
# Shear Modulus (GPa) = 16.56918 21.75696 19.16307
#
# Velocity S-wave (km/s) = 3.15659 3.61715 3.39469
# Velocity P-wave (km/s) = 5.33246 6.14864 5.75504
#
# Compressibility (1/GPa) = 0.03969452
#
# Stress axis : x y z
#
# Youngs Moduli (GPa) = 44.89154 70.99931 41.69956
#
# Poissons Ratio (x) = 0.35969 -0.11300
# Poissons Ratio (y) = 0.22742 0.33223
# Poissons Ratio (z) = -0.12165 0.56567
#
# Static dielectric constant tensor:
#      x y z
#    x 1.565780 0.000000 0.011980 
#    y 0.000000 1.550900 0.000000 
#    z 0.011980 0.000000 1.552550 
# 
# From -- ./inp_files/349735.got.cif
#   From: 2010.05.17/outbox.cif.g08.bks.cpg/sg12_175_cif.got.tgz:349735.got - 2010.06.03 13:09:07.
