data_PCOD9178742
_publ_section_title
;
Structure prediction by ZEFSAII (Michael W. Deem and Ramdas Pophale) SiO2 
 PCOD9178742
Probable space group: C 2/M
;
_chemical_formula_sum "Si O2"
_cell_formula_units_Z 64
_cell_length_a 13.529733
_cell_length_b 26.198190
_cell_length_c 12.874263
_cell_angle_alpha 90.000000
_cell_angle_beta 110.068108
_cell_angle_gamma 90.000000
_cell_volume 4286.279230
_symmetry_space_group_name_H-M "C 2/M"
_symmetry_group_IT_number 12
_symmetry_cell_setting 'monoclinic'
loop_
_space_group_symop_operation_xyz
x,y,z
-x,y,-z
-x,-y,-z
x,-y,z
1/2+x,1/2+y,z
1/2-x,1/2+y,-z
1/2-x,1/2-y,-z
1/2+x,1/2-y,z
loop_
_atom_site_type_symbol
_atom_site_label
_atom_site_fract_x
_atom_site_fract_y
_atom_site_fract_z
Si Si1 0.155148 0.231827 0.392712
Si Si2 0.271293 0.058817 0.502748
Si Si3 0.447492 0.155583 0.869044
Si Si4 0.597109 0.884156 0.615785
Si Si5 0.966502 0.558344 0.733888
Si Si6 0.440618 0.783765 0.276338
Si Si7 0.622064 0.641565 0.519850
Si Si8 0.762939 0.209031 0.259801
O O1 0.250000 0.250000 0.500000
O O2 0.135402 0.174332 0.419236
O O3 0.196343 0.246762 0.294605
O O4 0.046020 0.262227 0.370444
O O5 0.309857 0.091506 0.417627
O O6 0.365846 0.060326 0.620880
O O7 0.174193 0.087128 0.520452
O O8 0.252668 0.000000 0.468542
O O9 0.449615 0.099391 0.818326
O O10 0.515178 0.190706 0.813132
O O11 0.327421 0.176427 0.829446
O O12 0.500000 0.156054 0.000000
O O13 0.500000 0.880143 0.500000
O O14 0.561567 0.922015 0.695187
O O15 0.609330 0.828580 0.671242
O O16 0.981332 0.500000 0.773271
O O17 0.356597 0.738146 0.233788
O O18 0.500000 0.638818 0.500000
O O19 0.683013 0.672677 0.633121
#
# Coordination Sequence:
#
# PCOD9178742 Si02
#       8
#     8   8   8   8   8   8   8   8
#     4   9  19  26  43  69  97 124 154 185 222 272
#     4  10  19  31  45  66  97 129 154 184 229 275
#     4  10  21  35  49  69  92 120 161 200 237 274
#     4   9  18  26  46  72  98 123 149 182 229 283
#     4   9  17  32  49  68  93 120 153 193 234 278
#     4  10  19  31  47  71  95 125 155 191 230 277
#     4  11  19  29  45  68  95 128 157 188 216 271
#     4  10  19  32  46  67  95 125 155 191 232 273
#
# _framework density 14.931365
#
# number of rings (size 3 to 8) (size 9 to 14) (size 15 to 20)
#    0.000    2.250    2.500    1.125    8.750    2.500 
#    0.000    0.000    0.000    0.000    0.000    0.000 
#    0.000    0.000    0.000    4.500    0.000    0.125 
#
# Total GULP energy -178202.115397 kJ/mol
# GULP energy per Si atom -5568.816106 kJ/mol
# Density = 1.489738 g / cm^3
# Si number density = 14.931365 Si / 1000 Ang^3
#
#
#
# Elastic Constant Matrix: (Units=GPa)
#
#
# Indices 1 2 3 4 5 6 
#
# 1 93.1185 52.7017 25.8468 0.0000 6.5224 0.0000
# 2 52.7017 98.6823 41.0724 0.0000 0.8732 0.0000
# 3 25.8468 41.0724 62.4995 0.0000 6.7563 0.0000
# 4 0.0000 0.0000 0.0000 8.6192 0.0000 1.6584
# 5 6.5224 0.8732 6.7563 0.0000 11.2592 0.0000
# 6 0.0000 0.0000 0.0000 1.6584 0.0000 20.3020
#
#
#
# Elastic Compliance Matrix: (Units=1/GPa)
#
#
# Indices 1 2 3 4 5 6 
#
# 1 0.016205 -0.008502 -0.000183 0.000000 -0.008619 0.000000
# 2 -0.008502 0.018649 -0.009748 0.000000 0.009328 0.000000
# 3 -0.000183 -0.009748 0.023941 0.000000 -0.013505 0.000000
# 4 0.000000 0.000000 0.000000 0.117872 0.000000 -0.009629
# 5 -0.008619 0.009328 -0.013505 0.000000 0.101189 0.000000
# 6 0.000000 0.000000 0.000000 -0.009629 0.000000 0.050043
#
#
# Mechanical properties :
#
#
# Convention : Reuss Voigt Hill
#
# Bulk Modulus (GPa) = 45.59877 54.83800 50.21838
# Shear Modulus (GPa) = 13.43815 17.01470 15.22643
#
# Velocity S-wave (km/s) = 3.00325 3.37935 3.19683
# Velocity P-wave (km/s) = 6.52926 7.21340 6.87984
#
# Compressibility (1/GPa) = 0.02193041
#
# Stress axis : x y z
#
# Youngs Moduli (GPa) = 61.70793 53.62314 41.76886
#
# Poissons Ratio (x) = 0.45592 0.00763
# Poissons Ratio (y) = 0.52466 0.40714
# Poissons Ratio (z) = 0.01127 0.52269
#
# Static dielectric constant tensor:
#      x y z
#    x 1.509300 0.000000 -0.012590 
#    y 0.000000 1.508250 0.000000 
#    z -0.012590 0.000000 1.473780 
# 
# From -- ./inp_files/136625.got.cif
#   From: 2010.05.17/outbox.cif.g08.bks.cpg/sg12_69_cif.got.tgz:136625.got - 2010.06.03 13:09:07.
