data_PCOD9178269
_publ_section_title
;
Structure prediction by ZEFSAII (Michael W. Deem and Ramdas Pophale) SiO2 
 PCOD9178269
Probable space group: C 2/M
;
_chemical_formula_sum "Si O2"
_cell_formula_units_Z 56
_cell_length_a 31.902238
_cell_length_b 8.541414
_cell_length_c 20.231071
_cell_angle_alpha 90.000000
_cell_angle_beta 35.612845
_cell_angle_gamma 90.000000
_cell_volume 3210.114310
_symmetry_space_group_name_H-M "C 2/M"
_symmetry_group_IT_number 12
_symmetry_cell_setting 'monoclinic'
loop_
_space_group_symop_operation_xyz
x,y,z
-x,y,-z
-x,-y,-z
x,-y,z
1/2+x,1/2+y,z
1/2-x,1/2+y,-z
1/2-x,1/2-y,-z
1/2+x,1/2-y,z
loop_
_atom_site_type_symbol
_atom_site_label
_atom_site_fract_x
_atom_site_fract_y
_atom_site_fract_z
Si Si1 0.441540 0.188471 0.128530
Si Si2 0.016088 0.313201 0.638737
Si Si3 0.073073 0.178791 0.362876
Si Si4 0.158591 0.313637 0.370748
Si Si5 0.692675 0.181972 0.523502
Si Si6 0.222270 0.313805 0.702982
Si Si7 0.958505 0.181260 0.254125
O O1 0.361044 0.227710 0.204959
O O2 0.461367 0.250007 0.176192
O O3 0.443805 0.000000 0.129376
O O4 0.500000 0.242128 0.000000
O O5 0.018343 0.500000 0.634275
O O6 0.093299 0.262672 0.505687
O O7 0.004723 0.259810 0.728978
O O8 0.952717 0.251095 0.673068
O O9 0.128621 0.274675 0.336321
O O10 0.000000 0.177117 0.500000
O O11 0.097355 0.000000 0.323504
O O12 0.167712 0.500000 0.366247
O O13 0.234235 0.224314 0.285872
O O14 0.750000 0.250000 0.500000
O O15 0.730486 0.206097 0.405691
O O16 0.624137 0.289908 0.619980
O O17 0.674237 0.000000 0.559197
O O18 0.229343 0.500000 0.679605
O O19 0.977473 0.000000 0.227424
#
# Coordination Sequence:
#
# PCOD9178269 Si02
#       7
#     8   8   8   8   8   8   8
#     4  10  23  42  59  75 101 138 179 223 271 319
#     4  10  19  31  48  72 106 143 178 212 255 310
#     4   9  17  29  45  68 103 141 178 214 253 303
#     4  10  19  30  47  72 106 143 178 212 255 309
#     4  12  22  33  49  74 105 137 171 212 261 315
#     4  11  21  33  53  77 104 137 176 218 262 313
#     4  12  23  34  53  78 106 139 177 219 262 312
#
# _framework density 17.444862000000001
#
# number of rings (size 3 to 8) (size 9 to 14) (size 15 to 20)
#    0.000    1.429    2.857    4.286    0.000    3.714 
#    0.000    0.000    0.000    0.000    0.000    1.000 
#    0.000    0.000    0.000    0.000    0.000    0.000 
#
# Total GULP energy -155998.742398 kJ/mol
# GULP energy per Si atom -5571.383657 kJ/mol
# Density = 1.740516 g / cm^3
# Si number density = 17.444862 Si / 1000 Ang^3
#
#
#
# Elastic Constant Matrix: (Units=GPa)
#
#
# Indices 1 2 3 4 5 6 
#
# 1 143.9482 28.1953 37.4310 0.0134 22.0038 0.0014
# 2 28.1953 53.9021 10.8764 0.0173 5.9893 0.0005
# 3 37.4310 10.8764 61.0677 0.0298 13.6009 -0.0078
# 4 0.0134 0.0173 0.0298 13.3612 -0.0189 4.6160
# 5 22.0038 5.9893 13.6009 -0.0189 10.9131 0.0018
# 6 0.0014 0.0005 -0.0078 4.6160 0.0018 30.9054
#
#
#
# Elastic Compliance Matrix: (Units=1/GPa)
#
#
# Indices 1 2 3 4 5 6 
#
# 1 0.010795 -0.003290 -0.002194 -0.000028 -0.017225 0.000004
# 2 -0.003290 0.020863 -0.000867 -0.000028 -0.003736 0.000004
# 3 -0.002194 -0.000867 0.023232 -0.000090 -0.024054 0.000021
# 4 -0.000028 -0.000028 -0.000090 0.078916 0.000322 -0.011787
# 5 -0.017225 -0.003736 -0.024054 0.000322 0.158393 -0.000062
# 6 0.000004 0.000004 0.000021 -0.011787 -0.000062 0.034117
#
#
# Mechanical properties :
#
#
# Convention : Reuss Voigt Hill
#
# Bulk Modulus (GPa) = 23.70383 45.76928 34.73656
# Shear Modulus (GPa) = 14.16101 23.19696 18.67898
#
# Velocity S-wave (km/s) = 2.85223 3.65050 3.27577
# Velocity P-wave (km/s) = 4.94614 6.63790 5.85346
#
# Compressibility (1/GPa) = 0.04218727
#
# Stress axis : x y z
#
# Youngs Moduli (GPa) = 92.63565 47.93136 43.04410
#
# Poissons Ratio (x) = 0.15769 0.09445
# Poissons Ratio (y) = 0.30476 0.03733
# Poissons Ratio (z) = 0.20327 0.04157
#
# Static dielectric constant tensor:
#      x y z
#    x 1.612680 0.000000 -0.060350 
#    y 0.000000 1.587300 0.000000 
#    z -0.060350 0.000000 1.453490 
# 
# From -- ./inp_files/295115.got.cif
#   From: 2010.05.17/outbox.cif.g08.bks.cpg/sg12_148_cif.got.tgz:295115.got - 2010.06.03 13:09:07.
