data_PCOD9178318
_publ_section_title
;
Structure prediction by ZEFSAII (Michael W. Deem and Ramdas Pophale) SiO2 
 PCOD9178318
Probable space group: C 2/M
;
_chemical_formula_sum "Si O2"
_cell_formula_units_Z 64
_cell_length_a 25.460522
_cell_length_b 9.073155
_cell_length_c 34.223779
_cell_angle_alpha 90.000000
_cell_angle_beta 149.387063
_cell_angle_gamma 90.000000
_cell_volume 4025.988068
_symmetry_space_group_name_H-M "C 2/M"
_symmetry_group_IT_number 12
_symmetry_cell_setting 'monoclinic'
loop_
_space_group_symop_operation_xyz
x,y,z
-x,y,-z
-x,-y,-z
x,-y,z
1/2+x,1/2+y,z
1/2-x,1/2+y,-z
1/2-x,1/2-y,-z
1/2+x,1/2-y,z
loop_
_atom_site_type_symbol
_atom_site_label
_atom_site_fract_x
_atom_site_fract_y
_atom_site_fract_z
Si Si1 0.184027 0.823091 0.423393
Si Si2 0.766476 0.176081 0.315342
Si Si3 0.512203 0.675332 0.582590
Si Si4 0.303969 0.176473 0.421216
Si Si5 0.626381 0.675265 0.161061
Si Si6 0.060266 0.330052 0.996952
Si Si7 0.959674 0.823502 0.307391
Si Si8 0.244756 0.825153 0.154795
O O1 0.250000 0.750000 0.500000
O O2 0.232878 0.784869 0.412951
O O3 0.064373 0.782100 0.352012
O O4 0.190356 0.000000 0.432056
O O5 0.879610 0.206044 0.369290
O O6 0.764400 0.247075 0.356670
O O7 0.682262 0.246782 0.232835
O O8 0.753731 0.000000 0.308890
O O9 0.490659 0.500000 0.564981
O O10 0.418519 0.765105 0.504126
O O11 0.523270 0.709338 0.635684
O O12 0.304913 0.000000 0.417325
O O13 0.619811 0.500000 0.162566
O O14 0.514458 0.743071 0.080141
O O15 0.695884 0.701933 0.166670
O O16 0.073167 0.500000 0.993577
O O17 0.168549 0.252203 0.075218
O O18 0.000000 0.328374 0.000000
O O19 0.858679 0.741351 0.227725
O O20 0.944013 0.000000 0.294202
O O21 0.245598 0.000000 0.149097
#
# Coordination Sequence:
#
# PCOD9178318 Si02
#       8
#     8   8   8   8   8   8   8   8
#     4  10  21  36  54  73  96 128 169 213 258 302
#     4  11  22  35  51  72 100 136 174 206 245 303
#     4  10  20  34  52  72  98 133 171 207 249 302
#     4  11  23  36  51  73  99 130 170 215 258 298
#     4  10  19  31  48  72 104 135 165 205 251 295
#     4   9  17  29  47  70 100 137 171 200 239 297
#     4  10  19  33  52  73  99 133 169 208 252 300
#     4  10  19  30  47  74 105 133 165 206 252 297
#
# _framework density 15.896718
#
# number of rings (size 3 to 8) (size 9 to 14) (size 15 to 20)
#    0.000    1.875    2.500    2.250    0.000    6.500 
#    0.000    0.000    0.000    0.000    0.000    0.875 
#    0.000    0.000    0.000    0.000    0.000    0.000 
#
# Total GULP energy -178639.763890 kJ/mol
# GULP energy per Si atom -5582.492622 kJ/mol
# Density = 1.586054 g / cm^3
# Si number density = 15.896718 Si / 1000 Ang^3
#
#
#
# Elastic Constant Matrix: (Units=GPa)
#
#
# Indices 1 2 3 4 5 6 
#
# 1 78.3518 50.7107 71.0079 -0.0001 -11.5956 0.0000
# 2 50.7107 71.5394 85.9355 -0.0004 -3.3535 0.0006
# 3 71.0079 85.9355 171.6902 -0.0003 3.1989 0.0000
# 4 -0.0001 -0.0004 -0.0003 34.7210 0.0000 -2.1617
# 5 -11.5956 -3.3535 3.1989 0.0000 15.8349 0.0001
# 6 0.0000 0.0006 0.0000 -2.1617 0.0001 17.9691
#
#
#
# Elastic Compliance Matrix: (Units=1/GPa)
#
#
# Indices 1 2 3 4 5 6 
#
# 1 0.029562 -0.012180 -0.006510 0.000000 0.020384 0.000000
# 2 -0.012180 0.042096 -0.016093 0.000000 0.003247 -0.000001
# 3 -0.006510 -0.016093 0.016787 0.000000 -0.011567 0.000001
# 4 0.000000 0.000000 0.000000 0.029018 0.000000 0.003491
# 5 0.020384 0.003247 -0.011567 0.000000 0.081102 0.000000
# 6 0.000000 -0.000001 0.000001 0.003491 0.000000 0.056071
#
#
# Mechanical properties :
#
#
# Convention : Reuss Voigt Hill
#
# Bulk Modulus (GPa) = 52.96695 81.87663 67.42179
# Shear Modulus (GPa) = 15.12874 21.30016 18.21445
#
# Velocity S-wave (km/s) = 3.08829 3.66445 3.38864
# Velocity P-wave (km/s) = 6.79032 8.33795 7.60361
#
# Compressibility (1/GPa) = 0.01887970
#
# Stress axis : x y z
#
# Youngs Moduli (GPa) = 33.82688 23.75520 59.56833
#
# Poissons Ratio (x) = 0.28933 0.38778
# Poissons Ratio (y) = 0.41201 0.95865
# Poissons Ratio (z) = 0.22021 0.38230
#
# Static dielectric constant tensor:
#      x y z
#    x 1.515820 0.000000 0.004110 
#    y 0.000000 1.528780 0.000000 
#    z 0.004110 0.000000 1.506070 
# 
# From -- ./inp_files/382571.got.cif
#   From: 2010.05.17/outbox.cif.g08.bks.cpg/sg12_192_cif.got.tgz:382571.got - 2010.06.03 13:09:07.
