data_PCOD9178301
_publ_section_title
;
Structure prediction by ZEFSAII (Michael W. Deem and Ramdas Pophale) SiO2 
 PCOD9178301
Probable space group: C 2/M
;
_chemical_formula_sum "Si O2"
_cell_formula_units_Z 40
_cell_length_a 25.686718
_cell_length_b 7.447145
_cell_length_c 9.567570
_cell_angle_alpha 90.000000
_cell_angle_beta 127.413691
_cell_angle_gamma 90.000000
_cell_volume 1453.677077
_symmetry_space_group_name_H-M "C 2/M"
_symmetry_group_IT_number 12
_symmetry_cell_setting 'monoclinic'
loop_
_space_group_symop_operation_xyz
x,y,z
-x,y,-z
-x,-y,-z
x,-y,z
1/2+x,1/2+y,z
1/2-x,1/2+y,-z
1/2-x,1/2-y,-z
1/2+x,1/2-y,z
loop_
_atom_site_type_symbol
_atom_site_label
_atom_site_fract_x
_atom_site_fract_y
_atom_site_fract_z
Si Si1 0.004171 0.291627 0.850821
Si Si2 0.647982 0.293210 0.039515
Si Si3 0.174533 0.288876 0.398749
Si Si4 0.933133 0.279657 0.467192
Si Si5 0.796131 0.283661 0.238776
O O1 0.986914 0.500000 0.838944
O O2 0.951341 0.217676 0.655666
O O3 0.076239 0.288410 0.899387
O O4 0.000000 0.212087 0.000000
O O5 0.647373 0.500000 0.999719
O O6 0.647100 0.287921 0.209926
O O7 0.720209 0.216862 0.105383
O O8 0.159254 0.500000 0.370472
O O9 0.250000 0.250000 0.500000
O O10 0.175214 0.235541 0.562018
O O11 0.931137 0.500000 0.466659
O O12 0.864677 0.227438 0.276400
O O13 0.000000 0.225812 0.500000
O O14 0.789840 0.500000 0.217772
#
# Coordination Sequence:
#
# PCOD9178301 Si02
#       5
#     8   8   8   8   8
#     4  10  20  34  53  77 105 134 165 210 263 306
#     4  10  19  30  47  73 104 135 168 209 256 307
#     4   9  15  25  43  69 102 134 166 206 253 302
#     4   9  17  31  52  75  98 130 174 214 248 299
#     4   8  15  28  46  69  97 131 168 207 252 298
#
# _framework density 27.516428000000001
#
# number of rings (size 3 to 8) (size 9 to 14) (size 15 to 20)
#    0.000    2.800    0.000    3.600    0.000    3.600 
#    0.000    1.000    0.000    3.000    0.000    0.000 
#    0.000    0.000    0.000    0.000    0.000    0.000 
#
# Total GULP energy -111353.665693 kJ/mol
# GULP energy per Si atom -5567.683285 kJ/mol
# Density = 2.745380 g / cm^3
# Si number density = 27.516428 Si / 1000 Ang^3
#
#
#
# Elastic Constant Matrix: (Units=GPa)
#
#
# Indices 1 2 3 4 5 6 
#
# 1 144.8583 12.5574 77.9278 0.0000 53.9972 0.0000
# 2 12.5574 74.0190 14.5861 0.0000 4.9944 0.0000
# 3 77.9278 14.5861 178.4919 0.0000 59.6181 0.0000
# 4 0.0000 0.0000 0.0000 20.3764 0.0000 -6.6405
# 5 53.9972 4.9944 59.6181 0.0000 73.3272 0.0000
# 6 0.0000 0.0000 0.0000 -6.6405 0.0000 -11.3369
#
#
#
# Elastic Compliance Matrix: (Units=1/GPa)
#
#
# Indices 1 2 3 4 5 6 
#
# 1 0.010452 -0.000879 -0.002664 0.000000 -0.005471 0.000000
# 2 -0.000879 0.013805 -0.000888 0.000000 0.000429 0.000000
# 3 -0.002664 -0.000888 0.008460 0.000000 -0.004856 0.000000
# 4 0.000000 0.000000 0.000000 0.041210 0.000000 -0.024138
# 5 -0.005471 0.000429 -0.004856 0.000000 0.021585 0.000000
# 6 0.000000 0.000000 0.000000 -0.024138 0.000000 -0.074069
#
#
# Mechanical properties :
#
#
# Convention : Reuss Voigt Hill
#
# Bulk Modulus (GPa) = 41.91825 67.50131 54.70978
# Shear Modulus (GPa) = 130.69453 35.95987 83.32720
#
# Velocity S-wave (km/s) = 6.89928 3.61896 5.50894
# Velocity P-wave (km/s) = 8.87320 6.48437 7.77112
#
# Compressibility (1/GPa) = 0.02385596
#
# Stress axis : x y z
#
# Youngs Moduli (GPa) = 95.67581 72.43674 118.20107
#
# Poissons Ratio (x) = 0.06368 0.31490
# Poissons Ratio (y) = 0.08410 0.10491
# Poissons Ratio (z) = 0.25489 0.06429
#
# Static dielectric constant tensor:
#      x y z
#    x 3.233340 0.000000 -0.335700 
#    y 0.000000 2.070500 0.000000 
#    z -0.335700 0.000000 2.610100 
# 
# From -- ./inp_files/180298.got.cif
#   From: 2010.05.17/outbox.cif.g08.bks.cpg/sg12_91_cif.got.tgz:180298.got - 2010.06.03 13:09:07.
