data_PCOD9178292
_publ_section_title
;
Structure prediction by ZEFSAII (Michael W. Deem and Ramdas Pophale) SiO2 
 PCOD9178292
Probable space group: C 2/M
;
_chemical_formula_sum "Si O2"
_cell_formula_units_Z 64
_cell_length_a 34.660221
_cell_length_b 8.799163
_cell_length_c 26.413544
_cell_angle_alpha 90.000000
_cell_angle_beta 153.701578
_cell_angle_gamma 90.000000
_cell_volume 3569.017494
_symmetry_space_group_name_H-M "C 2/M"
_symmetry_group_IT_number 12
_symmetry_cell_setting 'monoclinic'
loop_
_space_group_symop_operation_xyz
x,y,z
-x,y,-z
-x,-y,-z
x,-y,z
1/2+x,1/2+y,z
1/2-x,1/2+y,-z
1/2-x,1/2-y,-z
1/2+x,1/2-y,z
loop_
_atom_site_type_symbol
_atom_site_label
_atom_site_fract_x
_atom_site_fract_y
_atom_site_fract_z
Si Si1 0.475292 0.318391 0.027374
Si Si2 0.290744 0.683251 0.338514
Si Si3 0.919028 0.682141 0.572023
Si Si4 0.280417 0.683090 0.957954
Si Si5 0.211263 0.184355 0.149647
Si Si6 0.885869 0.316941 0.170531
Si Si7 0.856106 0.327822 0.758704
Si Si8 0.709037 0.327421 0.500490
O O1 0.470014 0.500000 0.019068
O O2 0.560327 0.268445 0.157926
O O3 0.500000 0.262113 0.000000
O O4 0.384382 0.264754 0.943340
O O5 0.292389 0.500000 0.341551
O O6 0.370198 0.745047 0.466044
O O7 0.281564 0.745728 0.271012
O O8 0.201599 0.734731 0.262515
O O9 0.914499 0.500000 0.561908
O O10 0.866656 0.735176 0.560313
O O11 0.019381 0.729011 0.697666
O O12 0.286808 0.500000 0.966856
O O13 0.279515 0.729087 0.898161
O O14 0.190617 0.727972 0.880337
O O15 0.358092 0.750063 0.083514
O O16 0.216331 0.000000 0.158611
O O17 0.885643 0.500000 0.166432
O O18 0.883996 0.500000 0.803566
O O19 0.787025 0.333860 0.632638
O O20 0.680083 0.500000 0.455863
O O21 0.750000 0.250000 0.500000
#
# Coordination Sequence:
#
# PCOD9178292 Si02
#       8
#     8   8   8   8   8   8   8   8
#     4  10  19  30  47  73 102 133 172 211 250 305
#     4  10  20  34  52  76 105 139 180 220 262 317
#     4  10  20  35  57  80 105 141 181 222 270 322
#     4   9  19  36  58  82 108 139 175 221 274 328
#     4  10  20  34  52  77 108 141 177 218 268 322
#     4   9  19  37  59  82 107 137 178 222 272 330
#     4   9  19  33  48  68  97 134 174 212 254 303
#     4  10  21  36  52  76 107 140 179 220 264 313
#
# _framework density 17.932106000000001
#
# number of rings (size 3 to 8) (size 9 to 14) (size 15 to 20)
#    0.000    2.375    1.250    1.875    0.000    5.750 
#    0.000    3.125    0.000    3.750    0.000    0.000 
#    0.000    0.000    0.000    0.000    0.000    0.000 
#
# Total GULP energy -178364.426015 kJ/mol
# GULP energy per Si atom -5573.888313 kJ/mol
# Density = 1.789129 g / cm^3
# Si number density = 17.932106 Si / 1000 Ang^3
#
#
#
# Elastic Constant Matrix: (Units=GPa)
#
#
# Indices 1 2 3 4 5 6 
#
# 1 110.2796 29.7749 62.9961 0.0000 -19.6260 0.0000
# 2 29.7749 29.0542 31.6617 0.0000 -4.0228 0.0000
# 3 62.9961 31.6617 127.8651 0.0000 0.9435 0.0000
# 4 0.0000 0.0000 0.0000 29.9413 0.0000 -6.7369
# 5 -19.6260 -4.0228 0.9435 0.0000 21.6462 0.0000
# 6 0.0000 0.0000 0.0000 -6.7369 0.0000 20.1429
#
#
#
# Elastic Compliance Matrix: (Units=1/GPa)
#
#
# Indices 1 2 3 4 5 6 
#
# 1 0.018031 -0.009047 -0.006754 0.000000 0.014961 0.000000
# 2 -0.009047 0.053614 -0.008834 0.000000 0.002146 0.000000
# 3 -0.006754 -0.008834 0.013397 0.000000 -0.008349 0.000000
# 4 0.000000 0.000000 0.000000 0.036117 0.000000 0.012079
# 5 0.014961 0.002146 -0.008349 0.000000 0.060525 0.000000
# 6 0.000000 0.000000 0.000000 0.012079 0.000000 0.053685
#
#
# Mechanical properties :
#
#
# Convention : Reuss Voigt Hill
#
# Bulk Modulus (GPa) = 27.95456 57.34048 42.64752
# Shear Modulus (GPa) = 16.85977 23.86384 20.36180
#
# Velocity S-wave (km/s) = 3.06960 3.65195 3.37337
# Velocity P-wave (km/s) = 5.30907 7.05891 6.24557
#
# Compressibility (1/GPa) = 0.03577234
#
# Stress axis : x y z
#
# Youngs Moduli (GPa) = 55.45977 18.65176 74.64189
#
# Poissons Ratio (x) = 0.16874 0.50411
# Poissons Ratio (y) = 0.50175 0.65942
# Poissons Ratio (z) = 0.37456 0.16478
#
# Static dielectric constant tensor:
#      x y z
#    x 1.623070 0.000000 -0.012220 
#    y 0.000000 1.617900 0.000000 
#    z -0.012220 0.000000 1.632130 
# 
# From -- ./inp_files/353581.got.cif
#   From: 2010.05.17/outbox.cif.g08.bks.cpg/sg12_177_cif.got.tgz:353581.got - 2010.06.03 13:09:07.
