data_PCOD9178921
_publ_section_title
;
Structure prediction by ZEFSAII (Michael W. Deem and Ramdas Pophale) SiO2 
 PCOD9178921
Probable space group: C 2/M
;
_chemical_formula_sum "Si O2"
_cell_formula_units_Z 56
_cell_length_a 24.622738
_cell_length_b 7.393645
_cell_length_c 14.734686
_cell_angle_alpha 90.000000
_cell_angle_beta 64.158062
_cell_angle_gamma 90.000000
_cell_volume 2414.228175
_symmetry_space_group_name_H-M "C 2/M"
_symmetry_group_IT_number 12
_symmetry_cell_setting 'monoclinic'
loop_
_space_group_symop_operation_xyz
x,y,z
-x,y,-z
-x,-y,-z
x,-y,z
1/2+x,1/2+y,z
1/2-x,1/2+y,-z
1/2-x,1/2-y,-z
1/2+x,1/2-y,z
loop_
_atom_site_type_symbol
_atom_site_label
_atom_site_fract_x
_atom_site_fract_y
_atom_site_fract_z
Si Si1 0.200356 0.211413 0.802858
Si Si2 0.427536 0.281334 0.650107
Si Si3 0.436484 0.720645 0.434862
Si Si4 0.996701 0.281476 0.108463
Si Si5 0.307684 0.792404 0.843882
Si Si6 0.875209 0.208850 0.303677
Si Si7 0.370857 0.219073 0.969679
O O1 0.258217 0.291355 0.812790
O O2 0.174898 0.289553 0.727410
O O3 0.213367 0.000000 0.776056
O O4 0.147656 0.224329 0.916239
O O5 0.425617 0.500000 0.655511
O O6 0.494178 0.223633 0.633605
O O7 0.421364 0.228152 0.548838
O O8 0.372246 0.209278 0.747683
O O9 0.436445 0.500000 0.432393
O O10 0.391414 0.787397 0.390088
O O11 0.992845 0.500000 0.114700
O O12 0.938453 0.210819 0.202641
O O13 0.061094 0.223787 0.102683
O O14 0.000000 0.230452 0.000000
O O15 0.322167 0.713137 0.932207
O O16 0.288768 0.000000 0.872125
O O17 0.858150 0.000000 0.331210
O O18 0.370228 0.000000 0.968281
#
# Coordination Sequence:
#
# PCOD9178921 Si02
#       7
#     8   8   8   8   8   8   8
#     4  10  21  34  48  69  99 132 165 201 235 278
#     4   9  17  33  56  77  96 122 159 201 242 288
#     4   8  16  32  54  78 100 121 153 201 249 286
#     4  10  19  31  47  70 100 127 155 198 245 285
#     4  10  21  35  49  70 100 130 162 201 243 281
#     4  10  19  32  51  73  98 130 163 196 239 288
#     4  10  20  34  51  69  95 132 165 199 243 286
#
# _framework density 23.195820999999999
#
# number of rings (size 3 to 8) (size 9 to 14) (size 15 to 20)
#    0.000    2.429    1.429    2.143    0.000    2.000 
#    0.000    2.857    0.000    0.000    0.000    0.000 
#    0.000    0.000    0.000    0.000    0.000    0.000 
#
# Total GULP energy -156420.293779 kJ/mol
# GULP energy per Si atom -5586.439064 kJ/mol
# Density = 2.314303 g / cm^3
# Si number density = 23.195821 Si / 1000 Ang^3
#
#
#
# Elastic Constant Matrix: (Units=GPa)
#
#
# Indices 1 2 3 4 5 6 
#
# 1 155.2225 12.0134 15.0673 0.0000 49.8021 0.0000
# 2 12.0134 85.9522 -4.0496 -0.0004 5.7541 0.0000
# 3 15.0673 -4.0496 41.2492 0.0000 20.7105 0.0000
# 4 0.0000 -0.0004 0.0000 6.4401 0.0000 -16.8555
# 5 49.8021 5.7541 20.7105 0.0000 44.8075 0.0000
# 6 0.0000 0.0000 0.0000 -16.8555 0.0000 2.1749
#
#
#
# Elastic Compliance Matrix: (Units=1/GPa)
#
#
# Indices 1 2 3 4 5 6 
#
# 1 0.010237 -0.000481 0.002468 0.000000 -0.012457 0.000000
# 2 -0.000481 0.011957 0.002412 0.000000 -0.002116 0.000000
# 3 0.002468 0.002412 0.032699 0.000000 -0.018167 0.000000
# 4 0.000000 0.000000 0.000000 -0.008052 0.000000 -0.062404
# 5 -0.012457 -0.002116 -0.018167 0.000000 0.044832 0.000000
# 6 0.000000 0.000000 0.000000 -0.062404 0.000000 -0.023843
#
#
# Mechanical properties :
#
#
# Convention : Reuss Voigt Hill
#
# Bulk Modulus (GPa) = 15.70073 36.49845 26.09959
# Shear Modulus (GPa) = 62.29670 27.97734 45.13702
#
# Velocity S-wave (km/s) = 5.18798 3.47672 4.41603
# Velocity P-wave (km/s) = 6.53226 5.64675 6.10558
#
# Compressibility (1/GPa) = 0.06369132
#
# Stress axis : x y z
#
# Youngs Moduli (GPa) = 97.68821 83.63413 30.58157
#
# Poissons Ratio (x) = 0.04019 -0.07547
# Poissons Ratio (y) = 0.04695 -0.07376
# Poissons Ratio (z) = -0.24109 -0.20171
#
# Static dielectric constant tensor:
#      x y z
#    x 1.920450 0.000000 0.041420 
#    y 0.000000 1.871000 0.000000 
#    z 0.041420 0.000000 1.818590 
# 
# From -- ./inp_files/237354.got.cif
#   From: 2010.05.17/outbox.cif.g08.bks.cpg/sg12_119_cif.got.tgz:237354.got - 2010.06.03 13:09:07.
