data_PCOD9178055
_publ_section_title
;
Structure prediction by ZEFSAII (Michael W. Deem and Ramdas Pophale) SiO2 
 PCOD9178055
Probable space group: C 2/M
;
_chemical_formula_sum "Si O2"
_cell_formula_units_Z 64
_cell_length_a 24.961584
_cell_length_b 7.349598
_cell_length_c 22.317583
_cell_angle_alpha 90.000000
_cell_angle_beta 46.591901
_cell_angle_gamma 90.000000
_cell_volume 2974.439074
_symmetry_space_group_name_H-M "C 2/M"
_symmetry_group_IT_number 12
_symmetry_cell_setting 'monoclinic'
loop_
_space_group_symop_operation_xyz
x,y,z
-x,y,-z
-x,-y,-z
x,-y,z
1/2+x,1/2+y,z
1/2-x,1/2+y,-z
1/2-x,1/2-y,-z
1/2+x,1/2-y,z
loop_
_atom_site_type_symbol
_atom_site_label
_atom_site_fract_x
_atom_site_fract_y
_atom_site_fract_z
Si Si1 0.617050 0.221426 0.923967
Si Si2 0.483058 0.778296 0.108992
Si Si3 0.720410 0.722321 0.222468
Si Si4 0.467503 0.218770 0.257094
Si Si5 0.306640 0.217036 0.402534
Si Si6 0.043602 0.778646 0.526720
Si Si7 0.707338 0.722048 0.371258
Si Si8 0.067127 0.785733 0.287806
O O1 0.581254 0.275912 0.887782
O O2 0.701149 0.281744 0.864057
O O3 0.616925 0.000000 0.924521
O O4 0.560210 0.278131 0.019326
O O5 0.472778 0.716590 0.184667
O O6 0.482299 0.000000 0.110447
O O7 0.721006 0.500000 0.221376
O O8 0.715323 0.777045 0.296142
O O9 0.647860 0.785109 0.242755
O O10 0.390289 0.284930 0.345448
O O11 0.537471 0.265678 0.243766
O O12 0.465194 0.000000 0.257141
O O13 0.250000 0.250000 0.500000
O O14 0.270756 0.283070 0.367920
O O15 0.311896 0.000000 0.393346
O O16 0.127991 0.719003 0.457686
O O17 0.000000 0.728610 0.500000
O O18 0.996403 0.712370 0.619243
O O19 0.046021 0.000000 0.526500
O O20 0.708237 0.500000 0.370352
O O21 0.071063 0.000000 0.297956
#
# Coordination Sequence:
#
# PCOD9178055 Si02
#       8
#     8   8   8   8   8   8   8   8
#     4   8  13  23  43  69  94 115 145 194 241 274
#     4   8  14  26  44  67  93 122 151 183 231 284
#     4   9  15  24  41  68  93 111 145 200 243 264
#     4  10  20  33  47  65  95 130 157 180 220 280
#     4  10  20  32  47  68  93 121 152 187 227 271
#     4   9  14  23  39  62  88 112 141 181 227 266
#     4   9  15  24  41  64  88 112 143 187 234 271
#     4  10  19  30  46  68  93 122 157 195 230 267
#
# _framework density 21.516662
#
# number of rings (size 3 to 8) (size 9 to 14) (size 15 to 20)
#    0.000    2.875    1.250    2.250    0.000    4.500 
#    0.000    0.625    0.000    1.125    0.000    2.625 
#    0.000    0.000    0.000    0.000    0.000    0.000 
#
# Total GULP energy -178694.784836 kJ/mol
# GULP energy per Si atom -5584.212026 kJ/mol
# Density = 2.146769 g / cm^3
# Si number density = 21.516662 Si / 1000 Ang^3
#
#
#
# Elastic Constant Matrix: (Units=GPa)
#
#
# Indices 1 2 3 4 5 6 
#
# 1 140.0544 -2.3308 66.3846 0.0073 -19.3103 -0.0035
# 2 -2.3308 78.0786 -1.7311 0.0148 -5.4974 -0.0165
# 3 66.3846 -1.7311 116.2143 -0.0244 -16.2687 0.0031
# 4 0.0073 0.0148 -0.0244 -14.6954 -0.0018 1.3040
# 5 -19.3103 -5.4974 -16.2687 -0.0018 36.8274 0.0028
# 6 -0.0035 -0.0165 0.0031 1.3040 0.0028 3.6819
#
#
#
# Elastic Compliance Matrix: (Units=1/GPa)
#
#
# Indices 1 2 3 4 5 6 
#
# 1 0.010090 0.000393 -0.005339 0.000015 0.002991 0.000008
# 2 0.000393 0.012986 0.000287 0.000017 0.002271 0.000050
# 3 -0.005339 0.000287 0.012016 -0.000023 0.002551 -0.000007
# 4 0.000015 0.000017 -0.000023 -0.065975 -0.000005 0.023366
# 5 0.002991 0.002271 0.002551 -0.000005 0.030188 -0.000010
# 6 0.000008 0.000050 -0.000007 0.023366 -0.000010 0.263324
#
#
# Mechanical properties :
#
#
# Convention : Reuss Voigt Hill
#
# Bulk Modulus (GPa) = 38.79954 50.99919 44.89936
# Shear Modulus (GPa) = 17.82297 23.29777 20.56037
#
# Velocity S-wave (km/s) = 2.88120 3.29413 3.09456
# Velocity P-wave (km/s) = 5.39814 6.18240 5.80353
#
# Compressibility (1/GPa) = 0.02577350
#
# Stress axis : x y z
#
# Youngs Moduli (GPa) = 99.11238 77.00816 83.22277
#
# Poissons Ratio (x) = -0.03029 0.44432
# Poissons Ratio (y) = -0.03899 -0.02386
# Poissons Ratio (z) = 0.52915 -0.02208
#
# Static dielectric constant tensor:
#      x y z
#    x 1.759200 -0.000010 -0.020920 
#    y -0.000010 1.865410 0.000000 
#    z -0.020920 0.000000 1.761930 
# 
# From -- ./inp_files/320951.got.cif
#   From: 2010.05.17/outbox.cif.g08.bks.cpg/sg12_161_cif.got.tgz:320951.got - 2010.06.03 13:09:07.
