data_PCOD9178187
_publ_section_title
;
Structure prediction by ZEFSAII (Michael W. Deem and Ramdas Pophale) SiO2 
 PCOD9178187
Probable space group: C 2/M
;
_chemical_formula_sum "Si O2"
_cell_formula_units_Z 56
_cell_length_a 14.990650
_cell_length_b 9.567777
_cell_length_c 18.585665
_cell_angle_alpha 90.000000
_cell_angle_beta 75.438072
_cell_angle_gamma 90.000000
_cell_volume 2580.058408
_symmetry_space_group_name_H-M "C 2/M"
_symmetry_group_IT_number 12
_symmetry_cell_setting 'monoclinic'
loop_
_space_group_symop_operation_xyz
x,y,z
-x,y,-z
-x,-y,-z
x,-y,z
1/2+x,1/2+y,z
1/2-x,1/2+y,-z
1/2-x,1/2-y,-z
1/2+x,1/2-y,z
loop_
_atom_site_type_symbol
_atom_site_label
_atom_site_fract_x
_atom_site_fract_y
_atom_site_fract_z
Si Si1 0.598100 0.341185 0.519002
Si Si2 0.832953 0.164064 0.906596
Si Si3 0.158409 0.156575 0.253022
Si Si4 0.144253 0.164647 0.941382
Si Si5 0.107250 0.841408 0.679474
Si Si6 0.327279 0.156491 0.619117
Si Si7 0.117485 0.339734 0.811528
O O1 0.500000 0.346146 0.500000
O O2 0.636349 0.500000 0.514323
O O3 0.583860 0.294273 0.603669
O O4 0.658530 0.242156 0.456795
O O5 0.879747 0.180709 0.819496
O O6 0.748703 0.273824 0.923952
O O7 0.799495 0.000000 0.914920
O O8 0.888933 0.181390 0.969314
O O9 0.131619 0.263824 0.320179
O O10 0.270017 0.160390 0.219642
O O11 0.135892 0.000000 0.282437
O O12 0.097835 0.253240 0.887834
O O13 0.143615 0.000000 0.923757
O O14 0.218419 0.849513 0.656388
O O15 0.081025 0.737461 0.748206
O O16 0.072969 0.000000 0.698564
O O17 0.363947 0.000000 0.604533
O O18 0.087569 0.500000 0.822935
#
# Coordination Sequence:
#
# PCOD9178187 Si02
#       7
#     8   8   8   8   8   8   8
#     4  10  21  36  52  69  91 119 149 183 226 275
#     4   8  14  22  32  50  78 114 151 184 221 263
#     4   8  14  25  39  56  82 115 150 185 219 260
#     4   9  14  20  32  51  79 114 149 184 222 263
#     4   9  18  32  49  69  91 117 152 189 225 267
#     4  10  19  30  47  70  93 118 150 188 227 266
#     4   9  16  25  38  58  84 115 150 185 223 265
#
# _framework density 21.704934999999999
#
# number of rings (size 3 to 8) (size 9 to 14) (size 15 to 20)
#    0.000    3.000    0.000    2.571    0.000    5.429 
#    0.000    0.000    0.000    0.000    0.000    0.000 
#    0.000    1.143    0.000   13.143    0.000   14.571 
#
# Total GULP energy -156243.285732 kJ/mol
# GULP energy per Si atom -5580.117348 kJ/mol
# Density = 2.165553 g / cm^3
# Si number density = 21.704935 Si / 1000 Ang^3
#
#
#
# Elastic Constant Matrix: (Units=GPa)
#
#
# Indices 1 2 3 4 5 6 
#
# 1 29.9026 31.1951 28.6329 0.0000 -17.0908 0.0000
# 2 31.1951 137.5259 110.0318 0.0000 16.4802 0.0000
# 3 28.6329 110.0318 182.9189 0.0000 60.0308 0.0000
# 4 0.0000 0.0000 0.0000 33.2648 0.0000 6.6227
# 5 -17.0908 16.4802 60.0308 0.0000 20.5260 0.0000
# 6 0.0000 0.0000 0.0000 6.6227 0.0000 -5.0625
#
#
#
# Elastic Compliance Matrix: (Units=1/GPa)
#
#
# Indices 1 2 3 4 5 6 
#
# 1 0.007423 -0.011560 0.017845 0.000000 -0.036727 0.000000
# 2 -0.011560 0.015475 -0.006537 0.000000 -0.002932 0.000000
# 3 0.017845 -0.006537 0.000178 0.000000 0.019587 0.000000
# 4 0.000000 0.000000 0.000000 0.023850 0.000000 0.031200
# 5 -0.036727 -0.002932 0.019587 0.000000 -0.036794 0.000000
# 6 0.000000 0.000000 0.000000 0.031200 0.000000 -0.156716
#
#
# Mechanical properties :
#
#
# Convention : Reuss Voigt Hill
#
# Bulk Modulus (GPa) = 44.30383 76.67411 60.48897
# Shear Modulus (GPa) = -36.08687 21.77817 -7.15435
#
# Velocity S-wave (km/s) = -4.08194 3.17104 -1.81751
# Velocity P-wave (km/s) = 1.32669 6.98640 4.85024
#
# Compressibility (1/GPa) = 0.02257141
#
# Stress axis : x y z
#
# Youngs Moduli (GPa) = 134.70736 64.62017 5630.61009
#
# Poissons Ratio (x) = 0.74701 -100.47698
# Poissons Ratio (y) = 1.55723 36.80771
# Poissons Ratio (z) = -2.40382 0.42243
#
# Static dielectric constant tensor:
#      x y z
#    x 1.830380 0.000000 0.011660 
#    y 0.000000 1.764290 0.000000 
#    z 0.011660 0.000000 1.796730 
# 
# From -- ./inp_files/287030.got.cif
#   From: 2010.05.17/outbox.cif.g08.bks.cpg/sg12_144_cif.got.tgz:287030.got - 2010.06.03 13:09:07.
