data_PCOD9178106
_publ_section_title
;
Structure prediction by ZEFSAII (Michael W. Deem and Ramdas Pophale) SiO2 
 PCOD9178106
Probable space group: C 2/M
;
_chemical_formula_sum "Si O2"
_cell_formula_units_Z 48
_cell_length_a 28.183692
_cell_length_b 8.846660
_cell_length_c 12.163378
_cell_angle_alpha 90.000000
_cell_angle_beta 72.039892
_cell_angle_gamma 90.000000
_cell_volume 2884.933995
_symmetry_space_group_name_H-M "C 2/M"
_symmetry_group_IT_number 12
_symmetry_cell_setting 'monoclinic'
loop_
_space_group_symop_operation_xyz
x,y,z
-x,y,-z
-x,-y,-z
x,-y,z
1/2+x,1/2+y,z
1/2-x,1/2+y,-z
1/2-x,1/2-y,-z
1/2+x,1/2-y,z
loop_
_atom_site_type_symbol
_atom_site_label
_atom_site_fract_x
_atom_site_fract_y
_atom_site_fract_z
Si Si1 0.039006 0.676234 0.114323
Si Si2 0.122996 0.179245 0.907952
Si Si3 0.195275 0.318324 0.030675
Si Si4 0.386882 0.176303 0.736039
Si Si5 0.564557 0.682370 0.745400
Si Si6 0.055246 0.181757 0.499377
O O1 0.039458 0.500000 0.080810
O O2 0.067195 0.687038 0.211115
O O3 0.983944 0.738955 0.168558
O O4 0.072542 0.773538 0.007975
O O5 0.111890 0.218048 0.788783
O O6 0.130916 0.000000 0.911681
O O7 0.166940 0.263728 0.940896
O O8 0.196614 0.500000 0.030220
O O9 0.160778 0.269636 0.159315
O O10 0.250000 0.250000 0.000000
O O11 0.403390 0.262563 0.615707
O O12 0.379238 0.000000 0.715382
O O13 0.557655 0.500000 0.754662
O O14 0.566937 0.728197 0.616120
O O15 0.000000 0.235189 0.500000
O O16 0.054043 0.000000 0.497809
#
# Coordination Sequence:
#
# PCOD9178106 Si02
#       6
#     8   8   8   8   8   8
#     4  10  19  30  46  70 102 137 174 213 252 300
#     4  10  20  33  50  72 102 135 168 210 259 306
#     4  10  21  38  59  82 103 126 164 212 264 313
#     4   9  19  33  49  74 104 133 168 210 253 300
#     4  10  20  32  46  70 103 140 176 209 250 300
#     4  10  19  31  49  72 102 141 181 213 242 291
#
# _framework density 16.638162999999999
#
# number of rings (size 3 to 8) (size 9 to 14) (size 15 to 20)
#    0.000    2.167    1.667    3.000    0.000    7.667 
#    0.000    0.000    0.000    1.000    0.000    0.000 
#    0.000    0.000    0.000    0.000    0.000    0.000 
#
# Total GULP energy -133844.761361 kJ/mol
# GULP energy per Si atom -5576.865057 kJ/mol
# Density = 1.660029 g / cm^3
# Si number density = 16.638163 Si / 1000 Ang^3
#
#
#
# Elastic Constant Matrix: (Units=GPa)
#
#
# Indices 1 2 3 4 5 6 
#
# 1 118.7026 33.7943 66.0850 0.0000 1.9573 0.0000
# 2 33.7943 29.2736 27.3943 0.0000 5.3941 0.0000
# 3 66.0850 27.3943 93.1290 0.0000 20.2395 0.0000
# 4 0.0000 0.0000 0.0000 21.6211 0.0000 -4.3786
# 5 1.9573 5.3941 20.2395 0.0000 17.2565 0.0000
# 6 0.0000 0.0000 0.0000 -4.3786 0.0000 24.1098
#
#
#
# Elastic Compliance Matrix: (Units=1/GPa)
#
#
# Indices 1 2 3 4 5 6 
#
# 1 0.019672 -0.012825 -0.014190 0.000000 0.018421 0.000000
# 2 -0.012825 0.055551 -0.005076 0.000000 -0.009956 0.000000
# 3 -0.014190 -0.005076 0.028997 0.000000 -0.030813 0.000000
# 4 0.000000 0.000000 0.000000 0.048017 0.000000 0.008720
# 5 0.018421 -0.009956 -0.030813 0.000000 0.095112 0.000000
# 6 0.000000 0.000000 0.000000 0.008720 0.000000 0.043061
#
#
# Mechanical properties :
#
#
# Convention : Reuss Voigt Hill
#
# Bulk Modulus (GPa) = 24.97667 55.07247 40.02457
# Shear Modulus (GPa) = 13.58926 20.18625 16.88776
#
# Velocity S-wave (km/s) = 2.86099 3.48695 3.18936
# Velocity P-wave (km/s) = 5.09489 7.02736 6.13766
#
# Compressibility (1/GPa) = 0.04003737
#
# Stress axis : x y z
#
# Youngs Moduli (GPa) = 50.83359 18.00153 34.48637
#
# Poissons Ratio (x) = 0.23087 0.48937
# Poissons Ratio (y) = 0.65194 0.17505
# Poissons Ratio (z) = 0.72134 0.09137
#
# Static dielectric constant tensor:
#      x y z
#    x 1.546750 0.000000 0.027040 
#    y 0.000000 1.559120 0.000000 
#    z 0.027040 0.000000 1.572740 
# 
# From -- ./inp_files/172151.got.cif
#   From: 2010.05.17/outbox.cif.g08.bks.cpg/sg12_87_cif.got.tgz:172151.got - 2010.06.03 13:09:07.
