data_PCOD9178953
_publ_section_title
;
Structure prediction by ZEFSAII (Michael W. Deem and Ramdas Pophale) SiO2 
 PCOD9178953
Probable space group: C 2/M
;
_chemical_formula_sum "Si O2"
_cell_formula_units_Z 40
_cell_length_a 16.983753
_cell_length_b 16.026299
_cell_length_c 7.276957
_cell_angle_alpha 90.000000
_cell_angle_beta 120.670978
_cell_angle_gamma 90.000000
_cell_volume 1703.613601
_symmetry_space_group_name_H-M "C 2/M"
_symmetry_group_IT_number 12
_symmetry_cell_setting 'monoclinic'
loop_
_space_group_symop_operation_xyz
x,y,z
-x,y,-z
-x,-y,-z
x,-y,z
1/2+x,1/2+y,z
1/2-x,1/2+y,-z
1/2-x,1/2-y,-z
1/2+x,1/2-y,z
loop_
_atom_site_type_symbol
_atom_site_label
_atom_site_fract_x
_atom_site_fract_y
_atom_site_fract_z
Si Si1 0.357028 0.236853 0.181691
Si Si2 0.625549 0.410464 0.708515
Si Si3 0.581324 0.410368 0.238133
Si Si4 0.643786 0.770345 0.387423
Si Si5 0.653317 0.096170 0.104639
O O1 0.397432 0.329321 0.200084
O O2 0.375733 0.222682 0.419548
O O3 0.250000 0.250000 0.000000
O O4 0.386363 0.157244 0.099903
O O5 0.613980 0.500000 0.788082
O O6 0.573847 0.411452 0.452170
O O7 0.734627 0.403546 0.784205
O O8 0.636592 0.500000 0.274723
O O9 0.607940 0.313244 0.246984
O O10 0.500000 0.419056 0.000000
O O11 0.750000 0.750000 0.500000
O O12 0.626980 0.855631 0.259178
O O13 0.624801 0.000000 0.062067
#
# Coordination Sequence:
#
# PCOD9178953 Si02
#       5
#     8   8   8   8   8
#     4   9  16  28  45  69 102 130 159 206 257 302
#     4   8  14  26  45  68  96 127 157 197 246 295
#     4   9  17  30  49  75 107 138 165 200 253 311
#     4  11  18  30  53  76 102 130 173 214 251 297
#     4  10  19  31  47  73 103 129 166 214 257 296
#
# _framework density 23.479503000000001
#
# number of rings (size 3 to 8) (size 9 to 14) (size 15 to 20)
#    0.000    2.600    6.000    0.000    0.000    0.800 
#    0.000    1.000    0.000    5.400    0.000   18.200 
#    0.000    0.000    0.000    0.000    0.000    0.000 
#
# Total GULP energy -111435.759054 kJ/mol
# GULP energy per Si atom -5571.787953 kJ/mol
# Density = 2.342606 g / cm^3
# Si number density = 23.479503 Si / 1000 Ang^3
#
#
#
# Elastic Constant Matrix: (Units=GPa)
#
#
# Indices 1 2 3 4 5 6 
#
# 1 35.7846 30.7750 25.0781 0.0000 -9.6160 0.0000
# 2 30.7750 306.0186 92.5970 0.0000 -19.5528 0.0000
# 3 25.0781 92.5970 132.4350 0.0000 -22.1783 0.0000
# 4 0.0000 0.0000 0.0000 37.4843 0.0000 -2.1478
# 5 -9.6160 -19.5528 -22.1783 0.0000 33.1545 0.0000
# 6 0.0000 0.0000 0.0000 -2.1478 0.0000 23.2858
#
#
#
# Elastic Compliance Matrix: (Units=1/GPa)
#
#
# Indices 1 2 3 4 5 6 
#
# 1 0.034025 -0.001766 -0.004200 0.000000 0.006017 0.000000
# 2 -0.001766 0.004246 -0.002591 0.000000 0.000259 0.000000
# 3 -0.004200 -0.002591 0.010921 0.000000 0.004559 0.000000
# 4 0.000000 0.000000 0.000000 0.026820 0.000000 0.002474
# 5 0.006017 0.000259 0.004559 0.000000 0.035109 0.000000
# 6 0.000000 0.000000 0.000000 0.002474 0.000000 0.043173
#
#
# Mechanical properties :
#
#
# Convention : Reuss Voigt Hill
#
# Bulk Modulus (GPa) = 31.17531 85.68204 58.42868
# Shear Modulus (GPa) = 27.45732 40.50413 33.98073
#
# Velocity S-wave (km/s) = 3.42338 4.15792 3.80840
# Velocity P-wave (km/s) = 5.37890 7.72156 6.65414
#
# Compressibility (1/GPa) = 0.03207667
#
# Stress axis : x y z
#
# Youngs Moduli (GPa) = 29.39058 235.52134 91.56377
#
# Poissons Ratio (x) = 0.41600 0.38460
# Poissons Ratio (y) = 0.05191 0.23723
# Poissons Ratio (z) = 0.12345 0.61022
#
# Static dielectric constant tensor:
#      x y z
#    x 1.990970 0.000000 0.027530 
#    y 0.000000 1.752060 0.000000 
#    z 0.027530 0.000000 1.757640 
# 
# From -- ./inp_files/103772.got.cif
#   From: 2010.05.17/outbox.cif.g08.bks.cpg/sg12_52_cif.got.tgz:103772.got - 2010.06.03 13:09:07.
