data_PCOD9178713
_publ_section_title
;
Structure prediction by ZEFSAII (Michael W. Deem and Ramdas Pophale) SiO2 
 PCOD9178713
Probable space group: C 2/M
;
_chemical_formula_sum "Si O2"
_cell_formula_units_Z 34
_cell_length_a 7.751800
_cell_length_b 28.009742
_cell_length_c 11.216936
_cell_angle_alpha 90.000000
_cell_angle_beta 35.577702
_cell_angle_gamma 90.000000
_cell_volume 1416.982446
_symmetry_space_group_name_H-M "C 2/M"
_symmetry_group_IT_number 12
_symmetry_cell_setting 'monoclinic'
loop_
_space_group_symop_operation_xyz
x,y,z
-x,y,-z
-x,-y,-z
x,-y,z
1/2+x,1/2+y,z
1/2-x,1/2+y,-z
1/2-x,1/2-y,-z
1/2+x,1/2-y,z
loop_
_atom_site_type_symbol
_atom_site_label
_atom_site_fract_x
_atom_site_fract_y
_atom_site_fract_z
Si Si1 0.512158 0.190379 0.247086
Si Si2 0.102134 0.796248 0.751351
Si Si3 0.000000 0.000000 0.000000
Si Si4 0.825286 0.947346 0.336382
Si Si5 0.302068 0.631477 0.753637
O O1 0.631516 0.187514 0.313552
O O2 0.360255 0.241064 0.304000
O O3 0.320739 0.146132 0.306442
O O4 0.810054 0.195960 0.998750
O O5 0.006655 0.826276 0.690415
O O6 0.963434 0.041086 0.128185
O O7 0.500000 0.925371 0.500000
O O8 0.029603 0.916844 0.307888
O O9 0.770951 0.000000 0.422762
O O10 0.000000 0.630209 0.000000
#
# Coordination Sequence:
#
# PCOD9178713 Si02
#       5
#     8   8   2   8   8
#     4   9  15  25  44  77 120 162 204 251 295 348
#     4   9  15  25  44  76 121 160 204 250 294 353
#     4   8  18  40  70  88 114 156 200 252 312 380
#     4   9  20  40  66  91 122 160 200 257 323 371
#     4  10  19  30  55  88 120 162 206 254 307 363
#
# _framework density 23.994653
#
# number of rings (size 3 to 8) (size 9 to 14) (size 15 to 20)
#    0.706    2.118    2.353    0.000    0.000    4.235 
#    0.000    0.000    0.000    8.471    0.000    0.000 
#    0.000    0.000    0.000    0.000    0.000    0.000 
#
# Total GULP energy -94750.848750 kJ/mol
# GULP energy per Si atom -5573.579338 kJ/mol
# Density = 2.394004 g / cm^3
# Si number density = 23.994653 Si / 1000 Ang^3
#
#
#
# Elastic Constant Matrix: (Units=GPa)
#
#
# Indices 1 2 3 4 5 6 
#
# 1 211.5787 84.1355 58.6789 0.0000 -4.7398 0.0000
# 2 84.1355 106.6552 17.7485 0.0000 -6.7720 0.0000
# 3 58.6789 17.7485 90.3823 0.0000 13.6905 0.0000
# 4 0.0000 0.0000 0.0000 22.7176 0.0000 -8.4018
# 5 -4.7398 -6.7720 13.6905 0.0000 57.0112 0.0000
# 6 0.0000 0.0000 0.0000 -8.4018 0.0000 55.2255
#
#
#
# Elastic Compliance Matrix: (Units=1/GPa)
#
#
# Indices 1 2 3 4 5 6 
#
# 1 0.008232 -0.005696 -0.004387 0.000000 0.001061 0.000000
# 2 -0.005696 0.013790 0.000845 0.000000 0.000962 0.000000
# 3 -0.004387 0.000845 0.014307 0.000000 -0.003700 0.000000
# 4 0.000000 0.000000 0.000000 0.046643 0.000000 0.007096
# 5 0.001061 0.000962 -0.003700 0.000000 0.018631 0.000000
# 6 0.000000 0.000000 0.000000 0.007096 0.000000 0.019187
#
#
# Mechanical properties :
#
#
# Convention : Reuss Voigt Hill
#
# Bulk Modulus (GPa) = 56.01617 81.08245 68.54931
# Shear Modulus (GPa) = 34.43108 43.52774 38.97941
#
# Velocity S-wave (km/s) = 3.79218 4.26380 4.03489
# Velocity P-wave (km/s) = 6.52458 7.62268 7.09490
#
# Compressibility (1/GPa) = 0.01785199
#
# Stress axis : x y z
#
# Youngs Moduli (GPa) = 121.47832 72.51539 69.89809
#
# Poissons Ratio (x) = 0.41308 0.30661
# Poissons Ratio (y) = 0.69200 -0.05904
# Poissons Ratio (z) = 0.53287 -0.06125
#
# Static dielectric constant tensor:
#      x y z
#    x 1.865150 0.000000 -0.025600 
#    y 0.000000 1.879710 0.000000 
#    z -0.025600 0.000000 2.105690 
# 
# From -- ./inp_files/124683.got.cif
#   From: 2010.05.17/outbox.cif.g08.bks.cpg/sg12_63_cif.got.tgz:124683.got - 2010.06.03 13:09:07.
