data_PCOD9178749
_publ_section_title
;
Structure prediction by ZEFSAII (Michael W. Deem and Ramdas Pophale) SiO2 
 PCOD9178749
Probable space group: C 2/M
;
_chemical_formula_sum "Si O2"
_cell_formula_units_Z 48
_cell_length_a 14.137309
_cell_length_b 20.116365
_cell_length_c 5.760382
_cell_angle_alpha 90.000000
_cell_angle_beta 90.518902
_cell_angle_gamma 90.000000
_cell_volume 1638.135158
_symmetry_space_group_name_H-M "C 2/M"
_symmetry_group_IT_number 12
_symmetry_cell_setting 'monoclinic'
loop_
_space_group_symop_operation_xyz
x,y,z
-x,y,-z
-x,-y,-z
x,-y,z
1/2+x,1/2+y,z
1/2-x,1/2+y,-z
1/2-x,1/2-y,-z
1/2+x,1/2-y,z
loop_
_atom_site_type_symbol
_atom_site_label
_atom_site_fract_x
_atom_site_fract_y
_atom_site_fract_z
Si Si1 0.646738 0.403258 0.367884
Si Si2 0.127484 0.423576 0.636228
Si Si3 0.355718 0.756715 0.096975
Si Si4 0.368526 0.604543 0.134346
Si Si5 0.358363 0.918744 0.863216
Si Si6 0.395956 0.752729 0.594944
O O1 0.757142 0.423774 0.366648
O O2 0.603970 0.424538 0.614967
O O3 0.639945 0.323014 0.373875
O O4 0.604333 0.423550 0.117333
O O5 0.095940 0.500000 0.643549
O O6 0.097326 0.398604 0.382477
O O7 0.100848 0.396226 0.887998
O O8 0.400376 0.781953 0.855568
O O9 0.250000 0.750000 0.000000
O O10 0.396240 0.682118 0.133471
O O11 0.345139 0.783108 0.363042
O O12 0.252836 0.601846 0.137419
O O13 0.358718 0.000000 0.864293
O O14 0.500000 0.751348 0.500000
#
# Coordination Sequence:
#
# PCOD9178749 Si02
#       6
#     8   8   8   8   8   8
#     4   8  14  23  35  51  71  96 127 164 200 233
#     4   8  12  18  29  45  65  90 121 158 197 230
#     4  10  19  31  46  64  85 109 139 173 209 248
#     4   8  14  23  35  52  73  97 127 161 197 236
#     4   8  12  18  29  46  67  91 121 155 191 230
#     4  10  19  31  46  63  83 108 139 173 209 248
#
# _framework density 29.301608999999999
#
# number of rings (size 3 to 8) (size 9 to 14) (size 15 to 20)
#    0.000    3.333    0.000    1.000    0.000    0.000 
#    0.000    0.000    0.000    0.500    0.000    0.000 
#    0.000   28.000    0.000    0.000    0.000    8.333 
#
# Total GULP energy -134186.831102 kJ/mol
# GULP energy per Si atom -5591.117963 kJ/mol
# Density = 2.923492 g / cm^3
# Si number density = 29.301609 Si / 1000 Ang^3
#
#
#
# Elastic Constant Matrix: (Units=GPa)
#
#
# Indices 1 2 3 4 5 6 
#
# 1 92.5299 0.6557 50.4505 0.0000 -12.9268 0.0000
# 2 0.6557 115.3482 84.6244 0.0000 -17.7502 0.0000
# 3 50.4505 84.6244 447.7272 0.0000 -30.7746 0.0000
# 4 0.0000 0.0000 0.0000 25.0529 0.0000 -9.7659
# 5 -12.9268 -17.7502 -30.7746 0.0000 55.4859 0.0000
# 6 0.0000 0.0000 0.0000 -9.7659 0.0000 -14.7440
#
#
#
# Elastic Compliance Matrix: (Units=1/GPa)
#
#
# Indices 1 2 3 4 5 6 
#
# 1 0.011916 0.001355 -0.001433 0.000000 0.002415 0.000000
# 2 0.001355 0.010497 -0.001959 0.000000 0.002587 0.000000
# 3 -0.001433 -0.001959 0.002806 0.000000 0.000596 0.000000
# 4 0.000000 0.000000 0.000000 0.031724 0.000000 -0.021013
# 5 0.002415 0.002587 0.000596 0.000000 0.019743 0.000000
# 6 0.000000 0.000000 0.000000 -0.021013 0.000000 -0.053906
#
#
# Mechanical properties :
#
#
# Convention : Reuss Voigt Hill
#
# Bulk Modulus (GPa) = 47.28990 103.00739 75.14864
# Shear Modulus (GPa) = 147.47683 47.81725 97.64704
#
# Velocity S-wave (km/s) = 7.10210 4.04406 5.77903
# Velocity P-wave (km/s) = 9.13385 7.55224 8.38044
#
# Compressibility (1/GPa) = 0.02114617
#
# Stress axis : x y z
#
# Youngs Moduli (GPa) = 83.91829 95.26577 356.35780
#
# Poissons Ratio (x) = -0.12910 0.51062
# Poissons Ratio (y) = -0.11372 0.69806
# Poissons Ratio (z) = 0.12025 0.18661
#
# Static dielectric constant tensor:
#      x y z
#    x 2.146550 0.000000 -0.161620 
#    y 0.000000 2.563800 0.000000 
#    z -0.161620 0.000000 1.754530 
# 
# From -- ./inp_files/12376.got.cif
#   From: 2010.05.17/outbox.cif.g08.bks.cpg/sg12_7_cif.got.tgz:12376.got - 2010.06.03 13:09:07.
