data_PCOD9178417
_publ_section_title
;
Structure prediction by ZEFSAII (Michael W. Deem and Ramdas Pophale) SiO2 
 PCOD9178417
Probable space group: C 2/M
;
_chemical_formula_sum "Si O2"
_cell_formula_units_Z 52
_cell_length_a 21.425149
_cell_length_b 21.185452
_cell_length_c 6.232252
_cell_angle_alpha 90.000000
_cell_angle_beta 122.943687
_cell_angle_gamma 90.000000
_cell_volume 2373.968169
_symmetry_space_group_name_H-M "C 2/M"
_symmetry_group_IT_number 12
_symmetry_cell_setting 'monoclinic'
loop_
_space_group_symop_operation_xyz
x,y,z
-x,y,-z
-x,-y,-z
x,-y,z
1/2+x,1/2+y,z
1/2-x,1/2+y,-z
1/2-x,1/2-y,-z
1/2+x,1/2-y,z
loop_
_atom_site_type_symbol
_atom_site_label
_atom_site_fract_x
_atom_site_fract_y
_atom_site_fract_z
Si Si1 0.844233 0.310807 0.325380
Si Si2 0.500000 0.347814 0.500000
Si Si3 0.921521 0.619567 0.862090
Si Si4 0.298535 0.675192 0.698084
Si Si5 0.144900 0.928860 0.860473
Si Si6 0.222469 0.605171 0.174821
Si Si7 0.074236 0.250014 0.893755
O O1 0.894831 0.348764 0.589062
O O2 0.769230 0.290749 0.305414
O O3 0.884768 0.257801 0.260740
O O4 0.815615 0.359341 0.093287
O O5 0.573089 0.391819 0.634575
O O6 0.489155 0.300772 0.275552
O O7 0.849536 0.582952 0.821867
O O8 0.941073 0.679767 0.053411
O O9 0.000000 0.583773 0.000000
O O10 0.265556 0.651626 0.415481
O O11 0.324069 0.614280 0.886459
O O12 0.368638 0.720710 0.830352
O O13 0.211115 0.933168 0.809797
O O14 0.125329 0.000000 0.892124
#
# Coordination Sequence:
#
# PCOD9178417 Si02
#       7
#     8   4   8   8   8   8   8
#     4   9  18  32  51  77 109 146 180 214 262 323
#     4  10  21  36  54  80 114 148 185 228 268 316
#     4  10  20  32  51  80 113 146 176 211 261 325
#     4   9  19  33  51  78 106 137 183 232 271 320
#     4  10  21  39  60  78 103 142 189 239 283 318
#     4   9  20  36  54  78 105 139 181 225 274 325
#     4  10  19  30  48  74 110 150 181 215 263 319
#
# _framework density 21.904254999999999
#
# number of rings (size 3 to 8) (size 9 to 14) (size 15 to 20)
#    0.000    2.462    0.000    1.615    0.000   14.154 
#    0.000    2.308    0.000    5.077    0.000    9.692 
#    0.000    0.000    0.000    0.000    0.000    0.000 
#
# Total GULP energy -145023.212185 kJ/mol
# GULP energy per Si atom -5577.815853 kJ/mol
# Density = 2.185440 g / cm^3
# Si number density = 21.904255 Si / 1000 Ang^3
#
#
#
# Elastic Constant Matrix: (Units=GPa)
#
#
# Indices 1 2 3 4 5 6 
#
# 1 77.9312 27.0271 43.3235 0.0000 21.0956 0.0000
# 2 27.0271 78.6274 23.8349 0.0000 4.8691 0.0000
# 3 43.3235 23.8349 121.4185 0.0000 25.2691 0.0000
# 4 0.0000 0.0000 0.0000 -3.6919 0.0000 -10.4120
# 5 21.0956 4.8691 25.2691 0.0000 36.5508 0.0000
# 6 0.0000 0.0000 0.0000 -10.4120 0.0000 -0.1657
#
#
#
# Elastic Compliance Matrix: (Units=1/GPa)
#
#
# Indices 1 2 3 4 5 6 
#
# 1 0.018814 -0.004721 -0.004272 0.000000 -0.007276 0.000000
# 2 -0.004721 0.014708 -0.001591 0.000000 0.001865 0.000000
# 3 -0.004272 -0.001591 0.011114 0.000000 -0.005006 0.000000
# 4 0.000000 0.000000 0.000000 0.001537 0.000000 -0.096588
# 5 -0.007276 0.001865 -0.005006 0.000000 0.034771 0.000000
# 6 0.000000 0.000000 0.000000 -0.096588 0.000000 0.034248
#
#
# Mechanical properties :
#
#
# Convention : Reuss Voigt Hill
#
# Bulk Modulus (GPa) = 42.61138 51.81645 47.21392
# Shear Modulus (GPa) = 34.67823 18.79143 26.73483
#
# Velocity S-wave (km/s) = 3.98323 2.93215 3.49740
# Velocity P-wave (km/s) = 6.37578 5.93048 6.15715
#
# Compressibility (1/GPa) = 0.02346791
#
# Stress axis : x y z
#
# Youngs Moduli (GPa) = 53.15286 67.99099 89.97346
#
# Poissons Ratio (x) = 0.32101 0.38435
# Poissons Ratio (y) = 0.25096 0.14313
# Poissons Ratio (z) = 0.22706 0.10816
#
# Static dielectric constant tensor:
#      x y z
#    x 1.901690 0.000000 -0.015890 
#    y 0.000000 1.765720 0.000000 
#    z -0.015890 0.000000 1.789010 
# 
# From -- ./inp_files/21969.got.cif
#   From: 2010.05.17/outbox.cif.g08.bks.cpg/sg12_11_cif.got.tgz:21969.got - 2010.06.03 13:09:07.
