data_PCOD9178086
_publ_section_title
;
Structure prediction by ZEFSAII (Michael W. Deem and Ramdas Pophale) SiO2 
 PCOD9178086
Probable space group: C 2/M
;
_chemical_formula_sum "Si O2"
_cell_formula_units_Z 56
_cell_length_a 20.418971
_cell_length_b 7.331071
_cell_length_c 19.245172
_cell_angle_alpha 90.000000
_cell_angle_beta 67.970217
_cell_angle_gamma 90.000000
_cell_volume 2670.531208
_symmetry_space_group_name_H-M "C 2/M"
_symmetry_group_IT_number 12
_symmetry_cell_setting 'monoclinic'
loop_
_space_group_symop_operation_xyz
x,y,z
-x,y,-z
-x,-y,-z
x,-y,z
1/2+x,1/2+y,z
1/2-x,1/2+y,-z
1/2-x,1/2-y,-z
1/2+x,1/2-y,z
loop_
_atom_site_type_symbol
_atom_site_label
_atom_site_fract_x
_atom_site_fract_y
_atom_site_fract_z
Si Si1 0.286958 0.221082 0.702519
Si Si2 0.923164 0.211359 0.009218
Si Si3 0.725253 0.722884 0.872362
Si Si4 0.545250 0.222540 0.549262
Si Si5 0.375219 0.220491 0.873700
Si Si6 0.937708 0.721240 0.704040
Si Si7 0.701078 0.217279 0.454297
O O1 0.241163 0.280650 0.786805
O O2 0.368124 0.269301 0.687312
O O3 0.270661 0.285272 0.631330
O O4 0.282812 0.000000 0.705565
O O5 0.850945 0.288104 0.071458
O O6 0.925282 0.000000 0.030897
O O7 0.908378 0.218621 0.932798
O O8 0.000000 0.288839 0.000000
O O9 0.725254 0.500000 0.874741
O O10 0.793724 0.778354 0.891319
O O11 0.500000 0.272967 0.500000
O O12 0.506409 0.283452 0.635059
O O13 0.623951 0.288038 0.504786
O O14 0.546193 0.000000 0.551286
O O15 0.421736 0.280593 0.788855
O O16 0.374570 0.000000 0.874584
O O17 0.939832 0.500000 0.705145
O O18 0.750000 0.250000 0.500000
O O19 0.693537 0.000000 0.448219
#
# Coordination Sequence:
#
# PCOD9178086 Si02
#       7
#     8   8   8   8   8   8   8
#     4   8  13  25  46  69  89 114 154 194 224 261
#     4  10  20  33  47  66  95 126 152 181 223 275
#     4   8  15  29  50  71  88 114 155 196 227 262
#     4   9  14  24  46  72  92 114 153 197 226 254
#     4   9  17  30  51  73  91 114 149 194 234 267
#     4   8  13  24  45  73  93 108 146 200 236 256
#     4  10  19  30  46  69  96 125 153 185 225 270
#
# _framework density 20.969609999999999
#
# number of rings (size 3 to 8) (size 9 to 14) (size 15 to 20)
#    0.000    3.143    1.429    2.143    0.000    0.286 
#    2.571    0.000    0.000    4.714    0.000    0.000 
#    0.000    0.000    0.000    0.000    0.000    0.000 
#
# Total GULP energy -156162.377246 kJ/mol
# GULP energy per Si atom -5577.227759 kJ/mol
# Density = 2.092188 g / cm^3
# Si number density = 20.969610 Si / 1000 Ang^3
#
#
#
# Elastic Constant Matrix: (Units=GPa)
#
#
# Indices 1 2 3 4 5 6 
#
# 1 156.0568 0.3623 104.1185 0.0001 0.6906 -0.0001
# 2 0.3623 79.0606 -5.0695 0.0004 -4.6743 0.0007
# 3 104.1185 -5.0695 170.7470 0.0000 3.2942 -0.0001
# 4 0.0001 0.0004 0.0000 -1.1148 -0.0001 4.6764
# 5 0.6906 -4.6743 3.2942 -0.0001 27.9450 -0.0001
# 6 -0.0001 0.0007 -0.0001 4.6764 -0.0001 -31.6981
#
#
#
# Elastic Compliance Matrix: (Units=1/GPa)
#
#
# Indices 1 2 3 4 5 6 
#
# 1 0.010826 -0.000448 -0.006623 0.000000 0.000438 0.000000
# 2 -0.000448 0.012813 0.000614 0.000015 0.002082 0.000002
# 3 -0.006623 0.000614 0.009931 0.000000 -0.000904 0.000000
# 4 0.000000 0.000015 0.000000 -2.353745 -0.000004 -0.347250
# 5 0.000438 0.002082 -0.000904 -0.000004 0.036229 -0.000001
# 6 0.000000 0.000002 0.000000 -0.347250 -0.000001 -0.082778
#
#
# Mechanical properties :
#
#
# Convention : Reuss Voigt Hill
#
# Bulk Modulus (GPa) = 48.41661 67.18746 57.80203
# Shear Modulus (GPa) = -2.13045 19.45663 8.66309
#
# Velocity S-wave (km/s) = -1.00905 3.04937 2.03475
# Velocity P-wave (km/s) = 4.66707 6.67144 5.75715
#
# Compressibility (1/GPa) = 0.02065407
#
# Stress axis : x y z
#
# Youngs Moduli (GPa) = 92.37075 78.04560 100.69463
#
# Poissons Ratio (x) = 0.03500 0.66692
# Poissons Ratio (y) = 0.04142 -0.06179
# Poissons Ratio (z) = 0.61179 -0.04789
#
# Static dielectric constant tensor:
#      x y z
#    x 1.720040 0.000000 -0.012600 
#    y 0.000000 1.841270 0.000000 
#    z -0.012600 0.000000 1.689970 
# 
# From -- ./inp_files/276064.got.cif
#   From: 2010.05.17/outbox.cif.g08.bks.cpg/sg12_139_cif.got.tgz:276064.got - 2010.06.03 13:09:07.
