data_PCOD9178924
_publ_section_title
;
Structure prediction by ZEFSAII (Michael W. Deem and Ramdas Pophale) SiO2 
 PCOD9178924
Probable space group: C 2/M
;
_chemical_formula_sum "Si O2"
_cell_formula_units_Z 64
_cell_length_a 24.170349
_cell_length_b 8.890328
_cell_length_c 22.282667
_cell_angle_alpha 90.000000
_cell_angle_beta 132.646778
_cell_angle_gamma 90.000000
_cell_volume 3521.897097
_symmetry_space_group_name_H-M "C 2/M"
_symmetry_group_IT_number 12
_symmetry_cell_setting 'monoclinic'
loop_
_space_group_symop_operation_xyz
x,y,z
-x,y,-z
-x,-y,-z
x,-y,z
1/2+x,1/2+y,z
1/2-x,1/2+y,-z
1/2-x,1/2-y,-z
1/2+x,1/2-y,z
loop_
_atom_site_type_symbol
_atom_site_label
_atom_site_fract_x
_atom_site_fract_y
_atom_site_fract_z
Si Si1 0.588872 0.336253 0.070139
Si Si2 0.558938 0.681487 0.594634
Si Si3 0.634083 0.824749 0.216149
Si Si4 0.543575 0.324786 0.719057
Si Si5 0.487767 0.179025 0.184006
Si Si6 0.844967 0.173089 0.014870
Si Si7 0.278277 0.821453 0.278516
Si Si8 0.723431 0.675094 0.853367
O O1 0.613748 0.500000 0.114162
O O2 0.609041 0.202472 0.129129
O O3 0.620172 0.325740 0.026618
O O4 0.500000 0.339228 0.000000
O O5 0.500000 0.723609 0.500000
O O6 0.567620 0.500000 0.601163
O O7 0.530829 0.722646 0.640880
O O8 0.640852 0.752329 0.645860
O O9 0.562879 0.770685 0.203315
O O10 0.712964 0.736746 0.274965
O O11 0.646597 0.000000 0.237987
O O12 0.522067 0.500000 0.710318
O O13 0.505381 0.225481 0.741723
O O14 0.633743 0.315692 0.795090
O O15 0.481672 0.000000 0.172151
O O16 0.410434 0.252411 0.102556
O O17 0.767069 0.258600 0.942984
O O18 0.832341 0.000000 0.024516
O O19 0.261112 0.763734 0.197622
O O20 0.282910 0.000000 0.281545
O O21 0.744163 0.500000 0.860627
#
# Coordination Sequence:
#
# PCOD9178924 Si02
#       8
#     8   8   8   8   8   8   8   8
#     4  10  19  31  47  70 100 136 183 236 282 318
#     4   9  19  39  67  94 116 138 167 209 265 327
#     4  11  22  34  51  74 105 145 187 229 272 317
#     4   9  20  38  58  80 107 141 177 216 268 326
#     4  11  24  37  51  74 106 149 193 230 270 317
#     4  11  21  32  50  75 104 142 189 237 282 322
#     4  11  21  33  54  85 116 143 175 220 272 320
#     4  10  20  35  54  76 105 142 186 234 280 324
#
# _framework density 18.172025000000001
#
# number of rings (size 3 to 8) (size 9 to 14) (size 15 to 20)
#    0.000    1.750    2.500    3.375    0.000    5.500 
#    0.000    0.000    0.000    0.750    0.000    0.000 
#    0.000    0.000    0.000    0.000    0.000    0.000 
#
# Total GULP energy -178556.677164 kJ/mol
# GULP energy per Si atom -5579.896161 kJ/mol
# Density = 1.813066 g / cm^3
# Si number density = 18.172025 Si / 1000 Ang^3
#
#
#
# Elastic Constant Matrix: (Units=GPa)
#
#
# Indices 1 2 3 4 5 6 
#
# 1 51.8360 27.3664 48.7780 0.0000 -9.0776 0.0000
# 2 27.3664 68.9919 39.0506 0.0000 -2.4731 0.0000
# 3 48.7780 39.0506 119.1515 0.0000 2.4858 0.0000
# 4 0.0000 0.0000 0.0000 22.2972 0.0000 -1.7864
# 5 -9.0776 -2.4731 2.4858 0.0000 16.4180 0.0000
# 6 0.0000 0.0000 0.0000 -1.7864 0.0000 13.0915
#
#
#
# Elastic Compliance Matrix: (Units=1/GPa)
#
#
# Indices 1 2 3 4 5 6 
#
# 1 0.041554 -0.006998 -0.015223 0.000000 0.024226 0.000000
# 2 -0.006998 0.019186 -0.003414 0.000000 -0.000462 0.000000
# 3 -0.015223 -0.003414 0.015980 0.000000 -0.011351 0.000000
# 4 0.000000 0.000000 0.000000 0.045344 0.000000 0.006188
# 5 0.024226 -0.000462 -0.011351 0.000000 0.075952 0.000000
# 6 0.000000 0.000000 0.000000 0.006188 0.000000 0.077230
#
#
# Mechanical properties :
#
#
# Convention : Reuss Voigt Hill
#
# Bulk Modulus (GPa) = 39.29151 52.26325 45.77738
# Shear Modulus (GPa) = 14.92544 18.68030 16.80287
#
# Velocity S-wave (km/s) = 2.86902 3.20968 3.04411
# Velocity P-wave (km/s) = 5.71349 6.52371 6.13199
#
# Compressibility (1/GPa) = 0.02545079
#
# Stress axis : x y z
#
# Youngs Moduli (GPa) = 24.06535 52.12198 62.57731
#
# Poissons Ratio (x) = 0.36473 0.95262
# Poissons Ratio (y) = 0.16840 0.21361
# Poissons Ratio (z) = 0.36635 0.17792
#
# Static dielectric constant tensor:
#      x y z
#    x 1.661910 0.000000 0.010440 
#    y 0.000000 1.646490 0.000000 
#    z 0.010440 0.000000 1.616610 
# 
# From -- ./inp_files/324326.got.cif
#   From: 2010.05.17/outbox.cif.g08.bks.cpg/sg12_163_cif.got.tgz:324326.got - 2010.06.03 13:09:07.
