data_PCOD9178442
_publ_section_title
;
Structure prediction by ZEFSAII (Michael W. Deem and Ramdas Pophale) SiO2 
 PCOD9178442
Probable space group: C 2/M
;
_chemical_formula_sum "Si O2"
_cell_formula_units_Z 58
_cell_length_a 16.345187
_cell_length_b 16.048956
_cell_length_c 14.185118
_cell_angle_alpha 90.000000
_cell_angle_beta 37.018854
_cell_angle_gamma 90.000000
_cell_volume 2240.382862
_symmetry_space_group_name_H-M "C 2/M"
_symmetry_group_IT_number 12
_symmetry_cell_setting 'monoclinic'
loop_
_space_group_symop_operation_xyz
x,y,z
-x,y,-z
-x,-y,-z
x,-y,z
1/2+x,1/2+y,z
1/2-x,1/2+y,-z
1/2-x,1/2-y,-z
1/2+x,1/2-y,z
loop_
_atom_site_type_symbol
_atom_site_label
_atom_site_fract_x
_atom_site_fract_y
_atom_site_fract_z
Si Si1 0.131989 0.595565 0.832237
Si Si2 0.012857 0.899931 0.185956
Si Si3 0.254574 0.836822 0.098076
Si Si4 0.294096 0.652873 0.139811
Si Si5 0.564973 0.092018 0.217370
Si Si6 0.353975 0.357554 0.500308
Si Si7 0.381676 0.167188 0.531263
Si Si8 0.000000 0.000000 0.500000
O O1 0.102878 0.500000 0.838970
O O2 0.199917 0.634231 0.679162
O O3 0.237528 0.599925 0.821978
O O4 0.000000 0.637399 0.000000
O O5 0.879441 0.873240 0.366537
O O6 0.020021 0.000000 0.178169
O O7 0.128418 0.860586 0.149209
O O8 0.060399 0.867098 0.040116
O O9 0.386025 0.846626 0.910123
O O10 0.252754 0.746444 0.146094
O O11 0.188061 0.595572 0.179781
O O12 0.255697 0.646236 0.284906
O O13 0.430247 0.113486 0.398130
O O14 0.561482 0.000000 0.179608
O O15 0.391145 0.263266 0.491860
O O16 0.437175 0.426424 0.484830
O O17 0.500000 0.154808 0.500000
#
# Coordination Sequence:
#
# PCOD9178442 Si02
#       8
#     8   8   8   8   8   8   8   2
#     4  11  23  36  53  77 107 143 180 222 268 320
#     4  11  20  29  49  79 112 139 169 210 264 325
#     4  11  19  34  51  76 109 141 179 218 269 323
#     4  10  19  30  48  75 106 147 174 215 264 318
#     4  10  20  32  49  77 114 154 180 212 268 331
#     4  12  20  33  50  81 108 139 178 213 271 324
#     4  10  19  31  49  74 110 145 176 215 257 322
#     4  12  20  28  58  80 110 140 166 208 264 350
#
# _framework density 25.888432000000002
#
# number of rings (size 3 to 8) (size 9 to 14) (size 15 to 20)
#    0.000    1.241    3.448    7.448    0.000    3.034 
#    0.000    0.000    0.000    3.310    0.000    0.000 
#    0.000    3.862    0.000    0.000    0.000    0.000 
#
# Total GULP energy -162090.622956 kJ/mol
# GULP energy per Si atom -5589.331826 kJ/mol
# Density = 2.582951 g / cm^3
# Si number density = 25.888432 Si / 1000 Ang^3
#
#
#
# Elastic Constant Matrix: (Units=GPa)
#
#
# Indices 1 2 3 4 5 6 
#
# 1 98.4572 -4.5588 34.5651 0.0000 23.5617 0.0000
# 2 -4.5588 34.6597 -6.5318 0.0000 2.4205 0.0000
# 3 34.5651 -6.5318 233.4958 -0.0001 28.1212 0.0000
# 4 0.0000 0.0000 -0.0001 17.4197 0.0000 -5.4422
# 5 23.5617 2.4205 28.1212 0.0000 47.1602 -0.0001
# 6 0.0000 0.0000 0.0000 -5.4422 -0.0001 -42.4148
#
#
#
# Elastic Compliance Matrix: (Units=1/GPa)
#
#
# Indices 1 2 3 4 5 6 
#
# 1 0.011903 0.001743 -0.001063 0.000000 -0.005403 0.000000
# 2 0.001743 0.029459 0.000919 0.000000 -0.002931 0.000000
# 3 -0.001063 0.000919 0.004749 0.000000 -0.002348 0.000000
# 4 0.000000 0.000000 0.000000 0.055194 0.000000 -0.007082
# 5 -0.005403 -0.002931 -0.002348 0.000000 0.025454 0.000000
# 6 0.000000 0.000000 0.000000 -0.007082 0.000000 -0.022668
#
#
# Mechanical properties :
#
#
# Convention : Reuss Voigt Hill
#
# Bulk Modulus (GPa) = 20.28020 45.95129 33.11575
# Shear Modulus (GPa) = 42.61533 27.30893 34.96213
#
# Velocity S-wave (km/s) = 4.06164 3.25140 3.67889
# Velocity P-wave (km/s) = 5.46320 5.64657 5.55564
#
# Compressibility (1/GPa) = 0.04930918
#
# Stress axis : x y z
#
# Youngs Moduli (GPa) = 84.00968 33.94543 210.59281
#
# Poissons Ratio (x) = -0.05916 0.22379
# Poissons Ratio (y) = -0.14640 -0.19355
# Poissons Ratio (z) = 0.08927 -0.03120
#
# Static dielectric constant tensor:
#      x y z
#    x 2.070800 0.000000 -0.072880 
#    y 0.000000 1.925590 0.000000 
#    z -0.072880 0.000000 2.160350 
# 
# From -- ./inp_files/328400.got.cif
#   From: 2010.05.17/outbox.cif.g08.bks.cpg/sg12_165_cif.got.tgz:328400.got - 2010.06.03 13:09:07.
