data_PCOD9178261
_publ_section_title
;
Structure prediction by ZEFSAII (Michael W. Deem and Ramdas Pophale) SiO2 
 PCOD9178261
Probable space group: C 2/M
;
_chemical_formula_sum "Si O2"
_cell_formula_units_Z 64
_cell_length_a 24.282354
_cell_length_b 13.107182
_cell_length_c 9.324696
_cell_angle_alpha 90.000000
_cell_angle_beta 113.934327
_cell_angle_gamma 90.000000
_cell_volume 2712.603080
_symmetry_space_group_name_H-M "C 2/M"
_symmetry_group_IT_number 12
_symmetry_cell_setting 'monoclinic'
loop_
_space_group_symop_operation_xyz
x,y,z
-x,y,-z
-x,-y,-z
x,-y,z
1/2+x,1/2+y,z
1/2-x,1/2+y,-z
1/2-x,1/2-y,-z
1/2+x,1/2-y,z
loop_
_atom_site_type_symbol
_atom_site_label
_atom_site_fract_x
_atom_site_fract_y
_atom_site_fract_z
Si Si1 0.213442 0.120567 0.913694
Si Si2 0.364861 0.288576 0.401895
Si Si3 0.828589 0.613591 0.188964
Si Si4 0.587248 0.618227 0.945255
Si Si5 0.942371 0.693218 0.872398
Si Si6 0.266444 0.393072 0.651990
Si Si7 0.016062 0.803667 0.364858
Si Si8 0.320982 0.185015 0.649994
O O1 0.188465 0.152351 0.733023
O O2 0.155062 0.135525 0.956441
O O3 0.223105 0.000000 0.928713
O O4 0.281419 0.158180 0.022399
O O5 0.375797 0.197152 0.295520
O O6 0.421293 0.356025 0.514993
O O7 0.343458 0.233491 0.523031
O O8 0.852051 0.500000 0.178640
O O9 0.782765 0.601737 0.274595
O O10 0.581913 0.500000 0.987616
O O11 0.538394 0.633807 0.764219
O O12 0.569971 0.703114 0.046509
O O13 0.963899 0.726684 0.737613
O O14 0.878243 0.638349 0.789989
O O15 0.000000 0.638441 0.000000
O O16 0.301640 0.500000 0.693889
O O17 0.299753 0.286799 0.707364
O O18 0.232527 0.384794 0.463066
O O19 0.000000 0.753639 0.500000
#
# Coordination Sequence:
#
# PCOD9178261 Si02
#       8
#     8   8   8   8   8   8   8   8
#     4  10  19  30  47  72 102 132 163 197 241 301
#     4  10  19  32  49  70  99 133 164 204 253 291
#     4   9  18  32  51  73  96 125 167 208 247 296
#     4  10  20  33  49  72 101 134 169 200 241 296
#     4   9  19  32  49  71  98 130 168 206 242 288
#     4   9  17  31  51  73  98 128 163 206 248 293
#     4  10  19  33  49  70  98 131 167 202 246 292
#     4   9  18  31  49  74  99 127 167 204 247 298
#
# _framework density 23.593574
#
# number of rings (size 3 to 8) (size 9 to 14) (size 15 to 20)
#    0.000    2.500    1.250    1.125    0.000    5.000 
#    0.000    3.750    0.000    0.750    0.000    2.625 
#    0.000    0.000    0.000    0.000    0.000    0.000 
#
# Total GULP energy -178141.349897 kJ/mol
# GULP energy per Si atom -5566.917184 kJ/mol
# Density = 2.353987 g / cm^3
# Si number density = 23.593574 Si / 1000 Ang^3
#
#
#
# Elastic Constant Matrix: (Units=GPa)
#
#
# Indices 1 2 3 4 5 6 
#
# 1 42.9033 9.5671 36.9541 0.0000 25.7064 0.0000
# 2 9.5671 56.1353 9.1309 0.0000 5.1692 0.0000
# 3 36.9541 9.1309 128.2885 0.0000 24.3622 0.0000
# 4 0.0000 0.0000 0.0000 -0.5614 0.0000 6.7427
# 5 25.7064 5.1692 24.3622 0.0000 48.0908 0.0000
# 6 0.0000 0.0000 0.0000 6.7427 0.0000 10.1088
#
#
#
# Elastic Compliance Matrix: (Units=1/GPa)
#
#
# Indices 1 2 3 4 5 6 
#
# 1 0.042225 -0.004175 -0.008481 0.000000 -0.017826 0.000000
# 2 -0.004175 0.018524 -0.000179 0.000000 0.000331 0.000000
# 3 -0.008481 -0.000179 0.010385 0.000000 -0.000709 0.000000
# 4 0.000000 0.000000 0.000000 -0.197673 0.000000 0.131850
# 5 -0.017826 0.000331 -0.000709 0.000000 0.030646 0.000000
# 6 0.000000 0.000000 0.000000 0.131850 0.000000 0.010979
#
#
# Mechanical properties :
#
#
# Convention : Reuss Voigt Hill
#
# Bulk Modulus (GPa) = 21.99514 37.62569 29.81042
# Shear Modulus (GPa) = -113.40399 22.97263 -45.21568
#
# Velocity S-wave (km/s) = -6.94046 3.12377 -4.38247
# Velocity P-wave (km/s) = 7.40837 5.38448 3.59800
#
# Compressibility (1/GPa) = 0.04546458
#
# Stress axis : x y z
#
# Youngs Moduli (GPa) = 23.68289 53.98325 96.29186
#
# Poissons Ratio (x) = 0.22540 0.81662
# Poissons Ratio (y) = 0.09889 0.01720
# Poissons Ratio (z) = 0.20085 0.00964
#
# Static dielectric constant tensor:
#      x y z
#    x 1.995180 0.000000 0.045840 
#    y 0.000000 1.917960 0.000000 
#    z 0.045840 0.000000 1.994610 
# 
# From -- ./inp_files/111686.got.cif
#   From: 2010.05.17/outbox.cif.g08.bks.cpg/sg12_56_cif.got.tgz:111686.got - 2010.06.03 13:09:07.
