data_PCOD9178676
_publ_section_title
;
Structure prediction by ZEFSAII (Michael W. Deem and Ramdas Pophale) SiO2 
 PCOD9178676
Probable space group: C 2/M
;
_chemical_formula_sum "Si O2"
_cell_formula_units_Z 56
_cell_length_a 13.109859
_cell_length_b 32.185307
_cell_length_c 13.877764
_cell_angle_alpha 90.000000
_cell_angle_beta 148.046057
_cell_angle_gamma 90.000000
_cell_volume 3099.029396
_symmetry_space_group_name_H-M "C 2/M"
_symmetry_group_IT_number 12
_symmetry_cell_setting 'monoclinic'
loop_
_space_group_symop_operation_xyz
x,y,z
-x,y,-z
-x,-y,-z
x,-y,z
1/2+x,1/2+y,z
1/2-x,1/2+y,-z
1/2-x,1/2-y,-z
1/2+x,1/2-y,z
loop_
_atom_site_type_symbol
_atom_site_label
_atom_site_fract_x
_atom_site_fract_y
_atom_site_fract_z
Si Si1 0.079885 0.678362 0.160263
Si Si2 0.835786 0.318591 0.144866
Si Si3 0.291397 0.236387 0.285505
Si Si4 0.792689 0.631871 0.560925
Si Si5 0.590038 0.344116 0.213126
Si Si6 0.795323 0.070115 0.786406
Si Si7 0.104962 0.546879 0.435796
O O1 0.186626 0.720083 0.214410
O O2 0.212406 0.649720 0.335245
O O3 0.904982 0.690392 0.091957
O O4 0.000000 0.657293 0.000000
O O5 0.813422 0.278475 0.193302
O O6 0.011336 0.346861 0.324412
O O7 0.636960 0.343060 0.986067
O O8 0.500000 0.238966 0.500000
O O9 0.175196 0.199541 0.245769
O O10 0.630627 0.647738 0.358174
O O11 0.816864 0.582674 0.571717
O O12 0.686874 0.381569 0.231190
O O13 0.737583 0.048650 0.638630
O O14 0.612649 0.059663 0.707175
O O15 0.000000 0.058604 0.000000
O O16 0.104711 0.500000 0.398149
#
# Coordination Sequence:
#
# PCOD9178676 Si02
#       7
#     8   8   8   8   8   8   8
#     4  10  24  41  56  79 109 147 186 247 279 325
#     4  10  22  39  57  79 112 150 188 228 276 332
#     4  12  22  35  56  83 114 147 188 229 274 329
#     4   9  21  39  55  78 111 145 189 228 277 332
#     4  11  20  34  59  81 114 158 187 217 271 329
#     4  10  19  30  52  83 120 152 181 212 267 332
#     4  10  20  33  53  81 116 150 182 225 275 333
#
# _framework density 18.070174000000002
#
# number of rings (size 3 to 8) (size 9 to 14) (size 15 to 20)
#    0.857    0.857    1.429    4.714    2.000    6.857 
#    0.000    0.000    0.000    0.429    0.000    0.000 
#    0.000    3.143    0.000    0.000    0.000    0.000 
#
# Total GULP energy -156154.674847 kJ/mol
# GULP energy per Si atom -5576.952673 kJ/mol
# Density = 1.802905 g / cm^3
# Si number density = 18.070174 Si / 1000 Ang^3
#
#
#
# Elastic Constant Matrix: (Units=GPa)
#
#
# Indices 1 2 3 4 5 6 
#
# 1 49.3120 14.3299 13.4371 0.0000 -27.2749 0.0000
# 2 14.3299 78.2816 16.2543 0.0000 -11.7230 0.0000
# 3 13.4371 16.2543 104.0630 0.0000 -10.5443 0.0000
# 4 0.0000 0.0000 0.0000 8.4320 0.0000 -7.5260
# 5 -27.2749 -11.7230 -10.5443 0.0000 31.5488 0.0000
# 6 0.0000 0.0000 0.0000 -7.5260 0.0000 -0.3564
#
#
#
# Elastic Compliance Matrix: (Units=1/GPa)
#
#
# Indices 1 2 3 4 5 6 
#
# 1 0.039431 -0.001996 -0.001450 0.000000 0.032863 0.000000
# 2 -0.001996 0.013911 -0.001621 0.000000 0.002902 0.000000
# 3 -0.001450 -0.001621 0.010208 0.000000 0.001556 0.000000
# 4 0.000000 0.000000 0.000000 0.005975 0.000000 -0.126179
# 5 0.032863 0.002902 0.001556 0.000000 0.061706 0.000000
# 6 0.000000 0.000000 0.000000 -0.126179 0.000000 -0.141370
#
#
# Mechanical properties :
#
#
# Convention : Reuss Voigt Hill
#
# Bulk Modulus (GPa) = 18.72088 35.52214 27.12151
# Shear Modulus (GPa) = 280.91618 20.43392 150.67505
#
# Velocity S-wave (km/s) = 12.48183 3.36640 9.14135
# Velocity P-wave (km/s) = 14.76857 5.90006 11.24547
#
# Compressibility (1/GPa) = 0.05341630
#
# Stress axis : x y z
#
# Youngs Moduli (GPa) = 25.36075 71.88608 97.96589
#
# Poissons Ratio (x) = 0.14346 0.14204
# Poissons Ratio (y) = 0.05061 0.15881
# Poissons Ratio (z) = 0.03677 0.11654
#
# Static dielectric constant tensor:
#      x y z
#    x 1.620990 0.000000 -0.013380 
#    y 0.000000 1.623260 0.000000 
#    z -0.013380 0.000000 1.646920 
# 
# From -- ./inp_files/219373.got.cif
#   From: 2010.05.17/outbox.cif.g08.bks.cpg/sg12_110_cif.got.tgz:219373.got - 2010.06.03 13:09:07.
