data_PCOD9178961
_publ_section_title
;
Structure prediction by ZEFSAII (Michael W. Deem and Ramdas Pophale) SiO2 
 PCOD9178961
Probable space group: C 2/M
;
_chemical_formula_sum "Si O2"
_cell_formula_units_Z 58
_cell_length_a 31.690750
_cell_length_b 16.952398
_cell_length_c 5.174256
_cell_angle_alpha 90.000000
_cell_angle_beta 111.103895
_cell_angle_gamma 90.000000
_cell_volume 2593.344370
_symmetry_space_group_name_H-M "C 2/M"
_symmetry_group_IT_number 12
_symmetry_cell_setting 'monoclinic'
loop_
_space_group_symop_operation_xyz
x,y,z
-x,y,-z
-x,-y,-z
x,-y,z
1/2+x,1/2+y,z
1/2-x,1/2+y,-z
1/2-x,1/2-y,-z
1/2+x,1/2-y,z
loop_
_atom_site_type_symbol
_atom_site_label
_atom_site_fract_x
_atom_site_fract_y
_atom_site_fract_z
Si Si1 0.579707 0.867030 0.168433
Si Si2 0.500000 0.000000 0.000000
Si Si3 0.828461 0.096486 0.201124
Si Si4 0.179927 0.405939 0.572801
Si Si5 0.049970 0.296441 0.600632
Si Si6 0.729484 0.903492 0.181374
Si Si7 0.971228 0.872547 0.200104
Si Si8 0.126791 0.909329 0.201639
O O1 0.540281 0.931855 0.106931
O O2 0.628680 0.893113 0.372825
O O3 0.565546 0.798294 0.339658
O O4 0.580956 0.842892 0.871249
O O5 0.779485 0.118919 0.199316
O O6 0.865182 0.123473 0.495098
O O7 0.829199 0.000000 0.178470
O O8 0.842044 0.128326 0.950802
O O9 0.186620 0.500000 0.599495
O O10 0.213746 0.375009 0.426437
O O11 0.194070 0.376291 0.885294
O O12 0.042965 0.211430 0.710538
O O13 0.000000 0.335459 0.500000
O O14 0.729277 0.000000 0.191848
O O15 0.000000 0.910112 0.500000
O O16 0.924088 0.910309 0.012125
O O17 0.000000 0.865908 0.000000
O O18 0.141831 0.000000 0.260719
#
# Coordination Sequence:
#
# PCOD9178961 Si02
#       8
#     8   2   8   8   8   8   8   8
#     4  12  23  37  55  80 110 148 185 229 283 326
#     4  12  24  38  56  86 116 150 182 238 296 326
#     4   9  17  31  52  81 113 144 175 219 278 336
#     4  10  19  31  47  76 107 138 178 224 277 336
#     4  11  22  39  55  74 102 148 194 227 257 323
#     4   9  17  30  49  73 109 144 173 216 278 337
#     4  11  23  39  59  81 111 151 189 226 266 321
#     4  10  20  34  56  88 117 140 179 227 277 332
#
# _framework density 22.364941999999999
#
# number of rings (size 3 to 8) (size 9 to 14) (size 15 to 20)
#    0.000    1.655    2.069    4.138    0.000    4.966 
#    0.000    0.000    0.000    0.000    0.000   19.310 
#    0.000    0.000    0.000    0.000    0.000    0.000 
#
# Total GULP energy -161593.917807 kJ/mol
# GULP energy per Si atom -5572.204062 kJ/mol
# Density = 2.231404 g / cm^3
# Si number density = 22.364942 Si / 1000 Ang^3
#
#
#
# Elastic Constant Matrix: (Units=GPa)
#
#
# Indices 1 2 3 4 5 6 
#
# 1 64.3842 2.9208 -14.7947 0.0000 -6.0364 0.0000
# 2 2.9208 22.2496 8.5088 0.0000 -5.8353 0.0000
# 3 -14.7947 8.5088 78.3957 0.0000 0.9780 0.0000
# 4 0.0000 0.0000 0.0000 -3.2212 0.0000 3.5813
# 5 -6.0364 -5.8353 0.9780 0.0000 38.0137 0.0000
# 6 0.0000 0.0000 0.0000 3.5813 0.0000 1.0699
#
#
#
# Elastic Compliance Matrix: (Units=1/GPa)
#
#
# Indices 1 2 3 4 5 6 
#
# 1 0.016652 -0.002949 0.003436 0.000000 0.002103 0.000000
# 2 -0.002949 0.049549 -0.006025 0.000000 0.007293 0.000000
# 3 0.003436 -0.006025 0.014068 0.000000 -0.000741 0.000000
# 4 0.000000 0.000000 0.000000 -0.065750 0.000000 0.220088
# 5 0.002103 0.007293 -0.000741 0.000000 0.027779 0.000000
# 6 0.000000 0.000000 0.000000 0.220088 0.000000 0.197959
#
#
# Mechanical properties :
#
#
# Convention : Reuss Voigt Hill
#
# Bulk Modulus (GPa) = 14.45220 17.58880 16.02050
# Shear Modulus (GPa) = 18.22191 18.39879 18.31035
#
# Velocity S-wave (km/s) = 2.85748 2.87132 2.86441
# Velocity P-wave (km/s) = 4.16689 4.34444 4.25659
#
# Compressibility (1/GPa) = 0.06919364
#
# Stress axis : x y z
#
# Youngs Moduli (GPa) = 60.05150 20.18222 71.08577
#
# Poissons Ratio (x) = 0.05951 -0.24428
# Poissons Ratio (y) = 0.17707 0.42831
# Poissons Ratio (z) = -0.20636 0.12160
#
# Static dielectric constant tensor:
#      x y z
#    x 1.810410 0.000000 -0.000510 
#    y 0.000000 1.838600 0.000000 
#    z -0.000510 0.000000 1.863170 
# 
# From -- ./inp_files/29325.got.cif
#   From: 2010.05.17/outbox.cif.g08.bks.cpg/sg12_15_cif.got.tgz:29325.got - 2010.06.03 13:09:07.
