data_PCOD9178068
_publ_section_title
;
Structure prediction by ZEFSAII (Michael W. Deem and Ramdas Pophale) SiO2 
 PCOD9178068
Probable space group: C 2/M
;
_chemical_formula_sum "Si O2"
_cell_formula_units_Z 64
_cell_length_a 25.390788
_cell_length_b 8.352647
_cell_length_c 17.011647
_cell_angle_alpha 90.000000
_cell_angle_beta 110.521566
_cell_angle_gamma 90.000000
_cell_volume 3378.882908
_symmetry_space_group_name_H-M "C 2/M"
_symmetry_group_IT_number 12
_symmetry_cell_setting 'monoclinic'
loop_
_space_group_symop_operation_xyz
x,y,z
-x,y,-z
-x,-y,-z
x,-y,z
1/2+x,1/2+y,z
1/2-x,1/2+y,-z
1/2-x,1/2-y,-z
1/2+x,1/2-y,z
loop_
_atom_site_type_symbol
_atom_site_label
_atom_site_fract_x
_atom_site_fract_y
_atom_site_fract_z
Si Si1 0.202199 0.804341 0.637680
Si Si2 0.811128 0.307107 0.796538
Si Si3 0.484992 0.179327 0.262535
Si Si4 0.635229 0.307807 0.752282
Si Si5 0.243038 0.193058 0.908053
Si Si6 0.045641 0.683577 0.462193
Si Si7 0.900005 0.810429 0.729794
Si Si8 0.843999 0.815112 0.542067
O O1 0.260091 0.760504 0.711106
O O2 0.152957 0.751976 0.673255
O O3 0.198385 0.744105 0.545560
O O4 0.200190 0.000000 0.632672
O O5 0.814316 0.500000 0.797100
O O6 0.792325 0.255775 0.873735
O O7 0.867960 0.237444 0.791592
O O8 0.425064 0.260215 0.245666
O O9 0.513440 0.174548 0.363141
O O10 0.535266 0.256519 0.238693
O O11 0.475039 0.000000 0.228550
O O12 0.637420 0.500000 0.749936
O O13 0.684783 0.253165 0.836886
O O14 0.242504 0.000000 0.907487
O O15 0.250000 0.250000 0.000000
O O16 0.063370 0.500000 0.491967
O O17 0.097990 0.799222 0.477203
O O18 0.000000 0.741553 0.500000
O O19 0.862857 0.741676 0.635913
O O20 0.899917 0.000000 0.718959
O O21 0.828486 0.000000 0.547367
#
# Coordination Sequence:
#
# PCOD9178068 Si02
#       8
#     8   8   8   8   8   8   8   8
#     4   8  15  29  48  68  94 129 166 206 250 291
#     4   9  18  34  53  72  97 130 164 197 240 294
#     4  10  19  30  46  68  95 131 169 203 243 289
#     4   9  17  31  51  75 101 128 160 199 244 291
#     4   9  19  35  57  83 106 127 152 188 239 297
#     4   9  17  27  38  57  88 123 161 207 252 286
#     4  10  20  32  46  68  98 133 173 211 243 278
#     4   9  17  28  42  62  89 125 170 209 240 280
#
# _framework density 18.941171000000001
#
# number of rings (size 3 to 8) (size 9 to 14) (size 15 to 20)
#    0.000    2.875    0.000    3.000    0.000    2.750 
#    0.000    2.500    0.000    0.750    0.000    5.250 
#    0.000    0.000    0.000    0.000    0.000    0.000 
#
# Total GULP energy -178206.803535 kJ/mol
# GULP energy per Si atom -5568.962610 kJ/mol
# Density = 1.889806 g / cm^3
# Si number density = 18.941171 Si / 1000 Ang^3
#
#
#
# Elastic Constant Matrix: (Units=GPa)
#
#
# Indices 1 2 3 4 5 6 
#
# 1 106.8806 11.1046 30.2068 0.0000 -25.7375 0.0000
# 2 11.1046 14.4385 6.7704 0.0000 -1.9711 0.0000
# 3 30.2068 6.7704 69.4129 0.0000 -12.3981 0.0000
# 4 0.0000 0.0000 0.0000 18.3278 0.0000 -2.2142
# 5 -25.7375 -1.9711 -12.3981 0.0000 20.3448 0.0000
# 6 0.0000 0.0000 0.0000 -2.2142 0.0000 22.3196
#
#
#
# Elastic Compliance Matrix: (Units=1/GPa)
#
#
# Indices 1 2 3 4 5 6 
#
# 1 0.014918 -0.007926 -0.002789 0.000000 0.016405 0.000000
# 2 -0.007926 0.076959 -0.005068 0.000000 -0.005660 0.000000
# 3 -0.002789 -0.005068 0.017277 0.000000 0.006510 0.000000
# 4 0.000000 0.000000 0.000000 0.055224 0.000000 0.005479
# 5 0.016405 -0.005660 0.006510 0.000000 0.073325 0.000000
# 6 0.000000 0.000000 0.000000 0.005479 0.000000 0.045347
#
#
# Mechanical properties :
#
#
# Convention : Reuss Voigt Hill
#
# Bulk Modulus (GPa) = 12.88851 31.87730 22.38290
# Shear Modulus (GPa) = 14.68514 21.70844 18.19679
#
# Velocity S-wave (km/s) = 2.78745 3.38908 3.10288
# Velocity P-wave (km/s) = 4.14476 5.67280 4.96788
#
# Compressibility (1/GPa) = 0.07758848
#
# Stress axis : x y z
#
# Youngs Moduli (GPa) = 67.03103 12.99390 57.87973
#
# Poissons Ratio (x) = 0.10299 0.16142
# Poissons Ratio (y) = 0.53131 0.29334
# Poissons Ratio (z) = 0.18694 0.06585
#
# Static dielectric constant tensor:
#      x y z
#    x 1.681910 0.000000 -0.002710 
#    y 0.000000 1.691030 0.000000 
#    z -0.002710 0.000000 1.677680 
# 
# From -- ./inp_files/287726.got.cif
#   From: 2010.05.17/outbox.cif.g08.bks.cpg/sg12_144_cif.got.tgz:287726.got - 2010.06.03 13:09:07.
