data_PCOD9178673
_publ_section_title
;
Structure prediction by ZEFSAII (Michael W. Deem and Ramdas Pophale) SiO2 
 PCOD9178673
Probable space group: C 2/M
;
_chemical_formula_sum "Si O2"
_cell_formula_units_Z 64
_cell_length_a 23.678863
_cell_length_b 8.629491
_cell_length_c 29.232342
_cell_angle_alpha 90.000000
_cell_angle_beta 149.008929
_cell_angle_gamma 90.000000
_cell_volume 3075.645752
_symmetry_space_group_name_H-M "C 2/M"
_symmetry_group_IT_number 12
_symmetry_cell_setting 'monoclinic'
loop_
_space_group_symop_operation_xyz
x,y,z
-x,y,-z
-x,-y,-z
x,-y,z
1/2+x,1/2+y,z
1/2-x,1/2+y,-z
1/2-x,1/2-y,-z
1/2+x,1/2-y,z
loop_
_atom_site_type_symbol
_atom_site_label
_atom_site_fract_x
_atom_site_fract_y
_atom_site_fract_z
Si Si1 0.080150 0.681580 0.861604
Si Si2 0.749679 0.184845 0.837897
Si Si3 0.510820 0.819006 0.347714
Si Si4 0.390490 0.321760 0.671819
Si Si5 0.005299 0.821519 0.570038
Si Si6 0.794223 0.316953 0.962716
Si Si7 0.240292 0.681589 0.729096
Si Si8 0.228675 0.180600 0.626641
O O1 0.053609 0.500000 0.837023
O O2 0.191740 0.720555 0.911652
O O3 0.985669 0.784487 0.774553
O O4 0.106511 0.711688 0.933142
O O5 0.618329 0.211107 0.752931
O O6 0.810189 0.268256 0.921482
O O7 0.778742 0.234762 0.806217
O O8 0.767017 0.000000 0.852830
O O9 0.582991 0.781137 0.353827
O O10 0.539595 0.709498 0.410066
O O11 0.520764 0.000000 0.367085
O O12 0.392970 0.500000 0.659917
O O13 0.280546 0.278968 0.622064
O O14 0.902692 0.796905 0.465559
O O15 0.108673 0.708536 0.638662
O O16 0.043233 0.000000 0.591747
O O17 0.768252 0.500000 0.947520
O O18 0.264057 0.500000 0.740848
O O19 0.276929 0.770744 0.709226
O O20 0.250147 0.000000 0.633260
#
# Coordination Sequence:
#
# PCOD9178673 Si02
#       8
#     8   8   8   8   8   8   8   8
#     4  10  20  34  51  77 114 147 177 219 268 319
#     4   9  18  32  53  80 112 144 174 221 275 319
#     4  10  20  35  55  80 111 146 179 221 276 323
#     4  12  24  37  56  79 108 147 186 223 269 331
#     4  10  21  37  58  83 109 140 181 228 276 325
#     4  10  19  30  52  83 111 143 181 219 264 319
#     4  10  21  37  58  83 110 142 182 229 276 319
#     4  11  24  40  57  78 107 145 185 228 276 324
#
# _framework density 20.808638999999999
#
# number of rings (size 3 to 8) (size 9 to 14) (size 15 to 20)
#    0.000    1.750    1.250    4.500    0.000    8.000 
#    0.000    0.000    0.000    0.750    0.000    5.250 
#    0.000    0.000    0.000    0.000    0.000    0.000 
#
# Total GULP energy -178767.537974 kJ/mol
# GULP energy per Si atom -5586.485562 kJ/mol
# Density = 2.076128 g / cm^3
# Si number density = 20.808639 Si / 1000 Ang^3
#
#
#
# Elastic Constant Matrix: (Units=GPa)
#
#
# Indices 1 2 3 4 5 6 
#
# 1 52.1201 -3.2209 -1.6792 0.0000 -25.2449 0.0000
# 2 -3.2209 33.7872 3.1280 0.0001 -9.4114 -0.0002
# 3 -1.6792 3.1280 23.3981 -0.0001 -21.1573 0.0000
# 4 0.0000 0.0001 -0.0001 23.7192 0.0000 -5.5524
# 5 -25.2449 -9.4114 -21.1573 0.0000 38.9378 0.0000
# 6 0.0000 -0.0002 0.0000 -5.5524 0.0000 29.7326
#
#
#
# Elastic Compliance Matrix: (Units=1/GPa)
#
#
# Indices 1 2 3 4 5 6 
#
# 1 0.088484 0.033745 0.120092 0.000000 0.130778 0.000000
# 2 0.033745 0.044940 0.051150 0.000000 0.060534 0.000000
# 3 0.120092 0.051150 0.247902 0.000000 0.224924 0.000001
# 4 0.000000 0.000000 0.000000 0.044087 0.000000 0.008233
# 5 0.130778 0.060534 0.224924 0.000000 0.247317 0.000001
# 6 0.000000 0.000000 0.000001 0.008233 0.000001 0.035171
#
#
# Mechanical properties :
#
#
# Convention : Reuss Voigt Hill
#
# Bulk Modulus (GPa) = 1.26374 11.75124 6.50749
# Shear Modulus (GPa) = 8.90165 25.88308 17.39236
#
# Velocity S-wave (km/s) = 2.07054 3.53067 2.89420
# Velocity P-wave (km/s) = 2.51492 4.72021 3.78188
#
# Compressibility (1/GPa) = 0.79130253
#
# Stress axis : x y z
#
# Youngs Moduli (GPa) = 11.30142 22.25183 4.03384
#
# Poissons Ratio (x) = -0.75089 -0.48443
# Poissons Ratio (y) = -0.38137 -0.20633
# Poissons Ratio (z) = -1.35721 -1.13819
#
# Static dielectric constant tensor:
#      x y z
#    x 1.783370 0.000000 -0.013280 
#    y 0.000000 1.686600 0.000000 
#    z -0.013280 0.000000 1.760380 
# 
# From -- ./inp_files/281381.got.cif
#   From: 2010.05.17/outbox.cif.g08.bks.cpg/sg12_141_cif.got.tgz:281381.got - 2010.06.03 13:09:07.
