data_PCOD9178128
_publ_section_title
;
Structure prediction by ZEFSAII (Michael W. Deem and Ramdas Pophale) SiO2 
 PCOD9178128
Probable space group: C 2/M
;
_chemical_formula_sum "Si O2"
_cell_formula_units_Z 64
_cell_length_a 32.276373
_cell_length_b 8.992772
_cell_length_c 14.664632
_cell_angle_alpha 90.000000
_cell_angle_beta 116.264021
_cell_angle_gamma 90.000000
_cell_volume 3817.050237
_symmetry_space_group_name_H-M "C 2/M"
_symmetry_group_IT_number 12
_symmetry_cell_setting 'monoclinic'
loop_
_space_group_symop_operation_xyz
x,y,z
-x,y,-z
-x,-y,-z
x,-y,z
1/2+x,1/2+y,z
1/2-x,1/2+y,-z
1/2-x,1/2-y,-z
1/2+x,1/2-y,z
loop_
_atom_site_type_symbol
_atom_site_label
_atom_site_fract_x
_atom_site_fract_y
_atom_site_fract_z
Si Si1 0.115235 0.322070 0.587000
Si Si2 0.523891 0.174570 0.383589
Si Si3 0.068234 0.178466 0.920739
Si Si4 0.703767 0.321433 0.346226
Si Si5 0.385788 0.678925 0.851902
Si Si6 0.573736 0.677435 0.716424
Si Si7 0.802784 0.822654 0.447518
Si Si8 0.470082 0.825532 0.826876
O O1 0.119103 0.500000 0.593403
O O2 0.068276 0.284130 0.485952
O O3 0.108395 0.256045 0.680862
O O4 0.158331 0.253245 0.575798
O O5 0.478219 0.269279 0.358130
O O6 0.535459 0.191317 0.287804
O O7 0.513113 0.000000 0.389837
O O8 0.080852 0.220560 0.829469
O O9 0.019441 0.253200 0.898085
O O10 0.061686 0.000000 0.915238
O O11 0.105634 0.217144 0.033957
O O12 0.710424 0.500000 0.345432
O O13 0.662839 0.274331 0.238801
O O14 0.752067 0.240382 0.375650
O O15 0.689453 0.289862 0.437208
O O16 0.388135 0.500000 0.845694
O O17 0.428075 0.747610 0.836890
O O18 0.577173 0.500000 0.711694
O O19 0.803999 0.000000 0.437113
O O20 0.470914 0.000000 0.849289
#
# Coordination Sequence:
#
# PCOD9178128 Si02
#       8
#     8   8   8   8   8   8   8   8
#     4  11  21  33  51  72  97 130 165 200 240 288
#     4   9  19  33  47  68 100 134 164 196 239 288
#     4   9  19  34  49  67  96 133 167 201 241 282
#     4   9  19  35  54  76 101 128 157 192 238 290
#     4  10  19  32  51  72  96 129 166 199 236 287
#     4  10  20  33  49  70  97 129 166 206 243 280
#     4  10  20  34  53  77 103 127 154 193 240 290
#     4  10  19  30  46  71 102 132 163 200 239 282
#
# _framework density 16.766874000000001
#
# number of rings (size 3 to 8) (size 9 to 14) (size 15 to 20)
#    0.000    2.250    0.000    3.000    0.000    6.500 
#    0.000    0.000    0.000    0.750    0.000    0.000 
#    0.000    0.000    0.000    0.000    0.000    0.000 
#
# Total GULP energy -178632.550161 kJ/mol
# GULP energy per Si atom -5582.267193 kJ/mol
# Density = 1.672871 g / cm^3
# Si number density = 16.766874 Si / 1000 Ang^3
#
#
#
# Elastic Constant Matrix: (Units=GPa)
#
#
# Indices 1 2 3 4 5 6 
#
# 1 128.1515 55.8367 76.2780 0.0000 -6.7922 0.0000
# 2 55.8367 39.9958 46.9268 0.0000 -2.2395 0.0000
# 3 76.2780 46.9268 130.7568 0.0000 13.4013 0.0000
# 4 0.0000 0.0000 0.0000 18.8055 0.0000 -0.6609
# 5 -6.7922 -2.2395 13.4013 0.0000 14.7576 0.0000
# 6 0.0000 0.0000 0.0000 -0.6609 0.0000 32.0666
#
#
#
# Elastic Compliance Matrix: (Units=1/GPa)
#
#
# Indices 1 2 3 4 5 6 
#
# 1 0.021967 -0.023464 -0.005585 0.000000 0.011621 0.000000
# 2 -0.023464 0.076498 -0.015271 0.000000 0.014677 0.000000
# 3 -0.005585 -0.015271 0.018620 0.000000 -0.021796 0.000000
# 4 0.000000 0.000000 0.000000 0.053214 0.000000 0.001097
# 5 0.011621 0.014677 -0.021796 0.000000 0.095131 0.000000
# 6 0.000000 0.000000 0.000000 0.001097 0.000000 0.031208
#
#
# Mechanical properties :
#
#
# Convention : Reuss Voigt Hill
#
# Bulk Modulus (GPa) = 35.15328 72.99857 54.07592
# Shear Modulus (GPa) = 12.66598 21.11676 16.89137
#
# Velocity S-wave (km/s) = 2.75147 3.55270 3.17744
# Velocity P-wave (km/s) = 5.57723 7.77565 6.76633
#
# Compressibility (1/GPa) = 0.02844685
#
# Stress axis : x y z
#
# Youngs Moduli (GPa) = 45.52368 13.07219 53.70583
#
# Poissons Ratio (x) = 0.30672 0.29993
# Poissons Ratio (y) = 1.06816 0.82012
# Poissons Ratio (z) = 0.25423 0.19962
#
# Static dielectric constant tensor:
#      x y z
#    x 1.527400 0.000000 -0.017740 
#    y 0.000000 1.558280 0.000000 
#    z -0.017740 0.000000 1.583890 
# 
# From -- ./inp_files/249190.got.cif
#   From: 2010.05.17/outbox.cif.g08.bks.cpg/sg12_125_cif.got.tgz:249190.got - 2010.06.03 13:09:07.
