data_PCOD9178915
_publ_section_title
;
Structure prediction by ZEFSAII (Michael W. Deem and Ramdas Pophale) SiO2 
 PCOD9178915
Probable space group: C 2/M
;
_chemical_formula_sum "Si O2"
_cell_formula_units_Z 36
_cell_length_a 5.098401
_cell_length_b 13.858491
_cell_length_c 25.007048
_cell_angle_alpha 90.000000
_cell_angle_beta 118.410404
_cell_angle_gamma 90.000000
_cell_volume 1554.099840
_symmetry_space_group_name_H-M "C 2/M"
_symmetry_group_IT_number 12
_symmetry_cell_setting 'monoclinic'
loop_
_space_group_symop_operation_xyz
x,y,z
-x,y,-z
-x,-y,-z
x,-y,z
1/2+x,1/2+y,z
1/2-x,1/2+y,-z
1/2-x,1/2-y,-z
1/2+x,1/2-y,z
loop_
_atom_site_type_symbol
_atom_site_label
_atom_site_fract_x
_atom_site_fract_y
_atom_site_fract_z
Si Si1 0.463849 0.614912 0.741307
Si Si2 0.000000 0.679625 0.000000
Si Si3 0.829014 0.113506 0.539436
Si Si4 0.700981 0.118081 0.328692
Si Si5 0.393950 0.312609 0.127749
O O1 0.459846 0.500000 0.737340
O O2 0.713651 0.646668 0.723430
O O3 0.525794 0.639936 0.808463
O O4 0.135405 0.647837 0.691283
O O5 0.823410 0.629627 0.934179
O O6 0.750000 0.750000 0.000000
O O7 0.500000 0.157061 0.500000
O O8 0.000000 0.115096 0.500000
O O9 0.046470 0.153547 0.606063
O O10 0.781462 0.000000 0.549716
O O11 0.702579 0.000000 0.331948
O O12 0.692168 0.279695 0.125958
#
# Coordination Sequence:
#
# PCOD9178915 Si02
#       5
#     8   4   8   8   8
#     4  10  19  31  47  69  99 130 156 189 239 288
#     4   8  16  30  49  70  93 122 154 194 238 274
#     4   9  15  23  37  58  86 120 155 189 228 276
#     4   9  17  28  42  63  95 129 155 188 239 287
#     4  10  19  33  52  73  96 124 161 198 233 276
#
# _framework density 23.164534
#
# number of rings (size 3 to 8) (size 9 to 14) (size 15 to 20)
#    0.000    2.667    0.000    2.667    0.000    5.333 
#    0.000    0.556    0.000    0.000    0.000   14.000 
#    0.000   62.222    0.000    0.000    0.000    0.000 
#
# Total GULP energy -100518.810234 kJ/mol
# GULP energy per Si atom -5584.378346 kJ/mol
# Density = 2.311181 g / cm^3
# Si number density = 23.164534 Si / 1000 Ang^3
#
#
#
# Elastic Constant Matrix: (Units=GPa)
#
#
# Indices 1 2 3 4 5 6 
#
# 1 79.9350 -20.3224 -7.9525 0.0000 16.4064 0.0000
# 2 -20.3224 58.3308 -6.2375 0.0000 8.0315 0.0000
# 3 -7.9525 -6.2375 125.3670 0.0000 11.5993 0.0000
# 4 0.0000 0.0000 0.0000 3.0691 0.0000 -12.6514
# 5 16.4064 8.0315 11.5993 0.0000 35.8421 0.0000
# 6 0.0000 0.0000 0.0000 -12.6514 0.0000 -5.6055
#
#
#
# Elastic Compliance Matrix: (Units=1/GPa)
#
#
# Indices 1 2 3 4 5 6 
#
# 1 0.016714 0.007465 0.002365 0.000000 -0.010089 0.000000
# 2 0.007465 0.021227 0.002356 0.000000 -0.008936 0.000000
# 3 0.002365 0.002356 0.008652 0.000000 -0.004411 0.000000
# 4 0.000000 0.000000 0.000000 0.031623 0.000000 -0.071371
# 5 -0.010089 -0.008936 -0.004411 0.000000 0.035948 0.000000
# 6 0.000000 0.000000 0.000000 -0.071371 0.000000 -0.017314
#
#
# Mechanical properties :
#
#
# Convention : Reuss Voigt Hill
#
# Bulk Modulus (GPa) = 14.09112 21.62313 17.85713
# Shear Modulus (GPa) = 52.01184 26.53748 39.27466
#
# Velocity S-wave (km/s) = 4.74362 3.38836 4.12207
# Velocity P-wave (km/s) = 6.00823 4.96616 5.51188
#
# Compressibility (1/GPa) = 0.07096667
#
# Stress axis : x y z
#
# Youngs Moduli (GPa) = 59.82960 47.11000 115.58111
#
# Poissons Ratio (x) = -0.35169 -0.27336
# Poissons Ratio (y) = -0.44664 -0.27236
# Poissons Ratio (z) = -0.14150 -0.11101
#
# Static dielectric constant tensor:
#      x y z
#    x 1.821980 0.000000 0.007420 
#    y 0.000000 1.907630 0.000000 
#    z 0.007420 0.000000 1.904030 
# 
# From -- ./inp_files/191194.got.cif
#   From: 2010.05.17/outbox.cif.g08.bks.cpg/sg12_96_cif.got.tgz:191194.got - 2010.06.03 13:09:07.
