data_PCOD9178599
_publ_section_title
;
Structure prediction by ZEFSAII (Michael W. Deem and Ramdas Pophale) SiO2 
 PCOD9178599
Probable space group: C 2/M
;
_chemical_formula_sum "Si O2"
_cell_formula_units_Z 64
_cell_length_a 21.153318
_cell_length_b 7.558919
_cell_length_c 25.591626
_cell_angle_alpha 90.000000
_cell_angle_beta 128.422055
_cell_angle_gamma 90.000000
_cell_volume 3205.898278
_symmetry_space_group_name_H-M "C 2/M"
_symmetry_group_IT_number 12
_symmetry_cell_setting 'monoclinic'
loop_
_space_group_symop_operation_xyz
x,y,z
-x,y,-z
-x,-y,-z
x,-y,z
1/2+x,1/2+y,z
1/2-x,1/2+y,-z
1/2-x,1/2-y,-z
1/2+x,1/2-y,z
loop_
_atom_site_type_symbol
_atom_site_label
_atom_site_fract_x
_atom_site_fract_y
_atom_site_fract_z
Si Si1 0.717294 0.217170 0.288977
Si Si2 0.741293 0.215286 0.078207
Si Si3 0.619799 0.711041 0.423938
Si Si4 0.770593 0.788020 0.427360
Si Si5 0.967853 0.716693 0.791089
Si Si6 0.037677 0.704704 0.715999
Si Si7 0.282656 0.296065 0.212844
Si Si8 0.882556 0.291082 0.069508
O O1 0.764727 0.277390 0.365188
O O2 0.623909 0.270219 0.246756
O O3 0.753680 0.280477 0.252948
O O4 0.719755 0.000000 0.291009
O O5 0.748410 0.280604 0.141070
O O6 0.820264 0.267658 0.085610
O O7 0.740503 0.000000 0.078199
O O8 0.664157 0.279332 0.005333
O O9 0.612402 0.500000 0.423511
O O10 0.685830 0.752531 0.413103
O O11 0.659257 0.779479 0.498138
O O12 0.533469 0.782963 0.362790
O O13 0.779655 0.000000 0.430033
O O14 0.968049 0.500000 0.790510
O O15 0.001268 0.775137 0.751805
O O16 0.031138 0.778208 0.867506
O O17 0.058280 0.500000 0.735292
O O18 0.120636 0.793369 0.741912
O O19 0.255255 0.500000 0.199316
O O20 0.892955 0.500000 0.066051
#
# Coordination Sequence:
#
# PCOD9178599 Si02
#       8
#     8   8   8   8   8   8   8   8
#     4   9  17  32  52  72  98 133 168 200 242 300
#     4   9  17  28  44  71 102 126 156 202 251 288
#     4  10  19  30  50  79 104 125 161 214 256 287
#     4   9  17  32  52  74 101 135 169 199 244 303
#     4   9  16  28  50  74  93 124 169 203 231 285
#     4  11  20  33  53  74  99 131 169 208 246 298
#     4  10  20  33  50  73 102 132 164 207 252 291
#     4   9  16  28  47  71  97 127 163 200 241 293
#
# _framework density 19.963204000000001
#
# number of rings (size 3 to 8) (size 9 to 14) (size 15 to 20)
#    0.000    2.500    2.500    0.750    0.000    0.500 
#    0.000    1.875    0.000    7.500    0.000    0.000 
#    0.000    5.000    0.000    0.000    0.000    0.000 
#
# Total GULP energy -178515.968631 kJ/mol
# GULP energy per Si atom -5578.624020 kJ/mol
# Density = 1.991777 g / cm^3
# Si number density = 19.963204 Si / 1000 Ang^3
#
#
#
# Elastic Constant Matrix: (Units=GPa)
#
#
# Indices 1 2 3 4 5 6 
#
# 1 102.0479 -8.7725 82.4650 0.0000 -19.4263 0.0000
# 2 -8.7725 52.2822 -14.5762 -0.0001 2.0431 0.0002
# 3 82.4650 -14.5762 209.8114 0.0000 -25.4851 0.0000
# 4 0.0000 -0.0001 0.0000 6.2376 0.0000 0.5641
# 5 -19.4263 2.0431 -25.4851 0.0000 30.6959 0.0000
# 6 0.0000 0.0002 0.0000 0.5641 0.0000 13.8521
#
#
#
# Elastic Compliance Matrix: (Units=1/GPa)
#
#
# Indices 1 2 3 4 5 6 
#
# 1 0.015093 0.000869 -0.005248 0.000000 0.005137 0.000000
# 2 0.000869 0.019556 0.001030 0.000000 0.000103 0.000000
# 3 -0.005248 0.001030 0.007216 0.000000 0.002602 0.000000
# 4 0.000000 0.000000 0.000000 0.160910 0.000000 -0.006553
# 5 0.005137 0.000103 0.002602 0.000000 0.037982 0.000000
# 6 0.000000 0.000000 0.000000 -0.006553 0.000000 0.072458
#
#
# Mechanical properties :
#
#
# Convention : Reuss Voigt Hill
#
# Bulk Modulus (GPa) = 28.43671 53.59712 41.01692
# Shear Modulus (GPa) = 15.07679 30.49214 22.78446
#
# Velocity S-wave (km/s) = 2.75112 3.91246 3.38201
# Velocity P-wave (km/s) = 4.93630 6.87866 5.98678
#
# Compressibility (1/GPa) = 0.03516581
#
# Stress axis : x y z
#
# Youngs Moduli (GPa) = 66.25785 51.13577 138.57470
#
# Poissons Ratio (x) = -0.04442 0.72720
# Poissons Ratio (y) = -0.05755 -0.14269
# Poissons Ratio (z) = 0.34770 -0.05266
#
# Static dielectric constant tensor:
#      x y z
#    x 1.650490 0.000000 -0.014370 
#    y 0.000000 1.779550 0.000000 
#    z -0.014370 0.000000 1.745240 
# 
# From -- ./inp_files/346239.got.cif
#   From: 2010.05.17/outbox.cif.g08.bks.cpg/sg12_174_cif.got.tgz:346239.got - 2010.06.03 13:09:07.
