data_PCOD9178036
_publ_section_title
;
Structure prediction by ZEFSAII (Michael W. Deem and Ramdas Pophale) SiO2 
 PCOD9178036
Probable space group: C 2/M
;
_chemical_formula_sum "Si O2"
_cell_formula_units_Z 56
_cell_length_a 28.570117
_cell_length_b 15.658984
_cell_length_c 7.224129
_cell_angle_alpha 90.000000
_cell_angle_beta 59.972682
_cell_angle_gamma 90.000000
_cell_volume 2798.157188
_symmetry_space_group_name_H-M "C 2/M"
_symmetry_group_IT_number 12
_symmetry_cell_setting 'monoclinic'
loop_
_space_group_symop_operation_xyz
x,y,z
-x,y,-z
-x,-y,-z
x,-y,z
1/2+x,1/2+y,z
1/2-x,1/2+y,-z
1/2-x,1/2-y,-z
1/2+x,1/2-y,z
loop_
_atom_site_type_symbol
_atom_site_label
_atom_site_fract_x
_atom_site_fract_y
_atom_site_fract_z
Si Si1 0.454983 0.098571 0.319479
Si Si2 0.333414 0.404597 0.548741
Si Si3 0.425738 0.097734 0.818369
Si Si4 0.323919 0.810765 0.922662
Si Si5 0.638479 0.220195 0.571370
Si Si6 0.730365 0.093178 0.506322
Si Si7 0.220228 0.128024 0.973188
O O1 0.439354 0.099213 0.570143
O O2 0.518526 0.120410 0.189761
O O3 0.415785 0.165207 0.297214
O O4 0.447720 0.000000 0.272292
O O5 0.353508 0.500000 0.461907
O O6 0.364373 0.322690 0.401837
O O7 0.273336 0.395080 0.583148
O O8 0.324699 0.400224 0.789419
O O9 0.373415 0.156323 0.945813
O O10 0.412311 0.000000 0.890455
O O11 0.347141 0.788024 0.674830
O O12 0.277570 0.878583 0.966453
O O13 0.293892 0.726154 0.048591
O O14 0.688109 0.170364 0.570544
O O15 0.767456 0.088866 0.248723
O O16 0.702818 0.000000 0.578581
#
# Coordination Sequence:
#
# PCOD9178036 Si02
#       7
#     8   8   8   8   8   8   8
#     4   8  13  22  38  62  90 119 149 182 224 266
#     4  10  20  31  44  66  92 118 150 184 221 264
#     4   8  13  21  36  62  93 118 146 186 223 263
#     4   8  15  25  39  62  88 119 152 177 214 263
#     4   9  16  27  42  61  89 120 149 185 222 262
#     4  10  19  30  46  67  90 118 150 183 221 266
#     4   9  17  30  45  63  91 121 148 180 215 257
#
# _framework density 20.013171
#
# number of rings (size 3 to 8) (size 9 to 14) (size 15 to 20)
#    0.000    3.143    0.000    3.000    0.000    4.000 
#    0.000    0.000    0.000    0.000    0.000   23.000 
#    0.000   13.714    0.000    1.143    0.000    0.000 
#
# Total GULP energy -156059.825350 kJ/mol
# GULP energy per Si atom -5573.565191 kJ/mol
# Density = 1.996762 g / cm^3
# Si number density = 20.013171 Si / 1000 Ang^3
#
#
#
# Elastic Constant Matrix: (Units=GPa)
#
#
# Indices 1 2 3 4 5 6 
#
# 1 83.5615 44.2129 13.9353 0.0000 -7.4788 0.0000
# 2 44.2129 105.1900 17.9296 0.0000 -7.0640 0.0000
# 3 13.9353 17.9296 67.5411 0.0000 6.4256 0.0000
# 4 0.0000 0.0000 0.0000 10.7414 0.0000 -6.4315
# 5 -7.4788 -7.0640 6.4256 0.0000 19.0149 0.0000
# 6 0.0000 0.0000 0.0000 -6.4315 0.0000 29.2873
#
#
#
# Elastic Compliance Matrix: (Units=1/GPa)
#
#
# Indices 1 2 3 4 5 6 
#
# 1 0.015931 -0.006011 -0.002144 0.000000 0.004757 0.000000
# 2 -0.006011 0.012658 -0.002420 0.000000 0.003156 0.000000
# 3 -0.002144 -0.002420 0.016590 0.000000 -0.007348 0.000000
# 4 0.000000 0.000000 0.000000 0.107192 0.000000 0.023539
# 5 0.004757 0.003156 -0.007348 0.000000 0.058117 0.000000
# 6 0.000000 0.000000 0.000000 0.023539 0.000000 0.039314
#
#
# Mechanical properties :
#
#
# Convention : Reuss Voigt Hill
#
# Bulk Modulus (GPa) = 41.61779 45.38313 43.50046
# Shear Modulus (GPa) = 17.92366 23.82305 20.87335
#
# Velocity S-wave (km/s) = 2.99589 3.45391 3.23303
# Velocity P-wave (km/s) = 5.72778 6.21546 5.97660
#
# Compressibility (1/GPa) = 0.02402818
#
# Stress axis : x y z
#
# Youngs Moduli (GPa) = 62.77037 79.00374 60.27858
#
# Poissons Ratio (x) = 0.47491 0.12923
# Poissons Ratio (y) = 0.37732 0.14588
# Poissons Ratio (z) = 0.13457 0.19120
#
# Static dielectric constant tensor:
#      x y z
#    x 1.703650 0.000000 0.050320 
#    y 0.000000 1.756570 0.000000 
#    z 0.050320 0.000000 1.834240 
# 
# From -- ./inp_files/110812.got.cif
#   From: 2010.05.17/outbox.cif.g08.bks.cpg/sg12_56_cif.got.tgz:110812.got - 2010.06.03 13:09:07.
