data_PCOD9178739
_publ_section_title
;
Structure prediction by ZEFSAII (Michael W. Deem and Ramdas Pophale) SiO2 
 PCOD9178739
Probable space group: C 2/M
;
_chemical_formula_sum "Si O2"
_cell_formula_units_Z 64
_cell_length_a 13.030448
_cell_length_b 14.395002
_cell_length_c 14.440159
_cell_angle_alpha 90.000000
_cell_angle_beta 107.199220
_cell_angle_gamma 90.000000
_cell_volume 2587.467021
_symmetry_space_group_name_H-M "C 2/M"
_symmetry_group_IT_number 12
_symmetry_cell_setting 'monoclinic'
loop_
_space_group_symop_operation_xyz
x,y,z
-x,y,-z
-x,-y,-z
x,-y,z
1/2+x,1/2+y,z
1/2-x,1/2+y,-z
1/2-x,1/2-y,-z
1/2+x,1/2-y,z
loop_
_atom_site_type_symbol
_atom_site_label
_atom_site_fract_x
_atom_site_fract_y
_atom_site_fract_z
Si Si1 0.631189 0.111100 0.291276
Si Si2 0.770950 0.210150 0.646170
Si Si3 0.893542 0.313839 0.258788
Si Si4 0.898933 0.602101 0.925825
Si Si5 0.924036 0.104958 0.559804
Si Si6 0.398990 0.605085 0.840656
Si Si7 0.246073 0.649058 0.952724
Si Si8 0.908242 0.898843 0.225827
O O1 0.720525 0.178507 0.358561
O O2 0.516043 0.152792 0.291744
O O3 0.637391 0.134358 0.183392
O O4 0.640581 0.000000 0.309706
O O5 0.657373 0.173601 0.653089
O O6 0.824801 0.163619 0.571642
O O7 0.844778 0.174854 0.752947
O O8 0.836071 0.363231 0.155979
O O9 0.867489 0.205519 0.228695
O O10 0.941949 0.500000 0.912626
O O11 0.803632 0.595759 0.973708
O O12 0.000000 0.654079 0.000000
O O13 0.000000 0.145846 0.500000
O O14 0.003625 0.095991 0.668816
O O15 0.891523 0.000000 0.522883
O O16 0.362031 0.500000 0.808147
O O17 0.357590 0.626883 0.931866
O O18 0.524851 0.605577 0.851837
O O19 0.250000 0.750000 0.000000
O O20 0.849673 0.000000 0.215224
#
# Coordination Sequence:
#
# PCOD9178739 Si02
#       8
#     8   8   8   8   8   8   8   8
#     4  11  22  37  56  80 110 148 193 235 281 339
#     4  10  20  35  56  84 113 143 181 228 278 331
#     4  11  21  35  57  78 106 148 192 227 278 335
#     4  10  19  31  45  65  94 132 178 228 275 319
#     4   9  17  33  61  90 114 139 172 224 279 325
#     4   9  17  32  54  73  98 135 180 230 276 325
#     4  11  22  31  48  74 105 137 180 239 290 333
#     4   9  18  35  57  78 106 140 182 224 270 335
#
# _framework density 24.734615000000002
#
# number of rings (size 3 to 8) (size 9 to 14) (size 15 to 20)
#    0.000    2.000    3.750    3.000    0.000    3.000 
#    0.000    1.875    0.000    1.875    0.000    0.000 
#    0.000    0.000    0.000    0.000    0.000    0.000 
#
# Total GULP energy -178586.401858 kJ/mol
# GULP energy per Si atom -5580.825058 kJ/mol
# Density = 2.467832 g / cm^3
# Si number density = 24.734615 Si / 1000 Ang^3
#
#
#
# Elastic Constant Matrix: (Units=GPa)
#
#
# Indices 1 2 3 4 5 6 
#
# 1 76.3166 16.4573 56.8601 0.0000 -49.5330 0.0000
# 2 16.4573 129.4500 26.5224 0.0000 -18.0181 0.0000
# 3 56.8601 26.5224 128.2307 0.0000 -37.2364 0.0000
# 4 0.0000 0.0000 0.0000 10.9329 0.0000 -8.4723
# 5 -49.5330 -18.0181 -37.2364 0.0000 60.4723 0.0000
# 6 0.0000 0.0000 0.0000 -8.4723 0.0000 17.1593
#
#
#
# Elastic Compliance Matrix: (Units=1/GPa)
#
#
# Indices 1 2 3 4 5 6 
#
# 1 0.034356 0.000610 -0.008690 0.000000 0.022972 0.000000
# 2 0.000610 0.008220 -0.001357 0.000000 0.002113 0.000000
# 3 -0.008690 -0.001357 0.011870 0.000000 -0.000213 0.000000
# 4 0.000000 0.000000 0.000000 0.148152 0.000000 0.073149
# 5 0.022972 0.002113 -0.000213 0.000000 0.035852 0.000000
# 6 0.000000 0.000000 0.000000 0.073149 0.000000 0.094394
#
#
# Mechanical properties :
#
#
# Convention : Reuss Voigt Hill
#
# Bulk Modulus (GPa) = 28.11105 59.29746 43.70425
# Shear Modulus (GPa) = 13.75232 33.32339 23.53785
#
# Velocity S-wave (km/s) = 2.36051 3.67445 3.08817
# Velocity P-wave (km/s) = 4.33810 6.48288 5.51574
#
# Compressibility (1/GPa) = 0.03557320
#
# Stress axis : x y z
#
# Youngs Moduli (GPa) = 29.10710 121.66055 84.24246
#
# Poissons Ratio (x) = -0.07422 0.73203
# Poissons Ratio (y) = -0.01776 0.11431
# Poissons Ratio (z) = 0.25293 0.16509
#
# Static dielectric constant tensor:
#      x y z
#    x 2.027550 0.000000 0.007840 
#    y 0.000000 2.085590 0.000000 
#    z 0.007840 0.000000 1.978170 
# 
# From -- ./inp_files/269844.got.cif
#   From: 2010.05.17/outbox.cif.g08.bks.cpg/sg12_135_cif.got.tgz:269844.got - 2010.06.03 13:09:07.
