data_PCOD9178066
_publ_section_title
;
Structure prediction by ZEFSAII (Michael W. Deem and Ramdas Pophale) SiO2 
 PCOD9178066
Probable space group: C 2/M
;
_chemical_formula_sum "Si O2"
_cell_formula_units_Z 52
_cell_length_a 17.413404
_cell_length_b 12.836522
_cell_length_c 24.746663
_cell_angle_alpha 90.000000
_cell_angle_beta 34.203537
_cell_angle_gamma 90.000000
_cell_volume 3109.480797
_symmetry_space_group_name_H-M "C 2/M"
_symmetry_group_IT_number 12
_symmetry_cell_setting 'monoclinic'
loop_
_space_group_symop_operation_xyz
x,y,z
-x,y,-z
-x,-y,-z
x,-y,z
1/2+x,1/2+y,z
1/2-x,1/2+y,-z
1/2-x,1/2-y,-z
1/2+x,1/2-y,z
loop_
_atom_site_type_symbol
_atom_site_label
_atom_site_fract_x
_atom_site_fract_y
_atom_site_fract_z
Si Si1 0.545125 0.123156 0.256657
Si Si2 0.669684 0.714111 0.100746
Si Si3 0.588874 0.728377 0.809807
Si Si4 0.500000 0.254289 0.500000
Si Si5 0.364276 0.876985 0.675257
Si Si6 0.269688 0.122888 0.358458
Si Si7 0.437575 0.884358 0.976735
O O1 0.629329 0.191404 0.164302
O O2 0.582761 0.152469 0.295881
O O3 0.383645 0.137587 0.338752
O O4 0.574894 0.000000 0.231625
O O5 0.524812 0.673844 0.162027
O O6 0.750000 0.750000 0.000000
O O7 0.775366 0.638511 0.069235
O O8 0.704454 0.651997 0.764154
O O9 0.664229 0.816660 0.730510
O O10 0.511241 0.792573 0.901202
O O11 0.559318 0.184189 0.417000
O O12 0.377345 0.325030 0.548047
O O13 0.384672 0.000000 0.656586
O O14 0.256020 0.000000 0.356549
O O15 0.461605 0.000000 0.938795
O O16 0.500000 0.883975 0.000000
#
# Coordination Sequence:
#
# PCOD9178066 Si02
#       7
#     8   8   8   4   8   8   8
#     4   9  18  33  52  72  96 128 162 198 238 282
#     4   9  18  31  49  72  96 123 157 195 234 277
#     4   9  18  32  49  69  94 125 158 196 237 280
#     4  10  20  32  50  74  98 126 158 200 246 290
#     4  10  20  34  51  70  96 128 162 199 241 289
#     4   9  17  31  51  73  95 121 158 199 241 286
#     4  10  19  30  46  68  95 125 155 190 233 280
#
# _framework density 16.723049
#
# number of rings (size 3 to 8) (size 9 to 14) (size 15 to 20)
#    0.000    2.615    0.000    1.846    0.000    4.923 
#    0.000    2.308    0.000    9.231    0.000    0.000 
#    0.000    0.000    0.000    0.000    0.000    0.000 
#
# Total GULP energy -144768.943256 kJ/mol
# GULP energy per Si atom -5568.036279 kJ/mol
# Density = 1.668499 g / cm^3
# Si number density = 16.723049 Si / 1000 Ang^3
#
#
#
# Elastic Constant Matrix: (Units=GPa)
#
#
# Indices 1 2 3 4 5 6 
#
# 1 121.3596 36.5891 43.4806 0.0000 -14.2656 0.0000
# 2 36.5891 38.2307 23.5292 -0.0001 -7.7495 0.0000
# 3 43.4806 23.5292 79.6419 -0.0003 -15.0579 0.0001
# 4 0.0000 -0.0001 -0.0003 20.2715 0.0001 -4.3187
# 5 -14.2656 -7.7495 -15.0579 0.0001 24.4830 0.0000
# 6 0.0000 0.0000 0.0001 -4.3187 0.0000 21.8276
#
#
#
# Elastic Compliance Matrix: (Units=1/GPa)
#
#
# Indices 1 2 3 4 5 6 
#
# 1 0.012657 -0.009385 -0.003739 0.000000 0.002104 0.000000
# 2 -0.009385 0.039453 -0.005890 0.000000 0.003397 0.000000
# 3 -0.003739 -0.005890 0.017623 0.000000 0.006795 0.000000
# 4 0.000000 0.000000 0.000000 0.051501 0.000000 0.010190
# 5 0.002104 0.003397 0.006795 0.000000 0.047325 0.000000
# 6 0.000000 0.000000 0.000000 0.010190 0.000000 0.047830
#
#
# Mechanical properties :
#
#
# Convention : Reuss Voigt Hill
#
# Bulk Modulus (GPa) = 31.54240 49.60333 40.57286
# Shear Modulus (GPa) = 18.86905 22.35863 20.61384
#
# Velocity S-wave (km/s) = 3.36270 3.66046 3.51474
# Velocity P-wave (km/s) = 5.82920 6.89865 6.38635
#
# Compressibility (1/GPa) = 0.03170336
#
# Stress axis : x y z
#
# Youngs Moduli (GPa) = 79.00996 25.34686 56.74560
#
# Poissons Ratio (x) = 0.23789 0.21219
# Poissons Ratio (y) = 0.74153 0.33421
# Poissons Ratio (z) = 0.29544 0.14928
#
# Static dielectric constant tensor:
#      x y z
#    x 1.577770 0.000000 -0.024590 
#    y 0.000000 1.544730 0.000000 
#    z -0.024590 0.000000 1.555640 
# 
# From -- ./inp_files/293135.got.cif
#   From: 2010.05.17/outbox.cif.g08.bks.cpg/sg12_147_cif.got.tgz:293135.got - 2010.06.03 13:09:07.
