data_PCOD9178236
_publ_section_title
;
Structure prediction by ZEFSAII (Michael W. Deem and Ramdas Pophale) SiO2 
 PCOD9178236
Probable space group: C 2/M
;
_chemical_formula_sum "Si O2"
_cell_formula_units_Z 64
_cell_length_a 15.812070
_cell_length_b 7.629189
_cell_length_c 20.949652
_cell_angle_alpha 90.000000
_cell_angle_beta 66.997794
_cell_angle_gamma 90.000000
_cell_volume 2326.284891
_symmetry_space_group_name_H-M "C 2/M"
_symmetry_group_IT_number 12
_symmetry_cell_setting 'monoclinic'
loop_
_space_group_symop_operation_xyz
x,y,z
-x,y,-z
-x,-y,-z
x,-y,z
1/2+x,1/2+y,z
1/2-x,1/2+y,-z
1/2-x,1/2-y,-z
1/2+x,1/2-y,z
loop_
_atom_site_type_symbol
_atom_site_label
_atom_site_fract_x
_atom_site_fract_y
_atom_site_fract_z
Si Si1 0.877439 0.710980 0.517626
Si Si2 0.162649 0.290145 0.605863
Si Si3 0.078476 0.702771 0.358848
Si Si4 0.936440 0.799168 0.140195
Si Si5 0.215592 0.295898 0.723584
Si Si6 0.892667 0.788776 0.982548
Si Si7 0.948172 0.295683 0.771052
Si Si8 0.723069 0.291684 0.106997
O O1 0.889540 0.500000 0.514786
O O2 0.892168 0.775550 0.440450
O O3 0.769651 0.748092 0.561038
O O4 0.926749 0.777489 0.567586
O O5 0.152179 0.500000 0.608169
O O6 0.152592 0.234124 0.682282
O O7 0.048482 0.500000 0.370804
O O8 0.187967 0.700650 0.311552
O O9 0.038012 0.776500 0.304571
O O10 0.005083 0.724240 0.065727
O O11 0.002413 0.794917 0.184026
O O12 0.843361 0.716638 0.194809
O O13 0.915940 0.000000 0.130844
O O14 0.237946 0.500000 0.707368
O O15 0.829890 0.727029 0.941461
O O16 0.899472 0.000000 0.978379
O O17 0.830070 0.746546 0.062286
O O18 0.976939 0.500000 0.763714
O O19 0.839028 0.287107 0.818996
O O20 0.713540 0.500000 0.114421
#
# Coordination Sequence:
#
# PCOD9178236 Si02
#       8
#     8   8   8   8   8   8   8   8
#     4   8  13  24  42  63  88 116 149 188 227 267
#     4   8  14  24  40  64  90 115 147 188 229 268
#     4   9  18  31  48  70  95 125 157 190 230 275
#     4  10  20  33  49  69  94 124 157 192 232 276
#     4  10  19  30  47  71  97 124 154 190 233 279
#     4   8  15  27  43  64  88 115 149 189 229 269
#     4  10  19  31  48  70  96 124 156 192 230 273
#     4   9  16  26  43  67  92 118 149 186 229 273
#
# _framework density 27.511678
#
# number of rings (size 3 to 8) (size 9 to 14) (size 15 to 20)
#    0.000    3.000    0.000    2.250    0.000    5.000 
#    0.000    0.000    0.000    1.500    0.000   10.500 
#    0.000    0.000    0.000    0.000    0.000    0.000 
#
# Total GULP energy -178911.009535 kJ/mol
# GULP energy per Si atom -5590.969048 kJ/mol
# Density = 2.744906 g / cm^3
# Si number density = 27.511678 Si / 1000 Ang^3
#
#
#
# Elastic Constant Matrix: (Units=GPa)
#
#
# Indices 1 2 3 4 5 6 
#
# 1 128.2915 5.3765 26.1340 0.0000 -1.5716 0.0000
# 2 5.3765 75.2265 3.8532 -0.0002 -4.9211 -0.0001
# 3 26.1340 3.8532 237.5069 0.0000 7.6962 0.0000
# 4 0.0000 -0.0002 0.0000 -0.3578 0.0000 7.1764
# 5 -1.5716 -4.9211 7.6962 0.0000 66.1850 0.0000
# 6 0.0000 -0.0001 0.0000 7.1764 0.0000 3.8465
#
#
#
# Elastic Compliance Matrix: (Units=1/GPa)
#
#
# Indices 1 2 3 4 5 6 
#
# 1 0.007999 -0.000510 -0.000880 0.000000 0.000254 0.000000
# 2 -0.000510 0.013405 -0.000194 0.000000 0.001007 0.000000
# 3 -0.000880 -0.000194 0.004328 0.000000 -0.000539 0.000000
# 4 0.000000 0.000000 0.000000 -0.072743 0.000000 0.135718
# 5 0.000254 0.001007 -0.000539 0.000000 0.015253 0.000000
# 6 0.000000 0.000000 0.000000 0.135718 0.000000 0.006767
#
#
# Mechanical properties :
#
#
# Convention : Reuss Voigt Hill
#
# Bulk Modulus (GPa) = 44.31887 56.86135 50.59011
# Shear Modulus (GPa) = -349.60340 40.97880 -154.31230
#
# Velocity S-wave (km/s) = -11.28496 3.86360 -7.49743
# Velocity P-wave (km/s) = 12.39582 6.37308 7.51799
#
# Compressibility (1/GPa) = 0.02256375
#
# Stress axis : x y z
#
# Youngs Moduli (GPa) = 125.02320 74.59650 231.06194
#
# Poissons Ratio (x) = 0.03804 0.20335
# Poissons Ratio (y) = 0.06375 0.04483
# Poissons Ratio (z) = 0.11003 0.01447
#
# Static dielectric constant tensor:
#      x y z
#    x 2.256580 0.000000 0.017990 
#    y 0.000000 2.040980 0.000000 
#    z 0.017990 0.000000 2.184980 
# 
# From -- ./inp_files/345560.got.cif
#   From: 2010.05.17/outbox.cif.g08.bks.cpg/sg12_173_cif.got.tgz:345560.got - 2010.06.03 13:09:07.
