data_PCOD9178411
_publ_section_title
;
Structure prediction by ZEFSAII (Michael W. Deem and Ramdas Pophale) SiO2 
 PCOD9178411
Probable space group: C 2/M
;
_chemical_formula_sum "Si O2"
_cell_formula_units_Z 56
_cell_length_a 22.845226
_cell_length_b 7.286586
_cell_length_c 18.234549
_cell_angle_alpha 90.000000
_cell_angle_beta 129.507070
_cell_angle_gamma 90.000000
_cell_volume 2341.943719
_symmetry_space_group_name_H-M "C 2/M"
_symmetry_group_IT_number 12
_symmetry_cell_setting 'monoclinic'
loop_
_space_group_symop_operation_xyz
x,y,z
-x,y,-z
-x,-y,-z
x,-y,z
1/2+x,1/2+y,z
1/2-x,1/2+y,-z
1/2-x,1/2-y,-z
1/2+x,1/2-y,z
loop_
_atom_site_type_symbol
_atom_site_label
_atom_site_fract_x
_atom_site_fract_y
_atom_site_fract_z
Si Si1 0.092635 0.724188 0.852542
Si Si2 0.636031 0.208131 0.738450
Si Si3 0.795149 0.278243 0.937745
Si Si4 0.838416 0.280667 0.548983
Si Si5 0.427704 0.223156 0.762685
Si Si6 0.586619 0.777207 0.545408
Si Si7 0.915630 0.723220 0.912208
O O1 0.095379 0.500000 0.853573
O O2 0.085893 0.791190 0.763617
O O3 0.016181 0.774352 0.833090
O O4 0.168140 0.783859 0.955954
O O5 0.716893 0.207246 0.842866
O O6 0.635057 0.282403 0.655733
O O7 0.608018 0.000000 0.707322
O O8 0.789631 0.500000 0.935306
O O9 0.857236 0.222628 0.927349
O O10 0.847291 0.500000 0.553358
O O11 0.750000 0.250000 0.500000
O O12 0.886651 0.211895 0.656914
O O13 0.874127 0.213571 0.499587
O O14 0.393237 0.281792 0.812622
O O15 0.425224 0.000000 0.759116
O O16 0.500000 0.724473 0.500000
O O17 0.585976 0.000000 0.538860
O O18 0.916797 0.500000 0.913437
O O19 0.000000 0.782989 0.000000
#
# Coordination Sequence:
#
# PCOD9178411 Si02
#       7
#     8   8   8   8   8   8   8
#     4   9  16  29  49  74  98 126 167 207 239 282
#     4  10  20  32  50  73  99 130 163 202 247 294
#     4  10  19  30  48  74 103 129 157 199 248 295
#     4  10  21  35  54  79 105 133 169 217 265 306
#     4   9  16  28  49  73  95 124 165 206 241 282
#     4   9  18  35  56  76  99 134 181 221 250 293
#     4   9  15  26  45  72  99 122 156 202 242 280
#
# _framework density 23.911762
#
# number of rings (size 3 to 8) (size 9 to 14) (size 15 to 20)
#    0.000    2.571    1.429    1.286    2.000    3.429 
#    0.000    0.000    0.000    5.571    0.000    0.000 
#    0.000    0.000    0.000    0.000    0.000    0.000 
#
# Total GULP energy -156276.586172 kJ/mol
# GULP energy per Si atom -5581.306649 kJ/mol
# Density = 2.385734 g / cm^3
# Si number density = 23.911762 Si / 1000 Ang^3
#
#
#
# Elastic Constant Matrix: (Units=GPa)
#
#
# Indices 1 2 3 4 5 6 
#
# 1 133.7710 -1.5713 65.0402 0.0000 -33.8920 0.0000
# 2 -1.5713 103.9816 -2.0835 0.0000 -7.4412 0.0004
# 3 65.0402 -2.0835 159.3409 0.0000 -38.1401 0.0000
# 4 0.0000 0.0000 0.0000 -0.6666 0.0000 11.4897
# 5 -33.8920 -7.4412 -38.1401 0.0000 52.0167 0.0000
# 6 0.0000 0.0004 0.0000 11.4897 0.0000 -38.0215
#
#
#
# Elastic Compliance Matrix: (Units=1/GPa)
#
#
# Indices 1 2 3 4 5 6 
#
# 1 0.010078 0.000404 -0.003060 0.000000 0.004381 0.000000
# 2 0.000404 0.009774 0.000437 0.000000 0.001982 0.000000
# 3 -0.003060 0.000437 0.008573 0.000000 0.004355 0.000000
# 4 0.000000 0.000000 0.000000 0.356439 0.000000 0.107712
# 5 0.004381 0.001982 0.004355 0.000000 0.025555 0.000000
# 6 0.000000 0.000000 0.000000 0.107712 0.000000 0.006249
#
#
# Mechanical properties :
#
#
# Convention : Reuss Voigt Hill
#
# Bulk Modulus (GPa) = 41.68698 57.76269 49.72483
# Shear Modulus (GPa) = 11.65229 25.04628 18.34929
#
# Velocity S-wave (km/s) = 2.20989 3.23994 2.77316
# Velocity P-wave (km/s) = 4.89724 6.18104 5.57621
#
# Compressibility (1/GPa) = 0.02398830
#
# Stress axis : x y z
#
# Youngs Moduli (GPa) = 99.22862 102.31421 116.64717
#
# Poissons Ratio (x) = -0.04138 0.35691
# Poissons Ratio (y) = -0.04014 -0.05100
# Poissons Ratio (z) = 0.30361 -0.04473
#
# Static dielectric constant tensor:
#      x y z
#    x 1.909040 0.000000 -0.015210 
#    y 0.000000 1.931810 0.000000 
#    z -0.015210 0.000000 1.891790 
# 
# From -- ./inp_files/280961.got.cif
#   From: 2010.05.17/outbox.cif.g08.bks.cpg/sg12_141_cif.got.tgz:280961.got - 2010.06.03 13:09:07.
