data_PCOD9178286
_publ_section_title
;
Structure prediction by ZEFSAII (Michael W. Deem and Ramdas Pophale) SiO2 
 PCOD9178286
Probable space group: C 2/M
;
_chemical_formula_sum "Si O2"
_cell_formula_units_Z 56
_cell_length_a 19.490526
_cell_length_b 9.064019
_cell_length_c 30.596491
_cell_angle_alpha 90.000000
_cell_angle_beta 37.541725
_cell_angle_gamma 90.000000
_cell_volume 3293.631269
_symmetry_space_group_name_H-M "C 2/M"
_symmetry_group_IT_number 12
_symmetry_cell_setting 'monoclinic'
loop_
_space_group_symop_operation_xyz
x,y,z
-x,y,-z
-x,-y,-z
x,-y,z
1/2+x,1/2+y,z
1/2-x,1/2+y,-z
1/2-x,1/2-y,-z
1/2+x,1/2-y,z
loop_
_atom_site_type_symbol
_atom_site_label
_atom_site_fract_x
_atom_site_fract_y
_atom_site_fract_z
Si Si1 0.870617 0.823119 0.567254
Si Si2 0.922427 0.669808 0.995323
Si Si3 0.235469 0.821713 0.152782
Si Si4 0.388346 0.323355 0.149815
Si Si5 0.317209 0.323095 0.283058
Si Si6 0.972962 0.822975 0.286497
Si Si7 0.713928 0.176214 0.563341
O O1 0.798030 0.750131 0.642336
O O2 0.805934 0.789675 0.554632
O O3 0.000000 0.774128 0.500000
O O4 0.869007 0.000000 0.573846
O O5 0.916204 0.500000 0.983624
O O6 0.988593 0.766485 0.926899
O O7 0.801440 0.719387 0.074792
O O8 0.000000 0.672103 0.000000
O O9 0.299866 0.746501 0.160469
O O10 0.104227 0.784270 0.218879
O O11 0.247102 0.000000 0.150871
O O12 0.384905 0.500000 0.148439
O O13 0.355821 0.278247 0.215329
O O14 0.303655 0.500000 0.290092
O O15 0.411389 0.286208 0.271886
O O16 0.903173 0.741392 0.359423
O O17 0.963842 0.000000 0.297425
O O18 0.750000 0.250000 0.500000
O O19 0.706943 0.000000 0.562274
#
# Coordination Sequence:
#
# PCOD9178286 Si02
#       7
#     8   8   8   8   8   8   8
#     4   9  19  35  53  72  94 123 160 198 233 274
#     4   8  15  29  47  68  94 125 162 198 234 279
#     4   9  18  32  51  72  93 124 165 202 235 278
#     4  10  19  30  47  73 101 126 156 197 242 285
#     4   9  19  34  50  70  97 128 158 190 236 288
#     4   9  18  35  54  69  93 129 163 196 236 281
#     4  10  20  34  52  74  99 126 158 196 238 284
#
# _framework density 17.002509
#
# number of rings (size 3 to 8) (size 9 to 14) (size 15 to 20)
#    0.000    2.857    0.000    1.714    0.000    6.286 
#    0.000    5.000    0.000    0.000    0.000    0.000 
#    0.000    0.000    0.000    0.000    0.000    0.000 
#
# Total GULP energy -156062.167492 kJ/mol
# GULP energy per Si atom -5573.648839 kJ/mol
# Density = 1.696381 g / cm^3
# Si number density = 17.002509 Si / 1000 Ang^3
#
#
#
# Elastic Constant Matrix: (Units=GPa)
#
#
# Indices 1 2 3 4 5 6 
#
# 1 54.1472 33.4758 87.0528 0.0001 -4.0529 -0.0003
# 2 33.4758 32.2978 64.0001 0.0004 1.9591 0.0004
# 3 87.0528 64.0001 212.0655 0.0000 -2.7232 0.0000
# 4 0.0001 0.0004 0.0000 35.1837 0.0000 1.6030
# 5 -4.0529 1.9591 -2.7232 0.0000 33.4871 0.0002
# 6 -0.0003 0.0004 0.0000 1.6030 0.0002 16.9586
#
#
#
# Elastic Compliance Matrix: (Units=1/GPa)
#
#
# Indices 1 2 3 4 5 6 
#
# 1 0.072440 -0.042309 -0.016841 0.000000 0.009873 0.000002
# 2 -0.042309 0.103131 -0.013914 -0.000001 -0.012285 -0.000003
# 3 -0.016841 -0.013914 0.015829 0.000000 0.000063 0.000000
# 4 0.000000 -0.000001 0.000000 0.028545 0.000000 -0.002698
# 5 0.009873 -0.012285 0.000063 0.000000 0.031781 0.000000
# 6 0.000002 -0.000003 0.000000 -0.002698 0.000000 0.059222
#
#
# Mechanical properties :
#
#
# Convention : Reuss Voigt Hill
#
# Bulk Modulus (GPa) = 22.08922 74.17421 48.13171
# Shear Modulus (GPa) = 10.58949 24.72465 17.65707
#
# Velocity S-wave (km/s) = 2.49834 3.81750 3.22607
# Velocity P-wave (km/s) = 4.61976 7.94678 6.49975
#
# Compressibility (1/GPa) = 0.04527096
#
# Stress axis : x y z
#
# Youngs Moduli (GPa) = 13.80460 9.69643 63.17572
#
# Poissons Ratio (x) = 0.41024 1.06395
# Poissons Ratio (y) = 0.58405 0.87905
# Poissons Ratio (z) = 0.23249 0.13492
#
# Static dielectric constant tensor:
#      x y z
#    x 1.560760 0.000000 -0.010070 
#    y 0.000000 1.569470 0.000000 
#    z -0.010070 0.000000 1.574670 
# 
# From -- ./inp_files/280194.got.cif
#   From: 2010.05.17/outbox.cif.g08.bks.cpg/sg12_141_cif.got.tgz:280194.got - 2010.06.03 13:09:07.
