data_PCOD9178394
_publ_section_title
;
Structure prediction by ZEFSAII (Michael W. Deem and Ramdas Pophale) SiO2 
 PCOD9178394
Probable space group: C 2/M
;
_chemical_formula_sum "Si O2"
_cell_formula_units_Z 56
_cell_length_a 19.859182
_cell_length_b 8.427927
_cell_length_c 20.358546
_cell_angle_alpha 90.000000
_cell_angle_beta 66.295805
_cell_angle_gamma 90.000000
_cell_volume 3119.969813
_symmetry_space_group_name_H-M "C 2/M"
_symmetry_group_IT_number 12
_symmetry_cell_setting 'monoclinic'
loop_
_space_group_symop_operation_xyz
x,y,z
-x,y,-z
-x,-y,-z
x,-y,z
1/2+x,1/2+y,z
1/2-x,1/2+y,-z
1/2-x,1/2-y,-z
1/2+x,1/2-y,z
loop_
_atom_site_type_symbol
_atom_site_label
_atom_site_fract_x
_atom_site_fract_y
_atom_site_fract_z
Si Si1 0.652159 0.689170 0.103394
Si Si2 0.818428 0.691184 0.051604
Si Si3 0.997725 0.311062 0.796415
Si Si4 0.761886 0.189727 0.569751
Si Si5 0.951298 0.307266 0.081058
Si Si6 0.606312 0.688643 0.643876
Si Si7 0.575547 0.693564 0.505727
O O1 0.646277 0.500000 0.111443
O O2 0.734162 0.740428 0.091526
O O3 0.588183 0.769105 0.169998
O O4 0.648091 0.737681 0.028306
O O5 0.868393 0.732958 0.093710
O O6 0.492702 0.000000 0.209727
O O7 0.041578 0.500000 0.920065
O O8 0.025129 0.249683 0.856982
O O9 0.044837 0.236514 0.720008
O O10 0.750000 0.250000 0.500000
O O11 0.686860 0.247120 0.633196
O O12 0.845018 0.240751 0.557077
O O13 0.761751 0.000000 0.570324
O O14 0.820381 0.500000 0.042760
O O15 0.000000 0.252839 0.000000
O O16 0.612765 0.500000 0.637395
O O17 0.582622 0.743784 0.579599
O O18 0.500000 0.747803 0.500000
O O19 0.573378 0.500000 0.505620
#
# Coordination Sequence:
#
# PCOD9178394 Si02
#       7
#     8   8   8   8   8   8   8
#     4  10  19  30  48  73  99 126 159 204 258 306
#     4   9  17  32  51  70  93 124 166 210 250 299
#     4  11  21  34  53  72  98 134 171 211 255 304
#     4   9  16  29  52  78 104 134 168 203 241 289
#     4   9  16  30  52  73  91 122 172 216 245 287
#     4  10  20  34  52  75 105 135 167 209 253 300
#     4   8  15  30  54  81 103 129 167 206 238 281
#
# _framework density 17.948893000000002
#
# number of rings (size 3 to 8) (size 9 to 14) (size 15 to 20)
#    0.000    2.571    1.429    2.571    0.000    0.571 
#    0.000    3.571    0.000   24.000    0.000    0.000 
#    0.000    0.000    0.000    0.000    0.000    0.000 
#
# Total GULP energy -155961.037865 kJ/mol
# GULP energy per Si atom -5570.037067 kJ/mol
# Density = 1.790804 g / cm^3
# Si number density = 17.948893 Si / 1000 Ang^3
#
#
#
# Elastic Constant Matrix: (Units=GPa)
#
#
# Indices 1 2 3 4 5 6 
#
# 1 127.4656 16.6505 53.0793 0.0001 -21.2450 0.0002
# 2 16.6505 22.4079 12.5465 0.0001 -4.3378 0.0002
# 3 53.0793 12.5465 95.2310 0.0000 -22.6307 0.0001
# 4 0.0001 0.0001 0.0000 27.6185 0.0000 -6.7564
# 5 -21.2450 -4.3378 -22.6307 0.0000 25.6138 0.0000
# 6 0.0002 0.0002 0.0001 -6.7564 0.0000 20.1564
#
#
#
# Elastic Compliance Matrix: (Units=1/GPa)
#
#
# Indices 1 2 3 4 5 6 
#
# 1 0.011085 -0.004870 -0.004491 0.000000 0.004402 0.000000
# 2 -0.004870 0.050533 -0.003632 0.000000 0.001309 -0.000001
# 3 -0.004491 -0.003632 0.015760 0.000000 0.009585 0.000000
# 4 0.000000 0.000000 0.000000 0.039442 0.000000 0.013221
# 5 0.004402 0.001309 0.009585 0.000000 0.051383 0.000000
# 6 0.000000 -0.000001 0.000000 0.013221 0.000000 0.054044
#
#
# Mechanical properties :
#
#
# Convention : Reuss Voigt Hill
#
# Bulk Modulus (GPa) = 19.45819 45.51743 32.48781
# Shear Modulus (GPa) = 18.84206 25.53295 22.18751
#
# Velocity S-wave (km/s) = 3.24352 3.77574 3.51971
# Velocity P-wave (km/s) = 4.98915 6.66505 5.88704
#
# Compressibility (1/GPa) = 0.05139224
#
# Stress axis : x y z
#
# Youngs Moduli (GPa) = 90.21016 19.78895 63.45148
#
# Poissons Ratio (x) = 0.09638 0.28495
# Poissons Ratio (y) = 0.43936 0.23045
# Poissons Ratio (z) = 0.40513 0.07187
#
# Static dielectric constant tensor:
#      x y z
#    x 1.658560 0.000000 -0.018900 
#    y 0.000000 1.621620 0.000000 
#    z -0.018900 0.000000 1.594970 
# 
# From -- ./inp_files/275270.got.cif
#   From: 2010.05.17/outbox.cif.g08.bks.cpg/sg12_138_cif.got.tgz:275270.got - 2010.06.03 13:09:07.
