data_PCOD9178458
_publ_section_title
;
Structure prediction by ZEFSAII (Michael W. Deem and Ramdas Pophale) SiO2 
 PCOD9178458
Probable space group: C 2/M
;
_chemical_formula_sum "Si O2"
_cell_formula_units_Z 44
_cell_length_a 13.325769
_cell_length_b 28.782081
_cell_length_c 15.451599
_cell_angle_alpha 90.000000
_cell_angle_beta 23.056640
_cell_angle_gamma 90.000000
_cell_volume 2321.004314
_symmetry_space_group_name_H-M "C 2/M"
_symmetry_group_IT_number 12
_symmetry_cell_setting 'monoclinic'
loop_
_space_group_symop_operation_xyz
x,y,z
-x,y,-z
-x,-y,-z
x,-y,z
1/2+x,1/2+y,z
1/2-x,1/2+y,-z
1/2-x,1/2-y,-z
1/2+x,1/2-y,z
loop_
_atom_site_type_symbol
_atom_site_label
_atom_site_fract_x
_atom_site_fract_y
_atom_site_fract_z
Si Si1 0.114424 0.632647 0.095690
Si Si2 0.500000 0.581610 0.000000
Si Si3 0.586637 0.698282 0.703877
Si Si4 0.215710 0.205365 0.399203
Si Si5 0.458718 0.118257 0.413717
Si Si6 0.517662 0.447070 0.178496
O O1 0.884168 0.661048 0.234119
O O2 0.996237 0.619699 0.281314
O O3 0.337351 0.670644 0.931192
O O4 0.271284 0.586543 0.943373
O O5 0.561478 0.554362 0.039453
O O6 0.242957 0.610622 0.224458
O O7 0.608216 0.749290 0.726043
O O8 0.597260 0.698704 0.590045
O O9 0.828097 0.666927 0.541080
O O10 0.000000 0.214555 0.500000
O O11 0.260071 0.076687 0.589151
O O12 0.525489 0.500000 0.202260
#
# Coordination Sequence:
#
# PCOD9178458 Si02
#       6
#     8   4   8   8   8   8
#     4   9  19  36  52  71 103 139 174 214 259 309
#     4  10  19  30  48  76 108 140 176 216 261 316
#     4   9  19  36  52  77 112 142 176 212 254 312
#     4  10  20  33  55  82 107 138 176 217 259 308
#     4   9  19  32  48  71 105 142 175 214 255 306
#     4  10  20  33  50  72 102 140 179 220 267 319
#
# _framework density 18.957311000000001
#
# number of rings (size 3 to 8) (size 9 to 14) (size 15 to 20)
#    0.000    2.545    0.000    1.364    0.000    9.455 
#    0.000    0.000    0.000    0.545    0.000   11.455 
#    0.000    0.000    0.000    0.000    0.000    0.000 
#
# Total GULP energy -122502.243387 kJ/mol
# GULP energy per Si atom -5568.283790 kJ/mol
# Density = 1.891416 g / cm^3
# Si number density = 18.957311 Si / 1000 Ang^3
#
#
#
# Elastic Constant Matrix: (Units=GPa)
#
#
# Indices 1 2 3 4 5 6 
#
# 1 52.6335 29.2104 18.1436 0.0142 -9.6422 -0.0082
# 2 29.2104 115.9640 35.0406 -0.0060 0.9054 0.0049
# 3 18.1436 35.0406 75.7148 -0.0123 3.4325 -0.0134
# 4 0.0142 -0.0060 -0.0123 13.2582 0.0024 6.3317
# 5 -9.6422 0.9054 3.4325 0.0024 16.9645 0.0062
# 6 -0.0082 0.0049 -0.0134 6.3317 0.0062 13.3911
#
#
#
# Elastic Compliance Matrix: (Units=1/GPa)
#
#
# Indices 1 2 3 4 5 6 
#
# 1 0.026594 -0.005437 -0.004597 -0.000053 0.016336 0.000031
# 2 -0.005437 0.011140 -0.003720 0.000016 -0.002932 -0.000017
# 3 -0.004597 -0.003720 0.016289 0.000014 -0.005710 0.000011
# 4 -0.000053 0.000016 0.000014 0.097424 -0.000031 -0.046065
# 5 0.016336 -0.002932 -0.005710 -0.000031 0.069543 -0.000012
# 6 0.000031 -0.000017 0.000011 -0.046065 -0.000012 0.096457
#
#
# Mechanical properties :
#
#
# Convention : Reuss Voigt Hill
#
# Bulk Modulus (GPa) = 37.71375 45.45572 41.58473
# Shear Modulus (GPa) = 14.13250 19.51730 16.82490
#
# Velocity S-wave (km/s) = 2.73333 3.21212 2.98235
# Velocity P-wave (km/s) = 5.46797 6.14711 5.81746
#
# Compressibility (1/GPa) = 0.02651553
#
# Stress axis : x y z
#
# Youngs Moduli (GPa) = 37.60215 89.76800 61.38993
#
# Poissons Ratio (x) = 0.48810 0.28221
# Poissons Ratio (y) = 0.20446 0.22835
# Poissons Ratio (z) = 0.17286 0.33390
#
# Static dielectric constant tensor:
#      x y z
#    x 1.653070 0.000000 0.006610 
#    y 0.000000 1.681010 0.000010 
#    z 0.006610 0.000010 1.683710 
# 
# From -- ./inp_files/12088.got.cif
#   From: 2010.05.17/outbox.cif.g08.bks.cpg/sg12_7_cif.got.tgz:12088.got - 2010.06.03 13:09:07.
