data_PCOD9178817
_publ_section_title
;
Structure prediction by ZEFSAII (Michael W. Deem and Ramdas Pophale) SiO2 
 PCOD9178817
Probable space group: C 2/M
;
_chemical_formula_sum "Si O2"
_cell_formula_units_Z 56
_cell_length_a 27.578217
_cell_length_b 11.355408
_cell_length_c 21.317476
_cell_angle_alpha 90.000000
_cell_angle_beta 27.053085
_cell_angle_gamma 90.000000
_cell_volume 3036.269254
_symmetry_space_group_name_H-M "C 2/M"
_symmetry_group_IT_number 12
_symmetry_cell_setting 'monoclinic'
loop_
_space_group_symop_operation_xyz
x,y,z
-x,y,-z
-x,-y,-z
x,-y,z
1/2+x,1/2+y,z
1/2-x,1/2+y,-z
1/2-x,1/2-y,-z
1/2+x,1/2-y,z
loop_
_atom_site_type_symbol
_atom_site_label
_atom_site_fract_x
_atom_site_fract_y
_atom_site_fract_z
Si Si1 0.629351 0.870146 0.842531
Si Si2 0.550029 0.643741 0.376623
Si Si3 0.563153 0.635956 0.618945
Si Si4 0.587468 0.372677 0.843378
Si Si5 0.218711 0.368269 0.574723
Si Si6 0.505383 0.252833 0.817683
Si Si7 0.207332 0.364243 0.895267
O O1 0.652969 0.745801 0.782129
O O2 0.683356 0.864307 0.848448
O O3 0.655366 0.000000 0.785115
O O4 0.500000 0.870974 0.000000
O O5 0.500000 0.683775 0.500000
O O6 0.548264 0.500000 0.380132
O O7 0.482612 0.681695 0.393788
O O8 0.673416 0.679357 0.229704
O O9 0.528396 0.500000 0.665019
O O10 0.691410 0.635305 0.475022
O O11 0.522811 0.703008 0.727156
O O12 0.642857 0.500000 0.779032
O O13 0.532781 0.350392 0.838943
O O14 0.500000 0.377041 0.000000
O O15 0.232535 0.500000 0.529729
O O16 0.250000 0.250000 0.500000
O O17 0.093241 0.349065 0.731104
O O18 0.386697 0.208402 0.964881
O O19 0.200475 0.500000 0.924257
#
# Coordination Sequence:
#
# PCOD9178817 Si02
#       7
#     8   8   8   8   8   8   8
#     4   9  16  29  46  72 109 143 170 215 273 321
#     4   9  19  36  54  72 100 141 185 227 272 326
#     4   9  19  36  53  75 106 144 183 223 272 327
#     4  10  19  31  46  72 111 151 182 212 263 333
#     4   9  19  34  55  81 113 148 182 218 271 334
#     4  11  19  31  52  81 113 141 174 231 280 329
#     4  10  19  31  50  79 111 138 176 228 280 327
#
# _framework density 18.443688000000002
#
# number of rings (size 3 to 8) (size 9 to 14) (size 15 to 20)
#    0.000    2.429    2.857    0.857    0.000    2.857 
#    0.000    2.857    0.000    0.000    0.000    5.000 
#    0.000   20.571    0.000    0.000    0.000    0.000 
#
# Total GULP energy -155917.837091 kJ/mol
# GULP energy per Si atom -5568.494182 kJ/mol
# Density = 1.840171 g / cm^3
# Si number density = 18.443688 Si / 1000 Ang^3
#
#
#
# Elastic Constant Matrix: (Units=GPa)
#
#
# Indices 1 2 3 4 5 6 
#
# 1 137.3577 34.7574 53.7216 0.0000 -4.1985 0.0000
# 2 34.7574 124.7762 39.6298 0.0000 4.9114 0.0000
# 3 53.7216 39.6298 101.7361 0.0000 -6.0421 0.0000
# 4 0.0000 0.0000 0.0000 26.3838 0.0000 -19.9501
# 5 -4.1985 4.9114 -6.0421 0.0000 28.8567 0.0000
# 6 0.0000 0.0000 0.0000 -19.9501 0.0000 26.5034
#
#
#
# Elastic Compliance Matrix: (Units=1/GPa)
#
#
# Indices 1 2 3 4 5 6 
#
# 1 0.009336 -0.001224 -0.004415 0.000000 0.000642 0.000000
# 2 -0.001224 0.009464 -0.003186 0.000000 -0.002456 0.000000
# 3 -0.004415 -0.003186 0.013565 0.000000 0.002740 0.000000
# 4 0.000000 0.000000 0.000000 0.087977 0.000000 0.066224
# 5 0.000642 -0.002456 0.002740 0.000000 0.035739 0.000000
# 6 0.000000 0.000000 0.000000 0.066224 0.000000 0.087580
#
#
# Mechanical properties :
#
#
# Convention : Reuss Voigt Hill
#
# Bulk Modulus (GPa) = 67.95950 68.89864 68.42907
# Shear Modulus (GPa) = 18.78170 32.06622 25.42396
#
# Velocity S-wave (km/s) = 3.19459 4.17418 3.71679
# Velocity P-wave (km/s) = 7.10874 7.78903 7.45665
#
# Compressibility (1/GPa) = 0.01471465
#
# Stress axis : x y z
#
# Youngs Moduli (GPa) = 107.10802 105.66541 73.72083
#
# Poissons Ratio (x) = 0.12930 0.32550
# Poissons Ratio (y) = 0.13107 0.23489
# Poissons Ratio (z) = 0.47291 0.33667
#
# Static dielectric constant tensor:
#      x y z
#    x 1.657080 0.000000 0.034830 
#    y 0.000000 1.663910 0.000000 
#    z 0.034830 0.000000 1.664720 
# 
# From -- ./inp_files/325144.got.cif
#   From: 2010.05.17/outbox.cif.g08.bks.cpg/sg12_163_cif.got.tgz:325144.got - 2010.06.03 13:09:07.
