data_PCOD9178623
_publ_section_title
;
Structure prediction by ZEFSAII (Michael W. Deem and Ramdas Pophale) SiO2 
 PCOD9178623
Probable space group: C 2/M
;
_chemical_formula_sum "Si O2"
_cell_formula_units_Z 64
_cell_length_a 20.992119
_cell_length_b 8.693495
_cell_length_c 24.759736
_cell_angle_alpha 90.000000
_cell_angle_beta 53.537816
_cell_angle_gamma 90.000000
_cell_volume 3634.020534
_symmetry_space_group_name_H-M "C 2/M"
_symmetry_group_IT_number 12
_symmetry_cell_setting 'monoclinic'
loop_
_space_group_symop_operation_xyz
x,y,z
-x,y,-z
-x,-y,-z
x,-y,z
1/2+x,1/2+y,z
1/2-x,1/2+y,-z
1/2-x,1/2-y,-z
1/2+x,1/2-y,z
loop_
_atom_site_type_symbol
_atom_site_label
_atom_site_fract_x
_atom_site_fract_y
_atom_site_fract_z
Si Si1 0.028296 0.186921 0.636327
Si Si2 0.077408 0.185684 0.732300
Si Si3 0.568260 0.183568 0.133400
Si Si4 0.203842 0.685078 0.153080
Si Si5 0.651470 0.315634 0.292354
Si Si6 0.818048 0.815944 0.004922
Si Si7 0.682845 0.685071 0.493952
Si Si8 0.261252 0.184450 0.647484
O O1 0.050522 0.236587 0.685831
O O2 0.097499 0.234074 0.560519
O O3 0.940334 0.236741 0.664761
O O4 0.027920 0.000000 0.637235
O O5 0.168510 0.229800 0.695292
O O6 0.016503 0.254049 0.805982
O O7 0.072345 0.000000 0.736699
O O8 0.631395 0.227848 0.149019
O O9 0.601500 0.249881 0.060384
O O10 0.568240 0.000000 0.130528
O O11 0.201084 0.500000 0.161378
O O12 0.191930 0.765977 0.215922
O O13 0.285614 0.724200 0.080761
O O14 0.652788 0.500000 0.296607
O O15 0.695015 0.241951 0.321213
O O16 0.818877 0.000000 0.000459
O O17 0.750000 0.750000 0.000000
O O18 0.686265 0.500000 0.493005
O O19 0.750000 0.750000 0.500000
O O20 0.699343 0.745383 0.425841
O O21 0.264513 0.000000 0.642301
#
# Coordination Sequence:
#
# PCOD9178623 Si02
#       8
#     8   8   8   8   8   8   8   8
#     4   9  19  36  58  83 109 143 185 226 275 333
#     4  10  19  36  58  79 108 148 186 224 277 334
#     4  10  19  30  50  83 115 142 183 235 278 324
#     4   9  18  32  50  77 112 147 181 223 274 325
#     4  11  22  37  58  82 110 147 187 228 276 331
#     4   9  17  29  47  75 112 149 185 227 278 330
#     4  11  21  38  61  85 113 145 186 231 279 332
#     4  11  24  41  58  81 114 148 185 229 280 337
#
# _framework density 17.611349000000001
#
# number of rings (size 3 to 8) (size 9 to 14) (size 15 to 20)
#    0.000    2.000    2.500    2.625    0.000    4.000 
#    0.000    5.000    0.000    0.750    0.000    5.250 
#    0.000    0.000    0.000    0.000    0.000    0.000 
#
# Total GULP energy -178565.772068 kJ/mol
# GULP energy per Si atom -5580.180377 kJ/mol
# Density = 1.757126 g / cm^3
# Si number density = 17.611349 Si / 1000 Ang^3
#
#
#
# Elastic Constant Matrix: (Units=GPa)
#
#
# Indices 1 2 3 4 5 6 
#
# 1 108.3433 31.7307 75.6663 -0.0001 -5.0805 0.0000
# 2 31.7307 41.0943 49.1681 -0.0002 -2.3998 -0.0003
# 3 75.6663 49.1681 193.7080 0.0000 -17.9439 0.0000
# 4 -0.0001 -0.0002 0.0000 34.4361 0.0000 1.5852
# 5 -5.0805 -2.3998 -17.9439 0.0000 23.3108 0.0000
# 6 0.0000 -0.0003 0.0000 1.5852 0.0000 24.3913
#
#
#
# Elastic Compliance Matrix: (Units=1/GPa)
#
#
# Indices 1 2 3 4 5 6 
#
# 1 0.013650 -0.005928 -0.003885 0.000000 -0.000626 0.000000
# 2 -0.005928 0.037786 -0.007575 0.000000 -0.003233 0.000000
# 3 -0.003885 -0.007575 0.009101 0.000000 0.005379 0.000000
# 4 0.000000 0.000000 0.000000 0.029126 0.000000 -0.001893
# 5 -0.000626 -0.003233 0.005379 0.000000 0.046570 0.000000
# 6 0.000000 0.000000 0.000000 -0.001893 0.000000 0.041121
#
#
# Mechanical properties :
#
#
# Convention : Reuss Voigt Hill
#
# Bulk Modulus (GPa) = 38.81855 72.91954 55.86904
# Shear Modulus (GPa) = 22.65332 28.86632 25.75982
#
# Velocity S-wave (km/s) = 3.59038 4.05294 3.82865
# Velocity P-wave (km/s) = 6.26717 7.96219 7.16498
#
# Compressibility (1/GPa) = 0.02576088
#
# Stress axis : x y z
#
# Youngs Moduli (GPa) = 73.25915 26.46497 109.87589
#
# Poissons Ratio (x) = 0.15687 0.42692
# Poissons Ratio (y) = 0.43425 0.83232
# Poissons Ratio (z) = 0.28464 0.20047
#
# Static dielectric constant tensor:
#      x y z
#    x 1.570360 0.000000 -0.011250 
#    y 0.000000 1.603830 0.000000 
#    z -0.011250 0.000000 1.604870 
# 
# From -- ./inp_files/346002.got.cif
#   From: 2010.05.17/outbox.cif.g08.bks.cpg/sg12_174_cif.got.tgz:346002.got - 2010.06.03 13:09:07.
