data_PCOD9178592
_publ_section_title
;
Structure prediction by ZEFSAII (Michael W. Deem and Ramdas Pophale) SiO2 
 PCOD9178592
Probable space group: C 2/M
;
_chemical_formula_sum "Si O2"
_cell_formula_units_Z 64
_cell_length_a 30.222217
_cell_length_b 7.602874
_cell_length_c 15.127779
_cell_angle_alpha 90.000000
_cell_angle_beta 62.357840
_cell_angle_gamma 90.000000
_cell_volume 3079.254383
_symmetry_space_group_name_H-M "C 2/M"
_symmetry_group_IT_number 12
_symmetry_cell_setting 'monoclinic'
loop_
_space_group_symop_operation_xyz
x,y,z
-x,y,-z
-x,-y,-z
x,-y,z
1/2+x,1/2+y,z
1/2-x,1/2+y,-z
1/2-x,1/2-y,-z
1/2+x,1/2-y,z
loop_
_atom_site_type_symbol
_atom_site_label
_atom_site_fract_x
_atom_site_fract_y
_atom_site_fract_z
Si Si1 0.776968 0.705587 0.883869
Si Si2 0.345758 0.715880 0.575042
Si Si3 0.024798 0.784510 0.236230
Si Si4 0.873147 0.795666 0.193351
Si Si5 0.089635 0.784518 0.651860
Si Si6 0.260960 0.799596 0.270150
Si Si7 0.547413 0.285792 0.016595
Si Si8 0.614686 0.710783 0.272676
O O1 0.771393 0.500000 0.872172
O O2 0.752917 0.797698 0.820859
O O3 0.835650 0.750216 0.830067
O O4 0.750000 0.750000 0.000000
O O5 0.344566 0.500000 0.577836
O O6 0.374755 0.772156 0.460967
O O7 0.288191 0.775109 0.636040
O O8 0.373824 0.773951 0.638668
O O9 0.065105 0.723328 0.270665
O O10 0.967885 0.731991 0.307390
O O11 0.025442 0.000000 0.235917
O O12 0.040657 0.725574 0.123263
O O13 0.890948 0.721495 0.270783
O O14 0.813998 0.787474 0.236950
O O15 0.903308 0.723493 0.081077
O O16 0.888154 0.000000 0.183103
O O17 0.090826 0.000000 0.650364
O O18 0.267010 0.000000 0.294174
O O19 0.548043 0.500000 0.021582
O O20 0.500000 0.238050 0.000000
O O21 0.610301 0.500000 0.282486
#
# Coordination Sequence:
#
# PCOD9178592 Si02
#       8
#     8   8   8   8   8   8   8   8
#     4  11  22  37  56  78 105 138 176 216 258 309
#     4   8  16  31  48  68 102 139 172 223 272 308
#     4   9  16  26  45  74 105 136 173 217 264 314
#     4  10  19  30  50  78 103 134 178 220 263 317
#     4   9  16  28  48  76 105 135 178 224 266 312
#     4  10  21  37  53  74 106 139 174 216 267 315
#     4   9  15  26  43  69 104 134 165 215 266 309
#     4   9  18  32  50  76 107 138 172 214 266 315
#
# _framework density 20.784254000000001
#
# number of rings (size 3 to 8) (size 9 to 14) (size 15 to 20)
#    0.000    2.625    1.250    2.250    1.750    1.000 
#    0.000    2.500    0.000    4.125    0.000    3.500 
#    0.000    0.000    0.000    0.000    0.000    0.000 
#
# Total GULP energy -178599.582033 kJ/mol
# GULP energy per Si atom -5581.236939 kJ/mol
# Density = 2.073695 g / cm^3
# Si number density = 20.784254 Si / 1000 Ang^3
#
#
#
# Elastic Constant Matrix: (Units=GPa)
#
#
# Indices 1 2 3 4 5 6 
#
# 1 106.4310 -4.8468 48.3213 0.0000 -31.5899 0.0000
# 2 -4.8468 40.5460 -7.4268 0.0000 2.1485 0.0000
# 3 48.3213 -7.4268 144.2608 0.0000 -31.6276 0.0000
# 4 0.0000 0.0000 0.0000 4.1259 0.0000 -6.8664
# 5 -31.5899 2.1485 -31.6276 0.0000 16.5724 0.0000
# 6 0.0000 0.0000 0.0000 -6.8664 0.0000 10.4107
#
#
#
# Elastic Compliance Matrix: (Units=1/GPa)
#
#
# Indices 1 2 3 4 5 6 
#
# 1 0.022487 0.000687 0.003234 0.000000 0.048947 0.000000
# 2 0.000687 0.024937 0.001087 0.000000 0.000150 0.000000
# 3 0.003234 0.001087 0.012423 0.000000 0.029733 0.000000
# 4 0.000000 0.000000 0.000000 -2.482292 0.000000 -1.637197
# 5 0.048947 0.000150 0.029733 0.000000 0.210367 0.000000
# 6 0.000000 0.000000 0.000000 -1.637197 0.000000 -0.983759
#
#
# Mechanical properties :
#
#
# Convention : Reuss Voigt Hill
#
# Bulk Modulus (GPa) = 14.31399 40.37032 27.34216
# Shear Modulus (GPa) = -1.57106 23.23447 10.83170
#
# Velocity S-wave (km/s) = -0.87036 3.34711 2.28535
# Velocity P-wave (km/s) = 2.42731 5.86542 4.48860
#
# Compressibility (1/GPa) = 0.06986171
#
# Stress axis : x y z
#
# Youngs Moduli (GPa) = 44.47107 40.10180 80.49483
#
# Poissons Ratio (x) = -0.02754 -0.26035
# Poissons Ratio (y) = -0.03054 -0.08747
# Poissons Ratio (z) = -0.14384 -0.04358
#
# Static dielectric constant tensor:
#      x y z
#    x 1.716760 0.000000 -0.013700 
#    y 0.000000 1.786470 0.000000 
#    z -0.013700 0.000000 1.761500 
# 
# From -- ./inp_files/249024.got.cif
#   From: 2010.05.17/outbox.cif.g08.bks.cpg/sg12_125_cif.got.tgz:249024.got - 2010.06.03 13:09:07.
