data_PCOD9178642
_publ_section_title
;
Structure prediction by ZEFSAII (Michael W. Deem and Ramdas Pophale) SiO2 
 PCOD9178642
Probable space group: C 2/M
;
_chemical_formula_sum "Si O2"
_cell_formula_units_Z 64
_cell_length_a 24.851928
_cell_length_b 7.432514
_cell_length_c 14.201211
_cell_angle_alpha 90.000000
_cell_angle_beta 114.264885
_cell_angle_gamma 90.000000
_cell_volume 2391.398042
_symmetry_space_group_name_H-M "C 2/M"
_symmetry_group_IT_number 12
_symmetry_cell_setting 'monoclinic'
loop_
_space_group_symop_operation_xyz
x,y,z
-x,y,-z
-x,-y,-z
x,-y,z
1/2+x,1/2+y,z
1/2-x,1/2+y,-z
1/2-x,1/2-y,-z
1/2+x,1/2-y,z
loop_
_atom_site_type_symbol
_atom_site_label
_atom_site_fract_x
_atom_site_fract_y
_atom_site_fract_z
Si Si1 0.877706 0.792402 0.207626
Si Si2 0.181223 0.216226 0.344448
Si Si3 0.062680 0.720456 0.503228
Si Si4 0.251978 0.285270 0.113869
Si Si5 0.624387 0.780149 0.015888
Si Si6 0.994096 0.709447 0.717648
Si Si7 0.689203 0.787280 0.575050
Si Si8 0.938034 0.707028 0.853534
O O1 0.814904 0.710745 0.192675
O O2 0.940731 0.713743 0.279619
O O3 0.879654 0.000000 0.234278
O O4 0.879258 0.778832 0.094394
O O5 0.245520 0.283015 0.352586
O O6 0.182097 0.263240 0.456553
O O7 0.124488 0.289790 0.248347
O O8 0.179303 0.000000 0.335652
O O9 0.062854 0.500000 0.507745
O O10 0.053111 0.782555 0.388732
O O11 0.128287 0.782068 0.578186
O O12 0.000000 0.780057 0.500000
O O13 0.254298 0.500000 0.128794
O O14 0.188493 0.220583 0.101813
O O15 0.250000 0.250000 0.000000
O O16 0.575538 0.715540 0.053887
O O17 0.623594 0.000000 0.012945
O O18 0.980190 0.500000 0.717941
O O19 0.984844 0.788593 0.814332
O O20 0.690837 0.000000 0.593788
O O21 0.955205 0.500000 0.883487
#
# Coordination Sequence:
#
# PCOD9178642 Si02
#       8
#     8   8   8   8   8   8   8   8
#     4  10  20  34  53  77 108 139 169 212 262 306
#     4  10  19  30  51  79 105 133 167 212 262 312
#     4   9  17  33  57  78 100 134 177 219 253 296
#     4   8  15  30  51  72  95 127 164 205 252 298
#     4   9  18  34  56  78 101 136 180 216 252 306
#     4  10  20  35  54  75 100 137 179 214 253 307
#     4   9  17  33  54  76 102 133 172 213 257 310
#     4  10  20  35  54  75 104 140 176 217 259 303
#
# _framework density 26.762588000000001
#
# number of rings (size 3 to 8) (size 9 to 14) (size 15 to 20)
#    0.000    2.625    1.250    0.750    0.000    2.500 
#    2.250    2.500    0.000    1.500    0.000    0.000 
#    0.000    0.000    0.000    0.000    0.000    0.000 
#
# Total GULP energy -178806.834672 kJ/mol
# GULP energy per Si atom -5587.713584 kJ/mol
# Density = 2.670167 g / cm^3
# Si number density = 26.762588 Si / 1000 Ang^3
#
#
#
# Elastic Constant Matrix: (Units=GPa)
#
#
# Indices 1 2 3 4 5 6 
#
# 1 151.1426 9.5066 12.5159 0.0000 28.3023 0.0000
# 2 9.5066 106.0605 0.5452 0.0000 -5.5398 0.0000
# 3 12.5159 0.5452 111.0336 0.0000 21.5920 0.0000
# 4 0.0000 0.0000 0.0000 17.3879 0.0000 -0.1253
# 5 28.3023 -5.5398 21.5920 0.0000 47.7748 0.0000
# 6 0.0000 0.0000 0.0000 -0.1253 0.0000 19.4482
#
#
#
# Elastic Compliance Matrix: (Units=1/GPa)
#
#
# Indices 1 2 3 4 5 6 
#
# 1 0.007529 -0.000915 0.000048 0.000000 -0.004588 0.000000
# 2 -0.000915 0.009605 -0.000292 0.000000 0.001788 0.000000
# 3 0.000048 -0.000292 0.009883 0.000000 -0.004529 0.000000
# 4 0.000000 0.000000 0.000000 0.057514 0.000000 0.000370
# 5 -0.004588 0.001788 -0.004529 0.000000 0.025904 0.000000
# 6 0.000000 0.000000 0.000000 0.000370 0.000000 0.051421
#
#
# Mechanical properties :
#
#
# Convention : Reuss Voigt Hill
#
# Bulk Modulus (GPa) = 40.48478 45.93023 43.20751
# Shear Modulus (GPa) = 29.00126 39.96679 34.48402
#
# Velocity S-wave (km/s) = 3.29545 3.86862 3.59348
# Velocity P-wave (km/s) = 5.44429 6.09544 5.77904
#
# Compressibility (1/GPa) = 0.02470064
#
# Stress axis : x y z
#
# Youngs Moduli (GPa) = 132.82045 104.10771 101.18370
#
# Poissons Ratio (x) = 0.09523 -0.00486
# Poissons Ratio (y) = 0.12150 0.02951
# Poissons Ratio (z) = -0.00638 0.03036
#
# Static dielectric constant tensor:
#      x y z
#    x 2.148610 0.000000 -0.025670 
#    y 0.000000 1.982130 0.000000 
#    z -0.025670 0.000000 2.117580 
# 
# From -- ./inp_files/323729.got.cif
#   From: 2010.05.17/outbox.cif.g08.bks.cpg/sg12_162_cif.got.tgz:323729.got - 2010.06.03 13:09:07.
