data_PCOD9178015
_publ_section_title
;
Structure prediction by ZEFSAII (Michael W. Deem and Ramdas Pophale) SiO2 
 PCOD9178015
Probable space group: C 2/M
;
_chemical_formula_sum "Si O2"
_cell_formula_units_Z 60
_cell_length_a 13.164347
_cell_length_b 22.977371
_cell_length_c 12.671801
_cell_angle_alpha 90.000000
_cell_angle_beta 100.799703
_cell_angle_gamma 90.000000
_cell_volume 3765.103670
_symmetry_space_group_name_H-M "C 2/M"
_symmetry_group_IT_number 12
_symmetry_cell_setting 'monoclinic'
loop_
_space_group_symop_operation_xyz
x,y,z
-x,y,-z
-x,-y,-z
x,-y,z
1/2+x,1/2+y,z
1/2-x,1/2+y,-z
1/2-x,1/2-y,-z
1/2+x,1/2-y,z
loop_
_atom_site_type_symbol
_atom_site_label
_atom_site_fract_x
_atom_site_fract_y
_atom_site_fract_z
Si Si1 0.341158 0.769467 0.096884
Si Si2 0.514847 0.665927 0.880294
Si Si3 0.786097 0.862424 0.812080
Si Si4 0.094857 0.570151 0.382917
Si Si5 0.358158 0.929634 0.373495
Si Si6 0.857650 0.431761 0.837703
Si Si7 0.500000 0.849865 0.000000
Si Si8 0.332196 0.431886 0.038041
O O1 0.406349 0.713825 0.149054
O O2 0.286363 0.807656 0.175382
O O3 0.250000 0.750000 0.000000
O O4 0.418072 0.810479 0.045822
O O5 0.401858 0.659495 0.808845
O O6 0.569647 0.603326 0.899306
O O7 0.500000 0.684531 0.000000
O O8 0.730618 0.900576 0.712842
O O9 0.797628 0.899985 0.923066
O O10 0.095162 0.500000 0.389670
O O11 0.141866 0.589484 0.503697
O O12 0.153386 0.585837 0.286891
O O13 0.973301 0.586391 0.353712
O O14 0.349453 0.000000 0.366335
O O15 0.889052 0.500000 0.845988
O O16 0.943408 0.391330 0.905963
O O17 0.756962 0.426546 0.891253
O O18 0.352259 0.500000 0.022888
#
# Coordination Sequence:
#
# PCOD9178015 Si02
#       8
#     8   8   8   8   8   8   4   8
#     4  12  19  33  47  70  99 134 170 202 248 299
#     4  10  20  34  48  69 103 134 167 204 242 301
#     4  11  20  31  51  75 101 128 170 209 246 292
#     4   8  16  30  48  69 104 140 167 202 248 302
#     4   9  17  31  49  75 103 134 171 208 249 295
#     4  10  19  30  45  74 107 134 160 199 254 310
#     4  12  19  28  48  72  97 130 162 206 254 294
#     4  10  20  32  47  73 106 131 156 197 257 306
#
# _framework density 15.935816000000001
#
# number of rings (size 3 to 8) (size 9 to 14) (size 15 to 20)
#    0.000    1.867    4.667    2.200    0.000    2.933 
#    0.000    0.000    0.000    0.800    0.000   30.800 
#    0.000    0.000    0.000    0.000    0.000    0.000 
#
# Total GULP energy -167227.185256 kJ/mol
# GULP energy per Si atom -5574.239509 kJ/mol
# Density = 1.589955 g / cm^3
# Si number density = 15.935816 Si / 1000 Ang^3
#
#
#
# Elastic Constant Matrix: (Units=GPa)
#
#
# Indices 1 2 3 4 5 6 
#
# 1 95.4861 48.3439 39.7218 0.0000 15.5512 0.0000
# 2 48.3439 75.3888 22.8441 0.0000 3.7259 0.0000
# 3 39.7218 22.8441 67.4238 0.0000 9.5795 0.0000
# 4 0.0000 0.0000 0.0000 -12.2330 0.0000 21.2479
# 5 15.5512 3.7259 9.5795 0.0000 19.9460 0.0000
# 6 0.0000 0.0000 0.0000 21.2479 0.0000 19.3739
#
#
#
# Elastic Compliance Matrix: (Units=1/GPa)
#
#
# Indices 1 2 3 4 5 6 
#
# 1 0.020378 -0.010433 -0.006965 0.000000 -0.010594 0.000000
# 2 -0.010433 0.020127 -0.001389 0.000000 0.005042 0.000000
# 3 -0.006965 -0.001389 0.019959 0.000000 -0.003896 0.000000
# 4 0.000000 0.000000 0.000000 -0.028140 0.000000 0.030862
# 5 -0.010594 0.005042 -0.003896 0.000000 0.059324 0.000000
# 6 0.000000 0.000000 0.000000 0.030862 0.000000 0.017768
#
#
# Mechanical properties :
#
#
# Convention : Reuss Voigt Hill
#
# Bulk Modulus (GPa) = 43.68951 51.12425 47.40688
# Shear Modulus (GPa) = 32.33713 13.90995 23.12354
#
# Velocity S-wave (km/s) = 4.50956 2.95765 3.81339
# Velocity P-wave (km/s) = 7.38853 6.61926 7.01445
#
# Compressibility (1/GPa) = 0.02288879
#
# Stress axis : x y z
#
# Youngs Moduli (GPa) = 49.07257 49.68493 50.10242
#
# Poissons Ratio (x) = 0.51839 0.34897
# Poissons Ratio (y) = 0.51200 0.06959
# Poissons Ratio (z) = 0.34180 0.06901
#
# Static dielectric constant tensor:
#      x y z
#    x 1.554950 0.000000 -0.020910 
#    y 0.000000 1.546300 0.000000 
#    z -0.020910 0.000000 1.520770 
# 
# From -- ./inp_files/147147.got.cif
#   From: 2010.05.17/outbox.cif.g08.bks.cpg/sg12_74_cif.got.tgz:147147.got - 2010.06.03 13:09:07.
