data_PCOD9178491
_publ_section_title
;
Structure prediction by ZEFSAII (Michael W. Deem and Ramdas Pophale) SiO2 
 PCOD9178491
Probable space group: C 2/M
;
_chemical_formula_sum "Si O2"
_cell_formula_units_Z 64
_cell_length_a 31.668701
_cell_length_b 9.207958
_cell_length_c 14.524675
_cell_angle_alpha 90.000000
_cell_angle_beta 89.659501
_cell_angle_gamma 90.000000
_cell_volume 4235.379535
_symmetry_space_group_name_H-M "C 2/M"
_symmetry_group_IT_number 12
_symmetry_cell_setting 'monoclinic'
loop_
_space_group_symop_operation_xyz
x,y,z
-x,y,-z
-x,-y,-z
x,-y,z
1/2+x,1/2+y,z
1/2-x,1/2+y,-z
1/2-x,1/2-y,-z
1/2+x,1/2-y,z
loop_
_atom_site_type_symbol
_atom_site_label
_atom_site_fract_x
_atom_site_fract_y
_atom_site_fract_z
Si Si1 0.670101 0.325512 0.780518
Si Si2 0.251540 0.825942 0.901574
Si Si3 0.793461 0.327204 0.603364
Si Si4 0.337281 0.826467 0.789434
Si Si5 0.796661 0.672556 0.392848
Si Si6 0.999284 0.666878 0.111791
Si Si7 0.913762 0.826568 0.104697
Si Si8 0.585409 0.326683 0.112865
O O1 0.671393 0.500000 0.768206
O O2 0.711227 0.284014 0.840190
O O3 0.673848 0.247800 0.682581
O O4 0.627836 0.288726 0.837111
O O5 0.294923 0.791843 0.847938
O O6 0.249708 0.000000 0.913765
O O7 0.250000 0.750000 0.000000
O O8 0.783657 0.500000 0.611428
O O9 0.826264 0.292430 0.683521
O O10 0.808818 0.299610 0.499239
O O11 0.750158 0.239789 0.618138
O O12 0.376656 0.740794 0.829473
O O13 0.344659 0.000000 0.797146
O O14 0.795394 0.500000 0.378720
O O15 0.001059 0.500000 0.142432
O O16 0.955380 0.743288 0.137856
O O17 0.040724 0.755238 0.140315
O O18 0.000000 0.667651 0.000000
O O19 0.920765 0.000000 0.111553
O O20 0.907208 0.794358 0.996142
O O21 0.583594 0.500000 0.122894
#
# Coordination Sequence:
#
# PCOD9178491 Si02
#       8
#     8   8   8   8   8   8   8   8
#     4  10  19  33  48  65  95 131 159 189 237 285
#     4  10  20  32  45  62  91 130 164 192 225 270
#     4   9  18  34  50  65  91 123 155 196 245 287
#     4  10  19  32  48  65  91 127 160 190 233 282
#     4  10  19  30  49  72  90 116 158 204 240 277
#     4   9  17  30  48  69  94 122 155 195 237 276
#     4   9  18  31  48  68  94 129 161 191 231 276
#     4  10  19  31  48  70  96 123 159 198 230 274
#
# _framework density 15.110806
#
# number of rings (size 3 to 8) (size 9 to 14) (size 15 to 20)
#    0.000    2.375    1.250    1.875    0.000    5.500 
#    0.000    0.000    0.000    0.000    0.000    0.875 
#    0.000    7.000    0.000    0.000    0.000    0.000 
#
# Total GULP energy -178453.990876 kJ/mol
# GULP energy per Si atom -5576.687215 kJ/mol
# Density = 1.507641 g / cm^3
# Si number density = 15.110806 Si / 1000 Ang^3
#
#
#
# Elastic Constant Matrix: (Units=GPa)
#
#
# Indices 1 2 3 4 5 6 
#
# 1 134.9555 63.4225 67.0233 0.0000 10.3921 0.0000
# 2 63.4225 51.8533 52.4807 0.0000 6.4792 0.0000
# 3 67.0233 52.4807 99.7209 0.0000 6.7972 0.0000
# 4 0.0000 0.0000 0.0000 24.8095 0.0000 0.2407
# 5 10.3921 6.4792 6.7972 0.0000 9.8307 0.0000
# 6 0.0000 0.0000 0.0000 0.2407 0.0000 28.5265
#
#
#
# Elastic Compliance Matrix: (Units=1/GPa)
#
#
# Indices 1 2 3 4 5 6 
#
# 1 0.017686 -0.019967 -0.001051 0.000000 -0.004809 0.000000
# 2 -0.019967 0.065398 -0.020462 0.000000 -0.007847 0.000000
# 3 -0.001051 -0.020462 0.021522 0.000000 -0.000284 0.000000
# 4 0.000000 0.000000 0.000000 0.040310 0.000000 -0.000340
# 5 -0.004809 -0.007847 -0.000284 0.000000 0.112174 0.000000
# 6 0.000000 0.000000 0.000000 -0.000340 0.000000 0.035058
#
#
# Mechanical properties :
#
#
# Convention : Reuss Voigt Hill
#
# Bulk Modulus (GPa) = 46.19909 72.48698 59.34303
# Shear Modulus (GPa) = 13.07795 19.54022 16.30908
#
# Velocity S-wave (km/s) = 2.94508 3.59991 3.28883
# Velocity P-wave (km/s) = 6.49650 8.08416 7.33342
#
# Compressibility (1/GPa) = 0.02164545
#
# Stress axis : x y z
#
# Youngs Moduli (GPa) = 56.54332 15.29107 46.46382
#
# Poissons Ratio (x) = 0.30532 0.04881
# Poissons Ratio (y) = 1.12902 0.95075
# Poissons Ratio (z) = 0.05940 0.31289
#
# Static dielectric constant tensor:
#      x y z
#    x 1.478510 0.000000 -0.002100 
#    y 0.000000 1.504780 0.000000 
#    z -0.002100 0.000000 1.493530 
# 
# From -- ./inp_files/248337.got.cif
#   From: 2010.05.17/outbox.cif.g08.bks.cpg/sg12_125_cif.got.tgz:248337.got - 2010.06.03 13:09:07.
