data_PCOD9178496
_publ_section_title
;
Structure prediction by ZEFSAII (Michael W. Deem and Ramdas Pophale) SiO2 
 PCOD9178496
Probable space group: C 2/M
;
_chemical_formula_sum "Si O2"
_cell_formula_units_Z 64
_cell_length_a 29.349121
_cell_length_b 8.874237
_cell_length_c 15.850743
_cell_angle_alpha 90.000000
_cell_angle_beta 88.424516
_cell_angle_gamma 90.000000
_cell_volume 4126.782111
_symmetry_space_group_name_H-M "C 2/M"
_symmetry_group_IT_number 12
_symmetry_cell_setting 'monoclinic'
loop_
_space_group_symop_operation_xyz
x,y,z
-x,y,-z
-x,-y,-z
x,-y,z
1/2+x,1/2+y,z
1/2-x,1/2+y,-z
1/2-x,1/2-y,-z
1/2+x,1/2-y,z
loop_
_atom_site_type_symbol
_atom_site_label
_atom_site_fract_x
_atom_site_fract_y
_atom_site_fract_z
Si Si1 0.703004 0.819099 0.402006
Si Si2 0.944992 0.173302 0.014184
Si Si3 0.558209 0.318494 0.172650
Si Si4 0.602065 0.818189 0.648884
Si Si5 0.201830 0.319210 0.599240
Si Si6 0.957695 0.679392 0.185317
Si Si7 0.553711 0.320147 0.488055
Si Si8 0.107259 0.681296 0.328835
O O1 0.751231 0.751972 0.371476
O O2 0.696149 0.774717 0.500736
O O3 0.658759 0.773309 0.351306
O O4 0.705637 0.000000 0.399800
O O5 0.927554 0.225601 0.923666
O O6 0.931109 0.000000 0.029442
O O7 0.935980 0.270682 0.097321
O O8 0.000000 0.173327 0.000000
O O9 0.557503 0.500000 0.175942
O O10 0.506834 0.258981 0.190662
O O11 0.590466 0.251033 0.242255
O O12 0.655408 0.776228 0.648790
O O13 0.574417 0.779730 0.734578
O O14 0.579242 0.740910 0.569358
O O15 0.599827 0.000000 0.637338
O O16 0.206115 0.500000 0.601622
O O17 0.964734 0.500000 0.185306
O O18 0.500000 0.288127 0.500000
O O19 0.559647 0.500000 0.480198
O O20 0.574586 0.240417 0.405008
O O21 0.104924 0.500000 0.325816
#
# Coordination Sequence:
#
# PCOD9178496 Si02
#       8
#     8   8   8   8   8   8   8   8
#     4   9  18  32  49  69  91 118 154 196 239 280
#     4   8  16  31  48  66  94 127 156 196 241 277
#     4  10  20  33  48  69  98 129 162 197 235 280
#     4  10  20  34  48  68  96 127 159 193 236 280
#     4   9  17  32  50  67  91 121 154 194 237 281
#     4  10  19  30  49  73  97 127 162 197 234 280
#     4  11  23  34  45  65  94 129 166 197 225 270
#     4  11  21  34  50  69  95 126 158 196 239 282
#
# _framework density 15.508452
#
# number of rings (size 3 to 8) (size 9 to 14) (size 15 to 20)
#    0.000    2.250    1.250    3.000    0.000    8.250 
#    0.000    0.000    0.000    0.000    0.000    0.875 
#    0.000    0.000    0.000    0.000    0.000    0.000 
#
# Total GULP energy -178460.538743 kJ/mol
# GULP energy per Si atom -5576.891836 kJ/mol
# Density = 1.547315 g / cm^3
# Si number density = 15.508452 Si / 1000 Ang^3
#
#
#
# Elastic Constant Matrix: (Units=GPa)
#
#
# Indices 1 2 3 4 5 6 
#
# 1 94.7211 28.0230 41.0723 0.0000 20.6860 0.0000
# 2 28.0230 28.5419 27.7780 0.0000 10.0377 0.0000
# 3 41.0723 27.7780 92.7225 0.0000 27.6021 0.0000
# 4 0.0000 0.0000 0.0000 26.3069 0.0000 4.1626
# 5 20.6860 10.0377 27.6021 0.0000 13.7440 0.0000
# 6 0.0000 0.0000 0.0000 4.1626 0.0000 21.2519
#
#
#
# Elastic Compliance Matrix: (Units=1/GPa)
#
#
# Indices 1 2 3 4 5 6 
#
# 1 0.018193 -0.012044 0.002691 0.000000 -0.023990 0.000000
# 2 -0.012044 0.058853 -0.012178 0.000000 -0.000398 0.000000
# 3 0.002691 -0.012178 0.029340 0.000000 -0.054079 0.000000
# 4 0.000000 0.000000 0.000000 0.039229 0.000000 -0.007684
# 5 -0.023990 -0.000398 -0.054079 0.000000 0.217764 0.000000
# 6 0.000000 0.000000 0.000000 -0.007684 0.000000 0.048560
#
#
# Mechanical properties :
#
#
# Convention : Reuss Voigt Hill
#
# Bulk Modulus (GPa) = 15.79182 45.52579 30.65880
# Shear Modulus (GPa) = 10.50183 20.20138 15.35160
#
# Velocity S-wave (km/s) = 2.60507 3.61308 3.14966
# Velocity P-wave (km/s) = 4.38786 6.84288 5.74797
#
# Compressibility (1/GPa) = 0.06332392
#
# Stress axis : x y z
#
# Youngs Moduli (GPa) = 54.96683 16.99137 34.08352
#
# Poissons Ratio (x) = 0.20465 -0.09172
# Poissons Ratio (y) = 0.66203 0.41506
# Poissons Ratio (z) = -0.14791 0.20692
#
# Static dielectric constant tensor:
#      x y z
#    x 1.503950 0.000000 0.004450 
#    y 0.000000 1.520850 0.000000 
#    z 0.004450 0.000000 1.513950 
# 
# From -- ./inp_files/244027.got.cif
#   From: 2010.05.17/outbox.cif.g08.bks.cpg/sg12_123_cif.got.tgz:244027.got - 2010.06.03 13:09:07.
