data_PCOD9178631
_publ_section_title
;
Structure prediction by ZEFSAII (Michael W. Deem and Ramdas Pophale) SiO2 
 PCOD9178631
Probable space group: C 2/M
;
_chemical_formula_sum "Si O2"
_cell_formula_units_Z 48
_cell_length_a 14.761794
_cell_length_b 30.601077
_cell_length_c 11.281640
_cell_angle_alpha 90.000000
_cell_angle_beta 146.728627
_cell_angle_gamma 90.000000
_cell_volume 2795.812034
_symmetry_space_group_name_H-M "C 2/M"
_symmetry_group_IT_number 12
_symmetry_cell_setting 'monoclinic'
loop_
_space_group_symop_operation_xyz
x,y,z
-x,y,-z
-x,-y,-z
x,-y,z
1/2+x,1/2+y,z
1/2-x,1/2+y,-z
1/2-x,1/2-y,-z
1/2+x,1/2-y,z
loop_
_atom_site_type_symbol
_atom_site_label
_atom_site_fract_x
_atom_site_fract_y
_atom_site_fract_z
Si Si1 0.311752 0.316685 0.493521
Si Si2 0.846924 0.134729 0.178555
Si Si3 0.825956 0.291723 0.152394
Si Si4 0.822704 0.394507 0.762562
Si Si5 0.714987 0.777759 0.623896
Si Si6 0.472189 0.548976 0.612178
O O1 0.485760 0.336284 0.640017
O O2 0.176137 0.354206 0.326825
O O3 0.261550 0.274121 0.364692
O O4 0.321814 0.301855 0.640885
O O5 0.770815 0.125449 0.224424
O O6 0.907350 0.086363 0.204228
O O7 0.722317 0.163338 0.964921
O O8 0.757614 0.291643 0.211797
O O9 0.022978 0.285795 0.379210
O O10 0.750000 0.250000 0.000000
O O11 0.713062 0.432269 0.583898
O O12 0.000000 0.409402 0.000000
O O13 0.500000 0.547561 0.500000
O O14 0.493405 0.500000 0.681680
#
# Coordination Sequence:
#
# PCOD9178631 Si02
#       6
#     8   8   8   8   8   8
#     4  10  19  34  45  70  98 135 176 207 247 297
#     4  10  19  32  52  71 101 138 167 210 257 301
#     4  11  20  33  49  70 100 138 170 211 253 295
#     4  10  19  30  51  74 102 135 165 208 262 307
#     4  10  22  32  48  70  99 135 178 212 243 294
#     4   8  16  31  51  75 101 129 165 207 258 314
#
# _framework density 17.168537000000001
#
# number of rings (size 3 to 8) (size 9 to 14) (size 15 to 20)
#    0.000    2.167    1.667    3.500    2.333    1.000 
#    0.000    0.000    0.000    0.000    0.000   11.667 
#    0.000    0.000    0.000    0.333    0.000    0.000 
#
# Total GULP energy -133777.195406 kJ/mol
# GULP energy per Si atom -5574.049809 kJ/mol
# Density = 1.712946 g / cm^3
# Si number density = 17.168537 Si / 1000 Ang^3
#
#
#
# Elastic Constant Matrix: (Units=GPa)
#
#
# Indices 1 2 3 4 5 6 
#
# 1 61.9458 14.2216 1.4583 0.0000 -3.3680 0.0000
# 2 14.2216 131.4580 29.6042 0.0000 -6.7382 0.0000
# 3 1.4583 29.6042 55.1988 0.0000 -2.1154 0.0000
# 4 0.0000 0.0000 0.0000 17.5612 0.0000 -4.3288
# 5 -3.3680 -6.7382 -2.1154 0.0000 19.7944 0.0000
# 6 0.0000 0.0000 0.0000 -4.3288 0.0000 12.3415
#
#
#
# Elastic Compliance Matrix: (Units=1/GPa)
#
#
# Indices 1 2 3 4 5 6 
#
# 1 0.016672 -0.001828 0.000627 0.000000 0.002281 0.000000
# 2 -0.001828 0.008973 -0.004678 0.000000 0.002244 0.000000
# 3 0.000627 -0.004678 0.020636 0.000000 0.000720 0.000000
# 4 0.000000 0.000000 0.000000 0.062333 0.000000 0.021864
# 5 0.002281 0.002244 0.000720 0.000000 0.051748 0.000000
# 6 0.000000 0.000000 0.000000 0.021864 0.000000 0.088697
#
#
# Mechanical properties :
#
#
# Convention : Reuss Voigt Hill
#
# Bulk Modulus (GPa) = 28.96538 37.68564 33.32551
# Shear Modulus (GPa) = 18.36037 23.49397 20.92717
#
# Velocity S-wave (km/s) = 3.27375 3.70324 3.49510
# Velocity P-wave (km/s) = 5.58549 6.34692 5.97834
#
# Compressibility (1/GPa) = 0.03452398
#
# Stress axis : x y z
#
# Youngs Moduli (GPa) = 59.98046 111.44180 48.45803
#
# Poissons Ratio (x) = 0.20371 -0.03040
# Poissons Ratio (y) = 0.10964 0.22670
# Poissons Ratio (z) = -0.03763 0.52136
#
# Static dielectric constant tensor:
#      x y z
#    x 1.611970 0.000000 0.028890 
#    y 0.000000 1.587980 0.000000 
#    z 0.028890 0.000000 1.618200 
# 
# From -- ./inp_files/68382.got.cif
#   From: 2010.05.17/outbox.cif.g08.bks.cpg/sg12_35_cif.got.tgz:68382.got - 2010.06.03 13:09:07.
