data_PCOD9178259
_publ_section_title
;
Structure prediction by ZEFSAII (Michael W. Deem and Ramdas Pophale) SiO2 
 PCOD9178259
Probable space group: C 2/M
;
_chemical_formula_sum "Si O2"
_cell_formula_units_Z 64
_cell_length_a 17.104682
_cell_length_b 14.040401
_cell_length_c 15.672687
_cell_angle_alpha 90.000000
_cell_angle_beta 93.062684
_cell_angle_gamma 90.000000
_cell_volume 3758.523078
_symmetry_space_group_name_H-M "C 2/M"
_symmetry_group_IT_number 12
_symmetry_cell_setting 'monoclinic'
loop_
_space_group_symop_operation_xyz
x,y,z
-x,y,-z
-x,-y,-z
x,-y,z
1/2+x,1/2+y,z
1/2-x,1/2+y,-z
1/2-x,1/2-y,-z
1/2+x,1/2-y,z
loop_
_atom_site_type_symbol
_atom_site_label
_atom_site_fract_x
_atom_site_fract_y
_atom_site_fract_z
Si Si1 0.998914 0.388803 0.136262
Si Si2 0.057704 0.787231 0.426727
Si Si3 0.823533 0.386208 0.872895
Si Si4 0.370503 0.890884 0.474268
Si Si5 0.167685 0.386040 0.932368
Si Si6 0.939452 0.690780 0.306426
Si Si7 0.774024 0.269114 0.223579
Si Si8 0.708394 0.389175 0.374859
O O1 0.005739 0.500000 0.115269
O O2 0.923874 0.353478 0.078191
O O3 0.972584 0.372893 0.232132
O O4 0.086450 0.350718 0.130351
O O5 0.097355 0.687493 0.458967
O O6 0.126456 0.859912 0.410947
O O7 0.000000 0.817145 0.500000
O O8 0.004210 0.764446 0.342319
O O9 0.820837 0.500000 0.855911
O O10 0.768356 0.327072 0.807173
O O11 0.801133 0.370627 0.970658
O O12 0.414866 0.871527 0.387155
O O13 0.279348 0.874918 0.446289
O O14 0.382637 0.000000 0.502282
O O15 0.168046 0.500000 0.915810
O O16 0.214175 0.333063 0.860581
O O17 0.860954 0.741657 0.267960
O O18 0.725835 0.324814 0.293307
O O19 0.710709 0.500000 0.350568
#
# Coordination Sequence:
#
# PCOD9178259 Si02
#       8
#     8   8   8   8   8   8   8   8
#     4   9  16  27  45  70  99 126 155 194 239 285
#     4  10  20  33  50  72  98 126 157 195 238 284
#     4  10  19  30  47  72 101 129 156 192 240 288
#     4   9  18  32  52  76  99 123 153 194 241 285
#     4   9  17  30  49  73  97 124 159 197 239 283
#     4   9  18  30  47  70  97 129 163 195 229 274
#     4  10  19  33  50  69  96 128 163 199 233 276
#     4  10  20  35  53  71  93 124 162 200 235 277
#
# _framework density 17.027964999999998
#
# number of rings (size 3 to 8) (size 9 to 14) (size 15 to 20)
#    0.000    2.500    0.000    2.625    0.000    7.500 
#    0.000    1.250    0.000    4.500    0.000    0.000 
#    0.000   13.000    0.000    0.000    0.000    0.000 
#
# Total GULP energy -178384.975284 kJ/mol
# GULP energy per Si atom -5574.530478 kJ/mol
# Density = 1.698921 g / cm^3
# Si number density = 17.027965 Si / 1000 Ang^3
#
#
#
# Elastic Constant Matrix: (Units=GPa)
#
#
# Indices 1 2 3 4 5 6 
#
# 1 80.0793 27.3645 24.5954 0.0000 -2.7998 0.0000
# 2 27.3645 41.2112 31.9638 0.0000 7.7526 0.0000
# 3 24.5954 31.9638 55.6334 0.0000 11.9957 0.0000
# 4 0.0000 0.0000 0.0000 21.0784 0.0000 0.5138
# 5 -2.7998 7.7526 11.9957 0.0000 15.2267 0.0000
# 6 0.0000 0.0000 0.0000 0.5138 0.0000 20.7192
#
#
#
# Elastic Compliance Matrix: (Units=1/GPa)
#
#
# Indices 1 2 3 4 5 6 
#
# 1 0.017962 -0.010866 -0.004341 0.000000 0.012254 0.000000
# 2 -0.010866 0.050456 -0.021943 0.000000 -0.010400 0.000000
# 3 -0.004341 -0.021943 0.036457 0.000000 -0.018347 0.000000
# 4 0.000000 0.000000 0.000000 0.047471 0.000000 -0.001177
# 5 0.012254 -0.010400 -0.018347 0.000000 0.087676 0.000000
# 6 0.000000 0.000000 0.000000 -0.001177 0.000000 0.048294
#
#
# Mechanical properties :
#
#
# Convention : Reuss Voigt Hill
#
# Bulk Modulus (GPa) = 32.70465 38.30794 35.50630
# Shear Modulus (GPa) = 13.41182 17.60489 15.50836
#
# Velocity S-wave (km/s) = 2.80953 3.21889 3.02115
# Velocity P-wave (km/s) = 5.45644 6.03000 5.75038
#
# Compressibility (1/GPa) = 0.03057669
#
# Stress axis : x y z
#
# Youngs Moduli (GPa) = 55.67236 19.81936 27.42975
#
# Poissons Ratio (x) = 0.21535 0.11906
# Poissons Ratio (y) = 0.60492 0.60188
# Poissons Ratio (z) = 0.24165 0.43489
#
# Static dielectric constant tensor:
#      x y z
#    x 1.599120 0.000000 0.003750 
#    y 0.000000 1.551850 0.000000 
#    z 0.003750 0.000000 1.582320 
# 
# From -- ./inp_files/224840.got.cif
#   From: 2010.05.17/outbox.cif.g08.bks.cpg/sg12_113_cif.got.tgz:224840.got - 2010.06.03 13:09:07.
