data_PCOD9178188
_publ_section_title
;
Structure prediction by ZEFSAII (Michael W. Deem and Ramdas Pophale) SiO2 
 PCOD9178188
Probable space group: C 2/M
;
_chemical_formula_sum "Si O2"
_cell_formula_units_Z 64
_cell_length_a 21.764567
_cell_length_b 9.810888
_cell_length_c 15.418588
_cell_angle_alpha 90.000000
_cell_angle_beta 64.074967
_cell_angle_gamma 90.000000
_cell_volume 2961.009694
_symmetry_space_group_name_H-M "C 2/M"
_symmetry_group_IT_number 12
_symmetry_cell_setting 'monoclinic'
loop_
_space_group_symop_operation_xyz
x,y,z
-x,y,-z
-x,-y,-z
x,-y,z
1/2+x,1/2+y,z
1/2-x,1/2+y,-z
1/2-x,1/2-y,-z
1/2+x,1/2-y,z
loop_
_atom_site_type_symbol
_atom_site_label
_atom_site_fract_x
_atom_site_fract_y
_atom_site_fract_z
Si Si1 0.485867 0.657059 0.672444
Si Si2 0.449467 0.152335 0.954732
Si Si3 0.168437 0.848141 0.772120
Si Si4 0.565859 0.846522 0.742472
Si Si5 0.782612 0.345754 0.551697
Si Si6 0.604066 0.842564 0.386020
Si Si7 0.867022 0.845417 0.895211
Si Si8 0.718050 0.846962 0.162148
O O1 0.504110 0.500000 0.641962
O O2 0.547330 0.746161 0.674976
O O3 0.453159 0.739137 0.612295
O O4 0.426962 0.652242 0.784153
O O5 0.496871 0.139320 0.840648
O O6 0.394094 0.260826 0.960259
O O7 0.423543 0.000000 0.993042
O O8 0.500000 0.197653 0.000000
O O9 0.118092 0.729679 0.773958
O O10 0.226697 0.851828 0.662545
O O11 0.210247 0.825369 0.834319
O O12 0.135718 0.000000 0.794770
O O13 0.587172 0.000000 0.704469
O O14 0.791709 0.500000 0.513143
O O15 0.750000 0.250000 0.500000
O O16 0.853436 0.302500 0.554298
O O17 0.660534 0.844314 0.273802
O O18 0.580203 0.000000 0.409742
O O19 0.804077 0.766869 0.891300
O O20 0.851667 0.000000 0.927442
O O21 0.715111 0.000000 0.126815
#
# Coordination Sequence:
#
# PCOD9178188 Si02
#       8
#     8   8   8   8   8   8   8   8
#     4   9  16  26  42  65  91 118 148 185 228 270
#     4   9  18  32  48  66  91 123 155 186 225 275
#     4   9  18  32  48  68  95 125 154 186 227 272
#     4  10  19  30  47  70  93 120 153 189 229 271
#     4   9  18  31  48  70  96 125 154 186 226 271
#     4   8  14  26  43  64  89 116 149 187 223 262
#     4   9  16  25  41  67  93 114 144 189 231 264
#     4   8  14  26  44  63  86 118 151 182 221 268
#
# _framework density 21.614249999999998
#
# number of rings (size 3 to 8) (size 9 to 14) (size 15 to 20)
#    0.000    3.125    0.000    2.625    0.000    5.250 
#    0.000    2.500    0.000    1.500    0.000    5.250 
#    0.000    0.000    0.000    0.000    0.000    0.000 
#
# Total GULP energy -178611.802504 kJ/mol
# GULP energy per Si atom -5581.618828 kJ/mol
# Density = 2.156505 g / cm^3
# Si number density = 21.614250 Si / 1000 Ang^3
#
#
#
# Elastic Constant Matrix: (Units=GPa)
#
#
# Indices 1 2 3 4 5 6 
#
# 1 91.0034 110.1404 19.1896 0.0000 44.3538 0.0000
# 2 110.1404 195.9401 31.3920 0.0000 54.9737 0.0000
# 3 19.1896 31.3920 58.5716 0.0000 6.6368 0.0000
# 4 0.0000 0.0000 0.0000 -0.3798 0.0000 -4.8505
# 5 44.3538 54.9737 6.6368 0.0000 47.8490 0.0000
# 6 0.0000 0.0000 0.0000 -4.8505 0.0000 -8.7298
#
#
#
# Elastic Compliance Matrix: (Units=1/GPa)
#
#
# Indices 1 2 3 4 5 6 
#
# 1 0.042737 -0.018698 -0.001956 0.000000 -0.017861 0.000000
# 2 -0.018698 0.016312 -0.002496 0.000000 -0.001062 0.000000
# 3 -0.001956 -0.002496 0.018817 0.000000 0.002071 0.000000
# 4 0.000000 0.000000 0.000000 0.431934 0.000000 -0.239992
# 5 -0.017861 -0.001062 0.002071 0.000000 0.038389 0.000000
# 6 0.000000 0.000000 0.000000 -0.239992 0.000000 0.018794
#
#
# Mechanical properties :
#
#
# Convention : Reuss Voigt Hill
#
# Bulk Modulus (GPa) = 31.68113 74.10659 52.89386
# Shear Modulus (GPa) = 8.01531 20.06739 14.04135
#
# Velocity S-wave (km/s) = 1.92780 3.05033 2.55156
# Velocity P-wave (km/s) = 4.43222 6.83860 5.76242
#
# Compressibility (1/GPa) = 0.03156453
#
# Stress axis : x y z
#
# Youngs Moduli (GPa) = 23.39908 61.30424 53.14273
#
# Poissons Ratio (x) = 1.14628 0.10397
# Poissons Ratio (y) = 0.43752 0.13266
# Poissons Ratio (z) = 0.04578 0.15303
#
# Static dielectric constant tensor:
#      x y z
#    x 1.781200 0.000000 -0.044600 
#    y 0.000000 1.770810 0.000000 
#    z -0.044600 0.000000 1.834760 
# 
# From -- ./inp_files/287532.got.cif
#   From: 2010.05.17/outbox.cif.g08.bks.cpg/sg12_144_cif.got.tgz:287532.got - 2010.06.03 13:09:07.
