data_PCOD9178710
_publ_section_title
;
Structure prediction by ZEFSAII (Michael W. Deem and Ramdas Pophale) SiO2 
 PCOD9178710
Probable space group: C 2/M
;
_chemical_formula_sum "Si O2"
_cell_formula_units_Z 56
_cell_length_a 31.885454
_cell_length_b 13.739621
_cell_length_c 11.979186
_cell_angle_alpha 90.000000
_cell_angle_beta 145.062003
_cell_angle_gamma 90.000000
_cell_volume 3005.481096
_symmetry_space_group_name_H-M "C 2/M"
_symmetry_group_IT_number 12
_symmetry_cell_setting 'monoclinic'
loop_
_space_group_symop_operation_xyz
x,y,z
-x,y,-z
-x,-y,-z
x,-y,z
1/2+x,1/2+y,z
1/2-x,1/2+y,-z
1/2-x,1/2-y,-z
1/2+x,1/2-y,z
loop_
_atom_site_type_symbol
_atom_site_label
_atom_site_fract_x
_atom_site_fract_y
_atom_site_fract_z
Si Si1 0.951960 0.615154 0.175946
Si Si2 0.701707 0.809387 0.762744
Si Si3 0.135819 0.309696 0.228458
Si Si4 0.799301 0.110383 0.593445
Si Si5 0.902596 0.387974 0.628805
Si Si6 0.666619 0.182628 0.934897
Si Si7 0.305153 0.605974 0.340689
O O1 0.946642 0.500000 0.187939
O O2 0.035609 0.637419 0.327155
O O3 0.907007 0.642245 0.966240
O O4 0.913991 0.674233 0.192904
O O5 0.674682 0.873997 0.602121
O O6 0.788454 0.784615 0.955958
O O7 0.667194 0.701784 0.662599
O O8 0.675723 0.846010 0.825875
O O9 0.155473 0.196809 0.250296
O O10 0.213523 0.363703 0.416541
O O11 0.093467 0.323447 0.252256
O O12 0.815333 0.116641 0.495225
O O13 0.813472 0.000000 0.661229
O O14 0.913676 0.500000 0.686222
O O15 0.718212 0.113083 0.123384
O O16 0.332584 0.500000 0.365262
#
# Coordination Sequence:
#
# PCOD9178710 Si02
#       7
#     8   8   8   8   8   8   8
#     4  11  22  35  55  79 108 150 184 212 264 334
#     4   9  19  35  51  79 108 134 176 225 272 305
#     4  11  19  34  53  77 115 139 176 225 267 316
#     4  10  19  30  55  84 105 138 181 225 269 314
#     4  11  23  35  50  80 115 145 176 216 275 328
#     4   9  18  34  53  76 108 132 180 221 260 315
#     4   9  15  30  54  78 102 129 175 219 256 315
#
# _framework density 18.632625000000001
#
# number of rings (size 3 to 8) (size 9 to 14) (size 15 to 20)
#    0.857    1.143    2.857    2.143    2.000    2.857 
#    0.000    1.429    0.000    3.429    0.000    1.000 
#    0.000    0.000    0.000    0.000    0.000    0.000 
#
# Total GULP energy -155925.126343 kJ/mol
# GULP energy per Si atom -5568.754512 kJ/mol
# Density = 1.859022 g / cm^3
# Si number density = 18.632625 Si / 1000 Ang^3
#
#
#
# Elastic Constant Matrix: (Units=GPa)
#
#
# Indices 1 2 3 4 5 6 
#
# 1 62.7972 16.8470 0.3801 0.0000 0.3308 0.0000
# 2 16.8470 58.2991 -2.0133 0.0000 14.2897 0.0000
# 3 0.3801 -2.0133 19.0572 0.0000 -0.5166 0.0000
# 4 0.0000 0.0000 0.0000 9.1692 0.0000 6.8584
# 5 0.3308 14.2897 -0.5166 0.0000 14.5008 0.0000
# 6 0.0000 0.0000 0.0000 6.8584 0.0000 17.3327
#
#
#
# Elastic Compliance Matrix: (Units=1/GPa)
#
#
# Indices 1 2 3 4 5 6 
#
# 1 0.017678 -0.006635 -0.000888 0.000000 0.006104 0.000000
# 2 -0.006635 0.025167 0.002125 0.000000 -0.024573 0.000000
# 3 -0.000888 0.002125 0.052711 0.000000 -0.000196 0.000000
# 4 0.000000 0.000000 0.000000 0.154909 0.000000 -0.061296
# 5 0.006104 -0.024573 -0.000196 0.000000 0.093031 0.000000
# 6 0.000000 0.000000 0.000000 -0.061296 0.000000 0.081948
#
#
# Mechanical properties :
#
#
# Convention : Reuss Voigt Hill
#
# Bulk Modulus (GPa) = 11.79821 18.95343 15.37582
# Shear Modulus (GPa) = 10.76444 16.52985 13.64715
#
# Velocity S-wave (km/s) = 2.40619 2.98173 2.70929
# Velocity P-wave (km/s) = 3.75039 4.69559 4.24935
#
# Compressibility (1/GPa) = 0.08475862
#
# Stress axis : x y z
#
# Youngs Moduli (GPa) = 56.56895 39.73479 18.97151
#
# Poissons Ratio (x) = 0.26364 0.01685
# Poissons Ratio (y) = 0.37534 -0.04031
# Poissons Ratio (z) = 0.05024 -0.08443
#
# Static dielectric constant tensor:
#      x y z
#    x 1.677780 0.000000 0.015720 
#    y 0.000000 1.667730 0.000000 
#    z 0.015720 0.000000 1.641330 
# 
# From -- ./inp_files/189260.got.cif
#   From: 2010.05.17/outbox.cif.g08.bks.cpg/sg12_95_cif.got.tgz:189260.got - 2010.06.03 13:09:07.
