data_PCOD9178099
_publ_section_title
;
Structure prediction by ZEFSAII (Michael W. Deem and Ramdas Pophale) SiO2 
 PCOD9178099
Probable space group: C 2/M
;
_chemical_formula_sum "Si O2"
_cell_formula_units_Z 64
_cell_length_a 23.207232
_cell_length_b 7.733198
_cell_length_c 18.545114
_cell_angle_alpha 90.000000
_cell_angle_beta 81.090939
_cell_angle_gamma 90.000000
_cell_volume 3288.065974
_symmetry_space_group_name_H-M "C 2/M"
_symmetry_group_IT_number 12
_symmetry_cell_setting 'monoclinic'
loop_
_space_group_symop_operation_xyz
x,y,z
-x,y,-z
-x,-y,-z
x,-y,z
1/2+x,1/2+y,z
1/2-x,1/2+y,-z
1/2-x,1/2-y,-z
1/2+x,1/2-y,z
loop_
_atom_site_type_symbol
_atom_site_label
_atom_site_fract_x
_atom_site_fract_y
_atom_site_fract_z
Si Si1 0.333061 0.798921 0.047556
Si Si2 0.624261 0.298895 0.393481
Si Si3 0.302108 0.211243 0.903822
Si Si4 0.816938 0.793169 0.472055
Si Si5 0.900750 0.702433 0.333315
Si Si6 0.001204 0.700939 0.580700
Si Si7 0.709655 0.205888 0.252218
Si Si8 0.845196 0.290548 0.201209
O O1 0.263033 0.784725 0.072463
O O2 0.357572 0.723618 0.117621
O O3 0.350267 0.000000 0.041975
O O4 0.340679 0.729657 0.964661
O O5 0.610474 0.500000 0.405405
O O6 0.645437 0.229343 0.466793
O O7 0.565023 0.209995 0.379404
O O8 0.676202 0.282810 0.326369
O O9 0.318574 0.259578 0.819211
O O10 0.297997 0.000000 0.907400
O O11 0.750000 0.750000 0.500000
O O12 0.843109 0.716796 0.393962
O O13 0.822391 0.000000 0.466644
O O14 0.914296 0.500000 0.319255
O O15 0.952779 0.779038 0.371975
O O16 0.886135 0.775950 0.257504
O O17 0.018731 0.500000 0.568656
O O18 0.000000 0.777695 0.500000
O O19 0.778082 0.249977 0.234432
O O20 0.704790 0.000000 0.259183
O O21 0.849204 0.500000 0.197948
#
# Coordination Sequence:
#
# PCOD9178099 Si02
#       8
#     8   8   8   8   8   8   8   8
#     4   8  13  23  40  62  91 125 154 181 220 268
#     4  11  23  36  50  69  93 121 156 197 237 276
#     4   8  14  24  39  62  91 123 156 186 218 264
#     4  11  23  35  49  69  94 124 155 187 228 277
#     4  10  20  34  51  71  94 120 154 192 232 277
#     4  10  20  36  56  72  88 117 155 197 240 280
#     4  10  19  30  46  69  98 128 158 192 229 274
#     4   9  17  29  46  70 100 128 153 187 230 277
#
# _framework density 19.464327999999998
#
# number of rings (size 3 to 8) (size 9 to 14) (size 15 to 20)
#    0.000    2.375    1.250    1.875    0.000    6.250 
#    0.000    0.000    0.000    0.000    0.000    0.875 
#    0.000    7.000    0.000    0.000    0.000    0.000 
#
# Total GULP energy -178343.840403 kJ/mol
# GULP energy per Si atom -5573.245013 kJ/mol
# Density = 1.942003 g / cm^3
# Si number density = 19.464328 Si / 1000 Ang^3
#
#
#
# Elastic Constant Matrix: (Units=GPa)
#
#
# Indices 1 2 3 4 5 6 
#
# 1 58.0117 0.8015 19.6042 0.0000 30.2188 0.0000
# 2 0.8015 37.5352 8.3430 0.0000 3.7400 0.0000
# 3 19.6042 8.3430 122.0153 0.0000 48.0788 0.0000
# 4 0.0000 0.0000 0.0000 7.0819 0.0000 -0.3760
# 5 30.2188 3.7400 48.0788 0.0000 32.8938 0.0000
# 6 0.0000 0.0000 0.0000 -0.3760 0.0000 12.4758
#
#
#
# Elastic Compliance Matrix: (Units=1/GPa)
#
#
# Indices 1 2 3 4 5 6 
#
# 1 0.053924 0.001851 0.025498 0.000000 -0.087018 0.000000
# 2 0.001851 0.027127 -0.000629 0.000000 -0.003866 0.000000
# 3 0.025498 -0.000629 0.031467 0.000000 -0.069346 0.000000
# 4 0.000000 0.000000 0.000000 0.141432 0.000000 0.004263
# 5 -0.087018 -0.003866 -0.069346 0.000000 0.212141 0.000000
# 6 0.000000 0.000000 0.000000 0.004263 0.000000 0.080284
#
#
# Mechanical properties :
#
#
# Convention : Reuss Voigt Hill
#
# Bulk Modulus (GPa) = 6.02558 30.56218 18.29388
# Shear Modulus (GPa) = 9.11986 23.07787 16.09886
#
# Velocity S-wave (km/s) = 2.16693 3.44706 2.87905
# Velocity P-wave (km/s) = 3.05994 5.61949 4.52448
#
# Compressibility (1/GPa) = 0.16595907
#
# Stress axis : x y z
#
# Youngs Moduli (GPa) = 18.54453 36.86345 31.77924
#
# Poissons Ratio (x) = -0.06825 -0.81031
# Poissons Ratio (y) = -0.03433 0.01999
# Poissons Ratio (z) = -0.47285 0.02319
#
# Static dielectric constant tensor:
#      x y z
#    x 1.663730 0.000000 0.051230 
#    y 0.000000 1.716830 0.000000 
#    z 0.051230 0.000000 1.752670 
# 
# From -- ./inp_files/287620.got.cif
#   From: 2010.05.17/outbox.cif.g08.bks.cpg/sg12_144_cif.got.tgz:287620.got - 2010.06.03 13:09:07.
