data_PCOD9178789
_publ_section_title
;
Structure prediction by ZEFSAII (Michael W. Deem and Ramdas Pophale) SiO2 
 PCOD9178789
Probable space group: C 2/M
;
_chemical_formula_sum "Si O2"
_cell_formula_units_Z 56
_cell_length_a 8.436004
_cell_length_b 29.613379
_cell_length_c 13.699504
_cell_angle_alpha 90.000000
_cell_angle_beta 66.322408
_cell_angle_gamma 90.000000
_cell_volume 3134.292889
_symmetry_space_group_name_H-M "C 2/M"
_symmetry_group_IT_number 12
_symmetry_cell_setting 'monoclinic'
loop_
_space_group_symop_operation_xyz
x,y,z
-x,y,-z
-x,-y,-z
x,-y,z
1/2+x,1/2+y,z
1/2-x,1/2+y,-z
1/2-x,1/2-y,-z
1/2+x,1/2-y,z
loop_
_atom_site_type_symbol
_atom_site_label
_atom_site_fract_x
_atom_site_fract_y
_atom_site_fract_z
Si Si1 0.149897 0.213257 0.881073
Si Si2 0.352496 0.852078 0.962210
Si Si3 0.925174 0.725555 0.423187
Si Si4 0.051630 0.144468 0.193389
Si Si5 0.205542 0.549279 0.061896
Si Si6 0.267126 0.708165 0.716697
Si Si7 0.984767 0.048599 0.167353
O O1 0.305180 0.185546 0.894153
O O2 0.198420 0.261019 0.822934
O O3 0.085982 0.182054 0.806728
O O4 0.000000 0.218454 0.000000
O O5 0.394891 0.903075 0.914882
O O6 0.500000 0.837560 0.000000
O O7 0.176431 0.857570 0.067954
O O8 0.750000 0.750000 0.500000
O O9 0.870359 0.701767 0.336058
O O10 0.000000 0.699754 0.500000
O O11 0.069159 0.763029 0.362520
O O12 0.162313 0.162263 0.255773
O O13 0.977211 0.094858 0.228226
O O14 0.113913 0.500000 0.087241
O O15 0.335762 0.551219 0.121721
O O16 0.333109 0.548092 0.936594
O O17 0.967897 0.000000 0.222218
#
# Coordination Sequence:
#
# PCOD9178789 Si02
#       7
#     8   8   8   8   8   8   8
#     4  10  21  34  45  65 104 142 176 196 225 287
#     4  10  20  28  40  62  97 132 170 211 232 275
#     4   9  20  37  55  73  93 121 161 210 254 295
#     4  10  19  31  46  67  95 131 171 197 239 290
#     4   8  13  24  42  58  79 120 172 214 249 270
#     4  11  20  34  53  72  98 136 159 200 249 291
#     4   8  13  25  45  63  83 121 167 208 240 277
#
# _framework density 17.866869000000001
#
# number of rings (size 3 to 8) (size 9 to 14) (size 15 to 20)
#    0.000    2.571    2.857    0.857    2.000    3.143 
#    0.000    0.000    0.000    0.000    0.000    0.000 
#    0.000    5.714    0.000    1.143    0.000    0.714 
#
# Total GULP energy -155982.224038 kJ/mol
# GULP energy per Si atom -5570.793716 kJ/mol
# Density = 1.782620 g / cm^3
# Si number density = 17.866869 Si / 1000 Ang^3
#
#
#
# Elastic Constant Matrix: (Units=GPa)
#
#
# Indices 1 2 3 4 5 6 
#
# 1 69.5019 34.2848 20.6991 0.0000 26.1541 0.0000
# 2 34.2848 93.1987 20.4063 0.0000 21.1196 0.0000
# 3 20.6991 20.4063 44.4657 0.0000 10.9553 0.0000
# 4 0.0000 0.0000 0.0000 1.3599 0.0000 4.6731
# 5 26.1541 21.1196 10.9553 0.0000 35.5760 0.0000
# 6 0.0000 0.0000 0.0000 4.6731 0.0000 17.7036
#
#
#
# Elastic Compliance Matrix: (Units=1/GPa)
#
#
# Indices 1 2 3 4 5 6 
#
# 1 0.022924 -0.004370 -0.005576 0.000000 -0.012541 0.000000
# 2 -0.004370 0.013998 -0.003391 0.000000 -0.004053 0.000000
# 3 -0.005576 -0.003391 0.027199 0.000000 -0.002263 0.000000
# 4 0.000000 0.000000 0.000000 7.911949 0.000000 -2.088478
# 5 -0.012541 -0.004053 -0.002263 0.000000 0.040432 0.000000
# 6 0.000000 0.000000 0.000000 -2.088478 0.000000 0.607771
#
#
# Mechanical properties :
#
#
# Convention : Reuss Voigt Hill
#
# Bulk Modulus (GPa) = 26.70464 39.77186 33.23825
# Shear Modulus (GPa) = 0.57714 19.71300 10.14507
#
# Velocity S-wave (km/s) = 0.56897 3.32524 2.38547
# Velocity P-wave (km/s) = 3.92563 6.08699 5.12162
#
# Compressibility (1/GPa) = 0.03744667
#
# Stress axis : x y z
#
# Youngs Moduli (GPa) = 43.62272 71.43695 36.76638
#
# Poissons Ratio (x) = 0.31219 0.20500
# Poissons Ratio (y) = 0.19064 0.12468
# Poissons Ratio (z) = 0.24323 0.24226
#
# Static dielectric constant tensor:
#      x y z
#    x 1.661380 0.000000 -0.002960 
#    y 0.000000 1.664770 0.000000 
#    z -0.002960 0.000000 1.630830 
# 
# From -- ./inp_files/200357.got.cif
#   From: 2010.05.17/outbox.cif.g08.bks.cpg/sg12_101_cif.got.tgz:200357.got - 2010.06.03 13:09:07.
