data_PCOD9178216
_publ_section_title
;
Structure prediction by ZEFSAII (Michael W. Deem and Ramdas Pophale) SiO2 
 PCOD9178216
Probable space group: C 2/M
;
_chemical_formula_sum "Si O2"
_cell_formula_units_Z 48
_cell_length_a 24.381850
_cell_length_b 8.874744
_cell_length_c 13.618620
_cell_angle_alpha 90.000000
_cell_angle_beta 74.330047
_cell_angle_gamma 90.000000
_cell_volume 2837.310032
_symmetry_space_group_name_H-M "C 2/M"
_symmetry_group_IT_number 12
_symmetry_cell_setting 'monoclinic'
loop_
_space_group_symop_operation_xyz
x,y,z
-x,y,-z
-x,-y,-z
x,-y,z
1/2+x,1/2+y,z
1/2-x,1/2+y,-z
1/2-x,1/2-y,-z
1/2+x,1/2-y,z
loop_
_atom_site_type_symbol
_atom_site_label
_atom_site_fract_x
_atom_site_fract_y
_atom_site_fract_z
Si Si1 0.038478 0.819642 0.784946
Si Si2 0.565477 0.172965 0.059989
Si Si3 0.359668 0.677399 0.139592
Si Si4 0.025896 0.181126 0.383391
Si Si5 0.867105 0.326502 0.766258
Si Si6 0.247584 0.178765 0.110634
O O1 0.103751 0.785717 0.780678
O O2 0.996415 0.731409 0.878485
O O3 0.017288 0.783413 0.685508
O O4 0.030526 0.000000 0.803596
O O5 0.602590 0.175971 0.141700
O O6 0.564211 0.000000 0.025078
O O7 0.596690 0.281324 0.968891
O O8 0.346628 0.500000 0.144688
O O9 0.302831 0.768885 0.144526
O O10 0.086377 0.255839 0.329126
O O11 0.000000 0.228424 0.500000
O O12 0.033196 0.000000 0.380946
O O13 0.855079 0.500000 0.746888
O O14 0.809050 0.235206 0.807277
O O15 0.247195 0.000000 0.099710
O O16 0.250000 0.250000 0.000000
#
# Coordination Sequence:
#
# PCOD9178216 Si02
#       6
#     8   8   8   8   8   8
#     4   9  19  33  49  73 103 135 172 212 262 314
#     4  10  19  30  47  71 102 138 174 212 253 304
#     4  11  21  32  48  70 103 143 175 210 253 305
#     4   9  18  35  59  82 104 133 171 218 268 315
#     4  10  20  34  52  77 107 138 174 216 259 306
#     4  12  23  35  52  74 104 142 180 215 251 303
#
# _framework density 16.917432000000002
#
# number of rings (size 3 to 8) (size 9 to 14) (size 15 to 20)
#    0.000    1.833    1.667    3.500    0.000    5.000 
#    0.000    0.000    0.000    1.000    0.000    0.000 
#    0.000    0.000    0.000    0.000    0.000    0.000 
#
# Total GULP energy -133965.341880 kJ/mol
# GULP energy per Si atom -5581.889245 kJ/mol
# Density = 1.687893 g / cm^3
# Si number density = 16.917432 Si / 1000 Ang^3
#
#
#
# Elastic Constant Matrix: (Units=GPa)
#
#
# Indices 1 2 3 4 5 6 
#
# 1 136.8051 62.3824 47.0780 0.0000 -14.6273 0.0000
# 2 62.3824 89.3944 39.8149 0.0000 -7.8205 0.0000
# 3 47.0780 39.8149 90.0699 0.0000 -12.4556 0.0000
# 4 0.0000 0.0000 0.0000 17.8877 0.0000 -5.1938
# 5 -14.6273 -7.8205 -12.4556 0.0000 12.9556 0.0000
# 6 0.0000 0.0000 0.0000 -5.1938 0.0000 28.7116
#
#
#
# Elastic Compliance Matrix: (Units=1/GPa)
#
#
# Indices 1 2 3 4 5 6 
#
# 1 0.011903 -0.006659 -0.002278 0.000000 0.007229 0.000000
# 2 -0.006659 0.017747 -0.004524 0.000000 -0.001155 0.000000
# 3 -0.002278 -0.004524 0.015639 0.000000 0.009732 0.000000
# 4 0.000000 0.000000 0.000000 0.059003 0.000000 0.010673
# 5 0.007229 -0.001155 0.009732 0.000000 0.094008 0.000000
# 6 0.000000 0.000000 0.000000 0.010673 0.000000 0.036760
#
#
# Mechanical properties :
#
#
# Convention : Reuss Voigt Hill
#
# Bulk Modulus (GPa) = 54.44783 68.31334 61.38058
# Shear Modulus (GPa) = 18.64932 23.04392 20.84662
#
# Velocity S-wave (km/s) = 3.32380 3.69472 3.51416
# Velocity P-wave (km/s) = 6.85453 7.65960 7.26822
#
# Compressibility (1/GPa) = 0.01836621
#
# Stress axis : x y z
#
# Youngs Moduli (GPa) = 84.01081 56.34606 63.94275
#
# Poissons Ratio (x) = 0.37523 0.14567
# Poissons Ratio (y) = 0.55946 0.28929
# Poissons Ratio (z) = 0.19139 0.25492
#
# Static dielectric constant tensor:
#      x y z
#    x 1.596200 0.000000 0.023850 
#    y 0.000000 1.570900 0.000000 
#    z 0.023850 0.000000 1.547330 
# 
# From -- ./inp_files/229908.got.cif
#   From: 2010.05.17/outbox.cif.g08.bks.cpg/sg12_115_cif.got.tgz:229908.got - 2010.06.03 13:09:07.
