data_PCOD9178689
_publ_section_title
;
Structure prediction by ZEFSAII (Michael W. Deem and Ramdas Pophale) SiO2 
 PCOD9178689
Probable space group: C 2/M
;
_chemical_formula_sum "Si O2"
_cell_formula_units_Z 58
_cell_length_a 24.459111
_cell_length_b 7.631237
_cell_length_c 20.988754
_cell_angle_alpha 90.000000
_cell_angle_beta 133.958205
_cell_angle_gamma 90.000000
_cell_volume 2820.084129
_symmetry_space_group_name_H-M "C 2/M"
_symmetry_group_IT_number 12
_symmetry_cell_setting 'monoclinic'
loop_
_space_group_symop_operation_xyz
x,y,z
-x,y,-z
-x,-y,-z
x,-y,z
1/2+x,1/2+y,z
1/2-x,1/2+y,-z
1/2-x,1/2-y,-z
1/2+x,1/2-y,z
loop_
_atom_site_type_symbol
_atom_site_label
_atom_site_fract_x
_atom_site_fract_y
_atom_site_fract_z
Si Si1 0.584776 0.211546 0.255878
Si Si2 0.747780 0.290460 0.573931
Si Si3 0.000000 0.000000 0.500000
Si Si4 0.174577 0.788301 0.011240
Si Si5 0.839988 0.794162 0.146175
Si Si6 0.089140 0.705718 0.510110
Si Si7 0.979114 0.209431 0.051963
Si Si8 0.501949 0.797130 0.316039
O O1 0.671707 0.271057 0.332171
O O2 0.541688 0.260966 0.156761
O O3 0.537596 0.276995 0.279599
O O4 0.584951 0.000000 0.258483
O O5 0.743669 0.500000 0.576713
O O6 0.750000 0.250000 0.500000
O O7 0.674662 0.216283 0.551403
O O8 0.066007 0.157413 0.545798
O O9 0.255813 0.734441 0.104549
O O10 0.173980 0.000000 0.008556
O O11 0.165321 0.724520 0.930778
O O12 0.102018 0.722377 0.990260
O O13 0.911462 0.713554 0.239354
O O14 0.855575 0.000000 0.155817
O O15 0.073626 0.500000 0.512325
O O16 0.036964 0.776600 0.408811
O O17 0.970379 0.000000 0.038900
O O18 0.000000 0.281295 0.000000
O O19 0.525450 0.000000 0.336699
#
# Coordination Sequence:
#
# PCOD9178689 Si02
#       8
#     8   8   2   8   8   8   8   8
#     4  10  21  36  59  92 128 161 203 267 329 383
#     4  11  21  38  64 101 139 170 217 284 343 392
#     4  12  26  48  68  94 132 184 214 266 312 414
#     4   9  18  33  50  76 111 151 194 248 310 366
#     4  10  19  30  53  84 112 145 194 252 311 365
#     4  11  24  44  69  99 132 178 224 267 333 402
#     4  10  21  38  58  82 115 160 210 254 311 389
#     4  10  20  36  59  92 125 155 203 263 321 381
#
# _framework density 20.566762000000001
#
# number of rings (size 3 to 8) (size 9 to 14) (size 15 to 20)
#    0.000    1.793    3.448    1.034    0.966    2.483 
#    0.000    1.379    0.000    3.310    0.000    0.000 
#    0.000    0.000    0.000    0.000    0.000    0.000 
#
# Total GULP energy -161628.942319 kJ/mol
# GULP energy per Si atom -5573.411804 kJ/mol
# Density = 2.051995 g / cm^3
# Si number density = 20.566762 Si / 1000 Ang^3
#
#
#
# Elastic Constant Matrix: (Units=GPa)
#
#
# Indices 1 2 3 4 5 6 
#
# 1 111.0054 13.8759 46.2603 0.0000 27.6539 0.0000
# 2 13.8759 80.6094 -10.1982 0.0000 0.1101 0.0000
# 3 46.2603 -10.1982 93.4673 0.0000 26.1058 0.0000
# 4 0.0000 0.0000 0.0000 4.8405 0.0000 11.3742
# 5 27.6539 0.1101 26.1058 0.0000 31.7331 0.0000
# 6 0.0000 0.0000 0.0000 11.3742 0.0000 16.3266
#
#
#
# Elastic Compliance Matrix: (Units=1/GPa)
#
#
# Indices 1 2 3 4 5 6 
#
# 1 0.013242 -0.002868 -0.004734 0.000000 -0.007635 0.000000
# 2 -0.002868 0.013257 0.002831 0.000000 0.000124 0.000000
# 3 -0.004734 0.002831 0.015841 0.000000 -0.008916 0.000000
# 4 0.000000 0.000000 0.000000 -0.324310 0.000000 0.225935
# 5 -0.007635 0.000124 -0.008916 0.000000 0.045501 0.000000
# 6 0.000000 0.000000 0.000000 0.225935 0.000000 -0.096152
#
#
# Mechanical properties :
#
#
# Convention : Reuss Voigt Hill
#
# Bulk Modulus (GPa) = 30.48917 42.77311 36.63114
# Shear Modulus (GPa) = -16.01822 26.25634 5.11906
#
# Velocity S-wave (km/s) = -2.79380 3.57689 1.57937
# Velocity P-wave (km/s) = 2.10941 6.15639 4.60167
#
# Compressibility (1/GPa) = 0.03279853
#
# Stress axis : x y z
#
# Youngs Moduli (GPa) = 75.51626 75.43060 63.12565
#
# Poissons Ratio (x) = 0.21634 0.29886
# Poissons Ratio (y) = 0.21658 -0.17873
# Poissons Ratio (z) = 0.35753 -0.21357
#
# Static dielectric constant tensor:
#      x y z
#    x 1.779190 0.000000 -0.013990 
#    y 0.000000 1.757100 0.000000 
#    z -0.013990 0.000000 1.725080 
# 
# From -- ./inp_files/324678.got.cif
#   From: 2010.05.17/outbox.cif.g08.bks.cpg/sg12_163_cif.got.tgz:324678.got - 2010.06.03 13:09:07.
