data_PCOD9178122
_publ_section_title
;
Structure prediction by ZEFSAII (Michael W. Deem and Ramdas Pophale) SiO2 
 PCOD9178122
Probable space group: C 2/M
;
_chemical_formula_sum "Si O2"
_cell_formula_units_Z 48
_cell_length_a 27.996544
_cell_length_b 8.594775
_cell_length_c 24.414542
_cell_angle_alpha 90.000000
_cell_angle_beta 149.684676
_cell_angle_gamma 90.000000
_cell_volume 2965.317356
_symmetry_space_group_name_H-M "C 2/M"
_symmetry_group_IT_number 12
_symmetry_cell_setting 'monoclinic'
loop_
_space_group_symop_operation_xyz
x,y,z
-x,y,-z
-x,-y,-z
x,-y,z
1/2+x,1/2+y,z
1/2-x,1/2+y,-z
1/2-x,1/2-y,-z
1/2+x,1/2-y,z
loop_
_atom_site_type_symbol
_atom_site_label
_atom_site_fract_x
_atom_site_fract_y
_atom_site_fract_z
Si Si1 0.966149 0.811190 0.381187
Si Si2 0.140764 0.186066 0.954526
Si Si3 0.142484 0.815563 0.161015
Si Si4 0.349834 0.688308 0.374352
Si Si5 0.148734 0.811737 0.836876
Si Si6 0.532854 0.184507 0.949771
O O1 0.894790 0.768588 0.359808
O O2 0.925035 0.759449 0.282431
O O3 0.071391 0.762254 0.503104
O O4 0.968217 0.000000 0.382659
O O5 0.247900 0.241626 0.072118
O O6 0.135780 0.000000 0.954627
O O7 0.120932 0.229438 0.871553
O O8 0.070823 0.262600 0.928695
O O9 0.247502 0.761797 0.279801
O O10 0.065228 0.763851 0.129359
O O11 0.138289 0.000000 0.149665
O O12 0.108840 0.735934 0.071094
O O13 0.341678 0.500000 0.367693
O O14 0.156751 0.000000 0.842318
O O15 0.521657 0.000000 0.941028
#
# Coordination Sequence:
#
# PCOD9178122 Si02
#       6
#     8   8   8   8   8   8
#     4   8  15  28  48  71  95 127 163 194 223 269
#     4  10  19  30  46  71 100 127 158 199 240 276
#     4  11  21  33  49  72  99 122 150 192 240 284
#     4   9  16  29  49  72  97 126 160 192 227 275
#     4   9  17  30  48  70  98 132 164 192 231 282
#     4  11  21  34  51  69  92 125 161 193 232 284
#
# _framework density 16.187137
#
# number of rings (size 3 to 8) (size 9 to 14) (size 15 to 20)
#    0.000    2.333    0.000    6.500    0.000    2.000 
#    0.000    2.500    0.000    1.000    0.000    0.000 
#    0.000    0.000    0.000    0.000    0.000    0.000 
#
# Total GULP energy -133884.316180 kJ/mol
# GULP energy per Si atom -5578.513174 kJ/mol
# Density = 1.615029 g / cm^3
# Si number density = 16.187137 Si / 1000 Ang^3
#
#
#
# Elastic Constant Matrix: (Units=GPa)
#
#
# Indices 1 2 3 4 5 6 
#
# 1 69.1310 0.1183 49.8928 0.0000 -3.2624 0.0000
# 2 0.1183 22.1324 4.6450 0.0000 0.3357 0.0000
# 3 49.8928 4.6450 125.2176 0.0000 -3.7996 0.0000
# 4 0.0000 0.0000 0.0000 11.8299 0.0000 -1.1952
# 5 -3.2624 0.3357 -3.7996 0.0000 18.9266 0.0000
# 6 0.0000 0.0000 0.0000 -1.1952 0.0000 18.8636
#
#
#
# Elastic Compliance Matrix: (Units=1/GPa)
#
#
# Indices 1 2 3 4 5 6 
#
# 1 0.020425 0.001571 -0.008140 0.000000 0.001859 0.000000
# 2 0.001571 0.045683 -0.002351 0.000000 -0.001011 0.000000
# 3 -0.008140 -0.002351 0.011345 0.000000 0.000916 0.000000
# 4 0.000000 0.000000 0.000000 0.085076 0.000000 0.005390
# 5 0.001859 -0.001011 0.000916 0.000000 0.053358 0.000000
# 6 0.000000 0.000000 0.000000 0.005390 0.000000 0.053354
#
#
# Mechanical properties :
#
#
# Convention : Reuss Voigt Hill
#
# Bulk Modulus (GPa) = 16.77520 36.19925 26.48722
# Shear Modulus (GPa) = 16.28917 20.71235 18.50076
#
# Velocity S-wave (km/s) = 3.17567 3.58097 3.38439
# Velocity P-wave (km/s) = 4.88183 6.28564 5.62768
#
# Compressibility (1/GPa) = 0.05961182
#
# Stress axis : x y z
#
# Youngs Moduli (GPa) = 48.95893 21.88997 88.14759
#
# Poissons Ratio (x) = -0.03439 0.71755
# Poissons Ratio (y) = -0.07692 0.20727
# Poissons Ratio (z) = 0.39854 0.05147
#
# Static dielectric constant tensor:
#      x y z
#    x 1.529540 0.000000 -0.015970 
#    y 0.000000 1.543150 0.000000 
#    z -0.015970 0.000000 1.535930 
# 
# From -- ./inp_files/351043.got.cif
#   From: 2010.05.17/outbox.cif.g08.bks.cpg/sg12_176_cif.got.tgz:351043.got - 2010.06.03 13:09:07.
