data_PCOD9178367
_publ_section_title
;
Structure prediction by ZEFSAII (Michael W. Deem and Ramdas Pophale) SiO2 
 PCOD9178367
Probable space group: C 2/M
;
_chemical_formula_sum "Si O2"
_cell_formula_units_Z 58
_cell_length_a 20.394454
_cell_length_b 7.571350
_cell_length_c 19.632301
_cell_angle_alpha 90.000000
_cell_angle_beta 119.425991
_cell_angle_gamma 90.000000
_cell_volume 2640.403464
_symmetry_space_group_name_H-M "C 2/M"
_symmetry_group_IT_number 12
_symmetry_cell_setting 'monoclinic'
loop_
_space_group_symop_operation_xyz
x,y,z
-x,y,-z
-x,-y,-z
x,-y,z
1/2+x,1/2+y,z
1/2-x,1/2+y,-z
1/2-x,1/2-y,-z
1/2+x,1/2-y,z
loop_
_atom_site_type_symbol
_atom_site_label
_atom_site_fract_x
_atom_site_fract_y
_atom_site_fract_z
Si Si1 0.500000 0.000000 0.000000
Si Si2 0.508339 0.704180 0.104829
Si Si3 0.082168 0.287236 0.410743
Si Si4 0.623049 0.708804 0.573612
Si Si5 0.282707 0.204874 0.604517
Si Si6 0.333725 0.794900 0.259337
Si Si7 0.672839 0.713813 0.226402
Si Si8 0.536271 0.215307 0.764408
O O1 0.469181 0.156421 0.036346
O O2 0.501048 0.500000 0.080959
O O3 0.596839 0.761095 0.148849
O O4 0.483539 0.719964 0.170848
O O5 0.083686 0.500000 0.409167
O O6 0.067881 0.236582 0.481738
O O7 0.164288 0.219216 0.427192
O O8 0.023124 0.227009 0.323974
O O9 0.630240 0.500000 0.588060
O O10 0.702832 0.785021 0.585515
O O11 0.616560 0.786300 0.645692
O O12 0.330588 0.215002 0.698575
O O13 0.269554 0.000000 0.581729
O O14 0.251305 0.719906 0.234313
O O15 0.383003 0.722651 0.222972
O O16 0.320722 0.000000 0.237634
O O17 0.675008 0.500000 0.232238
O O18 0.534974 0.000000 0.764893
#
# Coordination Sequence:
#
# PCOD9178367 Si02
#       8
#     2   8   8   8   8   8   8   8
#     4  12  26  44  72 102 136 158 182 240 312 358
#     4  11  23  41  69 102 128 157 198 241 295 367
#     4  10  19  30  48  72 107 154 205 258 308 358
#     4  10  20  31  44  71 110 155 205 261 311 348
#     4   9  17  29  48  72 105 147 200 252 306 360
#     4   9  19  36  57  82 116 162 209 250 301 357
#     4   9  18  33  57  89 117 150 200 250 290 355
#     4  10  20  37  61  88 118 160 205 249 306 363
#
# _framework density 21.966339999999999
#
# number of rings (size 3 to 8) (size 9 to 14) (size 15 to 20)
#    0.000    2.207    2.069    1.034    0.966    2.759 
#    0.000    2.759    0.000    0.828    0.000    0.000 
#    0.000    0.000    0.000    0.000    0.000    0.000 
#
# Total GULP energy -161659.326756 kJ/mol
# GULP energy per Si atom -5574.459543 kJ/mol
# Density = 2.191634 g / cm^3
# Si number density = 21.966340 Si / 1000 Ang^3
#
#
#
# Elastic Constant Matrix: (Units=GPa)
#
#
# Indices 1 2 3 4 5 6 
#
# 1 96.5269 9.9925 33.3080 0.0000 -26.3220 0.0000
# 2 9.9925 80.3202 8.5184 0.0000 -2.6081 0.0000
# 3 33.3080 8.5184 69.0041 0.0000 -25.0038 0.0000
# 4 0.0000 0.0000 0.0000 5.1779 0.0000 -7.0636
# 5 -26.3220 -2.6081 -25.0038 0.0000 21.6880 0.0000
# 6 0.0000 0.0000 0.0000 -7.0636 0.0000 5.6314
#
#
#
# Elastic Compliance Matrix: (Units=1/GPa)
#
#
# Indices 1 2 3 4 5 6 
#
# 1 0.015664 -0.001269 -0.000981 0.000000 0.017727 0.000000
# 2 -0.001269 0.012721 -0.001651 0.000000 -0.001914 0.000000
# 3 -0.000981 -0.001651 0.025188 0.000000 0.027651 0.000000
# 4 0.000000 0.000000 0.000000 -0.271596 0.000000 -0.340665
# 5 0.017727 -0.001914 0.027651 0.000000 0.099271 0.000000
# 6 0.000000 0.000000 0.000000 -0.340665 0.000000 -0.249725
#
#
# Mechanical properties :
#
#
# Convention : Reuss Voigt Hill
#
# Bulk Modulus (GPa) = 21.84804 38.83213 30.34008
# Shear Modulus (GPa) = -14.47522 19.43497 2.47988
#
# Velocity S-wave (km/s) = -2.56983 2.97772 1.06367
# Velocity P-wave (km/s) = 1.07813 5.43496 3.91798
#
# Compressibility (1/GPa) = 0.04577070
#
# Stress axis : x y z
#
# Youngs Moduli (GPa) = 63.84221 78.60998 39.70091
#
# Poissons Ratio (x) = 0.09976 0.03893
# Poissons Ratio (y) = 0.08102 0.06557
# Poissons Ratio (z) = 0.06260 0.12982
#
# Static dielectric constant tensor:
#      x y z
#    x 1.870380 0.000000 0.039230 
#    y 0.000000 1.750790 0.000000 
#    z 0.039230 0.000000 1.830630 
# 
# From -- ./inp_files/281533.got.cif
#   From: 2010.05.17/outbox.cif.g08.bks.cpg/sg12_141_cif.got.tgz:281533.got - 2010.06.03 13:09:07.
