data_PCOD9178893
_publ_section_title
;
Structure prediction by ZEFSAII (Michael W. Deem and Ramdas Pophale) SiO2 
 PCOD9178893
Probable space group: C 2/M
;
_chemical_formula_sum "Si O2"
_cell_formula_units_Z 56
_cell_length_a 19.607737
_cell_length_b 7.751115
_cell_length_c 18.278596
_cell_angle_alpha 90.000000
_cell_angle_beta 78.791825
_cell_angle_gamma 90.000000
_cell_volume 2725.030499
_symmetry_space_group_name_H-M "C 2/M"
_symmetry_group_IT_number 12
_symmetry_cell_setting 'monoclinic'
loop_
_space_group_symop_operation_xyz
x,y,z
-x,y,-z
-x,-y,-z
x,-y,z
1/2+x,1/2+y,z
1/2-x,1/2+y,-z
1/2-x,1/2-y,-z
1/2+x,1/2-y,z
loop_
_atom_site_type_symbol
_atom_site_label
_atom_site_fract_x
_atom_site_fract_y
_atom_site_fract_z
Si Si1 0.374419 0.197887 0.214479
Si Si2 0.715218 0.207608 0.892103
Si Si3 0.331190 0.298679 0.492060
Si Si4 0.497122 0.292122 0.086914
Si Si5 0.939458 0.298948 0.346521
Si Si6 0.148505 0.207910 0.058446
Si Si7 0.944945 0.291751 0.574971
O O1 0.312341 0.277339 0.179255
O O2 0.437133 0.200076 0.143444
O O3 0.404325 0.280893 0.281906
O O4 0.354364 0.000000 0.236695
O O5 0.789262 0.274681 0.904356
O O6 0.719045 0.000000 0.884626
O O7 0.664283 0.244115 0.971067
O O8 0.336628 0.500000 0.475618
O O9 0.250000 0.250000 0.500000
O O10 0.381384 0.207049 0.422584
O O11 0.369088 0.266405 0.562794
O O12 0.487620 0.500000 0.096669
O O13 0.572769 0.238261 0.099550
O O14 0.500000 0.255757 0.000000
O O15 0.953283 0.500000 0.326540
O O16 0.013262 0.228776 0.361663
O O17 0.149716 0.000000 0.059847
O O18 0.942835 0.500000 0.578102
O O19 0.000000 0.241574 0.500000
#
# Coordination Sequence:
#
# PCOD9178893 Si02
#       7
#     8   8   8   8   8   8   8
#     4  10  20  33  51  74 101 133 168 210 258 307
#     4   9  17  29  47  69  92 123 163 207 251 300
#     4  11  21  34  56  84 110 137 172 212 251 301
#     4  10  19  31  47  68  96 131 169 215 262 304
#     4   9  19  36  54  75 107 142 172 211 264 315
#     4   9  17  30  46  65  91 123 163 209 257 301
#     4   8  15  31  54  76 103 138 171 206 251 303
#
# _framework density 20.550229999999999
#
# number of rings (size 3 to 8) (size 9 to 14) (size 15 to 20)
#    0.000    2.571    1.429    2.143    0.000    4.000 
#    0.000    1.429    0.000    1.714    0.000    0.000 
#    0.000    0.000    0.000    0.000    0.000    0.000 
#
# Total GULP energy -155955.473999 kJ/mol
# GULP energy per Si atom -5569.838357 kJ/mol
# Density = 2.050346 g / cm^3
# Si number density = 20.550230 Si / 1000 Ang^3
#
#
#
# Elastic Constant Matrix: (Units=GPa)
#
#
# Indices 1 2 3 4 5 6 
#
# 1 135.3786 -0.9451 35.7720 0.0000 44.1777 0.0000
# 2 -0.9451 34.4803 -2.4536 0.0000 8.0095 0.0000
# 3 35.7720 -2.4536 65.3995 0.0000 43.3753 0.0000
# 4 0.0000 0.0000 0.0000 10.2565 0.0000 2.2864
# 5 44.1777 8.0095 43.3753 0.0000 42.4207 0.0000
# 6 0.0000 0.0000 0.0000 2.2864 0.0000 4.3768
#
#
#
# Elastic Compliance Matrix: (Units=1/GPa)
#
#
# Indices 1 2 3 4 5 6 
#
# 1 0.012816 0.006522 0.009022 0.000000 -0.023803 0.000000
# 2 0.006522 0.039570 0.022922 0.000000 -0.037702 0.000000
# 3 0.009022 0.022922 0.063130 0.000000 -0.078274 0.000000
# 4 0.000000 0.000000 0.000000 0.110349 0.000000 -0.057645
# 5 -0.023803 -0.037702 -0.078274 0.000000 0.135516 0.000000
# 6 0.000000 0.000000 0.000000 -0.057645 0.000000 0.258591
#
#
# Mechanical properties :
#
#
# Convention : Reuss Voigt Hill
#
# Bulk Modulus (GPa) = 5.19621 33.33387 19.26504
# Shear Modulus (GPa) = 8.23467 24.93647 16.58557
#
# Velocity S-wave (km/s) = 2.00394 3.48723 2.84399
# Velocity P-wave (km/s) = 2.80863 5.69826 4.49214
#
# Compressibility (1/GPa) = 0.19244811
#
# Stress axis : x y z
#
# Youngs Moduli (GPa) = 78.02804 25.27180 15.84031
#
# Poissons Ratio (x) = -0.16484 -0.14291
# Poissons Ratio (y) = -0.50894 -0.36309
# Poissons Ratio (z) = -0.70394 -0.57928
#
# Static dielectric constant tensor:
#      x y z
#    x 1.806510 0.000000 0.065110 
#    y 0.000000 1.761310 0.000000 
#    z 0.065110 0.000000 1.745040 
# 
# From -- ./inp_files/280247.got.cif
#   From: 2010.05.17/outbox.cif.g08.bks.cpg/sg12_141_cif.got.tgz:280247.got - 2010.06.03 13:09:07.
