data_PCOD9178588
_publ_section_title
;
Structure prediction by ZEFSAII (Michael W. Deem and Ramdas Pophale) SiO2 
 PCOD9178588
Probable space group: C 2/M
;
_chemical_formula_sum "Si O2"
_cell_formula_units_Z 48
_cell_length_a 12.439536
_cell_length_b 14.204779
_cell_length_c 15.210322
_cell_angle_alpha 90.000000
_cell_angle_beta 59.514898
_cell_angle_gamma 90.000000
_cell_volume 2316.135469
_symmetry_space_group_name_H-M "C 2/M"
_symmetry_group_IT_number 12
_symmetry_cell_setting 'monoclinic'
loop_
_space_group_symop_operation_xyz
x,y,z
-x,y,-z
-x,-y,-z
x,-y,z
1/2+x,1/2+y,z
1/2-x,1/2+y,-z
1/2-x,1/2-y,-z
1/2+x,1/2-y,z
loop_
_atom_site_type_symbol
_atom_site_label
_atom_site_fract_x
_atom_site_fract_y
_atom_site_fract_z
Si Si1 0.132710 0.774015 0.401135
Si Si2 0.366642 0.609229 0.777208
Si Si3 0.873666 0.389174 0.715376
Si Si4 0.159458 0.395156 0.622875
Si Si5 0.085490 0.395882 0.859782
Si Si6 0.627262 0.227358 0.105835
O O1 0.112012 0.846172 0.327782
O O2 0.184014 0.678406 0.334823
O O3 0.231331 0.819743 0.427266
O O4 0.000000 0.759737 0.500000
O O5 0.402029 0.500000 0.766151
O O6 0.216264 0.615700 0.854596
O O7 0.423669 0.678142 0.826049
O O8 0.843569 0.500000 0.724830
O O9 0.846774 0.344096 0.822692
O O10 0.023827 0.379353 0.637654
O O11 0.203302 0.500000 0.579953
O O12 0.126232 0.395179 0.740480
O O13 0.033557 0.500000 0.897159
O O14 0.978532 0.319404 0.910258
O O15 0.750000 0.250000 0.000000
#
# Coordination Sequence:
#
# PCOD9178588 Si02
#       6
#     8   8   8   8   8   8
#     4  10  19  30  52  79 102 127 164 208 248 286
#     4   9  19  34  51  73 101 132 166 203 243 292
#     4   9  19  36  53  70  98 134 168 201 241 292
#     4   8  15  30  51  72  97 131 166 200 241 290
#     4   8  15  31  52  71  95 130 168 202 239 287
#     4  10  19  30  50  77  98 121 161 210 250 284
#
# _framework density 20.724177999999998
#
# number of rings (size 3 to 8) (size 9 to 14) (size 15 to 20)
#    0.000    3.000    0.000    3.000    0.000    4.333 
#    0.000    1.667    0.000   27.000    0.000   30.333 
#    0.000    0.000    0.000    0.000    0.000    0.000 
#
# Total GULP energy -133820.136582 kJ/mol
# GULP energy per Si atom -5575.839024 kJ/mol
# Density = 2.067701 g / cm^3
# Si number density = 20.724178 Si / 1000 Ang^3
#
#
#
# Elastic Constant Matrix: (Units=GPa)
#
#
# Indices 1 2 3 4 5 6 
#
# 1 33.1403 30.2800 9.4364 0.0000 0.9184 0.0000
# 2 30.2800 159.9032 47.3958 0.0000 5.2890 0.0000
# 3 9.4364 47.3958 69.7942 0.0000 -10.7584 0.0000
# 4 0.0000 0.0000 0.0000 -56.9362 0.0000 -71.8784
# 5 0.9184 5.2890 -10.7584 0.0000 17.3061 0.0000
# 6 0.0000 0.0000 0.0000 -71.8784 0.0000 -28.9320
#
#
#
# Elastic Compliance Matrix: (Units=1/GPa)
#
#
# Indices 1 2 3 4 5 6 
#
# 1 0.036493 -0.006816 -0.000313 0.000000 -0.000048 0.000000
# 2 -0.006816 0.009778 -0.006772 0.000000 -0.006837 0.000000
# 3 -0.000313 -0.006772 0.021335 0.000000 0.015349 0.000000
# 4 0.000000 0.000000 0.000000 0.008221 0.000000 -0.020425
# 5 -0.000048 -0.006837 0.015349 0.000000 0.069417 0.000000
# 6 0.000000 0.000000 0.000000 -0.020425 0.000000 0.016179
#
#
# Mechanical properties :
#
#
# Convention : Reuss Voigt Hill
#
# Bulk Modulus (GPa) = 25.12321 48.56246 36.84283
# Shear Modulus (GPa) = 24.69226 -1.99738 11.34744
#
# Velocity S-wave (km/s) = 3.45551 -0.98279 2.34251
# Velocity P-wave (km/s) = 5.29809 4.71124 5.01326
#
# Compressibility (1/GPa) = 0.03980383
#
# Stress axis : x y z
#
# Youngs Moduli (GPa) = 27.40250 102.27060 46.87136
#
# Poissons Ratio (x) = 0.69710 0.01465
# Poissons Ratio (y) = 0.18678 0.31742
# Poissons Ratio (z) = 0.00857 0.69260
#
# Static dielectric constant tensor:
#      x y z
#    x 1.780020 0.000000 0.020220 
#    y 0.000000 1.769800 0.000000 
#    z 0.020220 0.000000 1.765330 
# 
# From -- ./inp_files/204303.got.cif
#   From: 2010.05.17/outbox.cif.g08.bks.cpg/sg12_103_cif.got.tgz:204303.got - 2010.06.03 13:09:07.
