data_PCOD9178601
_publ_section_title
;
Structure prediction by ZEFSAII (Michael W. Deem and Ramdas Pophale) SiO2 
 PCOD9178601
Probable space group: C 2/M
;
_chemical_formula_sum "Si O2"
_cell_formula_units_Z 64
_cell_length_a 24.363328
_cell_length_b 9.088001
_cell_length_c 19.055793
_cell_angle_alpha 90.000000
_cell_angle_beta 69.403538
_cell_angle_gamma 90.000000
_cell_volume 3949.531261
_symmetry_space_group_name_H-M "C 2/M"
_symmetry_group_IT_number 12
_symmetry_cell_setting 'monoclinic'
loop_
_space_group_symop_operation_xyz
x,y,z
-x,y,-z
-x,-y,-z
x,-y,z
1/2+x,1/2+y,z
1/2-x,1/2+y,-z
1/2-x,1/2-y,-z
1/2+x,1/2-y,z
loop_
_atom_site_type_symbol
_atom_site_label
_atom_site_fract_x
_atom_site_fract_y
_atom_site_fract_z
Si Si1 0.685596 0.830324 0.233507
Si Si2 0.438091 0.174915 0.640012
Si Si3 0.381835 0.674622 0.537132
Si Si4 0.801401 0.673876 0.180818
Si Si5 0.256167 0.329012 0.071042
Si Si6 0.239553 0.324355 0.429390
Si Si7 0.445717 0.675151 0.361111
Si Si8 0.354730 0.675281 0.283725
O O1 0.620998 0.796572 0.288472
O O2 0.736817 0.724160 0.238029
O O3 0.696303 0.821831 0.144690
O O4 0.699612 0.000000 0.248057
O O5 0.427842 0.258374 0.571324
O O6 0.495017 0.236244 0.653052
O O7 0.442770 0.000000 0.626462
O O8 0.375322 0.500000 0.550905
O O9 0.320119 0.756849 0.574430
O O10 0.404475 0.698647 0.447756
O O11 0.805004 0.500000 0.173611
O O12 0.801483 0.749867 0.104002
O O13 0.847816 0.738997 0.214269
O O14 0.271036 0.500000 0.055359
O O15 0.250000 0.250000 0.000000
O O16 0.233283 0.500000 0.439991
O O17 0.250000 0.250000 0.500000
O O18 0.296306 0.296704 0.356039
O O19 0.458067 0.500000 0.352894
O O20 0.409703 0.716244 0.307761
O O21 0.356999 0.500000 0.269401
#
# Coordination Sequence:
#
# PCOD9178601 Si02
#       8
#     8   8   8   8   8   8   8   8
#     4   8  18  34  50  71 105 137 159 196 251 297
#     4  11  22  36  52  73  97 130 173 217 261 301
#     4  11  22  37  52  71  96 130 171 217 268 311
#     4  10  19  30  50  79 104 130 165 200 240 293
#     4   9  17  32  52  78 112 139 161 192 239 295
#     4  11  21  34  52  72  96 127 166 212 263 313
#     4  10  22  38  51  66  94 135 175 217 265 305
#     4  10  20  36  50  66  98 134 166 205 259 308
#
# _framework density 16.204453999999998
#
# number of rings (size 3 to 8) (size 9 to 14) (size 15 to 20)
#    0.750    1.250    1.250    3.375    0.000    8.000 
#    0.000    0.000    0.000    0.000    0.000    0.875 
#    0.000    7.000    0.000    0.000    0.000    0.000 
#
# Total GULP energy -178397.912415 kJ/mol
# GULP energy per Si atom -5574.934763 kJ/mol
# Density = 1.616757 g / cm^3
# Si number density = 16.204454 Si / 1000 Ang^3
#
#
#
# Elastic Constant Matrix: (Units=GPa)
#
#
# Indices 1 2 3 4 5 6 
#
# 1 78.8446 38.3803 27.5316 0.0000 30.5493 0.0000
# 2 38.3803 74.2478 50.2556 0.0000 24.6262 0.0000
# 3 27.5316 50.2556 88.1386 0.0000 35.0474 0.0000
# 4 0.0000 0.0000 0.0000 26.6498 0.0000 5.3891
# 5 30.5493 24.6262 35.0474 0.0000 26.7446 0.0000
# 6 0.0000 0.0000 0.0000 5.3891 0.0000 29.2646
#
#
#
# Elastic Compliance Matrix: (Units=1/GPa)
#
#
# Indices 1 2 3 4 5 6 
#
# 1 0.028801 -0.010217 0.012883 0.000000 -0.040373 0.000000
# 2 -0.010217 0.026399 -0.014273 0.000000 0.006068 0.000000
# 3 0.012883 -0.014273 0.033588 0.000000 -0.045588 0.000000
# 4 0.000000 0.000000 0.000000 0.038975 0.000000 -0.007177
# 5 -0.040373 0.006068 -0.045588 0.000000 0.137661 0.000000
# 6 0.000000 0.000000 0.000000 -0.007177 0.000000 0.035493
#
#
# Mechanical properties :
#
#
# Convention : Reuss Voigt Hill
#
# Bulk Modulus (GPa) = 15.25028 52.61844 33.93436
# Shear Modulus (GPa) = 14.45135 24.86938 19.66036
#
# Velocity S-wave (km/s) = 2.98956 3.92181 3.48698
# Velocity P-wave (km/s) = 4.62042 7.28351 6.09909
#
# Compressibility (1/GPa) = 0.06557258
#
# Stress axis : x y z
#
# Youngs Moduli (GPa) = 34.72062 37.88086 29.77297
#
# Poissons Ratio (x) = 0.38704 -0.38357
# Poissons Ratio (y) = 0.35475 0.42496
# Poissons Ratio (z) = -0.44732 0.54069
#
# Static dielectric constant tensor:
#      x y z
#    x 1.538610 0.000000 0.011120 
#    y 0.000000 1.539530 0.000000 
#    z 0.011120 0.000000 1.552580 
# 
# From -- ./inp_files/287656.got.cif
#   From: 2010.05.17/outbox.cif.g08.bks.cpg/sg12_144_cif.got.tgz:287656.got - 2010.06.03 13:09:07.
