data_PCOD9178274
_publ_section_title
;
Structure prediction by ZEFSAII (Michael W. Deem and Ramdas Pophale) SiO2 
 PCOD9178274
Probable space group: C 2/M
;
_chemical_formula_sum "Si O2"
_cell_formula_units_Z 64
_cell_length_a 29.038781
_cell_length_b 9.022147
_cell_length_c 15.970794
_cell_angle_alpha 90.000000
_cell_angle_beta 89.743321
_cell_angle_gamma 90.000000
_cell_volume 4184.180684
_symmetry_space_group_name_H-M "C 2/M"
_symmetry_group_IT_number 12
_symmetry_cell_setting 'monoclinic'
loop_
_space_group_symop_operation_xyz
x,y,z
-x,y,-z
-x,-y,-z
x,-y,z
1/2+x,1/2+y,z
1/2-x,1/2+y,-z
1/2-x,1/2-y,-z
1/2+x,1/2-y,z
loop_
_atom_site_type_symbol
_atom_site_label
_atom_site_fract_x
_atom_site_fract_y
_atom_site_fract_z
Si Si1 0.610318 0.822314 0.162932
Si Si2 0.697046 0.823645 0.907684
Si Si3 0.050954 0.821145 0.677549
Si Si4 0.109083 0.177386 0.840963
Si Si5 0.697101 0.323776 0.090082
Si Si6 0.444116 0.670468 0.506374
Si Si7 0.049398 0.677016 0.323423
Si Si8 0.946009 0.322313 0.005756
O O1 0.658639 0.740147 0.151679
O O2 0.582686 0.781230 0.246711
O O3 0.579341 0.787592 0.081410
O O4 0.617597 0.000000 0.163342
O O5 0.659373 0.748747 0.849222
O O6 0.750180 0.795466 0.883159
O O7 0.689631 0.000000 0.911642
O O8 0.690564 0.755952 0.000546
O O9 0.083900 0.784147 0.754330
O O10 0.070629 0.777581 0.585937
O O11 0.000962 0.748180 0.689459
O O12 0.044862 0.000000 0.674898
O O13 0.112209 0.000000 0.847188
O O14 0.078882 0.239790 0.918094
O O15 0.691557 0.500000 0.079144
O O16 0.500000 0.671508 0.500000
O O17 0.429767 0.500000 0.519551
O O18 0.432136 0.766566 0.587165
O O19 0.044669 0.500000 0.324449
O O20 0.942382 0.500000 0.019316
O O21 0.000000 0.284660 0.000000
#
# Coordination Sequence:
#
# PCOD9178274 Si02
#       8
#     8   8   8   8   8   8   8   8
#     4  10  20  32  46  67  97 129 156 191 237 280
#     4  10  20  34  50  69  94 121 152 196 246 284
#     4   9  19  33  47  67  97 129 160 195 236 278
#     4  11  21  32  48  71  94 123 163 199 230 276
#     4  10  20  33  51  71  90 119 159 198 235 281
#     4   8  15  30  48  65  91 126 157 193 240 279
#     4  10  19  30  47  72  97 125 161 196 233 278
#     4  10  20  33  46  62  92 133 164 188 228 276
#
# _framework density 15.295707
#
# number of rings (size 3 to 8) (size 9 to 14) (size 15 to 20)
#    0.000    2.250    1.250    3.000    0.000    7.000 
#    0.000    0.000    0.000    0.000    0.000    0.875 
#    0.000    0.000    0.000    0.000    0.000    0.000 
#
# Total GULP energy -178479.150159 kJ/mol
# GULP energy per Si atom -5577.473442 kJ/mol
# Density = 1.526089 g / cm^3
# Si number density = 15.295707 Si / 1000 Ang^3
#
#
#
# Elastic Constant Matrix: (Units=GPa)
#
#
# Indices 1 2 3 4 5 6 
#
# 1 104.2493 49.7627 71.2556 0.0000 1.6415 0.0000
# 2 49.7627 45.5746 53.6329 0.0000 0.6241 0.0000
# 3 71.2556 53.6329 138.6545 0.0000 -1.0884 0.0000
# 4 0.0000 0.0000 0.0000 23.2373 0.0000 -2.1358
# 5 1.6415 0.6241 -1.0884 0.0000 8.9312 0.0000
# 6 0.0000 0.0000 0.0000 -2.1358 0.0000 24.2334
#
#
#
# Elastic Compliance Matrix: (Units=1/GPa)
#
#
# Indices 1 2 3 4 5 6 
#
# 1 0.021009 -0.018658 -0.003603 0.000000 -0.002997 0.000000
# 2 -0.018658 0.057046 -0.012494 0.000000 -0.002080 0.000000
# 3 -0.003603 -0.012494 0.013922 0.000000 0.003232 0.000000
# 4 0.000000 0.000000 0.000000 0.043386 0.000000 0.003824
# 5 -0.002997 -0.002080 0.003232 0.000000 0.113057 0.000000
# 6 0.000000 0.000000 0.000000 0.003824 0.000000 0.041602
#
#
# Mechanical properties :
#
#
# Convention : Reuss Voigt Hill
#
# Bulk Modulus (GPa) = 44.50991 70.86455 57.68723
# Shear Modulus (GPa) = 13.62326 18.86887 16.24606
#
# Velocity S-wave (km/s) = 2.98763 3.51608 3.26257
# Velocity P-wave (km/s) = 6.40812 7.93184 7.21034
#
# Compressibility (1/GPa) = 0.02246690
#
# Stress axis : x y z
#
# Youngs Moduli (GPa) = 47.59973 17.52967 71.83027
#
# Poissons Ratio (x) = 0.32707 0.25879
# Poissons Ratio (y) = 0.88813 0.89742
# Poissons Ratio (z) = 0.17149 0.21901
#
# Static dielectric constant tensor:
#      x y z
#    x 1.495820 0.000000 0.006950 
#    y 0.000000 1.511390 0.000000 
#    z 0.006950 0.000000 1.509930 
# 
# From -- ./inp_files/248360.got.cif
#   From: 2010.05.17/outbox.cif.g08.bks.cpg/sg12_125_cif.got.tgz:248360.got - 2010.06.03 13:09:07.
