data_PCOD9178087
_publ_section_title
;
Structure prediction by ZEFSAII (Michael W. Deem and Ramdas Pophale) SiO2 
 PCOD9178087
Probable space group: C 2/M
;
_chemical_formula_sum "Si O2"
_cell_formula_units_Z 48
_cell_length_a 20.100370
_cell_length_b 7.464151
_cell_length_c 31.388270
_cell_angle_alpha 90.000000
_cell_angle_beta 29.837588
_cell_angle_gamma 90.000000
_cell_volume 2343.055571
_symmetry_space_group_name_H-M "C 2/M"
_symmetry_group_IT_number 12
_symmetry_cell_setting 'monoclinic'
loop_
_space_group_symop_operation_xyz
x,y,z
-x,y,-z
-x,-y,-z
x,-y,z
1/2+x,1/2+y,z
1/2-x,1/2+y,-z
1/2-x,1/2-y,-z
1/2+x,1/2-y,z
loop_
_atom_site_type_symbol
_atom_site_label
_atom_site_fract_x
_atom_site_fract_y
_atom_site_fract_z
Si Si1 0.819023 0.218021 0.225093
Si Si2 0.118067 0.217606 0.466744
Si Si3 0.488415 0.290265 0.623450
Si Si4 0.417449 0.283429 0.754934
Si Si5 0.595481 0.708364 0.731697
Si Si6 0.110860 0.787042 0.906280
O O1 0.663885 0.274706 0.309041
O O2 0.887288 0.283930 0.230447
O O3 0.887769 0.280615 0.143152
O O4 0.817854 0.000000 0.226151
O O5 0.259667 0.280909 0.370842
O O6 0.000000 0.272524 0.500000
O O7 0.083302 0.282840 0.533680
O O8 0.119583 0.000000 0.466183
O O9 0.521071 0.500000 0.609177
O O10 0.484259 0.215319 0.673700
O O11 0.429580 0.500000 0.747485
O O12 0.489996 0.214237 0.756816
O O13 0.260777 0.241020 0.840111
O O14 0.559275 0.500000 0.757526
O O15 0.088138 0.000000 0.915744
O O16 0.000000 0.713126 0.000000
#
# Coordination Sequence:
#
# PCOD9178087 Si02
#       6
#     8   8   8   8   8   8
#     4   9  17  30  49  70  93 123 157 192 233 279
#     4  10  19  30  46  69  96 127 165 201 231 268
#     4   9  17  31  48  66  92 127 164 198 229 268
#     4   9  19  34  50  70  98 127 155 191 237 283
#     4  10  20  32  47  70  99 128 157 194 237 278
#     4   9  18  34  55  75  93 118 155 195 234 282
#
# _framework density 20.486070999999999
#
# number of rings (size 3 to 8) (size 9 to 14) (size 15 to 20)
#    0.000    2.667    1.667    0.000    0.000    2.667 
#    0.000    0.833    0.000    0.000    0.000    0.000 
#    0.000    0.000    0.000    0.000    0.000    0.000 
#
# Total GULP energy -133905.301795 kJ/mol
# GULP energy per Si atom -5579.387575 kJ/mol
# Density = 2.043944 g / cm^3
# Si number density = 20.486071 Si / 1000 Ang^3
#
#
#
# Elastic Constant Matrix: (Units=GPa)
#
#
# Indices 1 2 3 4 5 6 
#
# 1 175.4745 -12.0000 81.3527 -0.0342 25.9909 -0.0204
# 2 -12.0000 55.8061 -5.0704 -0.0146 6.2434 -0.0074
# 3 81.3527 -5.0704 107.3725 0.0002 29.2231 0.0031
# 4 -0.0342 -0.0146 0.0002 18.8221 0.0040 -8.6263
# 5 25.9909 6.2434 29.2231 0.0040 21.7291 -0.0001
# 6 -0.0204 -0.0074 0.0031 -8.6263 -0.0001 0.3427
#
#
#
# Elastic Compliance Matrix: (Units=1/GPa)
#
#
# Indices 1 2 3 4 5 6 
#
# 1 0.009033 0.001810 -0.005799 -0.000029 -0.003526 -0.000104
# 2 0.001810 0.019838 0.002691 -0.000024 -0.011484 -0.000099
# 3 -0.005799 0.002691 0.019176 0.000021 -0.019626 0.000055
# 4 -0.000029 -0.000024 0.000021 -0.005043 0.000014 -0.126928
# 5 -0.003526 -0.011484 -0.019626 0.000014 0.079933 0.000101
# 6 -0.000104 -0.000099 0.000055 -0.126928 0.000101 -0.276948
#
#
# Mechanical properties :
#
#
# Convention : Reuss Voigt Hill
#
# Bulk Modulus (GPa) = 22.00201 51.91309 36.95755
# Shear Modulus (GPa) = -36.69331 26.47016 -5.11157
#
# Velocity S-wave (km/s) = -4.23677 3.59849 -1.58132
# Velocity P-wave (km/s) = 3.62910 6.53155 3.83998
#
# Compressibility (1/GPa) = 0.04545040
#
# Stress axis : x y z
#
# Youngs Moduli (GPa) = 110.69925 50.40917 52.14896
#
# Poissons Ratio (x) = -0.09124 0.30243
# Poissons Ratio (y) = -0.20037 -0.14033
# Poissons Ratio (z) = 0.64197 -0.13565
#
# Static dielectric constant tensor:
#      x y z
#    x 1.755050 0.000000 0.040640 
#    y 0.000000 1.757110 0.000000 
#    z 0.040640 0.000000 1.688890 
# 
# From -- ./inp_files/230362.got.cif
#   From: 2010.05.17/outbox.cif.g08.bks.cpg/sg12_116_cif.got.tgz:230362.got - 2010.06.03 13:09:07.
