data_PCOD9178336
_publ_section_title
;
Structure prediction by ZEFSAII (Michael W. Deem and Ramdas Pophale) SiO2 
 PCOD9178336
Probable space group: C 2/M
;
_chemical_formula_sum "Si O2"
_cell_formula_units_Z 44
_cell_length_a 24.582912
_cell_length_b 8.638351
_cell_length_c 27.330982
_cell_angle_alpha 90.000000
_cell_angle_beta 25.543215
_cell_angle_gamma 90.000000
_cell_volume 2502.590813
_symmetry_space_group_name_H-M "C 2/M"
_symmetry_group_IT_number 12
_symmetry_cell_setting 'monoclinic'
loop_
_space_group_symop_operation_xyz
x,y,z
-x,y,-z
-x,-y,-z
x,-y,z
1/2+x,1/2+y,z
1/2-x,1/2+y,-z
1/2-x,1/2-y,-z
1/2+x,1/2-y,z
loop_
_atom_site_type_symbol
_atom_site_label
_atom_site_fract_x
_atom_site_fract_y
_atom_site_fract_z
Si Si1 0.237226 0.317596 0.183416
Si Si2 0.944456 0.319775 0.864630
Si Si3 0.376077 0.681897 0.630903
Si Si4 0.000000 0.766691 0.000000
Si Si5 0.131595 0.173192 0.790303
Si Si6 0.332385 0.679803 0.861170
O O1 0.275612 0.500000 0.153251
O O2 0.144663 0.280633 0.303206
O O3 0.363027 0.211225 0.090281
O O4 0.174723 0.275707 0.182897
O O5 0.978940 0.500000 0.833114
O O6 0.926078 0.246733 0.826040
O O7 0.041488 0.230702 0.820469
O O8 0.807631 0.310569 0.001710
O O9 0.500000 0.724751 0.500000
O O10 0.383570 0.500000 0.637055
O O11 0.250032 0.715067 0.702008
O O12 0.945550 0.831871 0.095660
O O13 0.177564 0.000000 0.743334
O O14 0.359859 0.500000 0.828952
#
# Coordination Sequence:
#
# PCOD9178336 Si02
#       6
#     8   8   8   4   8   8
#     4  11  20  33  54  79 109 141 176 220 265 318
#     4  10  20  33  50  76 109 146 181 216 259 314
#     4  10  22  39  56  77 106 140 180 224 268 315
#     4  10  19  30  47  76 109 138 169 210 263 314
#     4  11  20  33  54  79 109 141 176 220 265 318
#     4  10  20  33  50  76 109 146 181 216 259 314
#
# _framework density 17.581779999999998
#
# number of rings (size 3 to 8) (size 9 to 14) (size 15 to 20)
#    0.000    1.636    1.818    5.455    0.000    2.909 
#    0.000    2.727    0.000    1.091    0.000    0.000 
#    0.000    0.000    0.000    0.000    0.000    0.000 
#
# Total GULP energy -122518.447202 kJ/mol
# GULP energy per Si atom -5569.020327 kJ/mol
# Density = 1.754176 g / cm^3
# Si number density = 17.581780 Si / 1000 Ang^3
#
#
#
# Elastic Constant Matrix: (Units=GPa)
#
#
# Indices 1 2 3 4 5 6 
#
# 1 148.2131 25.5503 27.5593 -0.0008 17.3757 0.0006
# 2 25.5503 49.8423 19.0614 -0.0033 8.0585 0.0020
# 3 27.5593 19.0614 76.6179 -0.0006 -0.2277 0.0006
# 4 -0.0008 -0.0033 -0.0006 13.2983 0.0010 0.1200
# 5 17.3757 8.0585 -0.2277 0.0010 13.3412 -0.0007
# 6 0.0006 0.0020 0.0006 0.1200 -0.0007 23.1203
#
#
#
# Elastic Compliance Matrix: (Units=1/GPa)
#
#
# Indices 1 2 3 4 5 6 
#
# 1 0.008785 -0.001766 -0.002752 0.000001 -0.010422 0.000000
# 2 -0.001766 0.025253 -0.005686 0.000007 -0.013051 -0.000002
# 3 -0.002752 -0.005686 0.015478 -0.000001 0.007282 0.000000
# 4 0.000001 0.000007 -0.000001 0.075201 -0.000011 -0.000390
# 5 -0.010422 -0.013051 0.007282 -0.000011 0.096536 0.000004
# 6 0.000000 -0.000002 0.000000 -0.000390 0.000004 0.043254
#
#
# Mechanical properties :
#
#
# Convention : Reuss Voigt Hill
#
# Bulk Modulus (GPa) = 34.35438 46.55726 40.45582
# Shear Modulus (GPa) = 16.97114 23.45211 20.21163
#
# Velocity S-wave (km/s) = 3.11025 3.65620 3.39422
# Velocity P-wave (km/s) = 5.69916 6.66045 6.19847
#
# Compressibility (1/GPa) = 0.02910837
#
# Stress axis : x y z
#
# Youngs Moduli (GPa) = 113.83168 39.59885 64.60874
#
# Poissons Ratio (x) = 0.06994 0.17777
# Poissons Ratio (y) = 0.20104 0.36738
# Poissons Ratio (z) = 0.31321 0.22517
#
# Static dielectric constant tensor:
#      x y z
#    x 1.594220 0.000000 -0.000620 
#    y 0.000000 1.617610 0.000000 
#    z -0.000620 0.000000 1.573580 
# 
# From -- ./inp_files/348415.got.cif
#   From: 2010.05.17/outbox.cif.g08.bks.cpg/sg12_175_cif.got.tgz:348415.got - 2010.06.03 13:09:07.
