data_PCOD9178483
_publ_section_title
;
Structure prediction by ZEFSAII (Michael W. Deem and Ramdas Pophale) SiO2 
 PCOD9178483
Probable space group: C 2/M
;
_chemical_formula_sum "Si O2"
_cell_formula_units_Z 60
_cell_length_a 7.563521
_cell_length_b 27.305099
_cell_length_c 21.251371
_cell_angle_alpha 90.000000
_cell_angle_beta 51.483872
_cell_angle_gamma 90.000000
_cell_volume 3434.012148
_symmetry_space_group_name_H-M "C 2/M"
_symmetry_group_IT_number 12
_symmetry_cell_setting 'monoclinic'
loop_
_space_group_symop_operation_xyz
x,y,z
-x,y,-z
-x,-y,-z
x,-y,z
1/2+x,1/2+y,z
1/2-x,1/2+y,-z
1/2-x,1/2-y,-z
1/2+x,1/2-y,z
loop_
_atom_site_type_symbol
_atom_site_label
_atom_site_fract_x
_atom_site_fract_y
_atom_site_fract_z
Si Si1 0.770942 0.854783 0.327144
Si Si2 0.500000 0.394226 0.500000
Si Si3 0.621151 0.675930 0.356665
Si Si4 0.504806 0.313877 0.838632
Si Si5 0.042660 0.699096 0.181678
Si Si6 0.228117 0.807747 0.990295
Si Si7 0.527662 0.943842 0.569066
Si Si8 0.985273 0.277205 0.435491
O O1 0.935579 0.849283 0.231658
O O2 0.662223 0.907550 0.361249
O O3 0.554064 0.817962 0.370175
O O4 0.913683 0.833335 0.354374
O O5 0.424126 0.360585 0.575704
O O6 0.279152 0.425320 0.530433
O O7 0.840531 0.673827 0.263966
O O8 0.634333 0.730301 0.384099
O O9 0.474435 0.258505 0.818726
O O10 0.730288 0.311193 0.830580
O O11 0.309264 0.328829 0.931521
O O12 0.072015 0.680753 0.103004
O O13 0.250000 0.750000 0.000000
O O14 0.000000 0.815598 0.000000
O O15 0.500000 0.941638 0.500000
O O16 0.498656 0.000000 0.596029
O O17 0.000000 0.303113 0.500000
O O18 0.750000 0.250000 0.500000
#
# Coordination Sequence:
#
# PCOD9178483 Si02
#       8
#     8   4   8   8   8   8   8   8
#     4  12  23  37  51  77 107 140 185 224 274 318
#     4  12  23  40  60  84 108 142 183 224 278 326
#     4  12  23  33  51  79 109 145 179 221 258 326
#     4  10  19  30  49  70 103 142 183 225 263 317
#     4  10  19  31  45  72 104 146 183 218 262 315
#     4   8  16  30  45  64  97 140 183 219 259 306
#     4  11  24  43  62  80 105 140 184 236 283 326
#     4  12  23  32  45  66 103 142 177 210 251 310
#
# _framework density 17.472273999999999
#
# number of rings (size 3 to 8) (size 9 to 14) (size 15 to 20)
#    0.000    1.200    4.667    3.000    1.867    1.067 
#    0.000    0.000    0.000    0.000    0.000    0.000 
#    0.000   16.533    0.000    0.000    0.000    0.267 
#
# Total GULP energy -167208.689294 kJ/mol
# GULP energy per Si atom -5573.622976 kJ/mol
# Density = 1.743251 g / cm^3
# Si number density = 17.472274 Si / 1000 Ang^3
#
#
#
# Elastic Constant Matrix: (Units=GPa)
#
#
# Indices 1 2 3 4 5 6 
#
# 1 51.8060 12.6788 21.4115 0.0000 10.8752 0.0000
# 2 12.6788 89.7405 43.1785 0.0000 7.7059 0.0000
# 3 21.4115 43.1785 163.9537 0.0000 16.6044 0.0000
# 4 0.0000 0.0000 0.0000 11.5495 0.0000 -0.5021
# 5 10.8752 7.7059 16.6044 0.0000 23.9253 0.0000
# 6 0.0000 0.0000 0.0000 -0.5021 0.0000 14.9112
#
#
#
# Elastic Compliance Matrix: (Units=1/GPa)
#
#
# Indices 1 2 3 4 5 6 
#
# 1 0.022134 -0.001630 -0.001609 0.000000 -0.008420 0.000000
# 2 -0.001630 0.012962 -0.003069 0.000000 -0.001304 0.000000
# 3 -0.001609 -0.003069 0.007468 0.000000 -0.003464 0.000000
# 4 0.000000 0.000000 0.000000 0.086711 0.000000 0.002920
# 5 -0.008420 -0.001304 -0.003464 0.000000 0.048448 0.000000
# 6 0.000000 0.000000 0.000000 0.002920 0.000000 0.067162
#
#
# Mechanical properties :
#
#
# Convention : Reuss Voigt Hill
#
# Bulk Modulus (GPa) = 33.38963 51.11530 42.25246
# Shear Modulus (GPa) = 18.69278 25.29263 21.99271
#
# Velocity S-wave (km/s) = 3.27441 3.80884 3.55169
# Velocity P-wave (km/s) = 5.78336 6.97579 6.40737
#
# Compressibility (1/GPa) = 0.02994942
#
# Stress axis : x y z
#
# Youngs Moduli (GPa) = 45.17935 77.14833 133.89960
#
# Poissons Ratio (x) = 0.12577 0.21539
# Poissons Ratio (y) = 0.07365 0.41090
# Poissons Ratio (z) = 0.07267 0.23674
#
# Static dielectric constant tensor:
#      x y z
#    x 1.810080 0.000000 -0.120520 
#    y 0.000000 1.488950 0.000000 
#    z -0.120520 0.000000 1.826780 
# 
# From -- ./inp_files/334159.got.cif
#   From: 2010.05.17/outbox.cif.g08.bks.cpg/sg12_168_cif.got.tgz:334159.got - 2010.06.03 13:09:07.
