data_PCOD9178113
_publ_section_title
;
Structure prediction by ZEFSAII (Michael W. Deem and Ramdas Pophale) SiO2 
 PCOD9178113
Probable space group: C 2/M
;
_chemical_formula_sum "Si O2"
_cell_formula_units_Z 56
_cell_length_a 15.258213
_cell_length_b 9.491247
_cell_length_c 19.495622
_cell_angle_alpha 90.000000
_cell_angle_beta 113.599363
_cell_angle_gamma 90.000000
_cell_volume 2587.221259
_symmetry_space_group_name_H-M "C 2/M"
_symmetry_group_IT_number 12
_symmetry_cell_setting 'monoclinic'
loop_
_space_group_symop_operation_xyz
x,y,z
-x,y,-z
-x,-y,-z
x,-y,z
1/2+x,1/2+y,z
1/2-x,1/2+y,-z
1/2-x,1/2-y,-z
1/2+x,1/2-y,z
loop_
_atom_site_type_symbol
_atom_site_label
_atom_site_fract_x
_atom_site_fract_y
_atom_site_fract_z
Si Si1 0.082362 0.338422 0.466875
Si Si2 0.604162 0.664013 0.946207
Si Si3 0.080530 0.662144 0.808325
Si Si4 0.127087 0.162784 0.105058
Si Si5 0.209234 0.161391 0.600511
Si Si6 0.648634 0.161737 0.241644
Si Si7 0.047665 0.160501 0.667343
O O1 0.097877 0.500000 0.451389
O O2 0.172852 0.264575 0.530252
O O3 0.000000 0.339445 0.500000
O O4 0.041172 0.246418 0.391838
O O5 0.630544 0.500000 0.942672
O O6 0.625686 0.763541 0.888939
O O7 0.488266 0.665829 0.919513
O O8 0.644223 0.712300 0.032512
O O9 0.110485 0.500000 0.809693
O O10 0.965386 0.662480 0.784024
O O11 0.092699 0.755295 0.744609
O O12 0.171286 0.251136 0.180516
O O13 0.156000 0.000000 0.118507
O O14 0.299259 0.212470 0.673209
O O15 0.124303 0.155653 0.630092
O O16 0.223068 0.000000 0.580644
O O17 0.680082 0.000000 0.241978
O O18 0.022842 0.000000 0.679003
#
# Coordination Sequence:
#
# PCOD9178113 Si02
#       7
#     8   8   8   8   8   8   8
#     4   9  17  30  49  72  94 116 149 193 232 267
#     4   8  14  26  43  64  91 122 155 188 224 269
#     4  10  19  30  46  70  98 123 150 189 233 273
#     4   8  14  25  43  66  91 120 154 190 225 267
#     4   9  18  33  51  70  92 121 156 188 224 273
#     4   9  18  31  47  69  97 124 150 187 232 274
#     4  10  19  32  51  70  91 122 156 189 225 271
#
# _framework density 21.644843000000002
#
# number of rings (size 3 to 8) (size 9 to 14) (size 15 to 20)
#    0.000    3.000    0.000    2.143    0.000    4.000 
#    0.000    3.571    0.000    0.857    0.000    0.000 
#    0.000    0.000    0.000    0.000    0.000    0.000 
#
# Total GULP energy -156388.948578 kJ/mol
# GULP energy per Si atom -5585.319592 kJ/mol
# Density = 2.159558 g / cm^3
# Si number density = 21.644843 Si / 1000 Ang^3
#
#
#
# Elastic Constant Matrix: (Units=GPa)
#
#
# Indices 1 2 3 4 5 6 
#
# 1 27.3181 51.3980 100.6650 0.0000 5.8318 0.0000
# 2 51.3980 107.3721 21.4317 0.0000 -12.9337 0.0000
# 3 100.6650 21.4317 -15.7731 0.0000 -2.1411 0.0000
# 4 0.0000 0.0000 0.0000 40.7176 0.0000 -1.5387
# 5 5.8318 -12.9337 -2.1411 0.0000 29.4441 0.0000
# 6 0.0000 0.0000 0.0000 -1.5387 0.0000 0.5720
#
#
#
# Elastic Compliance Matrix: (Units=1/GPa)
#
#
# Indices 1 2 3 4 5 6 
#
# 1 0.002480 -0.003563 0.011152 0.000000 -0.001245 0.000000
# 2 -0.003563 0.012929 -0.005979 0.000000 0.005950 0.000000
# 3 0.011152 -0.005979 0.000305 0.000000 -0.004813 0.000000
# 4 0.000000 0.000000 0.000000 0.027339 0.000000 0.073548
# 5 -0.001245 0.005950 -0.004813 0.000000 0.036473 0.000000
# 6 0.000000 0.000000 0.000000 0.073548 0.000000 1.946191
#
#
# Mechanical properties :
#
#
# Convention : Reuss Voigt Hill
#
# Bulk Modulus (GPa) = 52.81416 51.76739 52.29078
# Shear Modulus (GPa) = 2.46450 10.50822 6.48636
#
# Velocity S-wave (km/s) = 1.06821 2.20576 1.73298
# Velocity P-wave (km/s) = 5.09654 5.51868 5.31181
#
# Compressibility (1/GPa) = 0.01893432
#
# Stress axis : x y z
#
# Youngs Moduli (GPa) = 403.30277 77.34443 3275.80031
#
# Poissons Ratio (x) = 0.27558 -36.53298
# Poissons Ratio (y) = 1.43695 19.58683
# Poissons Ratio (z) = -4.49779 0.46246
#
# Static dielectric constant tensor:
#      x y z
#    x 1.852300 0.000000 0.007890 
#    y 0.000000 1.742950 0.000000 
#    z 0.007890 0.000000 1.762650 
# 
# From -- ./inp_files/287383.got.cif
#   From: 2010.05.17/outbox.cif.g08.bks.cpg/sg12_144_cif.got.tgz:287383.got - 2010.06.03 13:09:07.
