data_PCOD9178603
_publ_section_title
;
Structure prediction by ZEFSAII (Michael W. Deem and Ramdas Pophale) SiO2 
 PCOD9178603
Probable space group: C 2/M
;
_chemical_formula_sum "Si O2"
_cell_formula_units_Z 56
_cell_length_a 19.431699
_cell_length_b 19.766044
_cell_length_c 11.331572
_cell_angle_alpha 90.000000
_cell_angle_beta 47.035722
_cell_angle_gamma 90.000000
_cell_volume 3184.934435
_symmetry_space_group_name_H-M "C 2/M"
_symmetry_group_IT_number 12
_symmetry_cell_setting 'monoclinic'
loop_
_space_group_symop_operation_xyz
x,y,z
-x,y,-z
-x,-y,-z
x,-y,z
1/2+x,1/2+y,z
1/2-x,1/2+y,-z
1/2-x,1/2-y,-z
1/2+x,1/2-y,z
loop_
_atom_site_type_symbol
_atom_site_label
_atom_site_fract_x
_atom_site_fract_y
_atom_site_fract_z
Si Si1 0.539720 0.923119 0.183175
Si Si2 0.943389 0.788676 0.442656
Si Si3 0.869098 0.782827 0.889742
Si Si4 0.860788 0.635850 0.514962
Si Si5 0.692678 0.147989 0.157987
Si Si6 0.250686 0.676941 0.564116
Si Si7 0.591978 0.193061 0.942505
O O1 0.446630 0.910402 0.370379
O O2 0.627896 0.902783 0.161213
O O3 0.543193 0.000000 0.138904
O O4 0.549076 0.870185 0.064932
O O5 0.910497 0.710431 0.466393
O O6 0.848666 0.829766 0.520421
O O7 0.000000 0.799850 0.500000
O O8 0.023672 0.802777 0.252484
O O9 0.847143 0.725083 0.816615
O O10 0.795982 0.843775 0.981479
O O11 0.857062 0.741773 0.024980
O O12 0.816176 0.627322 0.695906
O O13 0.780167 0.630628 0.509561
O O14 0.250000 0.750000 0.500000
O O15 0.165564 0.673915 0.756502
O O16 0.500000 0.229685 0.000000
#
# Coordination Sequence:
#
# PCOD9178603 Si02
#       7
#     8   8   8   8   8   8   8
#     4  11  23  36  55  78 109 151 192 224 265 326
#     4  11  18  30  50  77 109 142 172 214 277 339
#     4  10  19  30  50  79 105 141 177 222 279 341
#     4  11  18  36  48  74 109 142 180 225 269 324
#     4  10  20  32  52  75 108 140 182 228 277 323
#     4  10  21  31  49  77 108 144 177 216 270 334
#     4  11  19  35  52  77 114 146 179 223 279 327
#
# _framework density 17.58278
#
# number of rings (size 3 to 8) (size 9 to 14) (size 15 to 20)
#    0.000    1.429    5.714    3.000    4.000    1.429 
#    0.000    0.000    0.000    0.000    0.000    3.000 
#    0.000    2.857    0.000    0.000    0.000    0.000 
#
# Total GULP energy -155949.352911 kJ/mol
# GULP energy per Si atom -5569.619747 kJ/mol
# Density = 1.754276 g / cm^3
# Si number density = 17.582780 Si / 1000 Ang^3
#
#
#
# Elastic Constant Matrix: (Units=GPa)
#
#
# Indices 1 2 3 4 5 6 
#
# 1 115.0306 -0.9142 15.7985 0.0000 -0.4191 0.0000
# 2 -0.9142 20.8125 -12.5800 0.0000 -0.9828 0.0000
# 3 15.7985 -12.5800 63.6616 0.0000 4.0925 0.0000
# 4 0.0000 0.0000 0.0000 8.7450 0.0000 -3.7439
# 5 -0.4191 -0.9828 4.0925 0.0000 37.3142 0.0000
# 6 0.0000 0.0000 0.0000 -3.7439 0.0000 1.8637
#
#
#
# Elastic Compliance Matrix: (Units=1/GPa)
#
#
# Indices 1 2 3 4 5 6 
#
# 1 0.009026 -0.001084 -0.002476 0.000000 0.000344 0.000000
# 2 -0.001084 0.054698 0.011064 0.000000 0.000215 0.000000
# 3 -0.002476 0.011064 0.018623 0.000000 -0.001779 0.000000
# 4 0.000000 0.000000 0.000000 0.816961 0.000000 1.641148
# 5 0.000344 0.000215 -0.001779 0.000000 0.027004 0.000000
# 6 0.000000 0.000000 0.000000 1.641148 0.000000 3.833372
#
#
# Mechanical properties :
#
#
# Convention : Reuss Voigt Hill
#
# Bulk Modulus (GPa) = 10.27172 22.67926 16.47549
# Shear Modulus (GPa) = 1.04665 22.73130 11.88898
#
# Velocity S-wave (km/s) = 0.77238 3.59948 2.60315
# Velocity P-wave (km/s) = 2.57876 5.49559 4.29253
#
# Compressibility (1/GPa) = 0.09735470
#
# Stress axis : x y z
#
# Youngs Moduli (GPa) = 110.79014 18.28216 53.69632
#
# Poissons Ratio (x) = 0.01982 0.13297
# Poissons Ratio (y) = 0.12010 -0.59409
# Poissons Ratio (z) = 0.27435 -0.20227
#
# Static dielectric constant tensor:
#      x y z
#    x 1.665130 0.000000 0.007770 
#    y 0.000000 1.569120 0.000000 
#    z 0.007770 0.000000 1.718750 
# 
# From -- ./inp_files/169413.got.cif
#   From: 2010.05.17/outbox.cif.g08.bks.cpg/sg12_85_cif.got.tgz:169413.got - 2010.06.03 13:09:07.
