data_PCOD9178969
_publ_section_title
;
Structure prediction by ZEFSAII (Michael W. Deem and Ramdas Pophale) SiO2 
 PCOD9178969
Probable space group: C 2/M
;
_chemical_formula_sum "Si O2"
_cell_formula_units_Z 64
_cell_length_a 13.023690
_cell_length_b 13.419213
_cell_length_c 23.699295
_cell_angle_alpha 90.000000
_cell_angle_beta 82.676680
_cell_angle_gamma 90.000000
_cell_volume 4108.083858
_symmetry_space_group_name_H-M "C 2/M"
_symmetry_group_IT_number 12
_symmetry_cell_setting 'monoclinic'
loop_
_space_group_symop_operation_xyz
x,y,z
-x,y,-z
-x,-y,-z
x,-y,z
1/2+x,1/2+y,z
1/2-x,1/2+y,-z
1/2-x,1/2-y,-z
1/2+x,1/2-y,z
loop_
_atom_site_type_symbol
_atom_site_label
_atom_site_fract_x
_atom_site_fract_y
_atom_site_fract_z
Si Si1 0.582782 0.273917 0.858457
Si Si2 0.260927 0.617574 0.846559
Si Si3 0.031461 0.118310 0.234413
Si Si4 0.310413 0.382269 0.049293
Si Si5 0.104047 0.770299 0.459501
Si Si6 0.787006 0.117001 0.447422
Si Si7 0.994264 0.881180 0.366601
Si Si8 0.373059 0.265312 0.938537
O O1 0.658710 0.181567 0.842533
O O2 0.540257 0.322289 0.804202
O O3 0.645075 0.353363 0.892527
O O4 0.483086 0.244452 0.902805
O O5 0.241076 0.500000 0.852856
O O6 0.349663 0.633666 0.793220
O O7 0.311201 0.660805 0.900479
O O8 0.012825 0.146484 0.300472
O O9 0.010438 0.000000 0.229933
O O10 0.312592 0.500000 0.040011
O O11 0.196337 0.333823 0.051509
O O12 0.376035 0.322690 0.997601
O O13 0.161664 0.848326 0.497009
O O14 0.184659 0.681435 0.444633
O O15 0.000000 0.737752 0.500000
O O16 0.067398 0.822243 0.404649
O O17 0.876105 0.136834 0.394709
O O18 0.765122 0.000000 0.449953
O O19 0.012936 0.000000 0.371438
#
# Coordination Sequence:
#
# PCOD9178969 Si02
#       8
#     8   8   8   8   8   8   8   8
#     4  10  19  31  48  68  89 115 148 184 221 262
#     4   9  18  32  48  65  88 118 148 180 221 267
#     4   9  18  32  48  67  90 116 149 187 223 259
#     4  10  19  31  48  68  90 116 145 180 222 266
#     4   9  17  29  46  68  93 121 151 183 220 262
#     4   9  17  29  46  69  94 119 149 184 222 263
#     4   9  17  30  48  67  89 119 152 185 220 260
#     4   9  19  32  45  67  93 114 143 181 221 267
#
# _framework density 15.579039
#
# number of rings (size 3 to 8) (size 9 to 14) (size 15 to 20)
#    0.000    2.750    0.000    1.500    0.000    5.250 
#    0.000    0.000    0.000    5.250    0.000    0.000 
#    0.000    0.000    0.000    0.000    0.000    0.000 
#
# Total GULP energy -178347.564773 kJ/mol
# GULP energy per Si atom -5573.361399 kJ/mol
# Density = 1.554358 g / cm^3
# Si number density = 15.579039 Si / 1000 Ang^3
#
#
#
# Elastic Constant Matrix: (Units=GPa)
#
#
# Indices 1 2 3 4 5 6 
#
# 1 107.0037 72.2118 56.3517 0.0000 3.7015 0.0000
# 2 72.2118 76.6229 51.5112 0.0000 -2.4292 0.0000
# 3 56.3517 51.5112 115.6334 0.0000 -1.7781 0.0000
# 4 0.0000 0.0000 0.0000 18.0502 0.0000 -2.7297
# 5 3.7015 -2.4292 -1.7781 0.0000 11.8224 0.0000
# 6 0.0000 0.0000 0.0000 -2.7297 0.0000 21.3051
#
#
#
# Elastic Compliance Matrix: (Units=1/GPa)
#
#
# Indices 1 2 3 4 5 6 
#
# 1 0.028468 -0.025429 -0.002769 0.000000 -0.014555 0.000000
# 2 -0.025429 0.041424 -0.005821 0.000000 0.015597 0.000000
# 3 -0.002769 -0.005821 0.012615 0.000000 0.001568 0.000000
# 4 0.000000 0.000000 0.000000 0.056496 0.000000 0.007239
# 5 -0.014555 0.015597 0.001568 0.000000 0.092582 0.000000
# 6 0.000000 0.000000 0.000000 0.007239 0.000000 0.047865
#
#
# Mechanical properties :
#
#
# Convention : Reuss Voigt Hill
#
# Bulk Modulus (GPa) = 69.11702 73.26769 71.19236
# Shear Modulus (GPa) = 14.19202 18.18123 16.18663
#
# Velocity S-wave (km/s) = 3.02150 3.41989 3.22685
# Velocity P-wave (km/s) = 7.52558 7.91997 7.72529
#
# Compressibility (1/GPa) = 0.01446822
#
# Stress axis : x y z
#
# Youngs Moduli (GPa) = 35.12685 24.14082 79.27236
#
# Poissons Ratio (x) = 0.61388 0.21954
# Poissons Ratio (y) = 0.89324 0.46143
# Poissons Ratio (z) = 0.09728 0.14052
#
# Static dielectric constant tensor:
#      x y z
#    x 1.518120 0.000000 -0.007910 
#    y 0.000000 1.489250 0.000000 
#    z -0.007910 0.000000 1.512240 
# 
# From -- ./inp_files/335213.got.cif
#   From: 2010.05.17/outbox.cif.g08.bks.cpg/sg12_168_cif.got.tgz:335213.got - 2010.06.03 13:09:07.
