data_PCOD9178324
_publ_section_title
;
Structure prediction by ZEFSAII (Michael W. Deem and Ramdas Pophale) SiO2 
 PCOD9178324
Probable space group: C 2/M
;
_chemical_formula_sum "Si O2"
_cell_formula_units_Z 48
_cell_length_a 25.017857
_cell_length_b 8.717259
_cell_length_c 23.512157
_cell_angle_alpha 90.000000
_cell_angle_beta 22.699420
_cell_angle_gamma 90.000000
_cell_volume 1978.762162
_symmetry_space_group_name_H-M "C 2/M"
_symmetry_group_IT_number 12
_symmetry_cell_setting 'monoclinic'
loop_
_space_group_symop_operation_xyz
x,y,z
-x,y,-z
-x,-y,-z
x,-y,z
1/2+x,1/2+y,z
1/2-x,1/2+y,-z
1/2-x,1/2-y,-z
1/2+x,1/2-y,z
loop_
_atom_site_type_symbol
_atom_site_label
_atom_site_fract_x
_atom_site_fract_y
_atom_site_fract_z
Si Si1 0.431280 0.317860 0.787740
Si Si2 0.626855 0.817581 0.037942
Si Si3 0.275320 0.319374 0.536816
Si Si4 0.503726 0.674852 0.429492
Si Si5 0.710262 0.678224 0.713760
Si Si6 0.195720 0.815873 0.856775
O O1 0.429746 0.500000 0.801114
O O2 0.284915 0.277398 0.903210
O O3 0.558673 0.284886 0.620617
O O4 0.451837 0.233244 0.827573
O O5 0.600297 0.737529 0.003132
O O6 0.617232 0.000000 0.039629
O O7 0.256430 0.500000 0.551882
O O8 0.250000 0.250000 0.500000
O O9 0.184734 0.261457 0.678644
O O10 0.500000 0.647333 0.500000
O O11 0.486947 0.500000 0.421169
O O12 0.376649 0.794256 0.550494
O O13 0.655666 0.745012 0.272212
O O14 0.674358 0.500000 0.744151
O O15 0.662377 0.732747 0.823945
O O16 0.201360 0.000000 0.850202
#
# Coordination Sequence:
#
# PCOD9178324 Si02
#       6
#     8   8   8   8   8   8
#     4   9  20  37  54  77 110 146 182 220 267 321
#     4  10  19  32  55  84 112 144 180 219 265 322
#     4  11  23  39  59  80 106 142 184 230 275 320
#     4   9  16  26  42  67 101 138 173 211 258 312
#     4  10  20  33  50  74 104 139 179 221 269 323
#     4  10  19  30  47  74 109 144 176 215 266 325
#
# _framework density 24.25759
#
# number of rings (size 3 to 8) (size 9 to 14) (size 15 to 20)
#    0.000    2.167    0.000    3.500    0.000    7.333 
#    0.000    0.000    0.000    1.000    0.000    7.000 
#    0.000    0.000    0.000    0.000    0.000    0.000 
#
# Total GULP energy -133948.318523 kJ/mol
# GULP energy per Si atom -5581.179938 kJ/mol
# Density = 2.420238 g / cm^3
# Si number density = 24.257590 Si / 1000 Ang^3
#
#
#
# Elastic Constant Matrix: (Units=GPa)
#
#
# Indices 1 2 3 4 5 6 
#
# 1 122.8124 39.3176 39.4343 0.0008 53.3162 0.0000
# 2 39.3176 57.1579 28.5160 0.0040 30.5555 -0.0026
# 3 39.4343 28.5160 148.5050 0.0017 44.5213 -0.0019
# 4 0.0008 0.0040 0.0017 48.4054 -0.0014 28.4545
# 5 53.3162 30.5555 44.5213 -0.0014 60.5306 0.0011
# 6 0.0000 -0.0026 -0.0019 28.4545 0.0011 43.4315
#
#
#
# Elastic Compliance Matrix: (Units=1/GPa)
#
#
# Indices 1 2 3 4 5 6 
#
# 1 0.013861 -0.004147 0.000190 0.000000 -0.010256 0.000000
# 2 -0.004147 0.025385 -0.001317 -0.000005 -0.008192 0.000005
# 3 0.000190 -0.001317 0.008707 -0.000001 -0.005907 0.000001
# 4 0.000000 -0.000005 -0.000001 0.033599 0.000005 -0.022012
# 5 -0.010256 -0.008192 -0.005907 0.000005 0.034034 -0.000005
# 6 0.000000 0.000005 0.000001 -0.022012 -0.000005 0.037446
#
#
# Mechanical properties :
#
#
# Convention : Reuss Voigt Hill
#
# Bulk Modulus (GPa) = 26.73457 60.33457 43.53457
# Shear Modulus (GPa) = 28.40118 45.22066 36.81092
#
# Velocity S-wave (km/s) = 3.42543 4.32231 3.89974
# Velocity P-wave (km/s) = 5.16622 7.05948 6.18571
#
# Compressibility (1/GPa) = 0.03740475
#
# Stress axis : x y z
#
# Youngs Moduli (GPa) = 72.14246 39.39360 114.84970
#
# Poissons Ratio (x) = 0.16338 -0.02185
# Poissons Ratio (y) = 0.29920 0.15127
# Poissons Ratio (z) = -0.01372 0.05189
#
# Static dielectric constant tensor:
#      x y z
#    x 2.138730 0.000000 -0.064940 
#    y 0.000000 1.817790 0.000000 
#    z -0.064940 0.000000 2.007630 
# 
# From -- ./inp_files/351045.got.cif
#   From: 2010.05.17/outbox.cif.g08.bks.cpg/sg12_176_cif.got.tgz:351045.got - 2010.06.03 13:09:07.
