data_PCOD9178750
_publ_section_title
;
Structure prediction by ZEFSAII (Michael W. Deem and Ramdas Pophale) SiO2 
 PCOD9178750
Probable space group: C 2/M
;
_chemical_formula_sum "Si O2"
_cell_formula_units_Z 56
_cell_length_a 13.828450
_cell_length_b 7.373099
_cell_length_c 20.892853
_cell_angle_alpha 90.000000
_cell_angle_beta 70.192439
_cell_angle_gamma 90.000000
_cell_volume 2004.173299
_symmetry_space_group_name_H-M "C 2/M"
_symmetry_group_IT_number 12
_symmetry_cell_setting 'monoclinic'
loop_
_space_group_symop_operation_xyz
x,y,z
-x,y,-z
-x,-y,-z
x,-y,z
1/2+x,1/2+y,z
1/2-x,1/2+y,-z
1/2-x,1/2-y,-z
1/2+x,1/2-y,z
loop_
_atom_site_type_symbol
_atom_site_label
_atom_site_fract_x
_atom_site_fract_y
_atom_site_fract_z
Si Si1 0.323519 0.221437 0.721815
Si Si2 0.896792 0.292415 0.296035
Si Si3 0.955741 0.701848 0.578173
Si Si4 0.105689 0.216600 0.010314
Si Si5 0.762574 0.792905 0.127872
Si Si6 0.742524 0.784671 0.575135
Si Si7 0.525643 0.216305 0.848099
O O1 0.217544 0.288082 0.711916
O O2 0.424501 0.275687 0.657240
O O3 0.308683 0.281921 0.799108
O O4 0.322080 0.000000 0.722789
O O5 0.930711 0.500000 0.297303
O O6 0.864869 0.217584 0.371997
O O7 0.968059 0.212451 0.225585
O O8 0.004104 0.500000 0.573105
O O9 0.837689 0.685065 0.583835
O O10 0.000000 0.784515 0.500000
O O11 0.079316 0.251185 0.090230
O O12 0.108916 0.000000 0.001845
O O13 0.202469 0.290879 0.948422
O O14 0.000000 0.285002 0.000000
O O15 0.876416 0.797260 0.136551
O O16 0.728555 0.000000 0.124992
O O17 0.750000 0.750000 0.500000
O O18 0.751860 0.000000 0.584710
O O19 0.542137 0.000000 0.842601
#
# Coordination Sequence:
#
# PCOD9178750 Si02
#       7
#     8   8   8   8   8   8   8
#     4   8  13  22  36  51  68  95 129 160 191 231
#     4   8  15  25  35  49  70  95 123 158 197 235
#     4   9  17  29  45  65  87 110 139 175 212 249
#     4   8  13  19  25  36  57  85 116 149 183 218
#     4   8  13  20  28  39  59  88 120 151 183 221
#     4  10  19  31  46  63  84 110 141 175 211 250
#     4   9  14  19  28  42  60  84 116 151 186 224
#
# _framework density 27.941694999999999
#
# number of rings (size 3 to 8) (size 9 to 14) (size 15 to 20)
#    0.000    3.429    0.000    1.714    0.000    4.000 
#    0.000    0.000    0.000    0.000    0.000    0.000 
#    0.000    0.000    0.000    1.286    0.000   13.143 
#
# Total GULP energy -156157.835701 kJ/mol
# GULP energy per Si atom -5577.065561 kJ/mol
# Density = 2.787810 g / cm^3
# Si number density = 27.941695 Si / 1000 Ang^3
#
#
#
# Elastic Constant Matrix: (Units=GPa)
#
#
# Indices 1 2 3 4 5 6 
#
# 1 107.0069 4.5358 23.7234 0.0000 -41.5469 0.0000
# 2 4.5358 130.3634 7.7699 0.0000 -1.3673 -0.0001
# 3 23.7234 7.7699 348.4062 0.0000 -45.0317 0.0000
# 4 0.0000 0.0000 0.0000 16.5240 0.0000 1.7427
# 5 -41.5469 -1.3673 -45.0317 0.0000 41.5171 0.0000
# 6 0.0000 -0.0001 0.0000 1.7427 0.0000 10.8773
#
#
#
# Elastic Compliance Matrix: (Units=1/GPa)
#
#
# Indices 1 2 3 4 5 6 
#
# 1 0.015672 -0.000435 0.001126 0.000000 0.016889 0.000000
# 2 -0.000435 0.007693 -0.000192 0.000000 -0.000391 0.000000
# 3 0.001126 -0.000192 0.003422 0.000000 0.004832 0.000000
# 4 0.000000 0.000000 0.000000 0.061558 0.000000 -0.009862
# 5 0.016889 -0.000391 0.004832 0.000000 0.046216 0.000000
# 6 0.000000 0.000000 0.000000 -0.009862 0.000000 0.093515
#
#
# Mechanical properties :
#
#
# Convention : Reuss Voigt Hill
#
# Bulk Modulus (GPa) = 35.99296 73.09274 54.54285
# Shear Modulus (GPa) = 21.15577 50.43350 35.79464
#
# Velocity S-wave (km/s) = 2.75460 4.25309 3.58306
# Velocity P-wave (km/s) = 4.79860 7.09465 6.05643
#
# Compressibility (1/GPa) = 0.02778321
#
# Stress axis : x y z
#
# Youngs Moduli (GPa) = 63.80961 129.98190 292.19024
#
# Poissons Ratio (x) = 0.05657 -0.32888
# Poissons Ratio (y) = 0.02777 0.05624
# Poissons Ratio (z) = -0.07182 0.02502
#
# Static dielectric constant tensor:
#      x y z
#    x 2.356590 0.000000 0.189230 
#    y 0.000000 -1.217020 0.000000 
#    z 0.189230 0.000000 2.493190 
# 
# From -- ./inp_files/319030.got.cif
#   From: 2010.05.17/outbox.cif.g08.bks.cpg/sg12_160_cif.got.tgz:319030.got - 2010.06.03 13:09:07.
