data_PCOD9178699
_publ_section_title
;
Structure prediction by ZEFSAII (Michael W. Deem and Ramdas Pophale) SiO2 
 PCOD9178699
Probable space group: C 2/M
;
_chemical_formula_sum "Si O2"
_cell_formula_units_Z 44
_cell_length_a 8.092440
_cell_length_b 12.652890
_cell_length_c 19.263580
_cell_angle_alpha 90.000000
_cell_angle_beta 111.644192
_cell_angle_gamma 90.000000
_cell_volume 1833.377962
_symmetry_space_group_name_H-M "C 2/M"
_symmetry_group_IT_number 12
_symmetry_cell_setting 'monoclinic'
loop_
_space_group_symop_operation_xyz
x,y,z
-x,y,-z
-x,-y,-z
x,-y,z
1/2+x,1/2+y,z
1/2-x,1/2+y,-z
1/2-x,1/2-y,-z
1/2+x,1/2-y,z
loop_
_atom_site_type_symbol
_atom_site_label
_atom_site_fract_x
_atom_site_fract_y
_atom_site_fract_z
Si Si1 0.625542 0.500000 0.876905
Si Si2 0.953816 0.116191 0.411680
Si Si3 0.404979 0.680546 0.920986
Si Si4 0.397993 0.185455 0.232489
Si Si5 0.202895 0.815115 0.336415
Si Si6 0.887066 0.500000 0.804095
Si Si7 0.812423 0.500000 0.038170
O O1 0.519116 0.604513 0.887009
O O2 0.691661 0.500000 0.807856
O O3 0.794626 0.500000 0.954369
O O4 0.817966 0.211675 0.375269
O O5 0.000000 0.120080 0.500000
O O6 0.136314 0.127304 0.395404
O O7 0.875463 0.000000 0.382980
O O8 0.253118 0.723611 0.845550
O O9 0.297737 0.600077 0.952414
O O10 0.500000 0.745654 0.000000
O O11 0.309819 0.135815 0.288279
O O12 0.515351 0.282701 0.274258
O O13 0.540845 0.103034 0.224303
O O14 0.016001 0.500000 0.889968
#
# Coordination Sequence:
#
# PCOD9178699 Si02
#       7
#     4   8   8   8   8   4   4
#     4   9  15  25  49  83 109 145 203 272 321 364
#     4  10  22  43  72 102 131 172 216 258 321 396
#     4   8  15  31  52  77 115 161 212 266 320 373
#     4  10  22  38  55  85 123 166 211 262 319 381
#     4  10  23  42  63  92 137 169 207 268 322 382
#     4  10  19  30  54  84 111 155 208 253 312 389
#     4   7  13  27  45  75 111 140 198 269 319 369
#
# _framework density 23.999416
#
# number of rings (size 3 to 8) (size 9 to 14) (size 15 to 20)
#    0.000    2.727    0.000    2.455    2.545    2.909 
#    0.000    0.909    0.000    7.636    0.000    0.000 
#    0.000    1.273    0.000    0.000    0.000    0.000 
#
# Total GULP energy -122641.770174 kJ/mol
# GULP energy per Si atom -5574.625917 kJ/mol
# Density = 2.394479 g / cm^3
# Si number density = 23.999416 Si / 1000 Ang^3
#
#
#
# Elastic Constant Matrix: (Units=GPa)
#
#
# Indices 1 2 3 4 5 6 
#
# 1 92.1784 27.9761 59.9208 0.0000 -43.6387 0.0000
# 2 27.9761 61.5183 34.9270 0.0000 -6.9706 0.0000
# 3 59.9208 34.9270 128.4583 0.0000 -35.8072 0.0000
# 4 0.0000 0.0000 0.0000 42.7983 0.0000 -15.2379
# 5 -43.6387 -6.9706 -35.8072 0.0000 56.8594 0.0000
# 6 0.0000 0.0000 0.0000 -15.2379 0.0000 44.6213
#
#
#
# Elastic Compliance Matrix: (Units=1/GPa)
#
#
# Indices 1 2 3 4 5 6 
#
# 1 0.022049 -0.005643 -0.005126 0.000000 0.013002 0.000000
# 2 -0.005643 0.020727 -0.004248 0.000000 -0.004465 0.000000
# 3 -0.005126 -0.004248 0.012237 0.000000 0.003251 0.000000
# 4 0.000000 0.000000 0.000000 0.026600 0.000000 0.009084
# 5 0.013002 -0.004465 0.003251 0.000000 0.029066 0.000000
# 6 0.000000 0.000000 0.000000 0.009084 0.000000 0.025513
#
#
# Mechanical properties :
#
#
# Convention : Reuss Voigt Hill
#
# Bulk Modulus (GPa) = 40.03443 58.64473 49.33958
# Shear Modulus (GPa) = 28.64447 39.47788 34.06117
#
# Velocity S-wave (km/s) = 3.45853 4.06020 3.77138
# Velocity P-wave (km/s) = 5.71543 6.81684 6.29029
#
# Compressibility (1/GPa) = 0.02497850
#
# Stress axis : x y z
#
# Youngs Moduli (GPa) = 45.35324 48.24513 81.71859
#
# Poissons Ratio (x) = 0.27226 0.41892
# Poissons Ratio (y) = 0.25594 0.34714
# Poissons Ratio (z) = 0.23250 0.20494
#
# Static dielectric constant tensor:
#      x y z
#    x 1.982650 0.000000 0.006160 
#    y 0.000000 1.965230 0.000000 
#    z 0.006160 0.000000 1.943980 
# 
# From -- ./inp_files/255471.got.cif
#   From: 2010.05.17/outbox.cif.g08.bks.cpg/sg12_128_cif.got.tgz:255471.got - 2010.06.03 13:09:07.
