data_PCOD9178584
_publ_section_title
;
Structure prediction by ZEFSAII (Michael W. Deem and Ramdas Pophale) SiO2 
 PCOD9178584
Probable space group: C 2/M
;
_chemical_formula_sum "Si O2"
_cell_formula_units_Z 60
_cell_length_a 19.782100
_cell_length_b 9.931128
_cell_length_c 16.306750
_cell_angle_alpha 90.000000
_cell_angle_beta 119.055864
_cell_angle_gamma 90.000000
_cell_volume 2800.416685
_symmetry_space_group_name_H-M "C 2/M"
_symmetry_group_IT_number 12
_symmetry_cell_setting 'monoclinic'
loop_
_space_group_symop_operation_xyz
x,y,z
-x,y,-z
-x,-y,-z
x,-y,z
1/2+x,1/2+y,z
1/2-x,1/2+y,-z
1/2-x,1/2-y,-z
1/2+x,1/2-y,z
loop_
_atom_site_type_symbol
_atom_site_label
_atom_site_fract_x
_atom_site_fract_y
_atom_site_fract_z
Si Si1 0.814096 0.246262 0.437178
Si Si2 0.743646 0.500000 0.489471
Si Si3 0.416610 0.343746 0.085078
Si Si4 0.155403 0.658324 0.282255
Si Si5 0.956303 0.847148 0.694461
Si Si6 0.914989 0.160994 0.359889
Si Si7 0.379684 0.158283 0.924911
Si Si8 0.702329 0.662857 0.853395
O O1 0.794951 0.381979 0.472934
O O2 0.806488 0.119228 0.492824
O O3 0.740800 0.219701 0.332658
O O4 0.891108 0.237947 0.427745
O O5 0.407638 0.500000 0.054456
O O6 0.482063 0.340855 0.193853
O O7 0.339732 0.294273 0.087976
O O8 0.429586 0.249803 0.014690
O O9 0.163442 0.500000 0.308127
O O10 0.115034 0.672579 0.170090
O O11 0.106272 0.736336 0.320548
O O12 0.003570 0.823618 0.638912
O O13 0.924201 0.000000 0.677881
O O14 0.852439 0.203012 0.253943
O O15 0.906274 0.000000 0.370308
O O16 0.300243 0.500000 0.147026
O O17 0.290711 0.198898 0.891584
O O18 0.891132 0.500000 0.950442
#
# Coordination Sequence:
#
# PCOD9178584 Si02
#       8
#     8   4   8   8   8   8   8   8
#     4  11  20  41  64  94 117 146 179 230 276 347
#     4  10  24  36  66  98 120 140 174 226 294 332
#     4   9  18  33  49  73 110 146 194 242 282 316
#     4  11  22  37  58  83 117 152 189 235 288 334
#     4   9  21  37  57  81 110 160 201 234 276 330
#     4   9  15  33  62  83 110 150 195 230 272 336
#     4  10  19  30  50  77 106 151 190 234 285 335
#     4   8  14  27  50  77 103 143 188 235 280 329
#
# _framework density 21.425381999999999
#
# number of rings (size 3 to 8) (size 9 to 14) (size 15 to 20)
#    0.000    2.400    2.667    2.000    0.933    1.600 
#    1.200    2.667    1.467    4.800    0.000    0.000 
#    0.000    0.000    0.000    0.000    0.000    0.000 
#
# Total GULP energy -167061.244589 kJ/mol
# GULP energy per Si atom -5568.708153 kJ/mol
# Density = 2.137662 g / cm^3
# Si number density = 21.425382 Si / 1000 Ang^3
#
#
#
# Elastic Constant Matrix: (Units=GPa)
#
#
# Indices 1 2 3 4 5 6 
#
# 1 72.2077 37.5469 28.9402 0.0000 -34.1839 0.0000
# 2 37.5469 110.6766 48.3141 0.0000 -21.2599 0.0000
# 3 28.9402 48.3141 76.6939 0.0000 0.2957 0.0000
# 4 0.0000 0.0000 0.0000 45.3831 0.0000 0.0543
# 5 -34.1839 -21.2599 0.2957 0.0000 30.6047 0.0000
# 6 0.0000 0.0000 0.0000 0.0543 0.0000 26.0162
#
#
#
# Elastic Compliance Matrix: (Units=1/GPa)
#
#
# Indices 1 2 3 4 5 6 
#
# 1 0.044418 0.003213 -0.018986 0.000000 0.052029 0.000000
# 2 0.003213 0.015567 -0.011075 0.000000 0.014510 0.000000
# 3 -0.018986 -0.011075 0.027293 0.000000 -0.029164 0.000000
# 4 0.000000 0.000000 0.000000 0.022035 0.000000 -0.000046
# 5 0.052029 0.014510 -0.029164 0.000000 0.101149 0.000000
# 6 0.000000 0.000000 0.000000 -0.000046 0.000000 0.038438
#
#
# Mechanical properties :
#
#
# Convention : Reuss Voigt Hill
#
# Bulk Modulus (GPa) = 29.77753 54.35337 42.06545
# Shear Modulus (GPa) = 15.93424 30.05261 22.99343
#
# Velocity S-wave (km/s) = 2.73006 3.74928 3.27951
# Velocity P-wave (km/s) = 4.88529 6.64579 5.83235
#
# Compressibility (1/GPa) = 0.03358237
#
# Stress axis : x y z
#
# Youngs Moduli (GPa) = 22.51323 64.23788 36.64004
#
# Poissons Ratio (x) = -0.20642 0.69565
# Poissons Ratio (y) = -0.07234 0.40580
# Poissons Ratio (z) = 0.42744 0.71145
#
# Static dielectric constant tensor:
#      x y z
#    x 1.852720 0.000000 0.069050 
#    y 0.000000 1.698900 0.000000 
#    z 0.069050 0.000000 1.868420 
# 
# From -- ./inp_files/281448.got.cif
#   From: 2010.05.17/outbox.cif.g08.bks.cpg/sg12_141_cif.got.tgz:281448.got - 2010.06.03 13:09:07.
