data_PCOD9178207
_publ_section_title
;
Structure prediction by ZEFSAII (Michael W. Deem and Ramdas Pophale) SiO2 
 PCOD9178207
Probable space group: C 2/M
;
_chemical_formula_sum "Si O2"
_cell_formula_units_Z 48
_cell_length_a 15.189605
_cell_length_b 14.222910
_cell_length_c 9.442655
_cell_angle_alpha 90.000000
_cell_angle_beta 98.671772
_cell_angle_gamma 90.000000
_cell_volume 2016.674188
_symmetry_space_group_name_H-M "C 2/M"
_symmetry_group_IT_number 12
_symmetry_cell_setting 'monoclinic'
loop_
_space_group_symop_operation_xyz
x,y,z
-x,y,-z
-x,-y,-z
x,-y,z
1/2+x,1/2+y,z
1/2-x,1/2+y,-z
1/2-x,1/2-y,-z
1/2+x,1/2-y,z
loop_
_atom_site_type_symbol
_atom_site_label
_atom_site_fract_x
_atom_site_fract_y
_atom_site_fract_z
Si Si1 0.769625 0.106454 0.459491
Si Si2 0.184694 0.604149 0.726471
Si Si3 0.120666 0.391170 0.215785
Si Si4 0.894623 0.106767 0.868788
Si Si5 0.432281 0.279627 0.611176
Si Si6 0.645016 0.230440 0.952668
O O1 0.691785 0.109174 0.559477
O O2 0.723139 0.116964 0.296759
O O3 0.839370 0.185249 0.518716
O O4 0.808329 0.000000 0.479115
O O5 0.151197 0.500000 0.758565
O O6 0.288967 0.609160 0.799422
O O7 0.134814 0.687500 0.794645
O O8 0.094834 0.500000 0.219158
O O9 0.071300 0.319433 0.308096
O O10 0.116569 0.349973 0.057532
O O11 0.944516 0.146466 0.742976
O O12 0.902136 0.175362 0.004934
O O13 0.916136 0.000000 0.904030
O O14 0.500000 0.281727 0.500000
O O15 0.750000 0.250000 0.000000
#
# Coordination Sequence:
#
# PCOD9178207 Si02
#       6
#     8   8   8   8   8   8
#     4   9  18  32  50  74 101 126 155 198 246 286
#     4   8  13  24  43  67  94 121 151 188 234 289
#     4  10  20  33  49  72 102 128 155 199 247 284
#     4   8  15  26  39  60  89 117 150 193 233 271
#     4  10  19  30  47  70  97 131 165 196 234 285
#     4   9  16  26  43  69  96 123 155 193 240 286
#
# _framework density 23.801565
#
# number of rings (size 3 to 8) (size 9 to 14) (size 15 to 20)
#    0.000    3.000    0.000    3.500    0.000    2.333 
#    0.000    0.000    0.000    0.000    0.000   42.000 
#    0.000   90.667    0.000    0.000    0.000    0.000 
#
# Total GULP energy -134142.727542 kJ/mol
# GULP energy per Si atom -5589.280314 kJ/mol
# Density = 2.374739 g / cm^3
# Si number density = 23.801565 Si / 1000 Ang^3
#
#
#
# Elastic Constant Matrix: (Units=GPa)
#
#
# Indices 1 2 3 4 5 6 
#
# 1 63.1734 31.9703 25.0904 0.0000 -14.9723 0.0000
# 2 31.9703 194.3075 46.6541 0.0000 -33.5012 0.0000
# 3 25.0904 46.6541 67.1503 0.0000 -19.7242 0.0000
# 4 0.0000 0.0000 0.0000 19.2928 0.0000 -4.1471
# 5 -14.9723 -33.5012 -19.7242 0.0000 42.3758 0.0000
# 6 0.0000 0.0000 0.0000 -4.1471 0.0000 -11.9841
#
#
#
# Elastic Compliance Matrix: (Units=1/GPa)
#
#
# Indices 1 2 3 4 5 6 
#
# 1 0.019418 -0.001339 -0.005353 0.000000 0.003311 0.000000
# 2 -0.001339 0.006707 -0.003175 0.000000 0.003351 0.000000
# 3 -0.005353 -0.003175 0.020625 0.000000 0.005199 0.000000
# 4 0.000000 0.000000 0.000000 0.048244 0.000000 -0.016695
# 5 0.003311 0.003351 0.005199 0.000000 0.029837 0.000000
# 6 0.000000 0.000000 0.000000 -0.016695 0.000000 -0.077667
#
#
# Mechanical properties :
#
#
# Convention : Reuss Voigt Hill
#
# Bulk Modulus (GPa) = 37.01472 59.11787 48.06629
# Shear Modulus (GPa) = 65.87367 24.66468 45.26917
#
# Velocity S-wave (km/s) = 5.26652 3.22260 4.36586
# Velocity P-wave (km/s) = 7.25030 6.22403 6.75668
#
# Compressibility (1/GPa) = 0.02701628
#
# Stress axis : x y z
#
# Youngs Moduli (GPa) = 51.49982 149.09887 48.48489
#
# Poissons Ratio (x) = 0.19962 0.25952
# Poissons Ratio (y) = 0.06895 0.15395
# Poissons Ratio (z) = 0.27566 0.47341
#
# Static dielectric constant tensor:
#      x y z
#    x 1.930580 0.000000 0.040350 
#    y 0.000000 1.903040 0.000000 
#    z 0.040350 0.000000 1.891640 
# 
# From -- ./inp_files/73594.got.cif
#   From: 2010.05.17/outbox.cif.g08.bks.cpg/sg12_37_cif.got.tgz:73594.got - 2010.06.03 13:09:07.
