data_PCOD9178582
_publ_section_title
;
Structure prediction by ZEFSAII (Michael W. Deem and Ramdas Pophale) SiO2 
 PCOD9178582
Probable space group: C 2/M
;
_chemical_formula_sum "Si O2"
_cell_formula_units_Z 56
_cell_length_a 21.710091
_cell_length_b 7.894172
_cell_length_c 30.030419
_cell_angle_alpha 90.000000
_cell_angle_beta 152.035016
_cell_angle_gamma 90.000000
_cell_volume 2413.455896
_symmetry_space_group_name_H-M "C 2/M"
_symmetry_group_IT_number 12
_symmetry_cell_setting 'monoclinic'
loop_
_space_group_symop_operation_xyz
x,y,z
-x,y,-z
-x,-y,-z
x,-y,z
1/2+x,1/2+y,z
1/2-x,1/2+y,-z
1/2-x,1/2-y,-z
1/2+x,1/2-y,z
loop_
_atom_site_type_symbol
_atom_site_label
_atom_site_fract_x
_atom_site_fract_y
_atom_site_fract_z
Si Si1 0.200808 0.703550 0.233559
Si Si2 0.212671 0.303413 0.530276
Si Si3 0.011000 0.809619 0.558904
Si Si4 0.468356 0.305541 0.148621
Si Si5 0.265655 0.793117 0.942814
Si Si6 0.032336 0.194549 0.334513
Si Si7 0.737665 0.793153 0.159535
O O1 0.206199 0.500000 0.235100
O O2 0.348715 0.764973 0.337854
O O3 0.170340 0.762205 0.163009
O O4 0.101060 0.740131 0.210127
O O5 0.223916 0.500000 0.524846
O O6 0.125865 0.210455 0.437391
O O7 0.360233 0.234702 0.631748
O O8 0.117903 0.291483 0.510913
O O9 0.000000 0.827716 0.500000
O O10 0.004194 0.000000 0.574704
O O11 0.494098 0.500000 0.175730
O O12 0.382414 0.239779 0.136225
O O13 0.364322 0.284207 0.041650
O O14 0.306077 0.745252 0.918339
O O15 0.272081 0.000000 0.950314
O O16 0.890817 0.265692 0.256420
O O17 0.004080 0.000000 0.303981
O O18 0.732570 0.000000 0.157127
#
# Coordination Sequence:
#
# PCOD9178582 Si02
#       7
#     8   8   8   8   8   8   8
#     4  10  20  36  58  80 106 144 184 223 267 322
#     4  10  19  30  50  77 104 137 177 224 270 311
#     4  10  21  37  55  75 105 146 186 223 267 323
#     4  10  21  37  57  82 113 143 173 219 275 326
#     4   9  19  37  60  82 105 140 184 222 264 323
#     4   9  17  32  52  74 103 138 177 219 266 319
#     4   9  17  33  58  82 104 140 189 229 260 313
#
# _framework density 23.203241999999999
#
# number of rings (size 3 to 8) (size 9 to 14) (size 15 to 20)
#    0.000    2.429    1.429    0.857    0.000    3.714 
#    0.000    5.714    0.000    0.000    0.000    0.000 
#    0.000    0.000    0.000    0.000    0.000    0.000 
#
# Total GULP energy -155878.764414 kJ/mol
# GULP energy per Si atom -5567.098729 kJ/mol
# Density = 2.315043 g / cm^3
# Si number density = 23.203242 Si / 1000 Ang^3
#
#
#
# Elastic Constant Matrix: (Units=GPa)
#
#
# Indices 1 2 3 4 5 6 
#
# 1 96.0371 14.2137 -4.5615 -0.0004 9.5735 -0.0013
# 2 14.2137 24.3970 -6.7710 -0.0053 3.5791 -0.0412
# 3 -4.5615 -6.7710 23.8653 0.0089 5.7110 0.0769
# 4 -0.0004 -0.0053 0.0089 -34.0152 -0.0009 -408.9403
# 5 9.5735 3.5791 5.7110 -0.0009 31.8172 -0.0079
# 6 -0.0013 -0.0412 0.0769 -408.9403 -0.0079-3558.0500
#
#
#
# Elastic Compliance Matrix: (Units=1/GPa)
#
#
# Indices 1 2 3 4 5 6 
#
# 1 0.011665 -0.005997 0.001261 0.000000 -0.003062 0.000000
# 2 -0.005997 0.049405 0.014387 0.000002 -0.006335 0.000000
# 3 0.001261 0.014387 0.048799 0.000000 -0.010757 0.000001
# 4 0.000000 0.000002 0.000000 0.077007 0.000000 -0.008851
# 5 -0.003062 -0.006335 -0.010757 0.000000 0.034994 0.000000
# 6 0.000000 0.000000 0.000001 -0.008851 0.000000 0.000736
#
#
# Mechanical properties :
#
#
# Convention : Reuss Voigt Hill
#
# Bulk Modulus (GPa) = 7.74173 16.67354 12.20764
# Shear Modulus (GPa) = 20.29536 -702.62173 -341.16318
#
# Velocity S-wave (km/s) = 2.96070 -17.42037 -12.13885
# Velocity P-wave (km/s) = 3.87704 19.93550 13.82738
#
# Compressibility (1/GPa) = 0.12917002
#
# Stress axis : x y z
#
# Youngs Moduli (GPa) = 85.72415 20.24090 20.49231
#
# Poissons Ratio (x) = 0.12139 -0.02584
# Poissons Ratio (y) = 0.51410 -0.29482
# Poissons Ratio (z) = -0.10808 -0.29120
#
# Static dielectric constant tensor:
#      x y z
#    x 1.947350 0.000000 0.003150 
#    y 0.000000 1.872330 0.000000 
#    z 0.003150 0.000000 1.883010 
# 
# From -- ./inp_files/380785.got.cif
#   From: 2010.05.17/outbox.cif.g08.bks.cpg/sg12_191_cif.got.tgz:380785.got - 2010.06.03 13:09:07.
