data_PCOD9178837
_publ_section_title
;
Structure prediction by ZEFSAII (Michael W. Deem and Ramdas Pophale) SiO2 
 PCOD9178837
Probable space group: C 2/M
;
_chemical_formula_sum "Si O2"
_cell_formula_units_Z 64
_cell_length_a 24.460453
_cell_length_b 7.485000
_cell_length_c 25.332814
_cell_angle_alpha 90.000000
_cell_angle_beta 42.342562
_cell_angle_gamma 90.000000
_cell_volume 3124.044117
_symmetry_space_group_name_H-M "C 2/M"
_symmetry_group_IT_number 12
_symmetry_cell_setting 'monoclinic'
loop_
_space_group_symop_operation_xyz
x,y,z
-x,y,-z
-x,-y,-z
x,-y,z
1/2+x,1/2+y,z
1/2-x,1/2+y,-z
1/2-x,1/2-y,-z
1/2+x,1/2-y,z
loop_
_atom_site_type_symbol
_atom_site_label
_atom_site_fract_x
_atom_site_fract_y
_atom_site_fract_z
Si Si1 0.030783 0.284167 0.420354
Si Si2 0.397201 0.219091 0.340874
Si Si3 0.628030 0.784171 0.525691
Si Si4 0.421102 0.215548 0.810444
Si Si5 0.243063 0.213470 0.136921
Si Si6 0.218424 0.209828 0.270420
Si Si7 0.332308 0.213410 0.973784
Si Si8 0.726469 0.209473 0.656881
O O1 0.033740 0.500000 0.418311
O O2 0.962185 0.228907 0.427803
O O3 0.000000 0.226519 0.500000
O O4 0.121042 0.221675 0.344186
O O5 0.357789 0.275495 0.424513
O O6 0.490898 0.275671 0.271337
O O7 0.346030 0.283279 0.327268
O O8 0.395949 0.000000 0.341587
O O9 0.693122 0.722300 0.436535
O O10 0.630302 0.000000 0.522932
O O11 0.345910 0.260529 0.825826
O O12 0.423247 0.000000 0.810529
O O13 0.400850 0.280269 0.884520
O O14 0.244533 0.286477 0.195190
O O15 0.310815 0.283517 0.047372
O O16 0.254221 0.000000 0.131831
O O17 0.255865 0.286581 0.297764
O O18 0.239097 0.000000 0.254711
O O19 0.343526 0.000000 0.970389
O O20 0.250000 0.250000 0.000000
O O21 0.708816 0.000000 0.676841
#
# Coordination Sequence:
#
# PCOD9178837 Si02
#       8
#     8   8   8   8   8   8   8   8
#     4  10  19  31  47  66  88 113 142 183 228 261
#     4   9  18  31  47  65  86 112 147 187 220 253
#     4  10  19  32  48  65  85 111 144 185 228 262
#     4   9  16  29  49  70  89 114 146 179 217 264
#     4   9  17  29  44  68  97 118 139 175 220 262
#     4  10  20  31  45  64  90 122 150 176 213 263
#     4   8  14  25  44  67  91 115 139 171 215 262
#     4  10  20  33  46  61  84 118 153 183 214 253
#
# _framework density 20.486266000000001
#
# number of rings (size 3 to 8) (size 9 to 14) (size 15 to 20)
#    0.000    2.625    1.250    1.125    0.000    2.250 
#    0.000    1.250    0.000    0.750    0.000    5.250 
#    0.000    0.000    0.000   20.625    0.000   15.250 
#
# Total GULP energy -178485.294471 kJ/mol
# GULP energy per Si atom -5577.665452 kJ/mol
# Density = 2.043964 g / cm^3
# Si number density = 20.486266 Si / 1000 Ang^3
#
#
#
# Elastic Constant Matrix: (Units=GPa)
#
#
# Indices 1 2 3 4 5 6 
#
# 1 93.3809 3.0034 46.9202 0.0029 30.3466 -0.0072
# 2 3.0034 58.2456 1.1164 0.0086 4.9176 0.0234
# 3 46.9202 1.1164 121.9827 -0.0003 48.6693 0.0002
# 4 0.0029 0.0086 -0.0003 5.3783 -0.0001 3.6326
# 5 30.3466 4.9176 48.6693 -0.0001 31.6367 -0.0023
# 6 -0.0072 0.0234 0.0002 3.6326 -0.0023 11.3354
#
#
#
# Elastic Compliance Matrix: (Units=1/GPa)
#
#
# Indices 1 2 3 4 5 6 
#
# 1 0.015571 0.000463 -0.000015 -0.000017 -0.014986 0.000012
# 2 0.000463 0.017682 0.002418 -0.000004 -0.006912 -0.000036
# 3 -0.000015 0.002418 0.021558 0.000006 -0.033526 -0.000014
# 4 -0.000017 -0.000004 0.000006 0.237294 0.000002 -0.076045
# 5 -0.014986 -0.006912 -0.033526 0.000002 0.098634 0.000024
# 6 0.000012 -0.000036 -0.000014 -0.076045 0.000024 0.112589
#
#
# Mechanical properties :
#
#
# Convention : Reuss Voigt Hill
#
# Bulk Modulus (GPa) = 16.51702 41.74325 29.13014
# Shear Modulus (GPa) = 9.65665 24.50803 17.08234
#
# Velocity S-wave (km/s) = 2.17347 3.46253 2.89077
# Velocity P-wave (km/s) = 3.79191 6.03373 5.03907
#
# Compressibility (1/GPa) = 0.06054361
#
# Stress axis : x y z
#
# Youngs Moduli (GPa) = 64.22069 56.55442 46.38703
#
# Poissons Ratio (x) = -0.02616 0.00067
# Poissons Ratio (y) = -0.02971 -0.11217
# Poissons Ratio (z) = 0.00093 -0.13676
#
# Static dielectric constant tensor:
#      x y z
#    x 1.718360 0.000000 0.042140 
#    y 0.000000 1.798400 0.000000 
#    z 0.042140 0.000000 1.749200 
# 
# From -- ./inp_files/348549.got.cif
#   From: 2010.05.17/outbox.cif.g08.bks.cpg/sg12_175_cif.got.tgz:348549.got - 2010.06.03 13:09:07.
