data_PCOD9178589
_publ_section_title
;
Structure prediction by ZEFSAII (Michael W. Deem and Ramdas Pophale) SiO2 
 PCOD9178589
Probable space group: C 2/M
;
_chemical_formula_sum "Si O2"
_cell_formula_units_Z 56
_cell_length_a 28.669423
_cell_length_b 14.327410
_cell_length_c 15.111906
_cell_angle_alpha 90.000000
_cell_angle_beta 26.721633
_cell_angle_gamma 90.000000
_cell_volume 2791.171633
_symmetry_space_group_name_H-M "C 2/M"
_symmetry_group_IT_number 12
_symmetry_cell_setting 'monoclinic'
loop_
_space_group_symop_operation_xyz
x,y,z
-x,y,-z
-x,-y,-z
x,-y,z
1/2+x,1/2+y,z
1/2-x,1/2+y,-z
1/2-x,1/2-y,-z
1/2+x,1/2-y,z
loop_
_atom_site_type_symbol
_atom_site_label
_atom_site_fract_x
_atom_site_fract_y
_atom_site_fract_z
Si Si1 0.929754 0.398595 0.032820
Si Si2 0.339971 0.752589 0.078693
Si Si3 0.322628 0.204304 0.495674
Si Si4 0.057438 0.611566 0.552209
Si Si5 0.757747 0.888922 0.095803
Si Si6 0.774535 0.895658 0.507337
Si Si7 0.816072 0.388729 0.968464
O O1 0.953737 0.500000 0.950154
O O2 0.933816 0.309008 0.964000
O O3 0.812992 0.402488 0.268313
O O4 0.000000 0.388486 0.000000
O O5 0.274104 0.717588 0.273458
O O6 0.344914 0.666381 0.002835
O O7 0.287740 0.831689 0.104251
O O8 0.404770 0.159227 0.422144
O O9 0.286425 0.136440 0.477975
O O10 0.344312 0.306776 0.416955
O O11 0.062238 0.500000 0.552528
O O12 0.144781 0.635437 0.330454
O O13 0.936755 0.634346 0.740771
O O14 0.752261 0.865748 0.001511
O O15 0.770600 0.000000 0.082881
O O16 0.819883 0.000000 0.419779
O O17 0.810203 0.500000 0.993627
#
# Coordination Sequence:
#
# PCOD9178589 Si02
#       7
#     8   8   8   8   8   8   8
#     4   9  18  30  47  75 106 127 151 199 255 295
#     4  10  19  31  47  72 102 131 164 196 242 293
#     4   9  18  30  45  70  98 131 164 197 238 292
#     4   9  17  29  49  75 101 125 155 199 248 293
#     4   9  18  33  50  71 101 135 166 196 235 290
#     4   9  17  30  48  67  93 129 168 200 236 285
#     4  10  19  30  50  78 102 125 158 204 256 294
#
# _framework density 20.063258000000001
#
# number of rings (size 3 to 8) (size 9 to 14) (size 15 to 20)
#    0.000    2.714    0.000    1.714    2.000    2.857 
#    0.000    0.000    0.000    1.286    0.000    0.000 
#    0.000   19.429    0.000    0.000    0.000    0.000 
#
# Total GULP energy -155962.601964 kJ/mol
# GULP energy per Si atom -5570.092927 kJ/mol
# Density = 2.001759 g / cm^3
# Si number density = 20.063258 Si / 1000 Ang^3
#
#
#
# Elastic Constant Matrix: (Units=GPa)
#
#
# Indices 1 2 3 4 5 6 
#
# 1 72.1693 22.6944 -16.8624 0.0000 3.6491 0.0000
# 2 22.6944 64.6159 -6.0234 0.0000 -7.5539 0.0000
# 3 -16.8624 -6.0234 28.2175 0.0000 11.7203 0.0000
# 4 0.0000 0.0000 0.0000 71.8248 0.0000 49.5436
# 5 3.6491 -7.5539 11.7203 0.0000 26.0392 0.0000
# 6 0.0000 0.0000 0.0000 49.5436 0.0000 76.7119
#
#
#
# Elastic Compliance Matrix: (Units=1/GPa)
#
#
# Indices 1 2 3 4 5 6 
#
# 1 0.020327 -0.007079 0.015586 0.000000 -0.011917 0.000000
# 2 -0.007079 0.018562 -0.003588 0.000000 0.007992 0.000000
# 3 0.015586 -0.003588 0.055749 0.000000 -0.028318 0.000000
# 4 0.000000 0.000000 0.000000 0.025108 0.000000 -0.016216
# 5 -0.011917 0.007992 -0.028318 0.000000 0.055138 0.000000
# 6 0.000000 0.000000 0.000000 -0.016216 0.000000 0.023509
#
#
# Mechanical properties :
#
#
# Convention : Reuss Voigt Hill
#
# Bulk Modulus (GPa) = 9.57164 18.29108 13.93136
# Shear Modulus (GPa) = 22.38334 45.92813 34.15573
#
# Velocity S-wave (km/s) = 3.34374 4.78971 4.13049
# Velocity P-wave (km/s) = 4.43718 6.30277 5.45039
#
# Compressibility (1/GPa) = 0.10447535
#
# Stress axis : x y z
#
# Youngs Moduli (GPa) = 49.19632 53.87252 17.93758
#
# Poissons Ratio (x) = 0.38139 -0.27957
# Poissons Ratio (y) = 0.34828 0.06435
# Poissons Ratio (z) = -0.76676 0.19327
#
# Static dielectric constant tensor:
#      x y z
#    x 1.728550 0.000000 -0.010940 
#    y 0.000000 1.752890 0.000000 
#    z -0.010940 0.000000 1.753410 
# 
# From -- ./inp_files/224401.got.cif
#   From: 2010.05.17/outbox.cif.g08.bks.cpg/sg12_113_cif.got.tgz:224401.got - 2010.06.03 13:09:07.
