data_PCOD9178072
_publ_section_title
;
Structure prediction by ZEFSAII (Michael W. Deem and Ramdas Pophale) SiO2 
 PCOD9178072
Probable space group: C 2/M
;
_chemical_formula_sum "Si O2"
_cell_formula_units_Z 48
_cell_length_a 24.587618
_cell_length_b 9.027451
_cell_length_c 15.435786
_cell_angle_alpha 90.000000
_cell_angle_beta 121.503622
_cell_angle_gamma 90.000000
_cell_volume 2921.186651
_symmetry_space_group_name_H-M "C 2/M"
_symmetry_group_IT_number 12
_symmetry_cell_setting 'monoclinic'
loop_
_space_group_symop_operation_xyz
x,y,z
-x,y,-z
-x,-y,-z
x,-y,z
1/2+x,1/2+y,z
1/2-x,1/2+y,-z
1/2-x,1/2-y,-z
1/2+x,1/2-y,z
loop_
_atom_site_type_symbol
_atom_site_label
_atom_site_fract_x
_atom_site_fract_y
_atom_site_fract_z
Si Si1 0.184888 0.322231 0.639790
Si Si2 0.041446 0.323383 0.119713
Si Si3 0.844986 0.829900 0.563074
Si Si4 0.823840 0.178937 0.742347
Si Si5 0.446563 0.179095 0.383211
Si Si6 0.994191 0.171508 0.732356
O O1 0.184258 0.500000 0.640561
O O2 0.174609 0.269775 0.533085
O O3 0.256194 0.276673 0.727533
O O4 0.123478 0.271771 0.643073
O O5 0.046036 0.500000 0.135392
O O6 0.112439 0.255728 0.170434
O O7 0.009088 0.251844 0.177751
O O8 0.000000 0.292416 0.000000
O O9 0.819548 0.784102 0.636139
O O10 0.921455 0.825461 0.636750
O O11 0.825451 0.000000 0.530688
O O12 0.831792 0.000000 0.754186
O O13 0.500000 0.220397 0.500000
O O14 0.464136 0.248419 0.305712
O O15 0.447645 0.000000 0.377891
O O16 0.012659 0.000000 0.758287
#
# Coordination Sequence:
#
# PCOD9178072 Si02
#       6
#     8   8   8   8   8   8
#     4  10  19  30  46  69 102 141 175 204 241 292
#     4  10  21  37  58  80  99 123 160 211 266 314
#     4   9  17  28  43  67  99 133 170 208 246 290
#     4   9  19  33  48  72 102 132 167 207 253 302
#     4  10  19  31  48  72 105 145 180 209 243 287
#     4  10  20  33  51  76 104 135 172 212 251 297
#
# _framework density 16.431678000000002
#
# number of rings (size 3 to 8) (size 9 to 14) (size 15 to 20)
#    0.000    2.333    1.667    2.500    0.000    5.667 
#    0.000    0.000    0.000    1.000    0.000    0.000 
#    0.000    0.000    0.000    0.000    0.000    0.000 
#
# Total GULP energy -133805.272630 kJ/mol
# GULP energy per Si atom -5575.219693 kJ/mol
# Density = 1.639428 g / cm^3
# Si number density = 16.431678 Si / 1000 Ang^3
#
#
#
# Elastic Constant Matrix: (Units=GPa)
#
#
# Indices 1 2 3 4 5 6 
#
# 1 156.5462 49.8486 64.6768 0.0000 3.4991 0.0000
# 2 49.8486 33.9967 44.9448 0.0000 -0.7723 0.0000
# 3 64.6768 44.9448 93.3614 0.0000 0.5146 0.0000
# 4 0.0000 0.0000 0.0000 19.0246 0.0000 -2.8590
# 5 3.4991 -0.7723 0.5146 0.0000 4.4332 0.0000
# 6 0.0000 0.0000 0.0000 -2.8590 0.0000 19.2687
#
#
#
# Elastic Compliance Matrix: (Units=1/GPa)
#
#
# Indices 1 2 3 4 5 6 
#
# 1 0.012762 -0.020458 0.001083 0.000000 -0.013763 0.000000
# 2 -0.020458 0.115266 -0.041544 0.000000 0.041049 0.000000
# 3 0.001083 -0.041544 0.030024 0.000000 -0.011577 0.000000
# 4 0.000000 0.000000 0.000000 0.053762 0.000000 0.007977
# 5 -0.013763 0.041049 -0.011577 0.000000 0.244927 0.000000
# 6 0.000000 0.000000 0.000000 0.007977 0.000000 0.053081
#
#
# Mechanical properties :
#
#
# Convention : Reuss Voigt Hill
#
# Bulk Modulus (GPa) = 27.61243 66.98275 47.29759
# Shear Modulus (GPa) = 7.76719 16.84091 12.30405
#
# Velocity S-wave (km/s) = 2.17652 3.20489 2.73939
# Velocity P-wave (km/s) = 4.81219 7.38566 6.23318
#
# Compressibility (1/GPa) = 0.03621557
#
# Stress axis : x y z
#
# Youngs Moduli (GPa) = 78.35577 8.67555 33.30649
#
# Poissons Ratio (x) = 0.17748 -0.03608
# Poissons Ratio (y) = 1.60298 1.38369
# Poissons Ratio (z) = -0.08487 0.36042
#
# Static dielectric constant tensor:
#      x y z
#    x 1.586550 0.000000 0.012130 
#    y 0.000000 1.552270 0.000000 
#    z 0.012130 0.000000 1.514700 
# 
# From -- ./inp_files/236862.got.cif
#   From: 2010.05.17/outbox.cif.g08.bks.cpg/sg12_119_cif.got.tgz:236862.got - 2010.06.03 13:09:07.
