data_PCOD9178756
_publ_section_title
;
Structure prediction by ZEFSAII (Michael W. Deem and Ramdas Pophale) SiO2 
 PCOD9178756
Probable space group: C 2/M
;
_chemical_formula_sum "Si O2"
_cell_formula_units_Z 56
_cell_length_a 26.788233
_cell_length_b 18.318063
_cell_length_c 7.709855
_cell_angle_alpha 90.000000
_cell_angle_beta 66.938723
_cell_angle_gamma 90.000000
_cell_volume 3480.955404
_symmetry_space_group_name_H-M "C 2/M"
_symmetry_group_IT_number 12
_symmetry_cell_setting 'monoclinic'
loop_
_space_group_symop_operation_xyz
x,y,z
-x,y,-z
-x,-y,-z
x,-y,z
1/2+x,1/2+y,z
1/2-x,1/2+y,-z
1/2-x,1/2-y,-z
1/2+x,1/2-y,z
loop_
_atom_site_type_symbol
_atom_site_label
_atom_site_fract_x
_atom_site_fract_y
_atom_site_fract_z
Si Si1 0.908310 0.914390 0.879273
Si Si2 0.272517 0.218825 0.749874
Si Si3 0.325150 0.264598 0.343538
Si Si4 0.290947 0.363229 0.916203
Si Si5 0.561495 0.582016 0.548977
Si Si6 0.310647 0.420897 0.532017
Si Si7 0.555078 0.309641 0.863151
O O1 0.845885 0.891281 0.930132
O O2 0.940595 0.902499 0.653907
O O3 0.909518 0.000000 0.915464
O O4 0.931247 0.869958 0.008930
O O5 0.307811 0.214095 0.528216
O O6 0.214071 0.250644 0.764186
O O7 0.299937 0.281075 0.829849
O O8 0.257315 0.147793 0.880952
O O9 0.307644 0.348084 0.421058
O O10 0.389325 0.264345 0.228231
O O11 0.280270 0.409327 0.756766
O O12 0.539752 0.500000 0.615782
O O13 0.626076 0.577264 0.500096
O O14 0.543927 0.646299 0.700447
O O15 0.297024 0.500000 0.471958
O O16 0.500000 0.271036 0.000000
#
# Coordination Sequence:
#
# PCOD9178756 Si02
#       7
#     8   8   8   8   8   8   8
#     4  10  19  31  46  63  88 118 149 184 226 263
#     4   9  16  27  46  60  77 100 143 195 222 263
#     4   9  17  30  42  60  80 108 146 187 226 261
#     4   9  15  26  43  64  77 102 144 187 223 263
#     4   8  16  29  40  53  76 107 141 180 212 241
#     4   8  14  25  40  58  85 110 133 169 216 260
#     4  11  21  31  43  60  83 115 156 192 219 255
#
# _framework density 16.087537999999999
#
# number of rings (size 3 to 8) (size 9 to 14) (size 15 to 20)
#    0.000    2.857    1.429    2.571    0.000    2.286 
#    0.000    1.429    0.000    0.000    0.000    0.000 
#    0.000    0.000    0.000    0.000    0.000  125.714 
#
# Total GULP energy -155918.217317 kJ/mol
# GULP energy per Si atom -5568.507761 kJ/mol
# Density = 1.605092 g / cm^3
# Si number density = 16.087538 Si / 1000 Ang^3
#
#
#
# Elastic Constant Matrix: (Units=GPa)
#
#
# Indices 1 2 3 4 5 6 
#
# 1 52.0363 5.8038 14.8536 0.0000 -9.7465 0.0000
# 2 5.8038 19.5993 7.6470 0.0000 -8.3022 0.0000
# 3 14.8536 7.6470 70.5414 0.0000 -17.5411 0.0000
# 4 0.0000 0.0000 0.0000 16.7318 0.0000 1.0567
# 5 -9.7465 -8.3022 -17.5411 0.0000 30.2289 0.0000
# 6 0.0000 0.0000 0.0000 1.0567 0.0000 17.2696
#
#
#
# Elastic Compliance Matrix: (Units=1/GPa)
#
#
# Indices 1 2 3 4 5 6 
#
# 1 0.021245 -0.003333 -0.003081 0.000000 0.004147 0.000000
# 2 -0.003333 0.058708 -0.002244 0.000000 0.013747 0.000000
# 3 -0.003081 -0.002244 0.017141 0.000000 0.008337 0.000000
# 4 0.000000 0.000000 0.000000 0.059998 0.000000 -0.003671
# 5 0.004147 0.013747 0.008337 0.000000 0.043031 0.000000
# 6 0.000000 0.000000 0.000000 -0.003671 0.000000 0.058130
#
#
# Mechanical properties :
#
#
# Convention : Reuss Voigt Hill
#
# Bulk Modulus (GPa) = 12.53461 22.08731 17.31096
# Shear Modulus (GPa) = 16.54741 20.43757 18.49249
#
# Velocity S-wave (km/s) = 3.21064 3.56813 3.39409
# Velocity P-wave (km/s) = 4.64249 5.54389 5.11309
#
# Compressibility (1/GPa) = 0.07977908
#
# Stress axis : x y z
#
# Youngs Moduli (GPa) = 47.06938 17.03348 58.33894
#
# Poissons Ratio (x) = 0.05676 0.17975
# Poissons Ratio (y) = 0.15686 0.13091
# Poissons Ratio (z) = 0.14503 0.03822
#
# Static dielectric constant tensor:
#      x y z
#    x 1.568830 0.000000 -0.001790 
#    y 0.000000 1.532100 0.000000 
#    z -0.001790 0.000000 1.639800 
# 
# From -- ./inp_files/89963.got.cif
#   From: 2010.05.17/outbox.cif.g08.bks.cpg/sg12_45_cif.got.tgz:89963.got - 2010.06.03 13:09:07.
