data_PCOD9178422
_publ_section_title
;
Structure prediction by ZEFSAII (Michael W. Deem and Ramdas Pophale) SiO2 
 PCOD9178422
Probable space group: C 2/M
;
_chemical_formula_sum "Si O2"
_cell_formula_units_Z 64
_cell_length_a 16.607406
_cell_length_b 7.289175
_cell_length_c 20.395543
_cell_angle_alpha 90.000000
_cell_angle_beta 75.944612
_cell_angle_gamma 90.000000
_cell_volume 2395.050521
_symmetry_space_group_name_H-M "C 2/M"
_symmetry_group_IT_number 12
_symmetry_cell_setting 'monoclinic'
loop_
_space_group_symop_operation_xyz
x,y,z
-x,y,-z
-x,-y,-z
x,-y,z
1/2+x,1/2+y,z
1/2-x,1/2+y,-z
1/2-x,1/2-y,-z
1/2+x,1/2-y,z
loop_
_atom_site_type_symbol
_atom_site_label
_atom_site_fract_x
_atom_site_fract_y
_atom_site_fract_z
Si Si1 0.070881 0.724114 0.037107
Si Si2 0.643757 0.777388 0.783860
Si Si3 0.503070 0.778742 0.705901
Si Si4 0.884911 0.716486 0.832551
Si Si5 0.696127 0.780542 0.909867
Si Si6 0.417690 0.289805 0.546986
Si Si7 0.136047 0.278869 0.579497
Si Si8 0.275108 0.276763 0.657656
O O1 0.068317 0.500000 0.040524
O O2 0.157296 0.783672 0.985721
O O3 0.066721 0.787960 0.112684
O O4 0.000000 0.778726 0.000000
O O5 0.569765 0.729187 0.749767
O O6 0.640605 0.716896 0.859197
O O7 0.730678 0.718463 0.733246
O O8 0.643817 0.000000 0.784459
O O9 0.417499 0.711729 0.755923
O O10 0.548616 0.717483 0.630365
O O11 0.500959 0.000000 0.699758
O O12 0.901852 0.500000 0.826151
O O13 0.789467 0.737331 0.871032
O O14 0.690451 0.000000 0.913363
O O15 0.500000 0.201056 0.500000
O O16 0.436910 0.500000 0.559310
O O17 0.357498 0.290939 0.495335
O O18 0.365622 0.209761 0.617609
O O19 0.136896 0.500000 0.576993
O O20 0.209125 0.223481 0.614184
O O21 0.278616 0.500000 0.657314
#
# Coordination Sequence:
#
# PCOD9178422 Si02
#       8
#     8   8   8   8   8   8   8   8
#     4   9  17  30  50  73  93 120 163 203 225 254
#     4   8  14  27  48  69  88 116 157 197 224 257
#     4   8  15  29  49  70  88 115 158 196 225 264
#     4  10  19  31  48  69  97 127 150 184 236 282
#     4  10  19  30  48  74  99 122 153 192 229 270
#     4  10  20  31  44  66  96 124 148 180 229 286
#     4   9  17  31  51  69  86 114 156 199 228 260
#     4   8  15  29  48  68  89 117 154 191 227 269
#
# _framework density 26.721772999999999
#
# number of rings (size 3 to 8) (size 9 to 14) (size 15 to 20)
#    0.000    3.000    0.000    3.000    0.000    4.250 
#    0.000    1.875    0.000    7.500    0.000    0.000 
#    0.000    0.000    0.000    0.000    0.000    0.000 
#
# Total GULP energy -178895.071197 kJ/mol
# GULP energy per Si atom -5590.470975 kJ/mol
# Density = 2.666095 g / cm^3
# Si number density = 26.721773 Si / 1000 Ang^3
#
#
#
# Elastic Constant Matrix: (Units=GPa)
#
#
# Indices 1 2 3 4 5 6 
#
# 1 67.5215 -2.5413 14.4168 0.0000 -18.2025 0.0000
# 2 -2.5413 120.6948 5.5825 0.0000 1.5300 0.0000
# 3 14.4168 5.5825 163.9587 0.0000 -23.6901 0.0000
# 4 0.0000 0.0000 0.0000 -1.2058 0.0000 -7.9265
# 5 -18.2025 1.5300 -23.6901 0.0000 54.7334 0.0000
# 6 0.0000 0.0000 0.0000 -7.9265 0.0000 -11.2587
#
#
#
# Elastic Compliance Matrix: (Units=1/GPa)
#
#
# Indices 1 2 3 4 5 6 
#
# 1 0.016354 0.000312 -0.000708 0.000000 0.005124 0.000000
# 2 0.000312 0.008312 -0.000351 0.000000 -0.000280 0.000000
# 3 -0.000708 -0.000351 0.006550 0.000000 0.002609 0.000000
# 4 0.000000 0.000000 0.000000 0.228586 0.000000 -0.160933
# 5 0.005124 -0.000280 0.002609 0.000000 0.021112 0.000000
# 6 0.000000 0.000000 0.000000 -0.160933 0.000000 0.024482
#
#
# Mechanical properties :
#
#
# Convention : Reuss Voigt Hill
#
# Bulk Modulus (GPa) = 33.64506 43.01013 38.32760
# Shear Modulus (GPa) = 15.78294 30.76824 23.27559
#
# Velocity S-wave (km/s) = 2.43294 3.39695 2.95453
# Velocity P-wave (km/s) = 4.52885 5.61393 5.10033
#
# Compressibility (1/GPa) = 0.02972205
#
# Stress axis : x y z
#
# Youngs Moduli (GPa) = 61.14600 120.31204 152.66334
#
# Poissons Ratio (x) = -0.03756 0.10814
# Poissons Ratio (y) = -0.01909 0.05358
# Poissons Ratio (z) = 0.04331 0.04223
#
# Static dielectric constant tensor:
#      x y z
#    x 2.157820 0.000000 -0.042120 
#    y 0.000000 2.027380 0.000000 
#    z -0.042120 0.000000 2.073070 
# 
# From -- ./inp_files/309870.got.cif
#   From: 2010.05.17/outbox.cif.g08.bks.cpg/sg12_155_cif.got.tgz:309870.got - 2010.06.03 13:09:07.
