data_PCOD9178896
_publ_section_title
;
Structure prediction by ZEFSAII (Michael W. Deem and Ramdas Pophale) SiO2 
 PCOD9178896
Probable space group: C 2/M
;
_chemical_formula_sum "Si O2"
_cell_formula_units_Z 48
_cell_length_a 24.949706
_cell_length_b 8.060275
_cell_length_c 15.963449
_cell_angle_alpha 90.000000
_cell_angle_beta 123.207283
_cell_angle_gamma 90.000000
_cell_volume 2686.018758
_symmetry_space_group_name_H-M "C 2/M"
_symmetry_group_IT_number 12
_symmetry_cell_setting 'monoclinic'
loop_
_space_group_symop_operation_xyz
x,y,z
-x,y,-z
-x,-y,-z
x,-y,z
1/2+x,1/2+y,z
1/2-x,1/2+y,-z
1/2-x,1/2-y,-z
1/2+x,1/2-y,z
loop_
_atom_site_type_symbol
_atom_site_label
_atom_site_fract_x
_atom_site_fract_y
_atom_site_fract_z
Si Si1 0.936730 0.308182 0.648423
Si Si2 0.595459 0.305562 0.561628
Si Si3 0.246179 0.194787 0.733043
Si Si4 0.286568 0.700878 0.114766
Si Si5 0.428686 0.302163 0.275583
Si Si6 0.194843 0.701999 0.386547
O O1 0.940925 0.500000 0.674515
O O2 0.921319 0.288518 0.536819
O O3 0.874797 0.236664 0.643057
O O4 0.007287 0.234270 0.720513
O O5 0.577732 0.500000 0.533818
O O6 0.671751 0.298275 0.641917
O O7 0.565361 0.241879 0.622790
O O8 0.247225 0.263398 0.828388
O O9 0.286638 0.264524 0.690352
O O10 0.263538 0.000000 0.754083
O O11 0.287526 0.500000 0.120209
O O12 0.360915 0.758448 0.180905
O O13 0.250000 0.750000 0.000000
O O14 0.422614 0.500000 0.278437
O O15 0.193957 0.500000 0.384607
O O16 0.250000 0.750000 0.500000
#
# Coordination Sequence:
#
# PCOD9178896 Si02
#       6
#     8   8   8   8   8   8
#     4  11  21  28  41  70 102 128 157 197 239 271
#     4   9  16  29  48  65  88 130 170 191 221 280
#     4   8  15  30  50  69  93 126 162 195 231 283
#     4   9  18  34  56  77  92 115 155 203 251 291
#     4   9  19  33  48  67  92 127 166 191 227 295
#     4  10  19  31  47  68  97 133 168 197 227 275
#
# _framework density 17.870315999999999
#
# number of rings (size 3 to 8) (size 9 to 14) (size 15 to 20)
#    0.000    2.667    1.667    3.000    0.000    4.000 
#    0.000    3.333    0.000    1.000    0.000    7.000 
#    0.000    0.000    0.000    0.000    0.000    0.000 
#
# Total GULP energy -133728.369081 kJ/mol
# GULP energy per Si atom -5572.015378 kJ/mol
# Density = 1.782964 g / cm^3
# Si number density = 17.870316 Si / 1000 Ang^3
#
#
#
# Elastic Constant Matrix: (Units=GPa)
#
#
# Indices 1 2 3 4 5 6 
#
# 1 169.5876 8.3041 68.5624 0.0000 -16.8961 0.0000
# 2 8.3041 9.6811 3.5776 0.0000 -1.1098 0.0000
# 3 68.5624 3.5776 107.9343 0.0000 -11.1307 0.0000
# 4 0.0000 0.0000 0.0000 22.0749 0.0000 2.7199
# 5 -16.8961 -1.1098 -11.1307 0.0000 13.9338 0.0000
# 6 0.0000 0.0000 0.0000 2.7199 0.0000 19.0539
#
#
#
# Elastic Compliance Matrix: (Units=1/GPa)
#
#
# Indices 1 2 3 4 5 6 
#
# 1 0.008669 -0.004974 -0.004685 0.000000 0.006374 0.000000
# 2 -0.004974 0.107901 -0.000166 0.000000 0.002429 0.000000
# 3 -0.004685 -0.000166 0.012706 0.000000 0.004456 0.000000
# 4 0.000000 0.000000 0.000000 0.046111 0.000000 -0.006582
# 5 0.006374 0.002429 0.004456 0.000000 0.083249 0.000000
# 6 0.000000 0.000000 0.000000 -0.006582 0.000000 0.053422
#
#
# Mechanical properties :
#
#
# Convention : Reuss Voigt Hill
#
# Bulk Modulus (GPa) = 9.12196 49.78789 29.45493
# Shear Modulus (GPa) = 13.57768 24.79644 19.18706
#
# Velocity S-wave (km/s) = 2.75942 3.72906 3.28027
# Velocity P-wave (km/s) = 3.90745 6.81633 5.55565
#
# Compressibility (1/GPa) = 0.10962554
#
# Stress axis : x y z
#
# Youngs Moduli (GPa) = 115.35043 9.26775 78.70449
#
# Poissons Ratio (x) = 0.04610 0.36871
# Poissons Ratio (y) = 0.57379 0.01308
# Poissons Ratio (z) = 0.54039 0.00154
#
# Static dielectric constant tensor:
#      x y z
#    x 1.663630 0.000000 -0.015460 
#    y 0.000000 1.648930 0.000000 
#    z -0.015460 0.000000 1.589760 
# 
# From -- ./inp_files/236852.got.cif
#   From: 2010.05.17/outbox.cif.g08.bks.cpg/sg12_119_cif.got.tgz:236852.got - 2010.06.03 13:09:07.
