data_PCOD9178803
_publ_section_title
;
Structure prediction by ZEFSAII (Michael W. Deem and Ramdas Pophale) SiO2 
 PCOD9178803
Probable space group: C 2/M
;
_chemical_formula_sum "Si O2"
_cell_formula_units_Z 64
_cell_length_a 29.004313
_cell_length_b 9.152966
_cell_length_c 14.574476
_cell_angle_alpha 90.000000
_cell_angle_beta 107.825351
_cell_angle_gamma 90.000000
_cell_volume 3683.423140
_symmetry_space_group_name_H-M "C 2/M"
_symmetry_group_IT_number 12
_symmetry_cell_setting 'monoclinic'
loop_
_space_group_symop_operation_xyz
x,y,z
-x,y,-z
-x,-y,-z
x,-y,z
1/2+x,1/2+y,z
1/2-x,1/2+y,-z
1/2-x,1/2-y,-z
1/2+x,1/2-y,z
loop_
_atom_site_type_symbol
_atom_site_label
_atom_site_fract_x
_atom_site_fract_y
_atom_site_fract_z
Si Si1 0.151820 0.323883 0.231254
Si Si2 0.106294 0.672158 0.702085
Si Si3 0.310451 0.325579 0.129620
Si Si4 0.909311 0.827920 0.657512
Si Si5 0.753316 0.327364 0.598950
Si Si6 0.997678 0.675464 0.606804
Si Si7 0.144917 0.830975 0.559905
Si Si8 0.300759 0.175451 0.927854
O O1 0.146841 0.500000 0.234036
O O2 0.108437 0.248686 0.260145
O O3 0.201252 0.279596 0.313750
O O4 0.162622 0.286586 0.132040
O O5 0.113362 0.500000 0.718244
O O6 0.146209 0.756985 0.785325
O O7 0.049925 0.706467 0.684418
O O8 0.115143 0.719190 0.602446
O O9 0.315521 0.500000 0.131574
O O10 0.255652 0.293031 0.131840
O O11 0.311978 0.259826 0.028107
O O12 0.867196 0.811576 0.554477
O O13 0.955789 0.755638 0.637635
O O14 0.917003 0.000000 0.676655
O O15 0.758677 0.500000 0.586478
O O16 0.750000 0.250000 0.500000
O O17 0.701334 0.306842 0.614313
O O18 0.989705 0.500000 0.603705
O O19 0.000000 0.718652 0.500000
O O20 0.132744 0.000000 0.575707
O O21 0.303475 0.000000 0.944663
#
# Coordination Sequence:
#
# PCOD9178803 Si02
#       8
#     8   8   8   8   8   8   8   8
#     4  10  20  34  54  75 106 150 186 221 266 319
#     4  11  22  35  56  81 106 141 183 227 273 328
#     4  10  20  36  59  86 116 143 175 227 278 323
#     4  11  22  34  52  77 107 142 182 227 272 322
#     4  10  19  31  46  69 104 143 179 214 255 307
#     4  10  21  38  56  76 106 143 187 231 272 325
#     4  10  20  33  48  72 108 143 178 222 268 316
#     4   9  19  37  59  83 112 148 186 220 265 327
#
# _framework density 17.375142
#
# number of rings (size 3 to 8) (size 9 to 14) (size 15 to 20)
#    0.000    1.875    2.500    1.875    0.000    5.250 
#    0.000    1.250    0.000    0.750    0.000    5.250 
#    0.000    0.000    0.000    0.000    0.000    0.000 
#
# Total GULP energy -178520.332325 kJ/mol
# GULP energy per Si atom -5578.760385 kJ/mol
# Density = 1.733560 g / cm^3
# Si number density = 17.375142 Si / 1000 Ang^3
#
#
#
# Elastic Constant Matrix: (Units=GPa)
#
#
# Indices 1 2 3 4 5 6 
#
# 1 104.5329 56.5232 46.0280 0.0000 -18.6316 0.0000
# 2 56.5232 41.7939 33.7563 0.0000 -6.5793 0.0000
# 3 46.0280 33.7563 65.7448 0.0000 -10.2930 0.0000
# 4 0.0000 0.0000 0.0000 28.9016 0.0000 -1.3388
# 5 -18.6316 -6.5793 -10.2930 0.0000 28.7878 0.0000
# 6 0.0000 0.0000 0.0000 -1.3388 0.0000 26.5769
#
#
#
# Elastic Compliance Matrix: (Units=1/GPa)
#
#
# Indices 1 2 3 4 5 6 
#
# 1 0.040608 -0.053832 0.001481 0.000000 0.014508 0.000000
# 2 -0.053832 0.112345 -0.022701 0.000000 -0.017281 0.000000
# 3 0.001481 -0.022701 0.026659 0.000000 0.005302 0.000000
# 4 0.000000 0.000000 0.000000 0.034681 0.000000 0.001747
# 5 0.014508 -0.017281 0.005302 0.000000 0.042073 0.000000
# 6 0.000000 0.000000 0.000000 0.001747 0.000000 0.037715
#
#
# Mechanical properties :
#
#
# Convention : Reuss Voigt Hill
#
# Bulk Modulus (GPa) = 33.88725 53.85408 43.87067
# Shear Modulus (GPa) = 11.01271 21.90419 16.45845
#
# Velocity S-wave (km/s) = 2.52031 3.55443 3.08107
# Velocity P-wave (km/s) = 5.29291 6.92153 6.16127
#
# Compressibility (1/GPa) = 0.02950962
#
# Stress axis : x y z
#
# Youngs Moduli (GPa) = 24.62565 8.90113 37.51086
#
# Poissons Ratio (x) = 0.47917 -0.05557
# Poissons Ratio (y) = 1.32565 0.85153
# Poissons Ratio (z) = -0.03648 0.20206
#
# Static dielectric constant tensor:
#      x y z
#    x 1.596650 0.000000 0.000820 
#    y 0.000000 1.579300 0.000000 
#    z 0.000820 0.000000 1.584590 
# 
# From -- ./inp_files/244191.got.cif
#   From: 2010.05.17/outbox.cif.g08.bks.cpg/sg12_123_cif.got.tgz:244191.got - 2010.06.03 13:09:07.
