data_PCOD9178746
_publ_section_title
;
Structure prediction by ZEFSAII (Michael W. Deem and Ramdas Pophale) SiO2 
 PCOD9178746
Probable space group: C 2/M
;
_chemical_formula_sum "Si O2"
_cell_formula_units_Z 44
_cell_length_a 20.064269
_cell_length_b 24.642482
_cell_length_c 15.133724
_cell_angle_alpha 90.000000
_cell_angle_beta 19.996490
_cell_angle_gamma 90.000000
_cell_volume 2558.775473
_symmetry_space_group_name_H-M "C 2/M"
_symmetry_group_IT_number 12
_symmetry_cell_setting 'monoclinic'
loop_
_space_group_symop_operation_xyz
x,y,z
-x,y,-z
-x,-y,-z
x,-y,z
1/2+x,1/2+y,z
1/2-x,1/2+y,-z
1/2-x,1/2-y,-z
1/2+x,1/2-y,z
loop_
_atom_site_type_symbol
_atom_site_label
_atom_site_fract_x
_atom_site_fract_y
_atom_site_fract_z
Si Si1 0.727279 0.828417 0.951945
Si Si2 0.000000 0.095499 0.500000
Si Si3 0.670488 0.275168 0.722748
Si Si4 0.914506 0.711765 0.699609
Si Si5 0.775856 0.439785 0.308800
Si Si6 0.187063 0.661679 0.616645
O O1 0.788766 0.767106 0.845742
O O2 0.884112 0.866934 0.713011
O O3 0.711265 0.826028 0.078350
O O4 0.519568 0.848077 0.173672
O O5 0.852275 0.064079 0.620457
O O6 0.671927 0.312022 0.632973
O O7 0.641590 0.212025 0.737358
O O8 0.887704 0.276901 0.492022
O O9 0.500000 0.293491 0.000000
O O10 0.000000 0.691838 0.500000
O O11 0.748667 0.500000 0.381997
O O12 0.738467 0.390473 0.423335
O O13 0.000000 0.433812 0.000000
#
# Coordination Sequence:
#
# PCOD9178746 Si02
#       6
#     8   4   8   8   8   8
#     4  10  20  31  49  73 104 149 176 219 272 315
#     4  12  21  36  56  78 108 142 182 224 269 330
#     4  10  20  31  53  78 107 145 177 217 268 328
#     4  10  19  31  45  73 110 141 182 217 261 325
#     4  11  23  38  57  79 108 142 182 228 271 318
#     4  10  20  36  51  76 111 141 180 221 269 319
#
# _framework density 17.195724999999999
#
# number of rings (size 3 to 8) (size 9 to 14) (size 15 to 20)
#    0.000    1.636    2.727    3.000    0.000    4.364 
#    0.000    0.000    0.000    0.545    0.000    0.000 
#    0.000    7.273    0.000    0.000    0.000    0.000 
#
# Total GULP energy -122666.160656 kJ/mol
# GULP energy per Si atom -5575.734575 kJ/mol
# Density = 1.715659 g / cm^3
# Si number density = 17.195725 Si / 1000 Ang^3
#
#
#
# Elastic Constant Matrix: (Units=GPa)
#
#
# Indices 1 2 3 4 5 6 
#
# 1 85.3031 43.9125 25.2408 -0.0106 6.6185 0.0229
# 2 43.9125 98.4361 28.7716 -0.0494 12.8659 0.0432
# 3 25.2408 28.7716 87.7857 -0.0704 25.2362 0.0503
# 4 -0.0106 -0.0494 -0.0704 7.6427 0.0373 6.0895
# 5 6.6185 12.8659 25.2362 0.0373 37.1744 -0.0270
# 6 0.0229 0.0432 0.0503 6.0895 -0.0270 19.7906
#
#
#
# Elastic Compliance Matrix: (Units=1/GPa)
#
#
# Indices 1 2 3 4 5 6 
#
# 1 0.015731 -0.006367 -0.002814 -0.000073 0.001313 0.000027
# 2 -0.006367 0.013902 -0.002073 0.000119 -0.002271 -0.000057
# 3 -0.002814 -0.002073 0.015568 0.000274 -0.009351 -0.000129
# 4 -0.000073 0.000119 0.000274 0.173349 -0.000427 -0.053341
# 5 0.001313 -0.002271 -0.009351 -0.000427 0.033801 0.000205
# 6 0.000027 -0.000057 -0.000129 -0.053341 0.000205 0.066943
#
#
# Mechanical properties :
#
#
# Convention : Reuss Voigt Hill
#
# Bulk Modulus (GPa) = 44.06441 51.93052 47.99746
# Shear Modulus (GPa) = 14.31165 24.49487 19.40326
#
# Velocity S-wave (km/s) = 2.88806 3.77832 3.36278
# Velocity P-wave (km/s) = 6.06646 7.02136 6.56131
#
# Compressibility (1/GPa) = 0.02269405
#
# Stress axis : x y z
#
# Youngs Moduli (GPa) = 63.56781 71.93262 64.23365
#
# Poissons Ratio (x) = 0.45799 0.18075
# Poissons Ratio (y) = 0.40473 0.13314
# Poissons Ratio (z) = 0.17888 0.14909
#
# Static dielectric constant tensor:
#      x y z
#    x 1.637240 -0.000030 -0.009050 
#    y -0.000030 1.562820 0.000050 
#    z -0.009050 0.000050 1.603940 
# 
# From -- ./inp_files/235385.got.cif
#   From: 2010.05.17/outbox.cif.g08.bks.cpg/sg12_118_cif.got.tgz:235385.got - 2010.06.03 13:09:07.
