data_PCOD9178573
_publ_section_title
;
Structure prediction by ZEFSAII (Michael W. Deem and Ramdas Pophale) SiO2 
 PCOD9178573
Probable space group: C 2/M
;
_chemical_formula_sum "Si O2"
_cell_formula_units_Z 56
_cell_length_a 16.022727
_cell_length_b 18.698529
_cell_length_c 13.995137
_cell_angle_alpha 90.000000
_cell_angle_beta 145.663555
_cell_angle_gamma 90.000000
_cell_volume 2365.046663
_symmetry_space_group_name_H-M "C 2/M"
_symmetry_group_IT_number 12
_symmetry_cell_setting 'monoclinic'
loop_
_space_group_symop_operation_xyz
x,y,z
-x,y,-z
-x,-y,-z
x,-y,z
1/2+x,1/2+y,z
1/2-x,1/2+y,-z
1/2-x,1/2-y,-z
1/2+x,1/2-y,z
loop_
_atom_site_type_symbol
_atom_site_label
_atom_site_fract_x
_atom_site_fract_y
_atom_site_fract_z
Si Si1 0.964822 0.781308 0.577857
Si Si2 0.721961 0.083342 0.766557
Si Si3 0.833887 0.921721 0.384257
Si Si4 0.972398 0.919576 0.155851
Si Si5 0.760716 0.133358 0.114965
Si Si6 0.770323 0.350072 0.432915
Si Si7 0.975394 0.416977 0.237257
O O1 0.862997 0.853002 0.477118
O O2 0.863900 0.722197 0.531333
O O3 0.000000 0.763279 0.500000
O O4 0.129366 0.798314 0.774230
O O5 0.711481 0.127468 0.660935
O O6 0.599926 0.099628 0.731398
O O7 0.705452 0.000000 0.725377
O O8 0.875467 0.091685 0.969131
O O9 0.743201 0.898177 0.204533
O O10 0.000000 0.930065 0.500000
O O11 0.787497 0.000000 0.376632
O O12 0.095546 0.858967 0.281146
O O13 0.859827 0.916420 0.138510
O O14 0.037138 0.000000 0.212518
O O15 0.602965 0.133980 0.914049
O O16 0.853627 0.404541 0.582007
O O17 0.944716 0.500000 0.184783
#
# Coordination Sequence:
#
# PCOD9178573 Si02
#       7
#     8   8   8   8   8   8   8
#     4   9  20  34  52  76 102 132 168 210 261 303
#     4   9  18  33  51  71  99 139 183 215 239 283
#     4   8  14  29  55  79  94 118 165 222 262 290
#     4  10  20  33  53  78 104 139 173 205 250 298
#     4   9  18  34  53  74 102 128 170 220 253 298
#     4  12  21  31  47  74 113 140 164 203 251 309
#     4  10  19  30  50  76 100 135 176 214 254 289
#
# _framework density 23.678180999999999
#
# number of rings (size 3 to 8) (size 9 to 14) (size 15 to 20)
#    0.000    2.714    0.000    5.143    0.000    4.571 
#    0.000    1.429    0.000    3.429    0.000   12.000 
#    0.000   48.000    0.000    0.000    0.000    0.000 
#
# Total GULP energy -156362.408681 kJ/mol
# GULP energy per Si atom -5584.371739 kJ/mol
# Density = 2.362429 g / cm^3
# Si number density = 23.678181 Si / 1000 Ang^3
#
#
#
# Elastic Constant Matrix: (Units=GPa)
#
#
# Indices 1 2 3 4 5 6 
#
# 1 43.4298 2.5847 12.7891 0.0000 -0.8079 0.0000
# 2 2.5847 91.5301 27.7720 0.0000 -0.5511 0.0000
# 3 12.7891 27.7720 111.6952 0.0000 -9.4791 0.0000
# 4 0.0000 0.0000 0.0000 34.5819 0.0000 1.0442
# 5 -0.8079 -0.5511 -9.4791 0.0000 30.9342 0.0000
# 6 0.0000 0.0000 0.0000 1.0442 0.0000 5.6196
#
#
#
# Elastic Compliance Matrix: (Units=1/GPa)
#
#
# Indices 1 2 3 4 5 6 
#
# 1 0.023833 0.000173 -0.002791 0.000000 -0.000230 0.000000
# 2 0.000173 0.011833 -0.003022 0.000000 -0.000711 0.000000
# 3 -0.002791 -0.003022 0.010281 0.000000 0.003024 0.000000
# 4 0.000000 0.000000 0.000000 0.029080 0.000000 -0.005404
# 5 -0.000230 -0.000711 0.003024 0.000000 0.033234 0.000000
# 6 0.000000 0.000000 0.000000 -0.005404 0.000000 0.178953
#
#
# Mechanical properties :
#
#
# Convention : Reuss Voigt Hill
#
# Bulk Modulus (GPa) = 28.84770 36.99408 32.92089
# Shear Modulus (GPa) = 16.12634 27.79443 21.96038
#
# Velocity S-wave (km/s) = 2.61255 3.42985 3.04871
# Velocity P-wave (km/s) = 4.61630 5.59847 5.13094
#
# Compressibility (1/GPa) = 0.03466481
#
# Stress axis : x y z
#
# Youngs Moduli (GPa) = 41.95846 84.50765 97.27061
#
# Poissons Ratio (x) = -0.01458 0.27151
# Poissons Ratio (y) = -0.00724 0.29398
# Poissons Ratio (z) = 0.11712 0.25541
#
# Static dielectric constant tensor:
#      x y z
#    x 1.941520 0.000000 -0.003840 
#    y 0.000000 1.949220 0.000000 
#    z -0.003840 0.000000 1.893790 
# 
# From -- ./inp_files/227651.got.cif
#   From: 2010.05.17/outbox.cif.g08.bks.cpg/sg12_114_cif.got.tgz:227651.got - 2010.06.03 13:09:07.
