data_PCOD9178979
_publ_section_title
;
Structure prediction by ZEFSAII (Michael W. Deem and Ramdas Pophale) SiO2 
 PCOD9178979
Probable space group: C 2/M
;
_chemical_formula_sum "Si O2"
_cell_formula_units_Z 40
_cell_length_a 15.793206
_cell_length_b 7.581981
_cell_length_c 16.457104
_cell_angle_alpha 90.000000
_cell_angle_beta 47.698373
_cell_angle_gamma 90.000000
_cell_volume 1457.505978
_symmetry_space_group_name_H-M "C 2/M"
_symmetry_group_IT_number 12
_symmetry_cell_setting 'monoclinic'
loop_
_space_group_symop_operation_xyz
x,y,z
-x,y,-z
-x,-y,-z
x,-y,z
1/2+x,1/2+y,z
1/2-x,1/2+y,-z
1/2-x,1/2-y,-z
1/2+x,1/2-y,z
loop_
_atom_site_type_symbol
_atom_site_label
_atom_site_fract_x
_atom_site_fract_y
_atom_site_fract_z
Si Si1 0.369797 0.211991 0.571085
Si Si2 0.862898 0.706892 0.223212
Si Si3 0.418393 0.783239 0.368113
Si Si4 0.167214 0.702373 0.178053
Si Si5 0.106220 0.207023 0.033697
O O1 0.500000 0.269195 0.500000
O O2 0.272773 0.265083 0.697966
O O3 0.348420 0.275784 0.492216
O O4 0.369980 0.000000 0.571189
O O5 0.882600 0.500000 0.210374
O O6 0.880316 0.779460 0.304231
O O7 0.970858 0.780874 0.104478
O O8 0.551091 0.724287 0.291778
O O9 0.418440 0.000000 0.366892
O O10 0.176205 0.500000 0.200449
O O11 0.130664 0.704638 0.105301
O O12 0.296322 0.779277 0.090730
O O13 0.131532 0.000000 0.026466
#
# Coordination Sequence:
#
# PCOD9178979 Si02
#       5
#     8   8   8   8   8
#     4  10  20  33  49  68  91 119 152 191 231 271
#     4  10  19  31  48  68  93 123 153 187 225 268
#     4   8  15  29  48  70  94 119 149 185 225 268
#     4   8  14  25  42  66  95 122 146 179 225 271
#     4   9  15  24  42  68  95 119 147 184 224 267
#
# _framework density 27.444139
#
# number of rings (size 3 to 8) (size 9 to 14) (size 15 to 20)
#    0.000    3.000    0.000    3.000    0.000    1.200 
#    0.000    4.000    0.000    1.200    0.000    8.400 
#    0.000    0.000    0.000    0.000    0.000    0.000 
#
# Total GULP energy -111756.695364 kJ/mol
# GULP energy per Si atom -5587.834768 kJ/mol
# Density = 2.738168 g / cm^3
# Si number density = 27.444139 Si / 1000 Ang^3
#
#
#
# Elastic Constant Matrix: (Units=GPa)
#
#
# Indices 1 2 3 4 5 6 
#
# 1 81.2701 -4.7146 27.2161 0.0000 -26.4951 0.0000
# 2 -4.7146 87.6862 4.4572 0.0000 2.9534 0.0001
# 3 27.2161 4.4572 261.7099 0.0000 -20.3821 0.0000
# 4 0.0000 0.0000 0.0000 18.2554 0.0000 -10.7561
# 5 -26.4951 2.9534 -20.3821 0.0000 62.2132 0.0000
# 6 0.0000 0.0001 0.0000 -10.7561 0.0000 15.3339
#
#
#
# Elastic Compliance Matrix: (Units=1/GPa)
#
#
# Indices 1 2 3 4 5 6 
#
# 1 0.014605 0.000643 -0.001075 0.000000 0.005837 0.000000
# 2 0.000643 0.011466 -0.000291 0.000000 -0.000366 0.000000
# 3 -0.001075 -0.000291 0.004005 0.000000 0.000868 0.000000
# 4 0.000000 0.000000 0.000000 0.093367 0.000000 0.065493
# 5 0.005837 -0.000366 0.000868 0.000000 0.018861 0.000000
# 6 0.000000 0.000000 0.000000 0.065493 0.000000 0.111156
#
#
# Mechanical properties :
#
#
# Convention : Reuss Voigt Hill
#
# Bulk Modulus (GPa) = 34.92679 53.84264 44.38472
# Shear Modulus (GPa) = 18.90718 46.07432 32.49075
#
# Velocity S-wave (km/s) = 2.62760 4.10181 3.44450
# Velocity P-wave (km/s) = 4.68613 6.48804 5.65927
#
# Compressibility (1/GPa) = 0.02863132
#
# Stress axis : x y z
#
# Youngs Moduli (GPa) = 68.46967 87.21459 249.66304
#
# Poissons Ratio (x) = -0.05611 0.26843
# Poissons Ratio (y) = -0.04405 0.07256
# Poissons Ratio (z) = 0.07362 0.02535
#
# Static dielectric constant tensor:
#      x y z
#    x 2.336360 0.000000 -0.029530 
#    y 0.000000 2.000430 0.000000 
#    z -0.029530 0.000000 2.126920 
# 
# From -- ./inp_files/162579.got.cif
#   From: 2010.05.17/outbox.cif.g08.bks.cpg/sg12_82_cif.got.tgz:162579.got - 2010.06.03 13:09:07.
