data_PCOD9178768
_publ_section_title
;
Structure prediction by ZEFSAII (Michael W. Deem and Ramdas Pophale) SiO2 
 PCOD9178768
Probable space group: C 2/M
;
_chemical_formula_sum "Si O2"
_cell_formula_units_Z 44
_cell_length_a 5.063932
_cell_length_b 13.707280
_cell_length_c 30.182697
_cell_angle_alpha 90.000000
_cell_angle_beta 113.812739
_cell_angle_gamma 90.000000
_cell_volume 1916.710593
_symmetry_space_group_name_H-M "C 2/M"
_symmetry_group_IT_number 12
_symmetry_cell_setting 'monoclinic'
loop_
_space_group_symop_operation_xyz
x,y,z
-x,y,-z
-x,-y,-z
x,-y,z
1/2+x,1/2+y,z
1/2-x,1/2+y,-z
1/2-x,1/2-y,-z
1/2+x,1/2-y,z
loop_
_atom_site_type_symbol
_atom_site_label
_atom_site_fract_x
_atom_site_fract_y
_atom_site_fract_z
Si Si1 0.240977 0.880755 0.635730
Si Si2 0.687581 0.386190 0.468295
Si Si3 0.500000 0.821883 0.000000
Si Si4 0.829039 0.681252 0.897203
Si Si5 0.122737 0.884090 0.308346
Si Si6 0.045937 0.187129 0.204248
O O1 0.570512 0.850763 0.651110
O O2 0.009020 0.844879 0.584271
O O3 0.139644 0.852345 0.678193
O O4 0.240469 0.000000 0.632696
O O5 0.500000 0.387530 0.500000
O O6 0.745749 0.500000 0.459207
O O7 0.000000 0.341068 0.500000
O O8 0.393588 0.873587 0.947770
O O9 0.250000 0.750000 0.000000
O O10 0.622469 0.772782 0.897445
O O11 0.147292 0.868376 0.845569
O O12 0.094719 0.860189 0.255005
O O13 0.125493 0.000000 0.311883
O O14 0.846755 0.281223 0.202758
#
# Coordination Sequence:
#
# PCOD9178768 Si02
#       6
#     8   8   4   8   8   8
#     4   9  17  28  42  62  89 118 146 177 216 263
#     4   9  15  23  37  58  85 113 137 168 216 264
#     4   8  12  20  34  54  79 106 135 168 214 262
#     4   8  14  23  37  57  82 109 137 175 218 256
#     4  10  19  31  46  64  90 122 150 178 217 264
#     4  10  19  31  46  66  91 117 149 188 223 255
#
# _framework density 22.955995999999999
#
# number of rings (size 3 to 8) (size 9 to 14) (size 15 to 20)
#    0.000    2.909    0.000    2.182    0.000    4.364 
#    0.000    0.000    0.000    0.000    0.000    0.636 
#    0.000   50.909    0.000   48.909    0.000    1.818 
#
# Total GULP energy -122744.619031 kJ/mol
# GULP energy per Si atom -5579.300865 kJ/mol
# Density = 2.290375 g / cm^3
# Si number density = 22.955996 Si / 1000 Ang^3
#
#
#
# Elastic Constant Matrix: (Units=GPa)
#
#
# Indices 1 2 3 4 5 6 
#
# 1 90.0591 -14.9631 -6.0295 0.0000 5.1802 0.0000
# 2 -14.9631 54.5067 -3.3797 0.0000 4.3547 0.0000
# 3 -6.0295 -3.3797 141.1526 0.0000 -2.2504 0.0000
# 4 0.0000 0.0000 0.0000 -13.7093 0.0000 -5.9876
# 5 5.1802 4.3547 -2.2504 0.0000 36.4051 0.0000
# 6 0.0000 0.0000 0.0000 -5.9876 0.0000 -1.8757
#
#
#
# Elastic Compliance Matrix: (Units=1/GPa)
#
#
# Indices 1 2 3 4 5 6 
#
# 1 0.011832 0.003447 0.000555 0.000000 -0.002062 0.000000
# 2 0.003447 0.019551 0.000571 0.000000 -0.002794 0.000000
# 3 0.000555 0.000571 0.007127 0.000000 0.000293 0.000000
# 4 0.000000 0.000000 0.000000 0.185052 0.000000 -0.590712
# 5 -0.002062 -0.002794 0.000293 0.000000 0.028114 0.000000
# 6 0.000000 0.000000 0.000000 -0.590712 0.000000 1.352512
#
#
# Mechanical properties :
#
#
# Convention : Reuss Voigt Hill
#
# Bulk Modulus (GPa) = 20.98333 26.33041 23.65687
# Shear Modulus (GPa) = 3.10380 24.83672 13.97026
#
# Velocity S-wave (km/s) = 1.16405 3.29283 2.46959
# Velocity P-wave (km/s) = 3.31167 5.09430 4.29646
#
# Compressibility (1/GPa) = 0.04765687
#
# Stress axis : x y z
#
# Youngs Moduli (GPa) = 84.51407 51.14738 140.31966
#
# Poissons Ratio (x) = -0.17632 -0.07789
# Poissons Ratio (y) = -0.29135 -0.08010
# Poissons Ratio (z) = -0.04691 -0.02920
#
# Static dielectric constant tensor:
#      x y z
#    x 1.811170 0.000000 0.006560 
#    y 0.000000 1.877130 0.000000 
#    z 0.006560 0.000000 1.937180 
# 
# From -- ./inp_files/297709.got.cif
#   From: 2010.05.17/outbox.cif.g08.bks.cpg/sg12_149_cif.got.tgz:297709.got - 2010.06.03 13:09:07.
