data_PCOD9178981
_publ_section_title
;
Structure prediction by ZEFSAII (Michael W. Deem and Ramdas Pophale) SiO2 
 PCOD9178981
Probable space group: C 2/M
;
_chemical_formula_sum "Si O2"
_cell_formula_units_Z 64
_cell_length_a 18.995725
_cell_length_b 15.083677
_cell_length_c 21.204581
_cell_angle_alpha 90.000000
_cell_angle_beta 25.884669
_cell_angle_gamma 90.000000
_cell_volume 2652.392556
_symmetry_space_group_name_H-M "C 2/M"
_symmetry_group_IT_number 12
_symmetry_cell_setting 'monoclinic'
loop_
_space_group_symop_operation_xyz
x,y,z
-x,y,-z
-x,-y,-z
x,-y,z
1/2+x,1/2+y,z
1/2-x,1/2+y,-z
1/2-x,1/2-y,-z
1/2+x,1/2-y,z
loop_
_atom_site_type_symbol
_atom_site_label
_atom_site_fract_x
_atom_site_fract_y
_atom_site_fract_z
Si Si1 0.175789 0.607396 0.649841
Si Si2 0.177713 0.394204 0.784378
Si Si3 0.584233 0.900089 0.356333
Si Si4 0.829351 0.107215 0.256179
Si Si5 0.794090 0.645640 0.968146
Si Si6 0.775772 0.391596 0.528052
Si Si7 0.299236 0.154925 0.098977
Si Si8 0.665752 0.358473 0.942524
O O1 0.188197 0.500000 0.638768
O O2 0.243364 0.638458 0.663613
O O3 0.245605 0.640298 0.526540
O O4 0.985702 0.631338 0.805667
O O5 0.169718 0.500000 0.787371
O O6 0.261791 0.373135 0.783139
O O7 0.992688 0.361592 0.939982
O O8 0.661308 0.863378 0.359217
O O9 0.448604 0.862390 0.418438
O O10 0.525454 0.000000 0.415517
O O11 0.744516 0.907898 0.184638
O O12 0.841440 0.134833 0.319867
O O13 0.974447 0.144792 0.098597
O O14 0.835856 0.000000 0.248238
O O15 0.750000 0.750000 0.000000
O O16 0.739900 0.612624 0.081037
O O17 0.713134 0.603570 0.972473
O O18 0.773216 0.500000 0.526874
O O19 0.272064 0.258786 0.115140
#
# Coordination Sequence:
#
# PCOD9178981 Si02
#       8
#     8   8   8   8   8   8   8   8
#     4   9  16  29  52  75  95 125 171 211 246 294
#     4   9  17  30  49  75 102 123 157 215 266 302
#     4  10  19  31  48  68  97 137 177 207 239 287
#     4  10  21  32  45  71 107 136 171 211 245 286
#     4   9  18  31  45  69 101 133 161 198 249 304
#     4   9  17  32  51  71  96 136 176 208 243 289
#     4   9  18  29  46  72 101 133 155 200 253 316
#     4  11  20  30  48  74 103 138 164 204 252 296
#
# _framework density 24.129158
#
# number of rings (size 3 to 8) (size 9 to 14) (size 15 to 20)
#    0.000    2.500    1.250    1.875    3.500    3.500 
#    0.000    0.000    0.000    6.750    0.000    0.875 
#    0.000    4.000    0.000    0.875    0.000    0.000 
#
# Total GULP energy -178431.272910 kJ/mol
# GULP energy per Si atom -5575.977278 kJ/mol
# Density = 2.407424 g / cm^3
# Si number density = 24.129158 Si / 1000 Ang^3
#
#
#
# Elastic Constant Matrix: (Units=GPa)
#
#
# Indices 1 2 3 4 5 6 
#
# 1 114.4759 10.5909 12.7712 0.0113 62.3382 -0.0031
# 2 10.5909 49.8424 3.9556 0.0016 15.1301 -0.0028
# 3 12.7712 3.9556 69.5041 0.0107 35.2194 -0.0075
# 4 0.0113 0.0016 0.0107 1.5987 -0.0061 8.6714
# 5 62.3382 15.1301 35.2194 -0.0061 52.2549 0.0026
# 6 -0.0031 -0.0028 -0.0075 8.6714 0.0026 15.5978
#
#
#
# Elastic Compliance Matrix: (Units=1/GPa)
#
#
# Indices 1 2 3 4 5 6 
#
# 1 0.054098 0.013882 0.036462 0.000616 -0.093132 -0.000297
# 2 0.013882 0.025979 0.012414 0.000214 -0.032449 -0.000100
# 3 0.036462 0.012414 0.046842 0.000558 -0.078662 -0.000266
# 4 0.000616 0.000214 0.000558 -0.310357 -0.001218 0.172540
# 5 -0.093132 -0.032449 -0.078662 -0.001218 0.192653 0.000584
# 6 -0.000297 -0.000100 -0.000266 0.172540 0.000584 -0.031810
#
#
# Mechanical properties :
#
#
# Convention : Reuss Voigt Hill
#
# Bulk Modulus (GPa) = 3.96145 32.05086 18.00615
# Shear Modulus (GPa) = -78.16747 27.65727 -25.25510
#
# Velocity S-wave (km/s) = -5.69787 3.38926 -3.23873
# Velocity P-wave (km/s) = 6.45309 5.35051 2.55092
#
# Compressibility (1/GPa) = 0.25243302
#
# Stress axis : x y z
#
# Youngs Moduli (GPa) = 18.48480 38.49325 21.34858
#
# Poissons Ratio (x) = -0.53437 -0.77840
# Poissons Ratio (y) = -0.25661 -0.26501
# Poissons Ratio (z) = -0.67398 -0.47784
#
# Static dielectric constant tensor:
#      x y z
#    x 2.004390 -0.000020 0.060160 
#    y -0.000020 1.932720 0.000020 
#    z 0.060160 0.000020 1.951470 
# 
# From -- ./inp_files/322422.got.cif
#   From: 2010.05.17/outbox.cif.g08.bks.cpg/sg12_162_cif.got.tgz:322422.got - 2010.06.03 13:09:07.
