data_PCOD9178815
_publ_section_title
;
Structure prediction by ZEFSAII (Michael W. Deem and Ramdas Pophale) SiO2 
 PCOD9178815
Probable space group: C 2/M
;
_chemical_formula_sum "Si O2"
_cell_formula_units_Z 60
_cell_length_a 5.051813
_cell_length_b 23.799004
_cell_length_c 28.997466
_cell_angle_alpha 90.000000
_cell_angle_beta 100.461009
_cell_angle_gamma 90.000000
_cell_volume 3428.363724
_symmetry_space_group_name_H-M "C 2/M"
_symmetry_group_IT_number 12
_symmetry_cell_setting 'monoclinic'
loop_
_space_group_symop_operation_xyz
x,y,z
-x,y,-z
-x,-y,-z
x,-y,z
1/2+x,1/2+y,z
1/2-x,1/2+y,-z
1/2-x,1/2-y,-z
1/2+x,1/2-y,z
loop_
_atom_site_type_symbol
_atom_site_label
_atom_site_fract_x
_atom_site_fract_y
_atom_site_fract_z
Si Si1 0.417309 0.714567 0.177169
Si Si2 0.985786 0.788372 0.549139
Si Si3 0.284298 0.934193 0.230145
Si Si4 0.156309 0.365361 0.092472
Si Si5 0.664249 0.434100 0.119598
Si Si6 0.166007 0.866875 0.739791
Si Si7 0.500000 0.208812 0.000000
Si Si8 0.309750 0.709908 0.348129
O O1 0.723780 0.731347 0.176520
O O2 0.292504 0.678250 0.132172
O O3 0.391840 0.680428 0.223578
O O4 0.186660 0.734782 0.548655
O O5 0.098003 0.815111 0.599474
O O6 0.000000 0.818663 0.500000
O O7 0.154247 0.927603 0.174990
O O8 0.555426 0.898171 0.240705
O O9 0.075006 0.911011 0.260964
O O10 0.342225 0.000000 0.238250
O O11 0.390674 0.410164 0.089396
O O12 0.912189 0.397942 0.108809
O O13 0.055108 0.330734 0.045508
O O14 0.701996 0.500000 0.111152
O O15 0.181563 0.836001 0.691445
O O16 0.250000 0.250000 0.000000
O O17 0.521313 0.759977 0.343548
#
# Coordination Sequence:
#
# PCOD9178815 Si02
#       8
#     8   8   8   8   8   8   4   8
#     4  12  22  34  52  78 107 138 174 206 240 305
#     4   8  14  25  42  63  92 136 181 213 248 299
#     4  11  22  38  57  78 104 138 178 220 265 310
#     4  12  23  42  62  86 109 144 178 214 257 312
#     4  11  22  41  64  87 109 137 175 223 270 311
#     4  12  21  35  52  79 107 139 176 212 270 311
#     4  12  26  46  65  86 115 148 176 214 254 306
#     4  10  19  31  46  71 110 145 172 212 261 309
#
# _framework density 17.501061
#
# number of rings (size 3 to 8) (size 9 to 14) (size 15 to 20)
#    0.000    1.067    2.667    5.600    0.000    2.133 
#    0.000    2.000    0.000    0.000    0.000    0.000 
#    0.000    3.200    0.000    0.000    0.000    0.000 
#
# Total GULP energy -167629.656114 kJ/mol
# GULP energy per Si atom -5587.655204 kJ/mol
# Density = 1.746123 g / cm^3
# Si number density = 17.501061 Si / 1000 Ang^3
#
#
#
# Elastic Constant Matrix: (Units=GPa)
#
#
# Indices 1 2 3 4 5 6 
#
# 1 57.7415 0.9337 -25.9967 0.0000 -2.4780 0.0000
# 2 0.9337 64.5110 30.6907 0.0000 -1.2150 0.0000
# 3 -25.9967 30.6907 81.4915 0.0000 0.7523 0.0000
# 4 0.0000 0.0000 0.0000 14.3555 0.0000 -0.3439
# 5 -2.4780 -1.2150 0.7523 0.0000 16.2228 0.0000
# 6 0.0000 0.0000 0.0000 -0.3439 0.0000 26.9399
#
#
#
# Elastic Compliance Matrix: (Units=1/GPa)
#
#
# Indices 1 2 3 4 5 6 
#
# 1 0.021256 -0.004233 0.008352 0.000000 0.002542 0.000000
# 2 -0.004233 0.019777 -0.008810 0.000000 0.001243 0.000000
# 3 0.008352 -0.008810 0.018256 0.000000 -0.000231 0.000000
# 4 0.000000 0.000000 0.000000 0.069681 0.000000 0.000889
# 5 0.002542 0.001243 -0.000231 0.000000 0.062134 0.000000
# 6 0.000000 0.000000 0.000000 0.000889 0.000000 0.037131
#
#
# Mechanical properties :
#
#
# Convention : Reuss Voigt Hill
#
# Bulk Modulus (GPa) = 20.03759 23.88883 21.96321
# Shear Modulus (GPa) = 19.66540 24.71141 22.18840
#
# Velocity S-wave (km/s) = 3.35575 3.76173 3.56453
# Velocity P-wave (km/s) = 5.14675 5.70500 5.43305
#
# Compressibility (1/GPa) = 0.04990621
#
# Stress axis : x y z
#
# Youngs Moduli (GPa) = 47.04485 50.56292 54.77736
#
# Poissons Ratio (x) = 0.21404 -0.45749
# Poissons Ratio (y) = 0.19914 0.48260
# Poissons Ratio (z) = -0.39291 0.44547
#
# Static dielectric constant tensor:
#      x y z
#    x 1.601890 0.000000 -0.001870 
#    y 0.000000 1.581420 0.000000 
#    z -0.001870 0.000000 1.613900 
# 
# From -- ./inp_files/355073.got.cif
#   From: 2010.05.17/outbox.cif.g08.bks.cpg/sg12_178_cif.got.tgz:355073.got - 2010.06.03 13:09:07.
