data_PCOD9178440
_publ_section_title
;
Structure prediction by ZEFSAII (Michael W. Deem and Ramdas Pophale) SiO2 
 PCOD9178440
Probable space group: C 2/M
;
_chemical_formula_sum "Si O2"
_cell_formula_units_Z 64
_cell_length_a 19.520491
_cell_length_b 9.297771
_cell_length_c 19.333682
_cell_angle_alpha 90.000000
_cell_angle_beta 89.209308
_cell_angle_gamma 90.000000
_cell_volume 3508.672217
_symmetry_space_group_name_H-M "C 2/M"
_symmetry_group_IT_number 12
_symmetry_cell_setting 'monoclinic'
loop_
_space_group_symop_operation_xyz
x,y,z
-x,y,-z
-x,-y,-z
x,-y,z
1/2+x,1/2+y,z
1/2-x,1/2+y,-z
1/2-x,1/2-y,-z
1/2+x,1/2-y,z
loop_
_atom_site_type_symbol
_atom_site_label
_atom_site_fract_x
_atom_site_fract_y
_atom_site_fract_z
Si Si1 0.355668 0.334240 0.846724
Si Si2 0.466154 0.831226 0.926952
Si Si3 0.831093 0.833993 0.570307
Si Si4 0.335698 0.833979 0.432872
Si Si5 0.779444 0.335005 0.064017
Si Si6 0.398492 0.829327 0.159924
Si Si7 0.825532 0.669665 0.710398
Si Si8 0.660303 0.669935 0.707452
O O1 0.374629 0.500000 0.833872
O O2 0.402768 0.264890 0.905121
O O3 0.278021 0.331545 0.875641
O O4 0.358761 0.241756 0.777049
O O5 0.524308 0.814992 0.867505
O O6 0.446423 0.000000 0.931258
O O7 0.500000 0.793215 0.000000
O O8 0.747741 0.834923 0.567317
O O9 0.856142 0.750036 0.502049
O O10 0.848285 0.750019 0.640290
O O11 0.853450 0.000000 0.571290
O O12 0.357629 0.750302 0.363642
O O13 0.358130 0.000000 0.432846
O O14 0.790610 0.500000 0.042357
O O15 0.849159 0.280734 0.097634
O O16 0.750000 0.250000 0.000000
O O17 0.378881 0.741773 0.228097
O O18 0.384426 0.000000 0.171400
O O19 0.839934 0.500000 0.706704
O O20 0.742645 0.686899 0.716843
O O21 0.646518 0.500000 0.702891
#
# Coordination Sequence:
#
# PCOD9178440 Si02
#       8
#     8   8   8   8   8   8   8   8
#     4  11  22  36  55  79 107 138 174 222 272 318
#     4  10  22  40  60  78 103 140 179 220 268 325
#     4   9  16  26  42  67 102 140 177 218 262 309
#     4   9  16  26  42  66 101 142 178 214 259 315
#     4  10  21  35  54  78 103 133 171 214 265 320
#     4  10  20  36  55  76 104 139 176 217 266 322
#     4  10  19  31  49  74 105 141 179 218 264 319
#     4  10  19  30  48  75 105 138 176 222 267 312
#
# _framework density 18.240517000000001
#
# number of rings (size 3 to 8) (size 9 to 14) (size 15 to 20)
#    0.000    2.125    1.250    2.625    0.000    7.250 
#    0.000    0.000    0.000    0.000    0.000    0.875 
#    0.000    7.000    0.000    0.000    0.000    0.000 
#
# Total GULP energy -178614.104526 kJ/mol
# GULP energy per Si atom -5581.690766 kJ/mol
# Density = 1.819900 g / cm^3
# Si number density = 18.240517 Si / 1000 Ang^3
#
#
#
# Elastic Constant Matrix: (Units=GPa)
#
#
# Indices 1 2 3 4 5 6 
#
# 1 24.3415 8.4341 -10.1160 0.0000 0.7347 0.0000
# 2 8.4341 107.9518 55.4971 0.0000 0.3617 0.0000
# 3 -10.1160 55.4971 102.8650 0.0000 -2.1283 0.0000
# 4 0.0000 0.0000 0.0000 38.1336 0.0000 1.5248
# 5 0.7347 0.3617 -2.1283 0.0000 17.9675 0.0000
# 6 0.0000 0.0000 0.0000 1.5248 0.0000 17.1997
#
#
#
# Elastic Compliance Matrix: (Units=1/GPa)
#
#
# Indices 1 2 3 4 5 6 
#
# 1 0.047918 -0.008520 0.009295 0.000000 -0.000687 0.000000
# 2 -0.008520 0.014355 -0.008602 0.000000 -0.000960 0.000000
# 3 0.009295 -0.008602 0.015310 0.000000 0.001607 0.000000
# 4 0.000000 0.000000 0.000000 0.026317 0.000000 -0.002333
# 5 -0.000687 -0.000960 0.001607 0.000000 0.055894 0.000000
# 6 0.000000 0.000000 0.000000 -0.002333 0.000000 0.058347
#
#
# Mechanical properties :
#
#
# Convention : Reuss Voigt Hill
#
# Bulk Modulus (GPa) = 16.14794 38.08763 27.11779
# Shear Modulus (GPa) = 19.65123 26.74970 23.20047
#
# Velocity S-wave (km/s) = 3.28585 3.83364 3.57027
# Velocity P-wave (km/s) = 4.82366 6.36568 5.64755
#
# Compressibility (1/GPa) = 0.06192739
#
# Stress axis : x y z
#
# Youngs Moduli (GPa) = 20.86915 69.66422 65.31764
#
# Poissons Ratio (x) = 0.59352 -0.60711
# Poissons Ratio (y) = 0.17780 0.56188
# Poissons Ratio (z) = -0.19397 0.59927
#
# Static dielectric constant tensor:
#      x y z
#    x 1.616050 0.000000 -0.004040 
#    y 0.000000 1.615790 0.000000 
#    z -0.004040 0.000000 1.611810 
# 
# From -- ./inp_files/281291.got.cif
#   From: 2010.05.17/outbox.cif.g08.bks.cpg/sg12_141_cif.got.tgz:281291.got - 2010.06.03 13:09:07.
