data_PCOD9178596
_publ_section_title
;
Structure prediction by ZEFSAII (Michael W. Deem and Ramdas Pophale) SiO2 
 PCOD9178596
Probable space group: C 2/M
;
_chemical_formula_sum "Si O2"
_cell_formula_units_Z 44
_cell_length_a 8.278807
_cell_length_b 20.829629
_cell_length_c 15.952559
_cell_angle_alpha 90.000000
_cell_angle_beta 68.662044
_cell_angle_gamma 90.000000
_cell_volume 2562.355473
_symmetry_space_group_name_H-M "C 2/M"
_symmetry_group_IT_number 12
_symmetry_cell_setting 'monoclinic'
loop_
_space_group_symop_operation_xyz
x,y,z
-x,y,-z
-x,-y,-z
x,-y,z
1/2+x,1/2+y,z
1/2-x,1/2+y,-z
1/2-x,1/2-y,-z
1/2+x,1/2-y,z
loop_
_atom_site_type_symbol
_atom_site_label
_atom_site_fract_x
_atom_site_fract_y
_atom_site_fract_z
Si Si1 0.500000 0.851342 0.500000
Si Si2 0.536063 0.720407 0.188387
Si Si3 0.698707 0.576626 0.454142
Si Si4 0.561749 0.924178 0.743865
Si Si5 0.601159 0.836066 0.896632
Si Si6 0.833365 0.321693 0.700064
O O1 0.657963 0.891941 0.511675
O O2 0.409940 0.813206 0.592844
O O3 0.477152 0.770047 0.127320
O O4 0.696135 0.677917 0.127776
O O5 0.372465 0.680563 0.251985
O O6 0.597554 0.764826 0.253816
O O7 0.500000 0.599617 0.500000
O O8 0.699883 0.500000 0.469426
O O9 0.769691 0.587492 0.346502
O O10 0.580820 0.889890 0.829268
O O11 0.408920 0.887931 0.722726
O O12 0.533705 0.000000 0.755674
O O13 0.500000 0.852386 0.000000
#
# Coordination Sequence:
#
# PCOD9178596 Si02
#       6
#     4   8   8   8   8   8
#     4  10  19  30  50  78 106 140 177 212 266 312
#     4   9  19  35  52  74 104 130 176 215 256 305
#     4   9  18  32  50  73 104 143 183 215 249 309
#     4   9  19  35  51  75 108 134 165 217 266 305
#     4  10  19  33  56  77  99 134 172 215 261 310
#     4   9  19  34  52  75 102 141 169 215 257 305
#
# _framework density 17.171700999999999
#
# number of rings (size 3 to 8) (size 9 to 14) (size 15 to 20)
#    0.000    2.727    0.000    0.818    2.545    1.818 
#    0.000    0.909    0.000    1.091    0.000    0.000 
#    0.000    0.000    0.000    0.000    0.000    0.000 
#
# Total GULP energy -122626.320025 kJ/mol
# GULP energy per Si atom -5573.923638 kJ/mol
# Density = 1.713262 g / cm^3
# Si number density = 17.171701 Si / 1000 Ang^3
#
#
#
# Elastic Constant Matrix: (Units=GPa)
#
#
# Indices 1 2 3 4 5 6 
#
# 1 108.8435 26.6712 59.5702 0.0000 -29.6659 0.0000
# 2 26.6712 52.4315 39.8569 0.0000 -15.0108 0.0000
# 3 59.5702 39.8569 127.3691 0.0000 -17.6107 0.0000
# 4 0.0000 0.0000 0.0000 12.8353 0.0000 -13.4149
# 5 -29.6659 -15.0108 -17.6107 0.0000 26.9437 0.0000
# 6 0.0000 0.0000 0.0000 -13.4149 0.0000 3.3934
#
#
#
# Elastic Compliance Matrix: (Units=1/GPa)
#
#
# Indices 1 2 3 4 5 6 
#
# 1 0.016066 0.000122 -0.005603 0.000000 0.014095 0.000000
# 2 0.000122 0.027567 -0.007191 0.000000 0.010792 0.000000
# 3 -0.005603 -0.007191 0.012439 0.000000 -0.002045 0.000000
# 4 0.000000 0.000000 0.000000 -0.024877 0.000000 -0.098346
# 5 0.014095 0.010792 -0.002045 0.000000 0.057309 0.000000
# 6 0.000000 0.000000 0.000000 -0.098346 0.000000 -0.094097
#
#
# Mechanical properties :
#
#
# Convention : Reuss Voigt Hill
#
# Bulk Modulus (GPa) = 32.54451 60.09342 46.31896
# Shear Modulus (GPa) = 166.70319 19.47086 93.08703
#
# Velocity S-wave (km/s) = 9.86362 3.37099 7.37070
# Velocity P-wave (km/s) = 12.19487 7.08682 9.97341
#
# Compressibility (1/GPa) = 0.03072715
#
# Stress axis : x y z
#
# Youngs Moduli (GPa) = 62.24353 36.27571 80.38943
#
# Poissons Ratio (x) = -0.00444 0.45046
# Poissons Ratio (y) = -0.00761 0.57810
# Poissons Ratio (z) = 0.34878 0.26087
#
# Static dielectric constant tensor:
#      x y z
#    x 1.592450 0.000000 0.000820 
#    y 0.000000 1.563600 0.000000 
#    z 0.000820 0.000000 1.574660 
# 
# From -- ./inp_files/196447.got.cif
#   From: 2010.05.17/outbox.cif.g08.bks.cpg/sg12_99_cif.got.tgz:196447.got - 2010.06.03 13:09:07.
