data_PCOD9178970
_publ_section_title
;
Structure prediction by ZEFSAII (Michael W. Deem and Ramdas Pophale) SiO2 
 PCOD9178970
Probable space group: C 2/M
;
_chemical_formula_sum "Si O2"
_cell_formula_units_Z 64
_cell_length_a 19.191555
_cell_length_b 7.549345
_cell_length_c 21.480481
_cell_angle_alpha 90.000000
_cell_angle_beta 94.966481
_cell_angle_gamma 90.000000
_cell_volume 3100.486318
_symmetry_space_group_name_H-M "C 2/M"
_symmetry_group_IT_number 12
_symmetry_cell_setting 'monoclinic'
loop_
_space_group_symop_operation_xyz
x,y,z
-x,y,-z
-x,-y,-z
x,-y,z
1/2+x,1/2+y,z
1/2-x,1/2+y,-z
1/2-x,1/2-y,-z
1/2+x,1/2-y,z
loop_
_atom_site_type_symbol
_atom_site_label
_atom_site_fract_x
_atom_site_fract_y
_atom_site_fract_z
Si Si1 0.470199 0.210730 0.889572
Si Si2 0.576847 0.782488 0.367487
Si Si3 0.657996 0.704508 0.044039
Si Si4 0.866394 0.212915 0.093687
Si Si5 0.168383 0.712557 0.491678
Si Si6 0.549436 0.205658 0.565556
Si Si7 0.750773 0.701473 0.832459
Si Si8 0.122410 0.716951 0.234366
O O1 0.423260 0.288362 0.941366
O O2 0.551629 0.252079 0.896714
O O3 0.433856 0.269872 0.822314
O O4 0.462194 0.000000 0.893685
O O5 0.631932 0.726465 0.424863
O O6 0.500013 0.720346 0.384056
O O7 0.600244 0.725643 0.301090
O O8 0.575411 0.000000 0.367588
O O9 0.680223 0.500000 0.046552
O O10 0.701289 0.800290 0.101305
O O11 0.663058 0.778668 0.974931
O O12 0.821399 0.282729 0.148412
O O13 0.857183 0.000000 0.091868
O O14 0.159687 0.500000 0.491997
O O15 0.250000 0.750000 0.500000
O O16 0.122543 0.782575 0.546552
O O17 0.500000 0.207881 0.500000
O O18 0.561992 0.000000 0.583062
O O19 0.736005 0.500000 0.811539
O O20 0.801672 0.780317 0.784060
O O21 0.124414 0.500000 0.234362
#
# Coordination Sequence:
#
# PCOD9178970 Si02
#       8
#     8   8   8   8   8   8   8   8
#     4  10  20  32  47  67  90 115 147 190 231 266
#     4   8  13  25  47  67  83 113 155 186 208 249
#     4  10  19  31  48  68  89 116 150 184 224 276
#     4  10  20  32  46  66  92 119 146 182 229 276
#     4   9  16  26  43  68  95 118 140 175 221 260
#     4   7  11  21  39  63  85 108 144 180 204 235
#     4   9  18  32  48  67  92 119 148 185 226 267
#     4   8  15  29  47  65  84 112 152 188 216 255
#
# _framework density 20.641923999999999
#
# number of rings (size 3 to 8) (size 9 to 14) (size 15 to 20)
#    0.000    3.125    0.000    3.750    0.000    3.000 
#    0.000    1.250    0.000    7.125    0.000    0.000 
#    0.000    0.000    0.000    0.000    0.000    0.000 
#
# Total GULP energy -178376.886579 kJ/mol
# GULP energy per Si atom -5574.277706 kJ/mol
# Density = 2.059494 g / cm^3
# Si number density = 20.641924 Si / 1000 Ang^3
#
#
#
# Elastic Constant Matrix: (Units=GPa)
#
#
# Indices 1 2 3 4 5 6 
#
# 1 125.3587 -0.1769 42.7131 0.0000 -35.6543 0.0000
# 2 -0.1769 55.3797 5.6612 0.0000 -3.4749 0.0000
# 3 42.7131 5.6612 107.5302 0.0000 -43.3844 0.0000
# 4 0.0000 0.0000 0.0000 1.9994 0.0000 0.0259
# 5 -35.6543 -3.4749 -43.3844 0.0000 34.1363 0.0000
# 6 0.0000 0.0000 0.0000 0.0259 0.0000 15.5081
#
#
#
# Elastic Compliance Matrix: (Units=1/GPa)
#
#
# Indices 1 2 3 4 5 6 
#
# 1 0.011398 0.000776 0.000547 0.000000 0.012679 0.000000
# 2 0.000776 0.018236 -0.000395 0.000000 0.002165 0.000000
# 3 0.000547 -0.000395 0.019123 0.000000 0.024836 0.000000
# 4 0.000000 0.000000 0.000000 0.500166 0.000000 -0.000834
# 5 0.012679 0.002165 0.024836 0.000000 0.074322 0.000000
# 6 0.000000 0.000000 0.000000 -0.000834 0.000000 0.064484
#
#
# Mechanical properties :
#
#
# Convention : Reuss Voigt Hill
#
# Bulk Modulus (GPa) = 19.75726 42.74036 31.24881
# Shear Modulus (GPa) = 7.11498 26.33350 16.72424
#
# Velocity S-wave (km/s) = 1.85859 3.57561 2.84950
# Velocity P-wave (km/s) = 3.76802 6.14794 5.09878
#
# Compressibility (1/GPa) = 0.05061431
#
# Stress axis : x y z
#
# Youngs Moduli (GPa) = 87.73496 54.83699 52.29216
#
# Poissons Ratio (x) = -0.04256 -0.02862
# Poissons Ratio (y) = -0.06809 0.02064
# Poissons Ratio (z) = -0.04802 0.02165
#
# Static dielectric constant tensor:
#      x y z
#    x 1.770750 0.000000 -0.047900 
#    y 0.000000 1.802440 0.000000 
#    z -0.047900 0.000000 1.720900 
# 
# From -- ./inp_files/319151.got.cif
#   From: 2010.05.17/outbox.cif.g08.bks.cpg/sg12_160_cif.got.tgz:319151.got - 2010.06.03 13:09:07.
