data_PCOD9178047
_publ_section_title
;
Structure prediction by ZEFSAII (Michael W. Deem and Ramdas Pophale) SiO2 
 PCOD9178047
Probable space group: C 2/M
;
_chemical_formula_sum "Si O2"
_cell_formula_units_Z 64
_cell_length_a 19.261933
_cell_length_b 7.411497
_cell_length_c 19.923736
_cell_angle_alpha 90.000000
_cell_angle_beta 101.506594
_cell_angle_gamma 90.000000
_cell_volume 2787.142144
_symmetry_space_group_name_H-M "C 2/M"
_symmetry_group_IT_number 12
_symmetry_cell_setting 'monoclinic'
loop_
_space_group_symop_operation_xyz
x,y,z
-x,y,-z
-x,-y,-z
x,-y,z
1/2+x,1/2+y,z
1/2-x,1/2+y,-z
1/2-x,1/2-y,-z
1/2+x,1/2-y,z
loop_
_atom_site_type_symbol
_atom_site_label
_atom_site_fract_x
_atom_site_fract_y
_atom_site_fract_z
Si Si1 0.721660 0.790613 0.899784
Si Si2 0.593498 0.783821 0.956365
Si Si3 0.373932 0.715029 0.890850
Si Si4 0.803051 0.715493 0.572939
Si Si5 0.113978 0.219259 0.759185
Si Si6 0.176328 0.219482 0.629387
Si Si7 0.572869 0.791583 0.486934
Si Si8 0.012898 0.794247 0.182987
O O1 0.672683 0.718361 0.950622
O O2 0.796400 0.708606 0.892469
O O3 0.669602 0.778420 0.826128
O O4 0.734643 0.000000 0.917889
O O5 0.539562 0.703782 0.891991
O O6 0.590289 0.000000 0.947074
O O7 0.582569 0.742356 0.031960
O O8 0.367601 0.500000 0.878768
O O9 0.415974 0.789040 0.834536
O O10 0.811138 0.500000 0.580662
O O11 0.750000 0.750000 0.500000
O O12 0.756910 0.778308 0.627698
O O13 0.879996 0.787162 0.565188
O O14 0.143202 0.277746 0.693168
O O15 0.036074 0.284370 0.767498
O O16 0.111860 0.000000 0.759613
O O17 0.125833 0.286158 0.560261
O O18 0.175639 0.000000 0.627485
O O19 0.500000 0.708105 0.500000
O O20 0.556876 0.000000 0.465916
O O21 0.029020 0.000000 0.205708
#
# Coordination Sequence:
#
# PCOD9178047 Si02
#       8
#     8   8   8   8   8   8   8   8
#     4   9  19  33  47  65  89 116 147 185 225 265
#     4  10  19  30  46  68  91 114 144 184 228 272
#     4  10  19  31  47  66  88 115 147 183 226 273
#     4   8  14  26  44  65  89 116 146 178 211 250
#     4   9  18  33  50  66  86 117 155 187 218 260
#     4   9  17  30  49  69  89 118 154 187 217 255
#     4   9  17  29  46  70  98 123 146 177 220 265
#     4   9  18  32  48  64  87 120 152 182 219 267
#
# _framework density 22.962589999999999
#
# number of rings (size 3 to 8) (size 9 to 14) (size 15 to 20)
#    0.000    2.875    0.000    1.125    0.000    3.750 
#    0.000    1.250    0.000    0.000    0.000    0.000 
#    0.000    0.000    0.000    0.000    0.000    0.000 
#
# Total GULP energy -178412.388210 kJ/mol
# GULP energy per Si atom -5575.387132 kJ/mol
# Density = 2.291033 g / cm^3
# Si number density = 22.962590 Si / 1000 Ang^3
#
#
#
# Elastic Constant Matrix: (Units=GPa)
#
#
# Indices 1 2 3 4 5 6 
#
# 1 152.0547 5.2346 32.7966 0.0000 -60.5768 0.0000
# 2 5.2346 89.3593 -3.3471 0.0000 -6.6462 0.0000
# 3 32.7966 -3.3471 66.8611 0.0000 -51.4384 0.0000
# 4 0.0000 0.0000 0.0000 -34.5066 0.0000 57.9215
# 5 -60.5768 -6.6462 -51.4384 0.0000 49.8128 0.0000
# 6 0.0000 0.0000 0.0000 57.9215 0.0000 -61.8053
#
#
#
# Elastic Compliance Matrix: (Units=1/GPa)
#
#
# Indices 1 2 3 4 5 6 
#
# 1 0.159652 0.049252 0.382247 0.000000 0.595443 0.000000
# 2 0.049252 0.027557 0.127106 0.000000 0.194825 0.000000
# 3 0.382247 0.127106 0.994776 0.000000 1.509043 0.000000
# 4 0.000000 0.000000 0.000000 0.050568 0.000000 0.047391
# 5 0.595443 0.194825 1.509043 0.000000 2.328469 0.000000
# 6 0.000000 0.000000 0.000000 0.047391 0.000000 0.028233
#
#
# Mechanical properties :
#
#
# Convention : Reuss Voigt Hill
#
# Bulk Modulus (GPa) = 0.43494 41.96036 21.19765
# Shear Modulus (GPa) = 1.54395 8.93959 5.24177
#
# Velocity S-wave (km/s) = 0.82088 1.97524 1.51251
# Velocity P-wave (km/s) = 1.04320 4.84924 3.50738
#
# Compressibility (1/GPa) = 2.29919308
#
# Stress axis : x y z
#
# Youngs Moduli (GPa) = 6.26363 36.28864 1.00525
#
# Poissons Ratio (x) = -1.78729 -0.38425
# Poissons Ratio (y) = -0.30850 -0.12777
# Poissons Ratio (z) = -2.39425 -4.61249
#
# Static dielectric constant tensor:
#      x y z
#    x 1.950600 0.000000 -0.071910 
#    y 0.000000 1.842080 0.000000 
#    z -0.071910 0.000000 1.823930 
# 
# From -- ./inp_files/319109.got.cif
#   From: 2010.05.17/outbox.cif.g08.bks.cpg/sg12_160_cif.got.tgz:319109.got - 2010.06.03 13:09:07.
