data_PCOD9178566
_publ_section_title
;
Structure prediction by ZEFSAII (Michael W. Deem and Ramdas Pophale) SiO2 
 PCOD9178566
Probable space group: C 2/M
;
_chemical_formula_sum "Si O2"
_cell_formula_units_Z 56
_cell_length_a 17.385198
_cell_length_b 13.067488
_cell_length_c 15.981252
_cell_angle_alpha 90.000000
_cell_angle_beta 63.194300
_cell_angle_gamma 90.000000
_cell_volume 3240.490153
_symmetry_space_group_name_H-M "C 2/M"
_symmetry_group_IT_number 12
_symmetry_cell_setting 'monoclinic'
loop_
_space_group_symop_operation_xyz
x,y,z
-x,y,-z
-x,-y,-z
x,-y,z
1/2+x,1/2+y,z
1/2-x,1/2+y,-z
1/2-x,1/2-y,-z
1/2+x,1/2-y,z
loop_
_atom_site_type_symbol
_atom_site_label
_atom_site_fract_x
_atom_site_fract_y
_atom_site_fract_z
Si Si1 0.834659 0.116679 0.408513
Si Si2 0.484706 0.875718 0.873956
Si Si3 0.284385 0.168188 0.375841
Si Si4 0.023991 0.615704 0.671201
Si Si5 0.859930 0.624939 0.080544
Si Si6 0.510123 0.686268 0.397868
Si Si7 0.304294 0.381918 0.752707
O O1 0.785481 0.139907 0.519721
O O2 0.801170 0.209043 0.366255
O O3 0.935457 0.132377 0.380029
O O4 0.817920 0.000000 0.389964
O O5 0.482608 0.843720 0.778578
O O6 0.572172 0.843950 0.879751
O O7 0.486872 0.000000 0.871285
O O8 0.404658 0.844764 0.971454
O O9 0.374306 0.118942 0.359238
O O10 0.251319 0.126002 0.304928
O O11 0.996157 0.500000 0.668684
O O12 0.006582 0.693060 0.605118
O O13 0.857978 0.500000 0.083447
O O14 0.762942 0.661342 0.145836
O O15 0.500000 0.655383 0.500000
O O16 0.604196 0.666096 0.314425
O O17 0.321222 0.500000 0.764960
#
# Coordination Sequence:
#
# PCOD9178566 Si02
#       7
#     8   8   8   8   8   8   8
#     4  10  20  34  48  66  95 128 158 199 239 272
#     4   8  13  25  46  72  94 116 147 191 246 288
#     4  10  19  30  50  74  89 117 167 197 232 285
#     4  10  19  33  50  68  96 128 156 199 245 278
#     4   8  14  24  45  74  96 113 146 194 243 286
#     4  11  23  33  44  68  97 131 169 192 225 288
#     4  11  19  31  49  70  98 127 155 198 241 275
#
# _framework density 17.281337000000001
#
# number of rings (size 3 to 8) (size 9 to 14) (size 15 to 20)
#    0.000    2.286    2.857    2.571    0.000    0.857 
#    0.000    1.429    0.000    0.000    0.000    0.000 
#    0.000   10.286    0.000    0.000    0.000    0.000 
#
# Total GULP energy -155961.528617 kJ/mol
# GULP energy per Si atom -5570.054593 kJ/mol
# Density = 1.724200 g / cm^3
# Si number density = 17.281337 Si / 1000 Ang^3
#
#
#
# Elastic Constant Matrix: (Units=GPa)
#
#
# Indices 1 2 3 4 5 6 
#
# 1 48.8695 0.4136 24.0240 0.0000 -27.5281 0.0000
# 2 0.4136 62.8977 -5.9458 0.0000 -2.1254 0.0000
# 3 24.0240 -5.9458 65.4603 0.0000 -30.8089 0.0000
# 4 0.0000 0.0000 0.0000 8.1048 0.0000 4.7085
# 5 -27.5281 -2.1254 -30.8089 0.0000 30.1286 0.0000
# 6 0.0000 0.0000 0.0000 4.7085 0.0000 -1.8703
#
#
#
# Elastic Compliance Matrix: (Units=1/GPa)
#
#
# Indices 1 2 3 4 5 6 
#
# 1 0.043267 0.001789 0.005685 0.000000 0.045472 0.000000
# 2 0.001789 0.016520 0.004167 0.000000 0.007062 0.000000
# 3 0.005685 0.004167 0.031137 0.000000 0.037328 0.000000
# 4 0.000000 0.000000 0.000000 0.050104 0.000000 0.126138
# 5 0.045472 0.007062 0.037328 0.000000 0.113407 0.000000
# 6 0.000000 0.000000 0.000000 0.126138 0.000000 -0.217124
#
#
# Mechanical properties :
#
#
# Convention : Reuss Voigt Hill
#
# Bulk Modulus (GPa) = 8.75601 23.80124 16.27863
# Shear Modulus (GPa) = 95.97395 17.85500 56.91447
#
# Velocity S-wave (km/s) = 7.46034 3.21782 5.74505
# Velocity P-wave (km/s) = 8.90431 5.25438 7.31079
#
# Compressibility (1/GPa) = 0.11420728
#
# Stress axis : x y z
#
# Youngs Moduli (GPa) = 23.11225 60.53397 32.11588
#
# Poissons Ratio (x) = -0.10832 -0.18257
# Poissons Ratio (y) = -0.04136 -0.13384
# Poissons Ratio (z) = -0.13139 -0.25227
#
# Static dielectric constant tensor:
#      x y z
#    x 1.584410 0.000000 -0.025310 
#    y 0.000000 1.591810 0.000000 
#    z -0.025310 0.000000 1.627100 
# 
# From -- ./inp_files/276371.got.cif
#   From: 2010.05.17/outbox.cif.g08.bks.cpg/sg12_139_cif.got.tgz:276371.got - 2010.06.03 13:09:07.
