data_PCOD9178011
_publ_section_title
;
Structure prediction by ZEFSAII (Michael W. Deem and Ramdas Pophale) SiO2 
 PCOD9178011
Probable space group: C 2/M
;
_chemical_formula_sum "Si O2"
_cell_formula_units_Z 64
_cell_length_a 32.569560
_cell_length_b 8.041074
_cell_length_c 15.132035
_cell_angle_alpha 90.000000
_cell_angle_beta 118.202657
_cell_angle_gamma 90.000000
_cell_volume 3492.512421
_symmetry_space_group_name_H-M "C 2/M"
_symmetry_group_IT_number 12
_symmetry_cell_setting 'monoclinic'
loop_
_space_group_symop_operation_xyz
x,y,z
-x,y,-z
-x,-y,-z
x,-y,z
1/2+x,1/2+y,z
1/2-x,1/2+y,-z
1/2-x,1/2-y,-z
1/2+x,1/2-y,z
loop_
_atom_site_type_symbol
_atom_site_label
_atom_site_fract_x
_atom_site_fract_y
_atom_site_fract_z
Si Si1 0.363108 0.300591 0.141694
Si Si2 0.051355 0.700989 0.657501
Si Si3 0.218242 0.695412 0.601281
Si Si4 0.786620 0.199030 0.204773
Si Si5 0.054263 0.698107 0.462845
Si Si6 0.868444 0.192474 0.595213
Si Si7 0.675257 0.296415 0.275718
Si Si8 0.680901 0.701711 0.082232
O O1 0.358888 0.500000 0.134739
O O2 0.413243 0.258906 0.232037
O O3 0.323977 0.240365 0.171259
O O4 0.350973 0.239683 0.031048
O O5 0.051977 0.500000 0.659328
O O6 0.066810 0.759108 0.574621
O O7 0.997815 0.758205 0.613809
O O8 0.215737 0.500000 0.577096
O O9 0.205933 0.719668 0.691916
O O10 0.181120 0.789765 0.504262
O O11 0.271677 0.753506 0.646459
O O12 0.734058 0.240991 0.122233
O O13 0.790909 0.000000 0.219137
O O14 0.050397 0.500000 0.467331
O O15 0.092502 0.732587 0.428179
O O16 0.859951 0.263388 0.684726
O O17 0.880451 0.000000 0.616888
O O18 0.675182 0.500000 0.276946
O O19 0.666163 0.243482 0.165755
O O20 0.681306 0.500000 0.083828
#
# Coordination Sequence:
#
# PCOD9178011 Si02
#       8
#     8   8   8   8   8   8   8   8
#     4  10  20  31  48  73  99 125 158 197 239 280
#     4   9  19  35  54  72  95 124 156 190 230 285
#     4  10  19  32  48  67  96 135 165 190 230 283
#     4  10  19  30  45  72 103 127 157 200 237 273
#     4   9  19  36  53  72  96 125 155 187 233 290
#     4  11  20  30  48  74  97 121 157 202 240 276
#     4   8  17  32  48  66  93 128 165 198 231 270
#     4   9  18  34  50  66  94 133 166 194 230 279
#
# _framework density 18.324916000000002
#
# number of rings (size 3 to 8) (size 9 to 14) (size 15 to 20)
#    0.000    2.500    0.000    4.125    0.000    4.500 
#    0.000    6.875    0.000    0.750    0.000    5.250 
#    0.000    0.000    0.000    0.000    0.000    0.000 
#
# Total GULP energy -178515.604198 kJ/mol
# GULP energy per Si atom -5578.612631 kJ/mol
# Density = 1.828321 g / cm^3
# Si number density = 18.324916 Si / 1000 Ang^3
#
#
#
# Elastic Constant Matrix: (Units=GPa)
#
#
# Indices 1 2 3 4 5 6 
#
# 1 84.5974 -3.8301 40.3041 0.0000 -20.4656 0.0000
# 2 -3.8301 7.7277 -10.7374 0.0000 -0.9998 0.0000
# 3 40.3041 -10.7374 89.4209 0.0000 0.3618 0.0000
# 4 0.0000 0.0000 0.0000 20.8093 0.0000 4.2653
# 5 -20.4656 -0.9998 0.3618 0.0000 14.7573 0.0000
# 6 0.0000 0.0000 0.0000 4.2653 0.0000 13.8416
#
#
#
# Elastic Compliance Matrix: (Units=1/GPa)
#
#
# Indices 1 2 3 4 5 6 
#
# 1 0.026613 0.001367 -0.011982 0.000000 0.037294 0.000000
# 2 0.001367 0.156898 0.018175 0.000000 0.012081 0.000000
# 3 -0.011982 0.018175 0.018830 0.000000 -0.015847 0.000000
# 4 0.000000 0.000000 0.000000 0.051295 0.000000 -0.015807
# 5 0.037294 0.012081 -0.015847 0.000000 0.120689 0.000000
# 6 0.000000 0.000000 0.000000 -0.015807 0.000000 0.077117
#
#
# Mechanical properties :
#
#
# Convention : Reuss Voigt Hill
#
# Bulk Modulus (GPa) = 4.59852 25.91324 15.25588
# Shear Modulus (GPa) = 9.82687 20.28227 15.05457
#
# Velocity S-wave (km/s) = 2.31824 3.33049 2.86935
# Velocity P-wave (km/s) = 3.11135 5.38157 4.39555
#
# Compressibility (1/GPa) = 0.21746130
#
# Stress axis : x y z
#
# Youngs Moduli (GPa) = 37.57564 6.37357 53.10659
#
# Poissons Ratio (x) = -0.00871 0.63631
# Poissons Ratio (y) = -0.05137 -0.96520
# Poissons Ratio (z) = 0.45022 -0.11584
#
# Static dielectric constant tensor:
#      x y z
#    x 1.632090 0.000000 -0.026170 
#    y 0.000000 1.649050 0.000000 
#    z -0.026170 0.000000 1.636460 
# 
# From -- ./inp_files/249247.got.cif
#   From: 2010.05.17/outbox.cif.g08.bks.cpg/sg12_125_cif.got.tgz:249247.got - 2010.06.03 13:09:07.
