data_PCOD9178628
_publ_section_title
;
Structure prediction by ZEFSAII (Michael W. Deem and Ramdas Pophale) SiO2 
 PCOD9178628
Probable space group: C 2/M
;
_chemical_formula_sum "Si O2"
_cell_formula_units_Z 56
_cell_length_a 19.440205
_cell_length_b 17.944572
_cell_length_c 28.127769
_cell_angle_alpha 90.000000
_cell_angle_beta 17.803361
_cell_angle_gamma 90.000000
_cell_volume 3000.111117
_symmetry_space_group_name_H-M "C 2/M"
_symmetry_group_IT_number 12
_symmetry_cell_setting 'monoclinic'
loop_
_space_group_symop_operation_xyz
x,y,z
-x,y,-z
-x,-y,-z
x,-y,z
1/2+x,1/2+y,z
1/2-x,1/2+y,-z
1/2-x,1/2-y,-z
1/2+x,1/2-y,z
loop_
_atom_site_type_symbol
_atom_site_label
_atom_site_fract_x
_atom_site_fract_y
_atom_site_fract_z
Si Si1 0.733504 0.581097 0.206304
Si Si2 0.496066 0.691870 0.769977
Si Si3 0.230741 0.685354 0.668401
Si Si4 0.263106 0.582350 0.557627
Si Si5 0.420720 0.913246 0.941228
Si Si6 0.850396 0.325472 0.457443
Si Si7 0.761527 0.754650 0.834978
O O1 0.714158 0.500000 0.194361
O O2 0.533523 0.579212 0.376498
O O3 0.692355 0.658426 0.207323
O O4 0.969513 0.586349 0.078218
O O5 0.601011 0.737104 0.744859
O O6 0.710351 0.663923 0.597607
O O7 0.355156 0.747838 0.827332
O O8 0.320131 0.627473 0.899490
O O9 0.500000 0.693737 0.500000
O O10 0.206150 0.641412 0.634920
O O11 0.095792 0.636027 0.795413
O O12 0.177583 0.500000 0.625215
O O13 0.184880 0.608844 0.557064
O O14 0.410634 0.000000 0.932663
O O15 0.750000 0.250000 0.500000
O O16 0.109237 0.300395 0.286235
O O17 0.500000 0.741976 0.000000
#
# Coordination Sequence:
#
# PCOD9178628 Si02
#       7
#     8   8   8   8   8   8   8
#     4  10  19  30  50  87 121 147 179 225 296 360
#     4  11  22  37  58  82 118 156 198 234 283 348
#     4  12  23  38  58  84 120 160 199 237 280 342
#     4  11  20  34  58  86 116 150 188 237 297 351
#     4  11  24  37  54  87 125 155 191 235 292 349
#     4  10  19  36  55  80 112 149 187 229 284 344
#     4  11  19  33  57  83 115 148 178 237 292 343
#
# _framework density 18.665975
#
# number of rings (size 3 to 8) (size 9 to 14) (size 15 to 20)
#    0.000    1.143    8.571    0.857    0.000    2.000 
#    0.000    0.000    0.000    0.857    0.000    0.000 
#    0.000    0.000    0.000    0.000    0.000    0.000 
#
# Total GULP energy -156059.131254 kJ/mol
# GULP energy per Si atom -5573.540402 kJ/mol
# Density = 1.862349 g / cm^3
# Si number density = 18.665975 Si / 1000 Ang^3
#
#
#
# Elastic Constant Matrix: (Units=GPa)
#
#
# Indices 1 2 3 4 5 6 
#
# 1 43.0649 31.9093 19.4617 0.0204 -7.6979 0.0121
# 2 31.9093 88.8158 39.5859 -0.0095 -19.5120 -0.0046
# 3 19.4617 39.5859 112.5231 -0.1268 -12.3901 0.0496
# 4 0.0204 -0.0095 -0.1268 24.4995 0.0372 3.5646
# 5 -7.6979 -19.5120 -12.3901 0.0372 18.7565 -0.0105
# 6 0.0121 -0.0046 0.0496 3.5646 -0.0105 24.9277
#
#
#
# Elastic Compliance Matrix: (Units=1/GPa)
#
#
# Indices 1 2 3 4 5 6 
#
# 1 0.031954 -0.010475 -0.001723 -0.000040 0.001079 -0.000008
# 2 -0.010475 0.019645 -0.003583 -0.000027 0.013770 0.000025
# 3 -0.001723 -0.003583 0.010738 0.000056 0.002659 -0.000028
# 4 -0.000040 -0.000027 0.000056 0.041685 -0.000094 -0.005961
# 5 0.001079 0.013770 0.002659 -0.000094 0.069839 0.000040
# 6 -0.000008 0.000025 -0.000028 -0.005961 0.000040 0.040969
#
#
# Mechanical properties :
#
#
# Convention : Reuss Voigt Hill
#
# Bulk Modulus (GPa) = 32.49378 47.36862 39.93120
# Shear Modulus (GPa) = 19.48170 23.86653 21.67412
#
# Velocity S-wave (km/s) = 3.23414 3.57965 3.41127
# Velocity P-wave (km/s) = 5.60286 6.52052 6.07903
#
# Compressibility (1/GPa) = 0.03077512
#
# Stress axis : x y z
#
# Youngs Moduli (GPa) = 31.29492 50.90337 93.12354
#
# Poissons Ratio (x) = 0.53324 0.16041
# Poissons Ratio (y) = 0.32783 0.33368
# Poissons Ratio (z) = 0.05391 0.18240
#
# Static dielectric constant tensor:
#      x y z
#    x 1.679490 -0.000010 0.028170 
#    y -0.000010 1.653800 0.000060 
#    z 0.028170 0.000060 1.731200 
# 
# From -- ./inp_files/364442.got.cif
#   From: 2010.05.17/outbox.cif.g08.bks.cpg/sg12_183_cif.got.tgz:364442.got - 2010.06.03 13:09:07.
