data_PCOD9178944
_publ_section_title
;
Structure prediction by ZEFSAII (Michael W. Deem and Ramdas Pophale) SiO2 
 PCOD9178944
Probable space group: C 2/M
;
_chemical_formula_sum "Si O2"
_cell_formula_units_Z 60
_cell_length_a 5.101089
_cell_length_b 27.619780
_cell_length_c 28.109515
_cell_angle_alpha 90.000000
_cell_angle_beta 66.054118
_cell_angle_gamma 90.000000
_cell_volume 3619.503782
_symmetry_space_group_name_H-M "C 2/M"
_symmetry_group_IT_number 12
_symmetry_cell_setting 'monoclinic'
loop_
_space_group_symop_operation_xyz
x,y,z
-x,y,-z
-x,-y,-z
x,-y,z
1/2+x,1/2+y,z
1/2-x,1/2+y,-z
1/2-x,1/2-y,-z
1/2+x,1/2-y,z
loop_
_atom_site_type_symbol
_atom_site_label
_atom_site_fract_x
_atom_site_fract_y
_atom_site_fract_z
Si Si1 0.641356 0.420421 0.877345
Si Si2 0.091270 0.122631 0.253829
Si Si3 0.663969 0.500000 0.037158
Si Si4 0.554299 0.217619 0.445902
Si Si5 0.657642 0.142319 0.864153
Si Si6 0.667643 0.779632 0.942885
Si Si7 0.615548 0.285369 0.670744
Si Si8 0.897444 0.443900 0.758933
O O1 0.452111 0.455012 0.923780
O O2 0.419318 0.386985 0.866644
O O3 0.816724 0.445466 0.821376
O O4 0.867309 0.388486 0.889913
O O5 0.271974 0.146448 0.196844
O O6 0.311752 0.087556 0.265384
O O7 0.966578 0.167690 0.292557
O O8 0.846598 0.087221 0.250223
O O9 0.500000 0.500000 0.000000
O O10 0.000000 0.500000 0.000000
O O11 0.500000 0.190636 0.500000
O O12 0.254059 0.236770 0.447192
O O13 0.735667 0.196022 0.389259
O O14 0.657300 0.189791 0.895876
O O15 0.478216 0.732996 0.941285
O O16 0.500000 0.802914 0.000000
O O17 0.343427 0.251362 0.678236
O O18 0.917412 0.500000 0.741441
#
# Coordination Sequence:
#
# PCOD9178944 Si02
#       8
#     8   8   4   8   8   8   8   8
#     4  10  21  37  52  73  95 121 147 182 237 294
#     4  10  21  32  50  80  98 126 174 199 247 314
#     4  12  24  36  52  76 100 118 144 180 229 298
#     4   8  14  25  42  64  93 137 181 204 237 292
#     4  10  21  35  54  71  94 122 154 191 234 287
#     4  10  21  36  52  69  88 117 156 194 225 261
#     4  10  19  31  47  71 111 145 164 210 256 286
#     4  10  19  36  56  70  96 130 163 210 251 291
#
# _framework density 16.576858000000001
#
# number of rings (size 3 to 8) (size 9 to 14) (size 15 to 20)
#    0.000    2.133    0.667    2.800    0.000    2.667 
#    0.000    0.000    0.000    0.000    0.000    0.000 
#    0.000    3.200    0.000    0.000    0.000    0.000 
#
# Total GULP energy -167042.727120 kJ/mol
# GULP energy per Si atom -5568.090904 kJ/mol
# Density = 1.653913 g / cm^3
# Si number density = 16.576858 Si / 1000 Ang^3
#
#
#
# Elastic Constant Matrix: (Units=GPa)
#
#
# Indices 1 2 3 4 5 6 
#
# 1 102.3678 20.8458 13.9952 0.0000 -7.0598 0.0000
# 2 20.8458 73.2684 48.6898 0.0000 -5.3598 0.0000
# 3 13.9952 48.6898 104.2959 0.0000 -5.4550 0.0000
# 4 0.0000 0.0000 0.0000 12.6085 0.0000 -4.6081
# 5 -7.0598 -5.3598 -5.4550 0.0000 19.3450 0.0000
# 6 0.0000 0.0000 0.0000 -4.6081 0.0000 17.1860
#
#
#
# Elastic Compliance Matrix: (Units=1/GPa)
#
#
# Indices 1 2 3 4 5 6 
#
# 1 0.010547 -0.002815 0.000060 0.000000 0.003086 0.000000
# 2 -0.002815 0.020702 -0.009176 0.000000 0.002121 0.000000
# 3 0.000060 -0.009176 0.013938 0.000000 0.001410 0.000000
# 4 0.000000 0.000000 0.000000 0.087928 0.000000 0.023576
# 5 0.003086 0.002121 0.001410 0.000000 0.053804 0.000000
# 6 0.000000 0.000000 0.000000 0.023576 0.000000 0.064508
#
#
# Mechanical properties :
#
#
# Convention : Reuss Voigt Hill
#
# Bulk Modulus (GPa) = 46.89335 49.66599 48.27967
# Shear Modulus (GPa) = 17.70555 22.92131 20.31343
#
# Velocity S-wave (km/s) = 3.27171 3.72254 3.50438
# Velocity P-wave (km/s) = 6.52855 6.96437 6.74998
#
# Compressibility (1/GPa) = 0.02132498
#
# Stress axis : x y z
#
# Youngs Moduli (GPa) = 94.81816 48.30360 71.74865
#
# Poissons Ratio (x) = 0.13597 -0.00433
# Poissons Ratio (y) = 0.26691 0.65837
# Poissons Ratio (z) = -0.00572 0.44324
#
# Static dielectric constant tensor:
#      x y z
#    x 1.567770 0.000000 -0.009610 
#    y 0.000000 1.558400 0.000000 
#    z -0.009610 0.000000 1.596130 
# 
# From -- ./inp_files/355176.got.cif
#   From: 2010.05.17/outbox.cif.g08.bks.cpg/sg12_178_cif.got.tgz:355176.got - 2010.06.03 13:09:07.
