data_PCOD9178694
_publ_section_title
;
Structure prediction by ZEFSAII (Michael W. Deem and Ramdas Pophale) SiO2 
 PCOD9178694
Probable space group: C 2/M
;
_chemical_formula_sum "Si O2"
_cell_formula_units_Z 40
_cell_length_a 28.386570
_cell_length_b 7.669452
_cell_length_c 19.614391
_cell_angle_alpha 90.000000
_cell_angle_beta 148.687945
_cell_angle_gamma 90.000000
_cell_volume 2219.237899
_symmetry_space_group_name_H-M "C 2/M"
_symmetry_group_IT_number 12
_symmetry_cell_setting 'monoclinic'
loop_
_space_group_symop_operation_xyz
x,y,z
-x,y,-z
-x,-y,-z
x,-y,z
1/2+x,1/2+y,z
1/2-x,1/2+y,-z
1/2-x,1/2-y,-z
1/2+x,1/2-y,z
loop_
_atom_site_type_symbol
_atom_site_label
_atom_site_fract_x
_atom_site_fract_y
_atom_site_fract_z
Si Si1 0.225695 0.300408 0.750260
Si Si2 0.143728 0.207737 0.375944
Si Si3 0.138081 0.500000 0.121275
Si Si4 0.908582 0.796066 0.535208
Si Si5 0.433094 0.000000 0.815895
Si Si6 0.934049 0.710120 0.357721
O O1 0.255459 0.500000 0.796977
O O2 0.305574 0.168904 0.832166
O O3 0.154854 0.297530 0.598970
O O4 0.166393 0.239894 0.742634
O O5 0.250000 0.250000 0.500000
O O6 0.113045 0.256002 0.414633
O O7 0.091786 0.329064 0.258321
O O8 0.129404 0.000000 0.348365
O O9 0.125875 0.500000 0.187813
O O10 0.038107 0.500000 0.966073
O O11 0.013869 0.769403 0.645284
O O12 0.886523 0.000000 0.501363
O O13 0.935106 0.500000 0.359502
O O14 0.000000 0.774053 0.500000
#
# Coordination Sequence:
#
# PCOD9178694 Si02
#       6
#     8   8   4   8   4   8
#     4  10  20  34  57  86 118 151 185 234 283 335
#     4  11  23  38  59  88 116 147 185 233 287 342
#     4  11  24  42  59  82 112 150 199 230 271 344
#     4  10  19  30  53  89 120 147 186 234 288 339
#     4  11  26  42  60  84 113 151 190 234 282 334
#     4   8  16  28  47  83 117 147 184 226 288 337
#
# _framework density 18.024204999999998
#
# number of rings (size 3 to 8) (size 9 to 14) (size 15 to 20)
#    0.000    2.000    2.000    3.000    4.200    4.400 
#    0.000    2.000    0.000    1.200    0.000    0.000 
#    0.000    0.000    0.000    0.000    0.000    0.000 
#
# Total GULP energy -111569.172361 kJ/mol
# GULP energy per Si atom -5578.458618 kJ/mol
# Density = 1.798318 g / cm^3
# Si number density = 18.024205 Si / 1000 Ang^3
#
#
#
# Elastic Constant Matrix: (Units=GPa)
#
#
# Indices 1 2 3 4 5 6 
#
# 1 183.0168 46.4611 46.1080 0.0000 18.3538 0.0000
# 2 46.4611 82.2521 27.9722 0.0000 9.3586 0.0000
# 3 46.1080 27.9722 44.8611 0.0000 7.0189 0.0000
# 4 0.0000 0.0000 0.0000 -1.5693 0.0000 7.0589
# 5 18.3538 9.3586 7.0189 0.0000 24.8245 0.0000
# 6 0.0000 0.0000 0.0000 7.0589 0.0000 29.5090
#
#
#
# Elastic Compliance Matrix: (Units=1/GPa)
#
#
# Indices 1 2 3 4 5 6 
#
# 1 0.007893 -0.001903 -0.006409 0.000000 -0.003306 0.000000
# 2 -0.001903 0.016141 -0.007718 0.000000 -0.002496 0.000000
# 3 -0.006409 -0.007718 0.033998 0.000000 -0.001965 0.000000
# 4 0.000000 0.000000 0.000000 -0.306949 0.000000 0.073426
# 5 -0.003306 -0.002496 -0.001965 0.000000 0.044224 0.000000
# 6 0.000000 0.000000 0.000000 0.073426 0.000000 0.016323
#
#
# Mechanical properties :
#
#
# Convention : Reuss Voigt Hill
#
# Bulk Modulus (GPa) = 38.50218 61.24584 49.87401
# Shear Modulus (GPa) = -33.86356 23.19208 -5.33574
#
# Velocity S-wave (km/s) = -4.33919 3.59098 -1.72242
# Velocity P-wave (km/s) = 1.92277 7.15870 4.87596
#
# Compressibility (1/GPa) = 0.02597255
#
# Stress axis : x y z
#
# Youngs Moduli (GPa) = 126.69096 61.95231 29.41352
#
# Poissons Ratio (x) = 0.11789 0.18851
# Poissons Ratio (y) = 0.24108 0.22702
# Poissons Ratio (z) = 0.81194 0.47817
#
# Static dielectric constant tensor:
#      x y z
#    x 1.654290 0.000000 0.010520 
#    y 0.000000 1.625620 0.000000 
#    z 0.010520 0.000000 1.581680 
# 
# From -- ./inp_files/292349.got.cif
#   From: 2010.05.17/outbox.cif.g08.bks.cpg/sg12_147_cif.got.tgz:292349.got - 2010.06.03 13:09:07.
