data_PCOD9178648
_publ_section_title
;
Structure prediction by ZEFSAII (Michael W. Deem and Ramdas Pophale) SiO2 
 PCOD9178648
Probable space group: C 2/M
;
_chemical_formula_sum "Si O2"
_cell_formula_units_Z 48
_cell_length_a 31.955156
_cell_length_b 14.451338
_cell_length_c 9.014124
_cell_angle_alpha 90.000000
_cell_angle_beta 143.957222
_cell_angle_gamma 90.000000
_cell_volume 2449.272792
_symmetry_space_group_name_H-M "C 2/M"
_symmetry_group_IT_number 12
_symmetry_cell_setting 'monoclinic'
loop_
_space_group_symop_operation_xyz
x,y,z
-x,y,-z
-x,-y,-z
x,-y,z
1/2+x,1/2+y,z
1/2-x,1/2+y,-z
1/2-x,1/2-y,-z
1/2+x,1/2-y,z
loop_
_atom_site_type_symbol
_atom_site_label
_atom_site_fract_x
_atom_site_fract_y
_atom_site_fract_z
Si Si1 0.915060 0.105395 0.222433
Si Si2 0.116238 0.757035 0.620288
Si Si3 0.829215 0.736608 0.538830
Si Si4 0.953742 0.741643 0.108863
Si Si5 0.255233 0.105833 0.548201
Si Si6 0.606091 0.894417 0.841903
O O1 0.875807 0.154860 0.247681
O O2 0.912955 0.174801 0.077352
O O3 0.000000 0.104003 0.500000
O O4 0.892493 0.000000 0.133115
O O5 0.167577 0.745016 0.628197
O O6 0.119323 0.668320 0.736430
O O7 0.035892 0.765954 0.324958
O O8 0.801473 0.832468 0.527860
O O9 0.778103 0.658182 0.462570
O O10 0.907556 0.718523 0.832523
O O11 0.951218 0.656927 0.218370
O O12 0.234518 0.000000 0.464381
O O13 0.324113 0.106887 0.853298
O O14 0.588697 0.000000 0.756549
#
# Coordination Sequence:
#
# PCOD9178648 Si02
#       6
#     8   8   8   8   8   8
#     4   8  15  29  46  66  98 135 165 194 233 289
#     4  10  19  30  51  80 105 128 163 209 258 302
#     4  10  20  34  53  75 103 132 166 211 255 298
#     4   9  18  32  50  76 106 136 163 197 251 312
#     4   9  20  38  54  69  96 137 178 211 247 293
#     4   9  18  34  54  74 100 135 172 207 245 296
#
# _framework density 19.597653999999999
#
# number of rings (size 3 to 8) (size 9 to 14) (size 15 to 20)
#    0.000    2.833    0.000    2.000    0.000    4.000 
#    0.000    0.000    0.000   10.000    0.000    0.000 
#    0.000    0.000    0.000    0.000    0.000    0.000 
#
# Total GULP energy -133869.663673 kJ/mol
# GULP energy per Si atom -5577.902653 kJ/mol
# Density = 1.955305 g / cm^3
# Si number density = 19.597654 Si / 1000 Ang^3
#
#
#
# Elastic Constant Matrix: (Units=GPa)
#
#
# Indices 1 2 3 4 5 6 
#
# 1 128.3444 53.5536 8.4407 0.0000 -24.4536 0.0000
# 2 53.5536 156.8911 0.7608 0.0000 -14.0376 0.0000
# 3 8.4407 0.7608 34.8315 0.0000 -6.2560 0.0000
# 4 0.0000 0.0000 0.0000 17.7997 0.0000 1.8383
# 5 -24.4536 -14.0376 -6.2560 0.0000 21.8606 0.0000
# 6 0.0000 0.0000 0.0000 1.8383 0.0000 5.0557
#
#
#
# Elastic Compliance Matrix: (Units=1/GPa)
#
#
# Indices 1 2 3 4 5 6 
#
# 1 0.010972 -0.002825 -0.000757 0.000000 0.010242 0.000000
# 2 -0.002825 0.007504 0.000863 0.000000 0.001906 0.000000
# 3 -0.000757 0.000863 0.030383 0.000000 0.008402 0.000000
# 4 0.000000 0.000000 0.000000 0.058373 0.000000 -0.021224
# 5 0.010242 0.001906 0.008402 0.000000 0.060830 0.000000
# 6 0.000000 0.000000 0.000000 -0.021224 0.000000 0.205515
#
#
# Mechanical properties :
#
#
# Convention : Reuss Voigt Hill
#
# Bulk Modulus (GPa) = 23.03065 49.50859 36.26962
# Shear Modulus (GPa) = 12.70685 26.09733 19.40209
#
# Velocity S-wave (km/s) = 2.54911 3.65314 3.14987
# Velocity P-wave (km/s) = 4.52119 6.56592 5.63704
#
# Compressibility (1/GPa) = 0.04342040
#
# Stress axis : x y z
#
# Youngs Moduli (GPa) = 91.14475 133.25394 32.91270
#
# Poissons Ratio (x) = 0.37644 0.02493
# Poissons Ratio (y) = 0.25748 -0.02840
# Poissons Ratio (z) = 0.06904 -0.11499
#
# Static dielectric constant tensor:
#      x y z
#    x 1.655420 0.000000 0.018140 
#    y 0.000000 1.670420 0.000000 
#    z 0.018140 0.000000 1.741520 
# 
# From -- ./inp_files/85176.got.cif
#   From: 2010.05.17/outbox.cif.g08.bks.cpg/sg12_43_cif.got.tgz:85176.got - 2010.06.03 13:09:07.
