data_PCOD9178675
_publ_section_title
;
Structure prediction by ZEFSAII (Michael W. Deem and Ramdas Pophale) SiO2 
 PCOD9178675
Probable space group: C 2/M
;
_chemical_formula_sum "Si O2"
_cell_formula_units_Z 64
_cell_length_a 24.321280
_cell_length_b 8.584333
_cell_length_c 19.164300
_cell_angle_alpha 90.000000
_cell_angle_beta 125.963343
_cell_angle_gamma 90.000000
_cell_volume 3238.510631
_symmetry_space_group_name_H-M "C 2/M"
_symmetry_group_IT_number 12
_symmetry_cell_setting 'monoclinic'
loop_
_space_group_symop_operation_xyz
x,y,z
-x,y,-z
-x,-y,-z
x,-y,z
1/2+x,1/2+y,z
1/2-x,1/2+y,-z
1/2-x,1/2-y,-z
1/2+x,1/2-y,z
loop_
_atom_site_type_symbol
_atom_site_label
_atom_site_fract_x
_atom_site_fract_y
_atom_site_fract_z
Si Si1 0.282960 0.182688 0.633273
Si Si2 0.998676 0.314322 0.153424
Si Si3 0.643801 0.317750 0.938098
Si Si4 0.349731 0.316092 0.544579
Si Si5 0.509574 0.186583 0.326929
Si Si6 0.131410 0.816953 0.180502
Si Si7 0.142379 0.684280 0.783066
Si Si8 0.782373 0.682966 0.879233
O O1 0.322945 0.220006 0.591424
O O2 0.204070 0.213647 0.557211
O O3 0.314970 0.285702 0.717422
O O4 0.292073 0.000000 0.657436
O O5 0.988334 0.500000 0.139494
O O6 0.014128 0.280256 0.246885
O O7 0.061252 0.259069 0.153638
O O8 0.929632 0.224299 0.084280
O O9 0.648451 0.500000 0.924848
O O10 0.646578 0.220284 0.868946
O O11 0.700053 0.269619 0.035692
O O12 0.345418 0.500000 0.557813
O O13 0.427090 0.268233 0.589348
O O14 0.433946 0.234410 0.294553
O O15 0.514951 0.000000 0.338792
O O16 0.162772 0.736432 0.136232
O O17 0.122571 0.000000 0.162180
O O18 0.148455 0.500000 0.776101
O O19 0.206778 0.770308 0.798514
O O20 0.786079 0.500000 0.893860
#
# Coordination Sequence:
#
# PCOD9178675 Si02
#       8
#     8   8   8   8   8   8   8   8
#     4  10  20  34  51  78 115 151 183 223 273 325
#     4  10  20  36  56  82 114 149 183 225 279 332
#     4  11  22  38  60  86 113 143 184 234 278 327
#     4  10  19  30  52  83 114 146 185 226 269 324
#     4   9  18  32  55  82 114 146 178 225 280 327
#     4  12  24  38  57  81 111 149 188 228 274 337
#     4  10  21  39  60  84 112 145 186 233 280 327
#     4  12  25  41  59  80 108 147 188 231 281 333
#
# _framework density 19.762170000000001
#
# number of rings (size 3 to 8) (size 9 to 14) (size 15 to 20)
#    0.000    1.500    1.250    6.000    0.000    4.500 
#    0.000    2.500    0.000    0.750    0.000    5.250 
#    0.000    0.000    0.000    0.000    0.000    0.000 
#
# Total GULP energy -178848.736487 kJ/mol
# GULP energy per Si atom -5589.023015 kJ/mol
# Density = 1.971719 g / cm^3
# Si number density = 19.762170 Si / 1000 Ang^3
#
#
#
# Elastic Constant Matrix: (Units=GPa)
#
#
# Indices 1 2 3 4 5 6 
#
# 1 53.4088 10.1075 1.5469 0.0000 17.4264 0.0000
# 2 10.1075 35.5482 4.0209 0.0000 15.8410 0.0000
# 3 1.5469 4.0209 40.7931 0.0000 24.4968 0.0000
# 4 0.0000 0.0000 0.0000 27.8422 0.0000 7.0815
# 5 17.4264 15.8410 24.4968 0.0000 27.2713 0.0000
# 6 0.0000 0.0000 0.0000 7.0815 0.0000 29.4104
#
#
#
# Elastic Compliance Matrix: (Units=1/GPa)
#
#
# Indices 1 2 3 4 5 6 
#
# 1 0.034666 0.012799 0.032981 0.000000 -0.059212 0.000000
# 2 0.012799 0.052802 0.038298 0.000000 -0.073251 0.000000
# 3 0.032981 0.038298 0.098795 0.000000 -0.132065 0.000000
# 4 0.000000 0.000000 0.000000 0.038260 0.000000 -0.009212
# 5 -0.059212 -0.073251 -0.132065 0.000000 0.235682 0.000000
# 6 0.000000 0.000000 0.000000 -0.009212 0.000000 0.036220
#
#
# Mechanical properties :
#
#
# Convention : Reuss Voigt Hill
#
# Bulk Modulus (GPa) = 2.82152 17.90007 10.36079
# Shear Modulus (GPa) = 11.20053 24.50979 17.85516
#
# Velocity S-wave (km/s) = 2.38327 3.52552 3.00909
# Velocity P-wave (km/s) = 3.00069 5.06456 4.16257
#
# Compressibility (1/GPa) = 0.35441885
#
# Stress axis : x y z
#
# Youngs Moduli (GPa) = 28.84676 18.93875 10.12198
#
# Poissons Ratio (x) = -0.24239 -0.33384
# Poissons Ratio (y) = -0.36920 -0.38765
# Poissons Ratio (z) = -0.95140 -0.72532
#
# Static dielectric constant tensor:
#      x y z
#    x 1.720000 0.000000 0.034320 
#    y 0.000000 1.664960 0.000000 
#    z 0.034320 0.000000 1.703000 
# 
# From -- ./inp_files/324250.got.cif
#   From: 2010.05.17/outbox.cif.g08.bks.cpg/sg12_163_cif.got.tgz:324250.got - 2010.06.03 13:09:07.
