data_PCOD9178681
_publ_section_title
;
Structure prediction by ZEFSAII (Michael W. Deem and Ramdas Pophale) SiO2 
 PCOD9178681
Probable space group: C 2/M
;
_chemical_formula_sum "Si O2"
_cell_formula_units_Z 56
_cell_length_a 21.175240
_cell_length_b 7.844498
_cell_length_c 31.250857
_cell_angle_alpha 90.000000
_cell_angle_beta 146.668538
_cell_angle_gamma 90.000000
_cell_volume 2852.388355
_symmetry_space_group_name_H-M "C 2/M"
_symmetry_group_IT_number 12
_symmetry_cell_setting 'monoclinic'
loop_
_space_group_symop_operation_xyz
x,y,z
-x,y,-z
-x,-y,-z
x,-y,z
1/2+x,1/2+y,z
1/2-x,1/2+y,-z
1/2-x,1/2-y,-z
1/2+x,1/2-y,z
loop_
_atom_site_type_symbol
_atom_site_label
_atom_site_fract_x
_atom_site_fract_y
_atom_site_fract_z
Si Si1 0.682504 0.698480 0.244189
Si Si2 0.324293 0.708423 0.661054
Si Si3 0.707624 0.293433 0.910484
Si Si4 0.432494 0.797761 0.084135
Si Si5 0.915061 0.802150 0.333743
Si Si6 0.428250 0.798643 0.499607
Si Si7 0.557693 0.290979 0.747175
O O1 0.714706 0.500000 0.264852
O O2 0.671953 0.762160 0.287133
O O3 0.557782 0.717150 0.152486
O O4 0.785122 0.786788 0.277090
O O5 0.329238 0.500000 0.663601
O O6 0.202203 0.766944 0.573025
O O7 0.435761 0.764305 0.697945
O O8 0.708574 0.500000 0.911748
O O9 0.622024 0.237681 0.899993
O O10 0.657069 0.237198 0.836541
O O11 0.835261 0.235213 0.995863
O O12 0.445858 0.000000 0.086497
O O13 0.925842 0.731098 0.291939
O O14 0.999563 0.722381 0.416550
O O15 0.947141 0.000000 0.349970
O O16 0.500000 0.725527 0.500000
O O17 0.415986 0.000000 0.484276
O O18 0.559665 0.500000 0.747940
#
# Coordination Sequence:
#
# PCOD9178681 Si02
#       7
#     8   8   8   8   8   8   8
#     4  11  20  36  59  79 105 147 188 221 268 333
#     4   9  17  32  58  80  99 138 190 222 246 320
#     4   9  17  33  56  79 110 151 185 215 265 333
#     4  10  19  30  52  88 115 134 178 238 277 306
#     4  11  23  36  54  81 113 141 177 233 280 315
#     4  10  19  35  57  81 106 141 186 222 264 329
#     4   9  18  35  56  79 108 148 186 216 265 329
#
# _framework density 19.632670999999998
#
# number of rings (size 3 to 8) (size 9 to 14) (size 15 to 20)
#    0.000    2.143    2.857    1.286    0.000    1.429 
#    0.000    2.143    0.000    4.286    0.000    0.000 
#    0.000    0.000    0.000    0.000    0.000    0.000 
#
# Total GULP energy -156275.928141 kJ/mol
# GULP energy per Si atom -5581.283148 kJ/mol
# Density = 1.958799 g / cm^3
# Si number density = 19.632671 Si / 1000 Ang^3
#
#
#
# Elastic Constant Matrix: (Units=GPa)
#
#
# Indices 1 2 3 4 5 6 
#
# 1 124.7188 -5.9081 77.2771 -0.0001 -10.6522 0.0005
# 2 -5.9081 17.4164 -9.2779 -0.0002 -1.1719 0.0015
# 3 77.2771 -9.2779 162.0301 0.0000 -0.9892 0.0001
# 4 -0.0001 -0.0002 0.0000 21.9964 0.0000 0.1387
# 5 -10.6522 -1.1719 -0.9892 0.0000 30.3607 -0.0001
# 6 0.0005 0.0015 0.0001 0.1387 -0.0001 14.3740
#
#
#
# Elastic Compliance Matrix: (Units=1/GPa)
#
#
# Indices 1 2 3 4 5 6 
#
# 1 0.011872 0.001336 -0.005561 0.000000 0.004036 0.000000
# 2 0.001336 0.059549 0.002790 0.000001 0.002858 -0.000006
# 3 -0.005561 0.002790 0.008974 0.000000 -0.001551 0.000000
# 4 0.000000 0.000001 0.000000 0.045465 0.000000 -0.000439
# 5 0.004036 0.002858 -0.001551 0.000000 0.034413 0.000000
# 6 0.000000 -0.000006 0.000000 -0.000439 0.000000 0.069574
#
#
# Mechanical properties :
#
#
# Convention : Reuss Voigt Hill
#
# Bulk Modulus (GPa) = 12.89897 47.59415 30.24656
# Shear Modulus (GPa) = 19.33806 29.48450 24.41128
#
# Velocity S-wave (km/s) = 3.14187 3.87952 3.53001
# Velocity P-wave (km/s) = 4.44367 6.66052 5.66166
#
# Compressibility (1/GPa) = 0.07752560
#
# Stress axis : x y z
#
# Youngs Moduli (GPa) = 84.23531 16.79292 111.43240
#
# Poissons Ratio (x) = -0.02244 0.61964
# Poissons Ratio (y) = -0.11257 -0.31088
# Poissons Ratio (z) = 0.46841 -0.04685
#
# Static dielectric constant tensor:
#      x y z
#    x 1.657210 0.000000 -0.002080 
#    y 0.000000 1.725340 0.000000 
#    z -0.002080 0.000000 1.692880 
# 
# From -- ./inp_files/363113.got.cif
#   From: 2010.05.17/outbox.cif.g08.bks.cpg/sg12_182_cif.got.tgz:363113.got - 2010.06.03 13:09:07.
