data_PCOD9178508
_publ_section_title
;
Structure prediction by ZEFSAII (Michael W. Deem and Ramdas Pophale) SiO2 
 PCOD9178508
Probable space group: C 2/M
;
_chemical_formula_sum "Si O2"
_cell_formula_units_Z 56
_cell_length_a 25.477941
_cell_length_b 7.468325
_cell_length_c 14.703245
_cell_angle_alpha 90.000000
_cell_angle_beta 102.943253
_cell_angle_gamma 90.000000
_cell_volume 2726.614522
_symmetry_space_group_name_H-M "C 2/M"
_symmetry_group_IT_number 12
_symmetry_cell_setting 'monoclinic'
loop_
_space_group_symop_operation_xyz
x,y,z
-x,y,-z
-x,-y,-z
x,-y,z
1/2+x,1/2+y,z
1/2-x,1/2+y,-z
1/2-x,1/2-y,-z
1/2+x,1/2-y,z
loop_
_atom_site_type_symbol
_atom_site_label
_atom_site_fract_x
_atom_site_fract_y
_atom_site_fract_z
Si Si1 0.721051 0.283418 0.193458
Si Si2 0.940767 0.288623 0.952766
Si Si3 0.384194 0.715669 0.744535
Si Si4 0.160574 0.210998 0.786499
Si Si5 0.831959 0.205335 0.009190
Si Si6 0.565744 0.281354 0.621317
Si Si7 0.557234 0.281614 0.411884
O O1 0.718476 0.500000 0.190228
O O2 0.674452 0.221493 0.244219
O O3 0.781636 0.230189 0.238611
O O4 0.704497 0.216043 0.085889
O O5 0.939732 0.500000 0.971916
O O6 0.925589 0.260809 0.841593
O O7 0.892380 0.205951 0.992380
O O8 0.000000 0.219722 0.000000
O O9 0.381646 0.500000 0.738856
O O10 0.405581 0.781278 0.656144
O O11 0.111773 0.283425 0.707319
O O12 0.148978 0.000000 0.793929
O O13 0.167000 0.288998 0.890560
O O14 0.813710 0.000000 0.012459
O O15 0.566720 0.500000 0.621641
O O16 0.574285 0.225761 0.519857
O O17 0.505195 0.228668 0.625501
O O18 0.558005 0.500000 0.411526
#
# Coordination Sequence:
#
# PCOD9178508 Si02
#       7
#     8   8   8   8   8   8   8
#     4   9  18  32  45  66  98 130 165 200 239 289
#     4  10  21  33  45  69 103 131 157 193 240 293
#     4   9  18  32  53  73  91 127 169 199 236 284
#     4  10  19  30  49  75  98 124 164 206 240 281
#     4   9  19  33  49  70  95 127 168 204 235 278
#     4   8  15  27  46  76 102 118 152 204 250 287
#     4   8  14  28  50  73  98 124 152 199 253 287
#
# _framework density 20.53829
#
# number of rings (size 3 to 8) (size 9 to 14) (size 15 to 20)
#    0.000    3.000    0.000    2.571    2.000    4.000 
#    0.000    0.714    0.000    0.857    0.000    2.000 
#    0.000    0.000    0.000    0.000    0.000    0.000 
#
# Total GULP energy -156224.140710 kJ/mol
# GULP energy per Si atom -5579.433597 kJ/mol
# Density = 2.049154 g / cm^3
# Si number density = 20.538290 Si / 1000 Ang^3
#
#
#
# Elastic Constant Matrix: (Units=GPa)
#
#
# Indices 1 2 3 4 5 6 
#
# 1 90.6507 0.6211 78.0328 0.0000 0.1888 0.0000
# 2 0.6211 61.5910 5.0595 0.0000 -1.3495 0.0000
# 3 78.0328 5.0595 106.2815 0.0000 -10.4553 0.0000
# 4 0.0000 0.0000 0.0000 -19.5657 0.0000 17.4157
# 5 0.1888 -1.3495 -10.4553 0.0000 32.8939 0.0000
# 6 0.0000 0.0000 0.0000 17.4157 0.0000 7.8045
#
#
#
# Elastic Compliance Matrix: (Units=1/GPa)
#
#
# Indices 1 2 3 4 5 6 
#
# 1 0.031968 0.001503 -0.024315 0.000000 -0.007850 0.000000
# 2 0.001503 0.016377 -0.001877 0.000000 0.000067 0.000000
# 3 -0.024315 -0.001877 0.028240 0.000000 0.009039 0.000000
# 4 0.000000 0.000000 0.000000 -0.017115 0.000000 0.038192
# 5 -0.007850 0.000067 0.009039 0.000000 0.033321 0.000000
# 6 0.000000 0.000000 0.000000 0.038192 0.000000 0.042907
#
#
# Mechanical properties :
#
#
# Convention : Reuss Voigt Hill
#
# Bulk Modulus (GPa) = 36.75491 47.32777 42.04134
# Shear Modulus (GPa) = 25.75418 15.88054 20.81736
#
# Velocity S-wave (km/s) = 3.54497 2.78369 3.18714
# Velocity P-wave (km/s) = 5.88986 5.78149 5.83592
#
# Compressibility (1/GPa) = 0.02720725
#
# Stress axis : x y z
#
# Youngs Moduli (GPa) = 31.28141 61.06276 35.41119
#
# Poissons Ratio (x) = -0.09178 0.86102
# Poissons Ratio (y) = -0.04702 0.06645
# Poissons Ratio (z) = 0.76060 0.11459
#
# Static dielectric constant tensor:
#      x y z
#    x 1.717890 0.000000 -0.008800 
#    y 0.000000 1.778990 0.000000 
#    z -0.008800 0.000000 1.719140 
# 
# From -- ./inp_files/237822.got.cif
#   From: 2010.05.17/outbox.cif.g08.bks.cpg/sg12_119_cif.got.tgz:237822.got - 2010.06.03 13:09:07.
