data_PCOD9178305
_publ_section_title
;
Structure prediction by ZEFSAII (Michael W. Deem and Ramdas Pophale) SiO2 
 PCOD9178305
Probable space group: C 2/M
;
_chemical_formula_sum "Si O2"
_cell_formula_units_Z 60
_cell_length_a 18.391050
_cell_length_b 12.593723
_cell_length_c 25.480444
_cell_angle_alpha 90.000000
_cell_angle_beta 35.495625
_cell_angle_gamma 90.000000
_cell_volume 3426.692979
_symmetry_space_group_name_H-M "C 2/M"
_symmetry_group_IT_number 12
_symmetry_cell_setting 'monoclinic'
loop_
_space_group_symop_operation_xyz
x,y,z
-x,y,-z
-x,-y,-z
x,-y,z
1/2+x,1/2+y,z
1/2-x,1/2+y,-z
1/2-x,1/2-y,-z
1/2+x,1/2-y,z
loop_
_atom_site_type_symbol
_atom_site_label
_atom_site_fract_x
_atom_site_fract_y
_atom_site_fract_z
Si Si1 0.184612 0.749275 0.298233
Si Si2 0.000000 0.740110 0.000000
Si Si3 0.650105 0.380810 0.420131
Si Si4 0.345010 0.380926 0.396409
Si Si5 0.468653 0.373812 0.804020
Si Si6 0.100065 0.726575 0.542434
Si Si7 0.062030 0.872645 0.860478
Si Si8 0.264550 0.372130 0.839247
O O1 0.205092 0.824941 0.336419
O O2 0.293226 0.662174 0.231572
O O3 0.191673 0.819676 0.241199
O O4 0.043899 0.703746 0.386007
O O5 0.987146 0.813764 0.058913
O O6 0.876140 0.668140 0.068814
O O7 0.500000 0.388109 0.500000
O O8 0.698732 0.500000 0.399264
O O9 0.660874 0.306976 0.464337
O O10 0.385343 0.500000 0.388842
O O11 0.404647 0.360964 0.304427
O O12 0.195350 0.370883 0.486351
O O13 0.394937 0.291315 0.406254
O O14 0.448581 0.500000 0.821187
O O15 0.488629 0.334123 0.851252
O O16 0.355677 0.335521 0.833224
O O17 0.052246 0.000000 0.870834
O O18 0.270572 0.500000 0.831864
#
# Coordination Sequence:
#
# PCOD9178305 Si02
#       8
#     8   4   8   8   8   8   8   8
#     4  10  19  32  51  77 103 139 177 216 256 300
#     4  10  22  36  56  82 102 128 164 214 268 316
#     4   9  17  28  45  70 101 133 169 211 253 296
#     4  10  19  31  48  72 104 139 178 216 251 298
#     4   9  18  33  54  75 100 137 171 204 253 308
#     4  10  19  30  47  73 104 140 179 216 255 295
#     4  10  21  37  55  76 103 136 173 211 257 316
#     4  10  19  34  56  80 105 130 165 213 266 317
#
# _framework density 17.509592999999999
#
# number of rings (size 3 to 8) (size 9 to 14) (size 15 to 20)
#    0.000    2.267    1.333    2.000    0.000    2.133 
#    0.000    0.000    0.000    4.800    0.000    4.667 
#    0.000    0.000    0.000    0.000    0.000    0.000 
#
# Total GULP energy -167189.498968 kJ/mol
# GULP energy per Si atom -5572.983299 kJ/mol
# Density = 1.746974 g / cm^3
# Si number density = 17.509593 Si / 1000 Ang^3
#
#
#
# Elastic Constant Matrix: (Units=GPa)
#
#
# Indices 1 2 3 4 5 6 
#
# 1 84.7324 15.0217 35.8163 0.0000 16.0676 0.0000
# 2 15.0217 39.7466 9.5301 0.0000 1.2429 0.0000
# 3 35.8163 9.5301 80.9071 0.0000 1.2571 0.0000
# 4 0.0000 0.0000 0.0000 11.1642 0.0000 4.5074
# 5 16.0676 1.2429 1.2571 0.0000 33.4359 0.0000
# 6 0.0000 0.0000 0.0000 4.5074 0.0000 17.6254
#
#
#
# Elastic Compliance Matrix: (Units=1/GPa)
#
#
# Indices 1 2 3 4 5 6 
#
# 1 0.016969 -0.004527 -0.006859 0.000000 -0.007728 0.000000
# 2 -0.004527 0.027122 -0.001210 0.000000 0.001213 0.000000
# 3 -0.006859 -0.001210 0.015496 0.000000 0.002758 0.000000
# 4 0.000000 0.000000 0.000000 0.099885 0.000000 -0.025544
# 5 -0.007728 0.001213 0.002758 0.000000 0.033473 0.000000
# 6 0.000000 0.000000 0.000000 -0.025544 0.000000 0.063269
#
#
# Mechanical properties :
#
#
# Convention : Reuss Voigt Hill
#
# Bulk Modulus (GPa) = 29.07257 36.23582 32.65419
# Shear Modulus (GPa) = 17.07238 22.11295 19.59267
#
# Velocity S-wave (km/s) = 3.12594 3.55759 3.34873
# Velocity P-wave (km/s) = 5.44688 6.13311 5.80015
#
# Compressibility (1/GPa) = 0.03439668
#
# Stress axis : x y z
#
# Youngs Moduli (GPa) = 58.93063 36.86989 64.53408
#
# Poissons Ratio (x) = 0.16691 0.44262
# Poissons Ratio (y) = 0.26678 0.07806
# Poissons Ratio (z) = 0.40418 0.04460
#
# Static dielectric constant tensor:
#      x y z
#    x 1.626810 0.000000 -0.004600 
#    y 0.000000 1.586360 0.000000 
#    z -0.004600 0.000000 1.586900 
# 
# From -- ./inp_files/343336.got.cif
#   From: 2010.05.17/outbox.cif.g08.bks.cpg/sg12_172_cif.got.tgz:343336.got - 2010.06.03 13:09:07.
