data_PCOD9178890
_publ_section_title
;
Structure prediction by ZEFSAII (Michael W. Deem and Ramdas Pophale) SiO2 
 PCOD9178890
Probable space group: C 2/M
;
_chemical_formula_sum "Si O2"
_cell_formula_units_Z 40
_cell_length_a 11.839824
_cell_length_b 29.438753
_cell_length_c 7.105132
_cell_angle_alpha 90.000000
_cell_angle_beta 136.702551
_cell_angle_gamma 90.000000
_cell_volume 1698.342939
_symmetry_space_group_name_H-M "C 2/M"
_symmetry_group_IT_number 12
_symmetry_cell_setting 'monoclinic'
loop_
_space_group_symop_operation_xyz
x,y,z
-x,y,-z
-x,-y,-z
x,-y,z
1/2+x,1/2+y,z
1/2-x,1/2+y,-z
1/2-x,1/2-y,-z
1/2+x,1/2-y,z
loop_
_atom_site_type_symbol
_atom_site_label
_atom_site_fract_x
_atom_site_fract_y
_atom_site_fract_z
Si Si1 0.711775 0.894151 0.444616
Si Si2 0.335984 0.701344 0.566111
Si Si3 0.198781 0.198314 0.922068
Si Si4 0.034680 0.052468 0.768264
Si Si5 0.644111 0.106128 0.909331
O O1 0.740870 0.841580 0.533477
O O2 0.676558 0.895909 0.175727
O O3 0.879715 0.922101 0.673969
O O4 0.543781 0.909652 0.340508
O O5 0.250000 0.750000 0.500000
O O6 0.530853 0.696219 0.837183
O O7 0.330399 0.693279 0.335439
O O8 0.326510 0.158243 0.118476
O O9 0.250000 0.250000 0.000000
O O10 0.209141 0.077342 0.004435
O O11 0.000000 0.054105 0.500000
O O12 0.042352 0.000000 0.832409
#
# Coordination Sequence:
#
# PCOD9178890 Si02
#       5
#     8   8   8   8   8
#     4   9  16  27  42  60  87 121 153 190 237 282
#     4  10  19  31  47  68  96 128 162 199 238 284
#     4  10  19  31  47  68  96 128 162 199 238 284
#     4   9  16  26  40  60  87 119 157 195 232 283
#     4   9  16  27  42  60  87 121 153 190 237 282
#
# _framework density 23.55237
#
# number of rings (size 3 to 8) (size 9 to 14) (size 15 to 20)
#    0.000    2.600    2.000    1.200    0.000    3.200 
#    0.000    4.000    0.000    0.000    0.000    0.000 
#    0.000    3.200    0.000    8.400    0.000    8.000 
#
# Total GULP energy -111739.422747 kJ/mol
# GULP energy per Si atom -5586.971137 kJ/mol
# Density = 2.349876 g / cm^3
# Si number density = 23.552370 Si / 1000 Ang^3
#
#
#
# Elastic Constant Matrix: (Units=GPa)
#
#
# Indices 1 2 3 4 5 6 
#
# 1 144.6151 36.5043 59.7896 0.0000 28.9585 0.0000
# 2 36.5043 165.0791 71.8955 0.0000 53.8770 0.0000
# 3 59.7896 71.8955 131.9875 0.0000 66.8554 0.0000
# 4 0.0000 0.0000 0.0000 20.6844 0.0000 8.1125
# 5 28.9585 53.8770 66.8554 0.0000 60.0682 0.0000
# 6 0.0000 0.0000 0.0000 8.1125 0.0000 19.2399
#
#
#
# Elastic Compliance Matrix: (Units=1/GPa)
#
#
# Indices 1 2 3 4 5 6 
#
# 1 0.008528 -0.000360 -0.004007 0.000000 0.000671 0.000000
# 2 -0.000360 0.008765 -0.001644 0.000000 -0.005859 0.000000
# 3 -0.004007 -0.001644 0.019627 0.000000 -0.018438 0.000000
# 4 0.000000 0.000000 0.000000 0.057925 0.000000 -0.024424
# 5 0.000671 -0.005859 -0.018438 0.000000 0.042100 0.000000
# 6 0.000000 0.000000 0.000000 -0.024424 0.000000 0.062274
#
#
# Mechanical properties :
#
#
# Convention : Reuss Voigt Hill
#
# Bulk Modulus (GPa) = 40.16442 86.45117 63.30779
# Shear Modulus (GPa) = 22.77488 38.23130 30.50309
#
# Velocity S-wave (km/s) = 3.11302 4.03332 3.60268
# Velocity P-wave (km/s) = 5.47827 7.64695 6.65159
#
# Compressibility (1/GPa) = 0.02489766
#
# Stress axis : x y z
#
# Youngs Moduli (GPa) = 117.26034 114.08526 50.95150
#
# Poissons Ratio (x) = 0.04103 0.20418
# Poissons Ratio (y) = 0.04218 0.08377
# Poissons Ratio (z) = 0.46990 0.18757
#
# Static dielectric constant tensor:
#      x y z
#    x 2.286740 0.000000 0.262720 
#    y 0.000000 1.956070 0.000000 
#    z 0.262720 0.000000 2.022370 
# 
# From -- ./inp_files/52105.got.cif
#   From: 2010.05.17/outbox.cif.g08.bks.cpg/sg12_27_cif.got.tgz:52105.got - 2010.06.03 13:09:07.
