data_PCOD9178565
_publ_section_title
;
Structure prediction by ZEFSAII (Michael W. Deem and Ramdas Pophale) SiO2 
 PCOD9178565
Probable space group: C 2/M
;
_chemical_formula_sum "Si O2"
_cell_formula_units_Z 64
_cell_length_a 19.619866
_cell_length_b 31.544520
_cell_length_c 9.810387
_cell_angle_alpha 90.000000
_cell_angle_beta 140.675633
_cell_angle_gamma 90.000000
_cell_volume 3847.659250
_symmetry_space_group_name_H-M "C 2/M"
_symmetry_group_IT_number 12
_symmetry_cell_setting 'monoclinic'
loop_
_space_group_symop_operation_xyz
x,y,z
-x,y,-z
-x,-y,-z
x,-y,z
1/2+x,1/2+y,z
1/2-x,1/2+y,-z
1/2-x,1/2-y,-z
1/2+x,1/2-y,z
loop_
_atom_site_type_symbol
_atom_site_label
_atom_site_fract_x
_atom_site_fract_y
_atom_site_fract_z
Si Si1 0.715696 0.806901 0.806952
Si Si2 0.641634 0.048214 0.968572
Si Si3 0.618661 0.046511 0.427921
Si Si4 0.071224 0.763068 0.238918
Si Si5 0.629075 0.897737 0.201585
Si Si6 0.870065 0.399226 0.305011
Si Si7 0.722632 0.814258 0.485008
Si Si8 0.923014 0.767900 0.269138
O O1 0.676372 0.853035 0.791590
O O2 0.724783 0.809579 0.654888
O O3 0.632106 0.771399 0.734213
O O4 0.827679 0.794816 0.052835
O O5 0.511195 0.045637 0.767404
O O6 0.669564 0.065964 0.863642
O O7 0.680349 0.000000 0.055055
O O8 0.667304 0.086093 0.113730
O O9 0.645395 0.060441 0.318077
O O10 0.657483 0.082684 0.589596
O O11 0.658225 0.000000 0.526231
O O12 0.163673 0.798349 0.398552
O O13 0.133919 0.719907 0.301576
O O14 0.998841 0.755411 0.259652
O O15 0.000000 0.775478 0.000000
O O16 0.688240 0.858903 0.366886
O O17 0.500000 0.888431 0.000000
O O18 0.000000 0.396348 0.500000
O O19 0.000000 0.789855 0.500000
#
# Coordination Sequence:
#
# PCOD9178565 Si02
#       8
#     8   8   8   8   8   8   8   8
#     4  11  22  36  57  80 105 138 184 224 261 315
#     4   9  18  30  44  71 107 143 173 206 258 316
#     4   9  16  28  47  69 101 143 175 204 256 318
#     4  11  23  38  55  76 108 146 176 221 271 313
#     4  10  19  31  49  75 107 141 175 218 256 305
#     4  10  19  30  50  74 107 140 176 217 257 306
#     4  11  22  36  55  80 106 139 186 221 260 317
#     4  11  23  39  57  76 107 142 176 221 274 316
#
# _framework density 16.633489000000001
#
# number of rings (size 3 to 8) (size 9 to 14) (size 15 to 20)
#    0.000    1.750    3.750    1.500    0.000    5.000 
#    0.000    0.000    0.000    0.000    0.000    0.000 
#    0.000   20.000    0.000    0.000    0.000    0.000 
#
# Total GULP energy -178221.254178 kJ/mol
# GULP energy per Si atom -5569.414193 kJ/mol
# Density = 1.659563 g / cm^3
# Si number density = 16.633489 Si / 1000 Ang^3
#
#
#
# Elastic Constant Matrix: (Units=GPa)
#
#
# Indices 1 2 3 4 5 6 
#
# 1 47.9656 9.7239 27.7936 0.0000 -2.0196 0.0000
# 2 9.7239 99.7823 37.3262 0.0000 2.9623 0.0000
# 3 27.7936 37.3262 72.5141 0.0000 -0.4660 0.0000
# 4 0.0000 0.0000 0.0000 26.3198 0.0000 -8.3212
# 5 -2.0196 2.9623 -0.4660 0.0000 20.1081 0.0000
# 6 0.0000 0.0000 0.0000 -8.3212 0.0000 11.9916
#
#
#
# Elastic Compliance Matrix: (Units=1/GPa)
#
#
# Indices 1 2 3 4 5 6 
#
# 1 0.027090 0.001451 -0.011116 0.000000 0.002249 0.000000
# 2 0.001451 0.012569 -0.007038 0.000000 -0.001869 0.000000
# 3 -0.011116 -0.007038 0.021676 0.000000 0.000423 0.000000
# 4 0.000000 0.000000 0.000000 0.048672 0.000000 0.033775
# 5 0.002249 -0.001869 0.000423 0.000000 0.050242 0.000000
# 6 0.000000 0.000000 0.000000 0.033775 0.000000 0.106828
#
#
# Mechanical properties :
#
#
# Convention : Reuss Voigt Hill
#
# Bulk Modulus (GPa) = 35.80356 41.10549 38.45453
# Shear Modulus (GPa) = 16.13986 21.37846 18.75916
#
# Velocity S-wave (km/s) = 3.11838 3.58895 3.36191
# Velocity P-wave (km/s) = 5.87686 6.47613 6.18376
#
# Compressibility (1/GPa) = 0.02793018
#
# Stress axis : x y z
#
# Youngs Moduli (GPa) = 36.91435 79.56352 46.13321
#
# Poissons Ratio (x) = -0.11548 0.51281
# Poissons Ratio (y) = -0.05358 0.32468
# Poissons Ratio (z) = 0.41033 0.55996
#
# Static dielectric constant tensor:
#      x y z
#    x 1.566890 0.000000 -0.017900 
#    y 0.000000 1.549020 0.000000 
#    z -0.017900 0.000000 1.569890 
# 
# From -- ./inp_files/80779.got.cif
#   From: 2010.05.17/outbox.cif.g08.bks.cpg/sg12_41_cif.got.tgz:80779.got - 2010.06.03 13:09:07.
