data_PCOD9178934
_publ_section_title
;
Structure prediction by ZEFSAII (Michael W. Deem and Ramdas Pophale) SiO2 
 PCOD9178934
Probable space group: C 2/M
;
_chemical_formula_sum "Si O2"
_cell_formula_units_Z 64
_cell_length_a 21.142660
_cell_length_b 7.376066
_cell_length_c 26.864291
_cell_angle_alpha 90.000000
_cell_angle_beta 46.195136
_cell_angle_gamma 90.000000
_cell_volume 3023.551648
_symmetry_space_group_name_H-M "C 2/M"
_symmetry_group_IT_number 12
_symmetry_cell_setting 'monoclinic'
loop_
_space_group_symop_operation_xyz
x,y,z
-x,y,-z
-x,-y,-z
x,-y,z
1/2+x,1/2+y,z
1/2-x,1/2+y,-z
1/2-x,1/2-y,-z
1/2+x,1/2-y,z
loop_
_atom_site_type_symbol
_atom_site_label
_atom_site_fract_x
_atom_site_fract_y
_atom_site_fract_z
Si Si1 0.900550 0.778517 0.542957
Si Si2 0.265136 0.278164 0.702035
Si Si3 0.177472 0.778196 0.219053
Si Si4 0.233374 0.711394 0.926937
Si Si5 0.479300 0.719248 0.303710
Si Si6 0.612505 0.779439 0.079470
Si Si7 0.650180 0.716315 0.539332
Si Si8 0.571671 0.788088 0.781540
O O1 0.833309 0.720354 0.622405
O O2 0.871022 0.716292 0.504416
O O3 0.000000 0.723439 0.500000
O O4 0.899467 0.000000 0.543583
O O5 0.265201 0.500000 0.701059
O O6 0.295754 0.223104 0.740241
O O7 0.166797 0.214438 0.743757
O O8 0.243247 0.714200 0.139940
O O9 0.078849 0.721272 0.259142
O O10 0.177693 0.000000 0.218001
O O11 0.212654 0.500000 0.931094
O O12 0.321628 0.724674 0.912110
O O13 0.156513 0.785614 0.004066
O O14 0.479409 0.500000 0.304218
O O15 0.415483 0.784514 0.382327
O O16 0.445219 0.774432 0.268176
O O17 0.514797 0.713863 0.144105
O O18 0.612721 0.000000 0.079128
O O19 0.637371 0.500000 0.544497
O O20 0.750000 0.750000 0.500000
O O21 0.574547 0.000000 0.793376
#
# Coordination Sequence:
#
# PCOD9178934 Si02
#       8
#     8   8   8   8   8   8   8   8
#     4   9  16  28  46  67  90 119 157 196 231 271
#     4   9  17  28  44  66  94 124 152 189 236 280
#     4   9  16  28  46  69  93 120 157 196 230 266
#     4   9  16  28  47  69  93 122 156 192 228 267
#     4  10  19  31  49  71  93 120 158 199 233 272
#     4   9  17  28  44  69  97 123 153 188 228 277
#     4  10  20  32  48  71  96 121 153 194 238 281
#     4  10  19  31  47  70  99 127 154 188 236 287
#
# _framework density 21.167161
#
# number of rings (size 3 to 8) (size 9 to 14) (size 15 to 20)
#    0.000    2.625    1.250    1.500    0.000    4.500 
#    0.000    0.625    0.000    5.625    0.000    0.000 
#    0.000    5.000    0.000    0.000    0.000    0.000 
#
# Total GULP energy -178721.091352 kJ/mol
# GULP energy per Si atom -5585.034105 kJ/mol
# Density = 2.111898 g / cm^3
# Si number density = 21.167161 Si / 1000 Ang^3
#
#
#
# Elastic Constant Matrix: (Units=GPa)
#
#
# Indices 1 2 3 4 5 6 
#
# 1 134.2636 -13.7761 78.8410 0.0005 -2.5614 -0.0052
# 2 -13.7761 72.5459 -5.0033 0.0029 -1.5561 0.0029
# 3 78.8410 -5.0033 206.0233 -0.0001 -2.4942 -0.0012
# 4 0.0005 0.0029 -0.0001 3.5138 -0.0001 1.9594
# 5 -2.5614 -1.5561 -2.4942 -0.0001 21.1560 0.0006
# 6 -0.0052 0.0029 -0.0012 1.9594 0.0006 12.9252
#
#
#
# Elastic Compliance Matrix: (Units=1/GPa)
#
#
# Indices 1 2 3 4 5 6 
#
# 1 0.009805 0.001625 -0.003702 -0.000005 0.000870 0.000004
# 2 0.001625 0.014101 -0.000265 -0.000011 0.001203 -0.000001
# 3 -0.003702 -0.000265 0.006267 0.000002 0.000271 -0.000001
# 4 -0.000005 -0.000011 0.000002 0.310872 0.000002 -0.047127
# 5 0.000870 0.001203 0.000271 0.000002 0.047494 -0.000002
# 6 0.000004 -0.000001 -0.000001 -0.047127 -0.000002 0.084513
#
#
# Mechanical properties :
#
#
# Convention : Reuss Voigt Hill
#
# Bulk Modulus (GPa) = 39.23186 59.21732 49.22459
# Shear Modulus (GPa) = 10.28315 31.03708 20.66012
#
# Velocity S-wave (km/s) = 2.20649 3.83336 3.12756
# Velocity P-wave (km/s) = 5.00660 6.90143 6.02892
#
# Compressibility (1/GPa) = 0.02548949
#
# Stress axis : x y z
#
# Youngs Moduli (GPa) = 101.98394 70.91927 159.55370
#
# Poissons Ratio (x) = -0.11527 0.59072
# Poissons Ratio (y) = -0.16576 0.04228
# Poissons Ratio (z) = 0.37758 0.01879
#
# Static dielectric constant tensor:
#      x y z
#    x 1.688320 0.000000 -0.001600 
#    y 0.000000 1.877990 0.000000 
#    z -0.001600 0.000000 1.755480 
# 
# From -- ./inp_files/276589.got.cif
#   From: 2010.05.17/outbox.cif.g08.bks.cpg/sg12_139_cif.got.tgz:276589.got - 2010.06.03 13:09:07.
