data_PCOD9178514
_publ_section_title
;
Structure prediction by ZEFSAII (Michael W. Deem and Ramdas Pophale) SiO2 
 PCOD9178514
Probable space group: C 2/M
;
_chemical_formula_sum "Si O2"
_cell_formula_units_Z 64
_cell_length_a 20.206939
_cell_length_b 9.228965
_cell_length_c 31.169929
_cell_angle_alpha 90.000000
_cell_angle_beta 141.275632
_cell_angle_gamma 90.000000
_cell_volume 3636.372733
_symmetry_space_group_name_H-M "C 2/M"
_symmetry_group_IT_number 12
_symmetry_cell_setting 'monoclinic'
loop_
_space_group_symop_operation_xyz
x,y,z
-x,y,-z
-x,-y,-z
x,-y,z
1/2+x,1/2+y,z
1/2-x,1/2+y,-z
1/2-x,1/2-y,-z
1/2+x,1/2-y,z
loop_
_atom_site_type_symbol
_atom_site_label
_atom_site_fract_x
_atom_site_fract_y
_atom_site_fract_z
Si Si1 0.062246 0.670458 0.787858
Si Si2 0.442273 0.329317 0.651485
Si Si3 0.586141 0.170924 0.203037
Si Si4 0.789921 0.330128 0.439481
Si Si5 0.588911 0.332736 0.936289
Si Si6 0.761623 0.832927 0.073269
Si Si7 0.208725 0.329808 0.661694
Si Si8 0.505791 0.670320 0.421795
O O1 0.082098 0.500000 0.792646
O O2 0.168718 0.752612 0.855824
O O3 0.010254 0.738921 0.719554
O O4 0.979714 0.687465 0.785725
O O5 0.447354 0.500000 0.666041
O O6 0.318815 0.286740 0.592276
O O7 0.481928 0.313337 0.623195
O O8 0.515394 0.247070 0.130876
O O9 0.698001 0.248108 0.266237
O O10 0.597917 0.000000 0.200799
O O11 0.811899 0.500000 0.460023
O O12 0.770999 0.317129 0.379032
O O13 0.889107 0.235019 0.503550
O O14 0.567253 0.500000 0.935963
O O15 0.664893 0.332512 0.932497
O O16 0.655791 0.252063 0.006718
O O17 0.740825 0.000000 0.073733
O O18 0.207565 0.500000 0.671894
O O19 0.096454 0.257145 0.614461
O O20 0.495344 0.500000 0.426550
#
# Coordination Sequence:
#
# PCOD9178514 Si02
#       8
#     8   8   8   8   8   8   8   8
#     4  10  19  30  49  76 104 136 175 220 264 312
#     4  10  21  38  56  77 106 141 177 217 266 319
#     4  10  19  31  49  75 105 136 175 219 265 314
#     4  10  21  38  59  79 102 136 178 219 266 321
#     4   9  16  26  42  67 101 138 175 214 260 311
#     4   9  16  26  42  66 101 140 174 213 261 311
#     4  11  22  37  57  78 105 141 178 218 266 318
#     4  11  24  38  55  79 108 138 174 221 269 317
#
# _framework density 17.599955000000001
#
# number of rings (size 3 to 8) (size 9 to 14) (size 15 to 20)
#    0.000    2.000    1.250    3.000    0.000    8.000 
#    0.000    0.000    0.000    0.000    0.000    0.875 
#    0.000    7.000    0.000    0.000    0.000    0.000 
#
# Total GULP energy -178661.561913 kJ/mol
# GULP energy per Si atom -5583.173810 kJ/mol
# Density = 1.755990 g / cm^3
# Si number density = 17.599955 Si / 1000 Ang^3
#
#
#
# Elastic Constant Matrix: (Units=GPa)
#
#
# Indices 1 2 3 4 5 6 
#
# 1 3.1839 -5.2435 -30.8461 0.0000 -11.0206 0.0000
# 2 -5.2435 101.3351 44.7647 0.0000 -11.3932 0.0000
# 3 -30.8461 44.7647 83.0360 0.0000 -16.4135 0.0000
# 4 0.0000 0.0000 0.0000 41.6247 0.0000 1.3239
# 5 -11.0206 -11.3932 -16.4135 0.0000 -11.9847 0.0000
# 6 0.0000 0.0000 0.0000 1.3239 0.0000 18.2038
#
#
#
# Elastic Compliance Matrix: (Units=1/GPa)
#
#
# Indices 1 2 3 4 5 6 
#
# 1 0.119737 -0.021974 0.030448 0.000000 -0.130916 0.000000
# 2 -0.021974 0.016915 -0.012958 0.000000 0.021873 0.000000
# 3 0.030448 -0.012958 0.021437 0.000000 -0.045039 0.000000
# 4 0.000000 0.000000 0.000000 0.024080 0.000000 -0.001751
# 5 -0.130916 0.021873 -0.045039 0.000000 0.077833 0.000000
# 6 0.000000 0.000000 0.000000 -0.001751 0.000000 0.055061
#
#
# Mechanical properties :
#
#
# Convention : Reuss Voigt Hill
#
# Bulk Modulus (GPa) = 6.70592 22.76724 14.73658
# Shear Modulus (GPa) = 13.37840 21.49409 17.43625
#
# Velocity S-wave (km/s) = 2.76005 3.49844 3.15095
# Velocity P-wave (km/s) = 3.73840 5.41136 4.65072
#
# Compressibility (1/GPa) = 0.14912196
#
# Stress axis : x y z
#
# Youngs Moduli (GPa) = 8.35161 59.12067 46.64876
#
# Poissons Ratio (x) = 1.29910 -1.42037
# Poissons Ratio (y) = 0.18352 0.60447
# Poissons Ratio (z) = -0.25429 0.76608
#
# Static dielectric constant tensor:
#      x y z
#    x 1.576220 0.000000 0.001690 
#    y 0.000000 1.589730 0.000000 
#    z 0.001690 0.000000 1.571910 
# 
# From -- ./inp_files/346187.got.cif
#   From: 2010.05.17/outbox.cif.g08.bks.cpg/sg12_174_cif.got.tgz:346187.got - 2010.06.03 13:09:07.
