data_PCOD9178032
_publ_section_title
;
Structure prediction by ZEFSAII (Michael W. Deem and Ramdas Pophale) SiO2 
 PCOD9178032
Probable space group: C 2/M
;
_chemical_formula_sum "Si O2"
_cell_formula_units_Z 48
_cell_length_a 5.052039
_cell_length_b 14.531047
_cell_length_c 31.217195
_cell_angle_alpha 90.000000
_cell_angle_beta 89.965836
_cell_angle_gamma 90.000000
_cell_volume 2291.698086
_symmetry_space_group_name_H-M "C 2/M"
_symmetry_group_IT_number 12
_symmetry_cell_setting 'monoclinic'
loop_
_space_group_symop_operation_xyz
x,y,z
-x,y,-z
-x,-y,-z
x,-y,z
1/2+x,1/2+y,z
1/2-x,1/2+y,-z
1/2-x,1/2-y,-z
1/2+x,1/2-y,z
loop_
_atom_site_type_symbol
_atom_site_label
_atom_site_fract_x
_atom_site_fract_y
_atom_site_fract_z
Si Si1 0.893423 0.889619 0.364801
Si Si2 0.563169 0.188980 0.225705
Si Si3 0.562207 0.185617 0.864721
Si Si4 0.940326 0.685285 0.954837
Si Si5 0.106332 0.610475 0.684168
Si Si6 0.065300 0.810658 0.454579
O O1 0.604095 0.856117 0.351299
O O2 0.990689 0.863363 0.411709
O O3 0.104266 0.856064 0.329397
O O4 0.885912 0.000000 0.362779
O O5 0.864931 0.222933 0.225442
O O6 0.496931 0.138608 0.180791
O O7 0.490732 0.137346 0.268976
O O8 0.356506 0.272436 0.864953
O O9 0.500567 0.136256 0.909708
O O10 0.646673 0.728010 0.954837
O O11 0.000000 0.636444 0.000000
O O12 0.113670 0.500000 0.682378
O O13 0.867684 0.722436 0.454425
O O14 0.000000 0.858611 0.500000
#
# Coordination Sequence:
#
# PCOD9178032 Si02
#       6
#     8   8   8   8   8   8
#     4  10  21  36  53  72  95 124 155 187 223 264
#     4  10  19  30  46  67  89 117 152 186 224 269
#     4   8  14  23  34  52  78 104 135 176 214 254
#     4   8  12  18  29  45  68 100 132 163 207 257
#     4  10  21  35  49  69  96 122 152 190 227 264
#     4  10  21  36  54  77 102 125 151 186 225 264
#
# _framework density 20.945167000000001
#
# number of rings (size 3 to 8) (size 9 to 14) (size 15 to 20)
#    0.000    2.667    0.000    2.000    0.000    4.333 
#    0.000    0.000    0.000    6.000    0.000    0.000 
#    0.000    0.667    0.000    0.000    0.000  169.333 
#
# Total GULP energy -133786.980985 kJ/mol
# GULP energy per Si atom -5574.457541 kJ/mol
# Density = 2.089749 g / cm^3
# Si number density = 20.945167 Si / 1000 Ang^3
#
#
#
# Elastic Constant Matrix: (Units=GPa)
#
#
# Indices 1 2 3 4 5 6 
#
# 1 86.3083 -1.3876 -1.4693 0.0000 0.3219 0.0000
# 2 -1.3876 19.6036 -1.3698 0.0000 -0.1085 0.0000
# 3 -1.4693 -1.3698 144.7396 0.0000 0.0738 0.0000
# 4 0.0000 0.0000 0.0000 -10.6224 0.0000 0.6257
# 5 0.3219 -0.1085 0.0738 0.0000 37.0635 0.0000
# 6 0.0000 0.0000 0.0000 0.6257 0.0000 4.1148
#
#
#
# Elastic Compliance Matrix: (Units=1/GPa)
#
#
# Indices 1 2 3 4 5 6 
#
# 1 0.011602 0.000829 0.000126 0.000000 -0.000099 0.000000
# 2 0.000829 0.051105 0.000492 0.000000 0.000141 0.000000
# 3 0.000126 0.000492 0.006915 0.000000 -0.000013 0.000000
# 4 0.000000 0.000000 0.000000 -0.093305 0.000000 0.014187
# 5 -0.000099 0.000141 -0.000013 0.000000 0.026982 0.000000
# 6 0.000000 0.000000 0.000000 0.014187 0.000000 0.240867
#
#
# Mechanical properties :
#
#
# Convention : Reuss Voigt Hill
#
# Bulk Modulus (GPa) = 13.78999 26.91091 20.35045
# Shear Modulus (GPa) = 18.83635 23.10305 20.96970
#
# Velocity S-wave (km/s) = 3.00212 3.32479 3.16756
# Velocity P-wave (km/s) = 4.31452 5.25501 4.80781
#
# Compressibility (1/GPa) = 0.07251636
#
# Stress axis : x y z
#
# Youngs Moduli (GPa) = 86.19045 19.56757 144.61534
#
# Poissons Ratio (x) = -0.01623 -0.01817
# Poissons Ratio (y) = -0.07149 -0.07115
# Poissons Ratio (z) = -0.01083 -0.00963
#
# Static dielectric constant tensor:
#      x y z
#    x 1.734010 0.000000 -0.000020 
#    y 0.000000 1.705800 0.000000 
#    z -0.000020 0.000000 1.848240 
# 
# From -- ./inp_files/354851.got.cif
#   From: 2010.05.17/outbox.cif.g08.bks.cpg/sg12_178_cif.got.tgz:354851.got - 2010.06.03 13:09:07.
