data_PCOD9178600
_publ_section_title
;
Structure prediction by ZEFSAII (Michael W. Deem and Ramdas Pophale) SiO2 
 PCOD9178600
Probable space group: C 2/M
;
_chemical_formula_sum "Si O2"
_cell_formula_units_Z 48
_cell_length_a 31.713833
_cell_length_b 14.382235
_cell_length_c 10.021272
_cell_angle_alpha 90.000000
_cell_angle_beta 32.035872
_cell_angle_gamma 90.000000
_cell_volume 2424.613448
_symmetry_space_group_name_H-M "C 2/M"
_symmetry_group_IT_number 12
_symmetry_cell_setting 'monoclinic'
loop_
_space_group_symop_operation_xyz
x,y,z
-x,y,-z
-x,-y,-z
x,-y,z
1/2+x,1/2+y,z
1/2-x,1/2+y,-z
1/2-x,1/2-y,-z
1/2+x,1/2-y,z
loop_
_atom_site_type_symbol
_atom_site_label
_atom_site_fract_x
_atom_site_fract_y
_atom_site_fract_z
Si Si1 0.644035 0.266413 0.116649
Si Si2 0.777121 0.105293 0.453285
Si Si3 0.556753 0.394224 0.153872
Si Si4 0.557248 0.895013 0.216078
Si Si5 0.942766 0.735755 0.375915
Si Si6 0.804480 0.717222 0.552697
O O1 0.583028 0.342279 0.219380
O O2 0.626764 0.174673 0.073480
O O3 0.618609 0.244860 0.334913
O O4 0.733698 0.298782 0.849949
O O5 0.790576 0.179799 0.532426
O O6 0.712004 0.146648 0.524962
O O7 0.759752 0.000000 0.541039
O O8 0.860844 0.104716 0.149276
O O9 0.530070 0.500000 0.245461
O O10 0.493115 0.331080 0.246585
O O11 0.500000 0.897107 0.500000
O O12 0.505393 0.845286 0.241772
O O13 0.580510 0.000000 0.122430
O O14 0.890601 0.714401 0.387196
#
# Coordination Sequence:
#
# PCOD9178600 Si02
#       6
#     8   8   8   8   8   8
#     4   9  18  32  50  74 104 135 163 197 250 309
#     4   9  20  38  55  70  95 137 179 210 247 294
#     4   9  18  34  54  74 101 137 172 205 244 296
#     4   8  15  29  47  67  95 130 162 191 231 289
#     4  10  19  30  50  79 104 128 162 207 256 300
#     4  10  20  34  52  74 101 130 166 212 254 296
#
# _framework density 19.796970000000002
#
# number of rings (size 3 to 8) (size 9 to 14) (size 15 to 20)
#    0.000    2.833    0.000    2.000    0.000    4.000 
#    0.000    1.667    0.000    6.000    0.000    9.333 
#    0.000    0.000    0.000    0.000    0.000    0.000 
#
# Total GULP energy -133917.777745 kJ/mol
# GULP energy per Si atom -5579.907406 kJ/mol
# Density = 1.975191 g / cm^3
# Si number density = 19.796970 Si / 1000 Ang^3
#
#
#
# Elastic Constant Matrix: (Units=GPa)
#
#
# Indices 1 2 3 4 5 6 
#
# 1 105.2863 30.3584 7.9226 0.0000 -23.8913 0.0000
# 2 30.3584 131.2157 -0.3594 0.0000 -13.5552 0.0000
# 3 7.9226 -0.3594 26.5234 0.0000 -2.7648 0.0000
# 4 0.0000 0.0000 0.0000 21.6678 0.0000 -1.3504
# 5 -23.8913 -13.5552 -2.7648 0.0000 19.0625 0.0000
# 6 0.0000 0.0000 0.0000 -1.3504 0.0000 3.4575
#
#
#
# Elastic Compliance Matrix: (Units=1/GPa)
#
#
# Indices 1 2 3 4 5 6 
#
# 1 0.013695 -0.001553 -0.002475 0.000000 0.015700 0.000000
# 2 -0.001553 0.008415 0.001014 0.000000 0.004184 0.000000
# 3 -0.002475 0.001014 0.038794 0.000000 0.003246 0.000000
# 4 0.000000 0.000000 0.000000 0.047303 0.000000 0.018475
# 5 0.015700 0.004184 0.003246 0.000000 0.075583 0.000000
# 6 0.000000 0.000000 0.000000 0.018475 0.000000 0.296440
#
#
# Mechanical properties :
#
#
# Convention : Reuss Voigt Hill
#
# Bulk Modulus (GPa) = 18.22303 37.65207 27.93755
# Shear Modulus (GPa) = 9.90983 23.84450 16.87716
#
# Velocity S-wave (km/s) = 2.23978 3.47429 2.92295
# Velocity P-wave (km/s) = 3.98920 5.92913 5.05314
#
# Compressibility (1/GPa) = 0.05487563
#
# Stress axis : x y z
#
# Youngs Moduli (GPa) = 73.02092 118.82872 25.77723
#
# Poissons Ratio (x) = 0.18458 0.06380
# Poissons Ratio (y) = 0.11342 -0.02614
# Poissons Ratio (z) = 0.18074 -0.12052
#
# Static dielectric constant tensor:
#      x y z
#    x 1.658730 0.000000 0.010790 
#    y 0.000000 1.683980 0.000000 
#    z 0.010790 0.000000 1.766260 
# 
# From -- ./inp_files/111483.got.cif
#   From: 2010.05.17/outbox.cif.g08.bks.cpg/sg12_56_cif.got.tgz:111483.got - 2010.06.03 13:09:07.
