data_PCOD9178743
_publ_section_title
;
Structure prediction by ZEFSAII (Michael W. Deem and Ramdas Pophale) SiO2 
 PCOD9178743
Probable space group: C 2/M
;
_chemical_formula_sum "Si O2"
_cell_formula_units_Z 48
_cell_length_a 28.861745
_cell_length_b 7.899344
_cell_length_c 12.206002
_cell_angle_alpha 90.000000
_cell_angle_beta 70.724231
_cell_angle_gamma 90.000000
_cell_volume 2626.828598
_symmetry_space_group_name_H-M "C 2/M"
_symmetry_group_IT_number 12
_symmetry_cell_setting 'monoclinic'
loop_
_space_group_symop_operation_xyz
x,y,z
-x,y,-z
-x,-y,-z
x,-y,z
1/2+x,1/2+y,z
1/2-x,1/2+y,-z
1/2-x,1/2-y,-z
1/2+x,1/2-y,z
loop_
_atom_site_type_symbol
_atom_site_label
_atom_site_fract_x
_atom_site_fract_y
_atom_site_fract_z
Si Si1 0.136948 0.298813 0.747530
Si Si2 0.695827 0.797835 0.499107
Si Si3 0.184742 0.795851 0.255571
Si Si4 0.945644 0.201804 0.021741
Si Si5 0.123290 0.196467 0.114135
Si Si6 0.791242 0.702194 0.108361
O O1 0.128640 0.500000 0.745499
O O2 0.154904 0.231196 0.616589
O O3 0.089729 0.226346 0.846210
O O4 0.182585 0.273792 0.794710
O O5 0.750000 0.750000 0.500000
O O6 0.686065 0.743316 0.382676
O O7 0.693576 0.000000 0.504680
O O8 0.138713 0.730759 0.220092
O O9 0.235894 0.734320 0.162180
O O10 0.185405 0.000000 0.244853
O O11 0.949956 0.000000 0.001415
O O12 0.917424 0.272894 0.936082
O O13 0.000000 0.271072 0.000000
O O14 0.109962 0.000000 0.141051
O O15 0.173812 0.206860 0.005290
O O16 0.791666 0.500000 0.084858
#
# Coordination Sequence:
#
# PCOD9178743 Si02
#       6
#     8   8   8   8   8   8
#     4   9  18  32  48  70  98 126 160 200 239 282
#     4  11  21  33  49  70 100 135 169 200 233 281
#     4  10  19  31  45  66  99 133 164 197 236 284
#     4   9  18  33  53  76  98 121 157 206 253 294
#     4   9  18  30  46  69  96 126 160 200 246 292
#     4   9  16  28  44  64  96 128 156 196 237 281
#
# _framework density 18.272987000000001
#
# number of rings (size 3 to 8) (size 9 to 14) (size 15 to 20)
#    0.000    2.500    1.667    1.000    0.000    3.000 
#    0.000    0.000    0.000    1.000    0.000    7.000 
#    0.000    0.000    0.000    0.000    0.000    0.000 
#
# Total GULP energy -133751.542771 kJ/mol
# GULP energy per Si atom -5572.980949 kJ/mol
# Density = 1.823140 g / cm^3
# Si number density = 18.272987 Si / 1000 Ang^3
#
#
#
# Elastic Constant Matrix: (Units=GPa)
#
#
# Indices 1 2 3 4 5 6 
#
# 1 144.3290 12.7559 70.8516 0.0000 10.3279 0.0000
# 2 12.7559 14.1185 0.2610 0.0000 4.0340 0.0000
# 3 70.8516 0.2610 79.9364 0.0000 24.0545 0.0000
# 4 0.0000 0.0000 0.0000 23.6313 0.0000 -0.9758
# 5 10.3279 4.0340 24.0545 0.0000 23.6912 0.0000
# 6 0.0000 0.0000 0.0000 -0.9758 0.0000 9.5310
#
#
#
# Elastic Compliance Matrix: (Units=1/GPa)
#
#
# Indices 1 2 3 4 5 6 
#
# 1 0.017633 -0.020312 -0.020577 0.000000 0.016665 0.000000
# 2 -0.020312 0.099348 0.028951 0.000000 -0.037456 0.000000
# 3 -0.020577 0.028951 0.042390 0.000000 -0.038999 0.000000
# 4 0.000000 0.000000 0.000000 0.042496 0.000000 0.004351
# 5 0.016665 -0.037456 -0.038999 0.000000 0.080920 0.000000
# 6 0.000000 0.000000 0.000000 0.004351 0.000000 0.105366
#
#
# Mechanical properties :
#
#
# Convention : Reuss Voigt Hill
#
# Bulk Modulus (GPa) = 7.38048 45.12457 26.25252
# Shear Modulus (GPa) = 10.93629 21.67174 16.30401
#
# Velocity S-wave (km/s) = 2.44907 3.44757 2.99029
# Velocity P-wave (km/s) = 3.47060 6.37149 5.13035
#
# Compressibility (1/GPa) = 0.13549258
#
# Stress axis : x y z
#
# Youngs Moduli (GPa) = 56.71272 10.06566 23.59072
#
# Poissons Ratio (x) = 0.20445 0.48543
# Poissons Ratio (y) = 1.15195 -0.68296
# Poissons Ratio (z) = 1.16699 -0.29141
#
# Static dielectric constant tensor:
#      x y z
#    x 1.656400 0.000000 0.040650 
#    y 0.000000 1.632400 0.000000 
#    z 0.040650 0.000000 1.661890 
# 
# From -- ./inp_files/172140.got.cif
#   From: 2010.05.17/outbox.cif.g08.bks.cpg/sg12_87_cif.got.tgz:172140.got - 2010.06.03 13:09:07.
