data_PCOD9178908
_publ_section_title
;
Structure prediction by ZEFSAII (Michael W. Deem and Ramdas Pophale) SiO2 
 PCOD9178908
Probable space group: C 2/M
;
_chemical_formula_sum "Si O2"
_cell_formula_units_Z 56
_cell_length_a 27.671848
_cell_length_b 8.727201
_cell_length_c 25.558727
_cell_angle_alpha 90.000000
_cell_angle_beta 35.917948
_cell_angle_gamma 90.000000
_cell_volume 3620.876599
_symmetry_space_group_name_H-M "C 2/M"
_symmetry_group_IT_number 12
_symmetry_cell_setting 'monoclinic'
loop_
_space_group_symop_operation_xyz
x,y,z
-x,y,-z
-x,-y,-z
x,-y,z
1/2+x,1/2+y,z
1/2-x,1/2+y,-z
1/2-x,1/2-y,-z
1/2+x,1/2-y,z
loop_
_atom_site_type_symbol
_atom_site_label
_atom_site_fract_x
_atom_site_fract_y
_atom_site_fract_z
Si Si1 0.900481 0.817247 0.537746
Si Si2 0.197971 0.816175 0.997037
Si Si3 0.451444 0.316380 0.804921
Si Si4 0.168092 0.816525 0.188526
Si Si5 0.579313 0.816731 0.366406
Si Si6 0.289692 0.182483 0.546315
Si Si7 0.868810 0.682337 0.365202
O O1 0.890071 0.746359 0.604561
O O2 0.829058 0.766761 0.561097
O O3 0.987244 0.750797 0.440501
O O4 0.906370 0.000000 0.536267
O O5 0.242579 0.744603 0.907841
O O6 0.205564 0.000000 0.989171
O O7 0.250000 0.750000 0.000000
O O8 0.104230 0.778568 0.095345
O O9 0.463786 0.500000 0.793339
O O10 0.396660 0.278072 0.801519
O O11 0.538496 0.233945 0.726724
O O12 0.135751 0.740872 0.269727
O O13 0.170049 0.000000 0.191466
O O14 0.575040 0.000000 0.371399
O O15 0.197315 0.234874 0.613901
O O16 0.342941 0.221367 0.447611
O O17 0.293219 0.000000 0.550922
O O18 0.860134 0.500000 0.366941
#
# Coordination Sequence:
#
# PCOD9178908 Si02
#       7
#     8   8   8   8   8   8   8
#     4  11  21  34  50  69  95 124 157 196 234 273
#     4   9  17  29  44  65  93 125 158 192 234 281
#     4   9  18  30  45  66  95 127 156 190 232 278
#     4  10  19  31  47  69  96 126 159 195 236 278
#     4  11  21  33  49  70  95 125 160 192 231 280
#     4  10  20  34  49  67  94 125 157 194 234 276
#     4  10  20  31  47  70  93 122 159 194 231 276
#
# _framework density 15.465869
#
# number of rings (size 3 to 8) (size 9 to 14) (size 15 to 20)
#    0.000    2.000    0.000    6.857    0.000    7.429 
#    0.000    0.000    0.000    0.000    0.000    1.000 
#    0.000    8.000    0.000    0.000    0.000    0.000 
#
# Total GULP energy -156228.621209 kJ/mol
# GULP energy per Si atom -5579.593615 kJ/mol
# Density = 1.543067 g / cm^3
# Si number density = 15.465869 Si / 1000 Ang^3
#
#
#
# Elastic Constant Matrix: (Units=GPa)
#
#
# Indices 1 2 3 4 5 6 
#
# 1 60.6001 35.8014 35.9440 0.0039 -3.4666 -0.0017
# 2 35.8014 90.6889 49.7522 0.0039 0.4593 -0.0013
# 3 35.9440 49.7522 120.5585 0.0054 1.3789 -0.0021
# 4 0.0039 0.0039 0.0054 29.2607 -0.0020 -1.2235
# 5 -3.4666 0.4593 1.3789 -0.0020 19.9930 0.0005
# 6 -0.0017 -0.0013 -0.0021 -1.2235 0.0005 25.0320
#
#
#
# Elastic Compliance Matrix: (Units=1/GPa)
#
#
# Indices 1 2 3 4 5 6 
#
# 1 0.023323 -0.006963 -0.004131 -0.000001 0.004489 0.000001
# 2 -0.006963 0.016333 -0.004650 -0.000001 -0.001262 0.000000
# 3 -0.004131 -0.004650 0.011461 -0.000001 -0.001400 0.000000
# 4 -0.000001 -0.000001 -0.000001 0.034246 0.000003 0.001674
# 5 0.004489 -0.001262 -0.001400 0.000003 0.050921 -0.000001
# 6 0.000001 0.000000 0.000000 0.001674 -0.000001 0.040031
#
#
# Mechanical properties :
#
#
# Convention : Reuss Voigt Hill
#
# Bulk Modulus (GPa) = 50.94740 57.20475 54.07607
# Shear Modulus (GPa) = 23.32676 24.88045 24.10361
#
# Velocity S-wave (km/s) = 3.88786 4.01525 3.95207
# Velocity P-wave (km/s) = 7.29159 7.65274 7.47435
#
# Compressibility (1/GPa) = 0.01962809
#
# Stress axis : x y z
#
# Youngs Moduli (GPa) = 42.87678 61.22597 87.25007
#
# Poissons Ratio (x) = 0.42634 0.36045
# Poissons Ratio (y) = 0.29857 0.40569
# Poissons Ratio (z) = 0.17713 0.28468
#
# Static dielectric constant tensor:
#      x y z
#    x 1.486140 0.000000 0.001500 
#    y 0.000000 1.513780 0.000000 
#    z 0.001500 0.000000 1.518880 
# 
# From -- ./inp_files/348464.got.cif
#   From: 2010.05.17/outbox.cif.g08.bks.cpg/sg12_175_cif.got.tgz:348464.got - 2010.06.03 13:09:07.
