data_PCOD9178816
_publ_section_title
;
Structure prediction by ZEFSAII (Michael W. Deem and Ramdas Pophale) SiO2 
 PCOD9178816
Probable space group: C 2/M
;
_chemical_formula_sum "Si O2"
_cell_formula_units_Z 52
_cell_length_a 24.602444
_cell_length_b 20.591120
_cell_length_c 9.157362
_cell_angle_alpha 90.000000
_cell_angle_beta 42.741209
_cell_angle_gamma 90.000000
_cell_volume 3148.464630
_symmetry_space_group_name_H-M "C 2/M"
_symmetry_group_IT_number 12
_symmetry_cell_setting 'monoclinic'
loop_
_space_group_symop_operation_xyz
x,y,z
-x,y,-z
-x,-y,-z
x,-y,z
1/2+x,1/2+y,z
1/2-x,1/2+y,-z
1/2-x,1/2-y,-z
1/2+x,1/2-y,z
loop_
_atom_site_type_symbol
_atom_site_label
_atom_site_fract_x
_atom_site_fract_y
_atom_site_fract_z
Si Si1 0.500000 0.730100 0.500000
Si Si2 0.758930 0.317245 0.571667
Si Si3 0.347371 0.706811 0.957091
Si Si4 0.282193 0.845510 0.012149
Si Si5 0.520154 0.924367 0.123859
Si Si6 0.789297 0.575405 0.267739
Si Si7 0.101549 0.336928 0.467218
O O1 0.558812 0.774671 0.481305
O O2 0.438859 0.695382 0.731063
O O3 0.750000 0.250000 0.500000
O O4 0.683680 0.322549 0.830208
O O5 0.766848 0.377220 0.444860
O O6 0.836848 0.317895 0.524902
O O7 0.291990 0.680326 0.935556
O O8 0.324795 0.783845 0.007315
O O9 0.346374 0.869271 0.765223
O O10 0.254054 0.896610 0.187142
O O11 0.468154 0.882909 0.337082
O O12 0.497025 0.000000 0.181402
O O13 0.500000 0.901957 0.000000
O O14 0.615202 0.919411 0.950379
O O15 0.770706 0.500000 0.332831
#
# Coordination Sequence:
#
# PCOD9178816 Si02
#       7
#     4   8   8   8   8   8   8
#     4  10  20  32  53  80 107 128 182 232 280 314
#     4  11  21  34  55  79 110 147 181 225 272 321
#     4   9  18  34  54  77 105 137 176 229 269 320
#     4   9  18  34  52  75 106 141 181 217 267 314
#     4  10  19  31  46  71 110 148 174 205 252 317
#     4  11  22  35  53  79 113 148 183 220 269 326
#     4  10  20  32  52  76 108 148 178 221 259 323
#
# _framework density 16.515988
#
# number of rings (size 3 to 8) (size 9 to 14) (size 15 to 20)
#    0.000    2.000    3.077    2.769    0.000    0.615 
#    0.000    4.231    0.000    0.000    0.000    3.231 
#    0.000    0.000    0.000    0.000    0.000    0.000 
#
# Total GULP energy -144929.039371 kJ/mol
# GULP energy per Si atom -5574.193822 kJ/mol
# Density = 1.647840 g / cm^3
# Si number density = 16.515988 Si / 1000 Ang^3
#
#
#
# Elastic Constant Matrix: (Units=GPa)
#
#
# Indices 1 2 3 4 5 6 
#
# 1 49.4364 28.9826 30.6021 0.0000 20.1657 0.0000
# 2 28.9826 83.1490 50.8642 0.0000 16.3305 0.0000
# 3 30.6021 50.8642 134.4982 0.0000 6.5173 0.0000
# 4 0.0000 0.0000 0.0000 23.7997 0.0000 0.5402
# 5 20.1657 16.3305 6.5173 0.0000 23.6042 0.0000
# 6 0.0000 0.0000 0.0000 0.5402 0.0000 16.2548
#
#
#
# Elastic Compliance Matrix: (Units=1/GPa)
#
#
# Indices 1 2 3 4 5 6 
#
# 1 0.037348 -0.004218 -0.005572 0.000000 -0.027450 0.000000
# 2 -0.004218 0.018443 -0.005647 0.000000 -0.007597 0.000000
# 3 -0.005572 -0.005647 0.010560 0.000000 0.005752 0.000000
# 4 0.000000 0.000000 0.000000 0.042049 0.000000 -0.001397
# 5 -0.027450 -0.007597 0.005752 0.000000 0.069485 0.000000
# 6 0.000000 0.000000 0.000000 -0.001397 0.000000 0.061567
#
#
# Mechanical properties :
#
#
# Convention : Reuss Voigt Hill
#
# Bulk Modulus (GPa) = 28.18808 54.22018 41.20413
# Shear Modulus (GPa) = 17.72100 23.17406 20.44753
#
# Velocity S-wave (km/s) = 3.27916 3.74990 3.52240
# Velocity P-wave (km/s) = 5.60726 7.18674 6.44556
#
# Compressibility (1/GPa) = 0.03547599
#
# Stress axis : x y z
#
# Youngs Moduli (GPa) = 26.77554 54.22009 94.69898
#
# Poissons Ratio (x) = 0.22870 0.52770
# Poissons Ratio (y) = 0.11294 0.53477
# Poissons Ratio (z) = 0.14920 0.30618
#
# Static dielectric constant tensor:
#      x y z
#    x 1.582710 0.000000 0.003940 
#    y 0.000000 1.553620 0.000000 
#    z 0.003940 0.000000 1.594220 
# 
# From -- ./inp_files/99004.got.cif
#   From: 2010.05.17/outbox.cif.g08.bks.cpg/sg12_50_cif.got.tgz:99004.got - 2010.06.03 13:09:07.
