data_PCOD9178177
_publ_section_title
;
Structure prediction by ZEFSAII (Michael W. Deem and Ramdas Pophale) SiO2 
 PCOD9178177
Probable space group: C 2/M
;
_chemical_formula_sum "Si O2"
_cell_formula_units_Z 64
_cell_length_a 5.118697
_cell_length_b 27.005802
_cell_length_c 23.652778
_cell_angle_alpha 90.000000
_cell_angle_beta 78.028687
_cell_angle_gamma 90.000000
_cell_volume 3198.521051
_symmetry_space_group_name_H-M "C 2/M"
_symmetry_group_IT_number 12
_symmetry_cell_setting 'monoclinic'
loop_
_space_group_symop_operation_xyz
x,y,z
-x,y,-z
-x,-y,-z
x,-y,z
1/2+x,1/2+y,z
1/2-x,1/2+y,-z
1/2-x,1/2-y,-z
1/2+x,1/2-y,z
loop_
_atom_site_type_symbol
_atom_site_label
_atom_site_fract_x
_atom_site_fract_y
_atom_site_fract_z
Si Si1 0.877006 0.638614 0.561748
Si Si2 0.068419 0.727466 0.617653
Si Si3 0.459183 0.559733 0.133107
Si Si4 0.607426 0.443669 0.308285
Si Si5 0.439200 0.223534 0.753879
Si Si6 0.172002 0.393022 0.253782
Si Si7 0.124041 0.923389 0.437149
Si Si8 0.474324 0.060079 0.936789
O O1 0.938070 0.675105 0.609721
O O2 0.575436 0.623311 0.563797
O O3 0.000000 0.663163 0.500000
O O4 0.071544 0.591567 0.563296
O O5 0.880558 0.765850 0.592582
O O6 0.036712 0.735493 0.685680
O O7 0.448194 0.500000 0.139389
O O8 0.317629 0.583811 0.192900
O O9 0.766197 0.574669 0.111076
O O10 0.293626 0.573514 0.084237
O O11 0.582873 0.500000 0.286655
O O12 0.364506 0.409492 0.297097
O O13 0.611045 0.447303 0.376217
O O14 0.883612 0.418213 0.276644
O O15 0.690916 0.240973 0.779092
O O16 0.364365 0.165640 0.755125
O O17 0.000000 0.946413 0.500000
O O18 0.477795 0.000000 0.939194
O O19 0.500000 0.077918 0.000000
#
# Coordination Sequence:
#
# PCOD9178177 Si02
#       8
#     8   8   8   8   8   8   8   8
#     4  10  20  34  51  71  95 124 162 210 269 332
#     4  10  19  30  47  69  94 123 158 207 270 333
#     4  10  19  32  51  79 117 154 187 223 268 323
#     4  12  24  38  58  83 112 148 187 227 281 348
#     4  10  21  37  56  78 103 138 185 233 280 333
#     4  12  24  39  59  84 118 151 186 233 287 339
#     4  10  21  37  55  72  95 132 178 225 268 318
#     4   9  17  30  50  77 113 157 196 226 257 303
#
# _framework density 20.009247999999999
#
# number of rings (size 3 to 8) (size 9 to 14) (size 15 to 20)
#    0.000    1.625    0.000    6.000    0.000    5.250 
#    0.000    0.000    0.000    3.750    0.000    0.000 
#    0.000   10.000    0.000    0.000    0.000    0.000 
#
# Total GULP energy -178538.544182 kJ/mol
# GULP energy per Si atom -5579.329506 kJ/mol
# Density = 1.996371 g / cm^3
# Si number density = 20.009248 Si / 1000 Ang^3
#
#
#
# Elastic Constant Matrix: (Units=GPa)
#
#
# Indices 1 2 3 4 5 6 
#
# 1 42.4403 8.3877 -9.8080 0.0000 -8.3080 0.0000
# 2 8.3877 71.0645 3.2095 0.0000 -10.1806 0.0000
# 3 -9.8080 3.2095 44.7244 0.0000 1.4266 0.0000
# 4 0.0000 0.0000 0.0000 21.9943 0.0000 4.4310
# 5 -8.3080 -10.1806 1.4266 0.0000 25.0975 0.0000
# 6 0.0000 0.0000 0.0000 4.4310 0.0000 14.2436
#
#
#
# Elastic Compliance Matrix: (Units=1/GPa)
#
#
# Indices 1 2 3 4 5 6 
#
# 1 0.026859 -0.002343 0.005816 0.000000 0.007610 0.000000
# 2 -0.002343 0.015216 -0.001781 0.000000 0.005498 0.000000
# 3 0.005816 -0.001781 0.023767 0.000000 -0.000148 0.000000
# 4 0.000000 0.000000 0.000000 0.048506 0.000000 -0.015090
# 5 0.007610 0.005498 -0.000148 0.000000 0.044603 0.000000
# 6 0.000000 0.000000 0.000000 -0.015090 0.000000 0.074901
#
#
# Mechanical properties :
#
#
# Convention : Reuss Voigt Hill
#
# Bulk Modulus (GPa) = 14.44536 17.97862 16.21199
# Shear Modulus (GPa) = 19.72042 22.69640 21.20841
#
# Velocity S-wave (km/s) = 3.14278 3.37158 3.25919
# Velocity P-wave (km/s) = 4.51712 4.91543 4.72048
#
# Compressibility (1/GPa) = 0.06922638
#
# Stress axis : x y z
#
# Youngs Moduli (GPa) = 37.23117 65.71895 42.07510
#
# Poissons Ratio (x) = 0.15395 -0.24469
# Poissons Ratio (y) = 0.08722 0.07494
# Poissons Ratio (z) = -0.21652 0.11705
#
# Static dielectric constant tensor:
#      x y z
#    x 1.746930 0.000000 0.017600 
#    y 0.000000 1.726320 0.000000 
#    z 0.017600 0.000000 1.720890 
# 
# From -- ./inp_files/331445.got.cif
#   From: 2010.05.17/outbox.cif.g08.bks.cpg/sg12_166_cif.got.tgz:331445.got - 2010.06.03 13:09:07.
