data_PCOD9178190
_publ_section_title
;
Structure prediction by ZEFSAII (Michael W. Deem and Ramdas Pophale) SiO2 
 PCOD9178190
Probable space group: C 2/M
;
_chemical_formula_sum "Si O2"
_cell_formula_units_Z 56
_cell_length_a 28.159313
_cell_length_b 8.892074
_cell_length_c 14.290892
_cell_angle_alpha 90.000000
_cell_angle_beta 83.279303
_cell_angle_gamma 90.000000
_cell_volume 3553.774602
_symmetry_space_group_name_H-M "C 2/M"
_symmetry_group_IT_number 12
_symmetry_cell_setting 'monoclinic'
loop_
_space_group_symop_operation_xyz
x,y,z
-x,y,-z
-x,-y,-z
x,-y,z
1/2+x,1/2+y,z
1/2-x,1/2+y,-z
1/2-x,1/2-y,-z
1/2+x,1/2-y,z
loop_
_atom_site_type_symbol
_atom_site_label
_atom_site_fract_x
_atom_site_fract_y
_atom_site_fract_z
Si Si1 0.840418 0.180491 0.827906
Si Si2 0.888155 0.178686 0.476598
Si Si3 0.290565 0.819290 0.424512
Si Si4 0.981795 0.327621 0.396322
Si Si5 0.798876 0.179610 0.028749
Si Si6 0.766743 0.680089 0.216119
Si Si7 0.414648 0.819473 0.670922
O O1 0.788381 0.220691 0.795752
O O2 0.881603 0.264665 0.762677
O O3 0.846005 0.000000 0.816070
O O4 0.837486 0.215908 0.939415
O O5 0.841376 0.253893 0.443898
O O6 0.935174 0.225069 0.406712
O O7 0.896176 0.243130 0.579458
O O8 0.882946 0.000000 0.482135
O O9 0.250000 0.750000 0.500000
O O10 0.279082 0.780417 0.319410
O O11 0.290455 0.000000 0.433029
O O12 0.969016 0.500000 0.375242
O O13 0.000000 0.328738 0.500000
O O14 0.029210 0.279616 0.329646
O O15 0.705553 0.500000 0.967107
O O16 0.801693 0.244143 0.132280
O O17 0.750000 0.250000 0.000000
O O18 0.770082 0.500000 0.204298
O O19 0.412495 0.000000 0.660028
#
# Coordination Sequence:
#
# PCOD9178190 Si02
#       7
#     8   8   8   8   8   8   8
#     4   9  17  29  45  69  97 120 148 188 231 275
#     4  11  21  32  47  67  93 126 160 191 227 274
#     4  11  22  35  50  69  95 126 159 194 228 266
#     4   8  16  31  47  65  90 118 152 192 232 275
#     4   9  17  29  46  66  90 120 152 188 228 271
#     4   9  19  33  47  65  91 123 157 191 226 267
#     4  10  19  30  47  70  94 122 154 191 235 277
#
# _framework density 15.757894
#
# number of rings (size 3 to 8) (size 9 to 14) (size 15 to 20)
#    0.000    2.429    0.000    5.143    0.000    8.286 
#    0.000    0.000    0.000    0.000    0.000    1.000 
#    0.000    8.000    0.000    0.000    0.000    0.000 
#
# Total GULP energy -156066.484143 kJ/mol
# GULP energy per Si atom -5573.803005 kJ/mol
# Density = 1.572203 g / cm^3
# Si number density = 15.757894 Si / 1000 Ang^3
#
#
#
# Elastic Constant Matrix: (Units=GPa)
#
#
# Indices 1 2 3 4 5 6 
#
# 1 93.0402 43.9575 62.9498 0.0000 -18.6718 0.0000
# 2 43.9575 61.0177 57.4877 0.0000 -8.4404 0.0000
# 3 62.9498 57.4877 131.1192 0.0000 -21.4078 0.0000
# 4 0.0000 0.0000 0.0000 28.1360 0.0000 -6.2387
# 5 -18.6718 -8.4404 -21.4078 0.0000 24.5258 0.0000
# 6 0.0000 0.0000 0.0000 -6.2387 0.0000 22.2895
#
#
#
# Elastic Compliance Matrix: (Units=1/GPa)
#
#
# Indices 1 2 3 4 5 6 
#
# 1 0.019365 -0.009060 -0.003996 0.000000 0.008137 0.000000
# 2 -0.009060 0.032195 -0.010592 0.000000 -0.005064 0.000000
# 3 -0.003996 -0.010592 0.015274 0.000000 0.006645 0.000000
# 4 0.000000 0.000000 0.000000 0.037893 0.000000 0.010606
# 5 0.008137 -0.005064 0.006645 0.000000 0.051025 0.000000
# 6 0.000000 0.000000 0.000000 0.010606 0.000000 0.047833
#
#
# Mechanical properties :
#
#
# Convention : Reuss Voigt Hill
#
# Bulk Modulus (GPa) = 51.18634 68.21854 59.70244
# Shear Modulus (GPa) = 19.42527 23.04240 21.23383
#
# Velocity S-wave (km/s) = 3.51484 3.82812 3.67482
# Velocity P-wave (km/s) = 7.00183 7.93253 7.48166
#
# Compressibility (1/GPa) = 0.01953646
#
# Stress axis : x y z
#
# Youngs Moduli (GPa) = 51.63823 31.06078 65.46931
#
# Poissons Ratio (x) = 0.28142 0.26164
# Poissons Ratio (y) = 0.46785 0.69348
# Poissons Ratio (z) = 0.20637 0.32901
#
# Static dielectric constant tensor:
#      x y z
#    x 1.519480 0.000000 -0.015320 
#    y 0.000000 1.526500 0.000000 
#    z -0.015320 0.000000 1.545360 
# 
# From -- ./inp_files/247835.got.cif
#   From: 2010.05.17/outbox.cif.g08.bks.cpg/sg12_124_cif.got.tgz:247835.got - 2010.06.03 13:09:07.
