data_PCOD9178425
_publ_section_title
;
Structure prediction by ZEFSAII (Michael W. Deem and Ramdas Pophale) SiO2 
 PCOD9178425
Probable space group: C 2/M
;
_chemical_formula_sum "Si O2"
_cell_formula_units_Z 56
_cell_length_a 16.247707
_cell_length_b 7.405787
_cell_length_c 22.304351
_cell_angle_alpha 90.000000
_cell_angle_beta 130.641838
_cell_angle_gamma 90.000000
_cell_volume 2036.469282
_symmetry_space_group_name_H-M "C 2/M"
_symmetry_group_IT_number 12
_symmetry_cell_setting 'monoclinic'
loop_
_space_group_symop_operation_xyz
x,y,z
-x,y,-z
-x,-y,-z
x,-y,z
1/2+x,1/2+y,z
1/2-x,1/2+y,-z
1/2-x,1/2-y,-z
1/2+x,1/2-y,z
loop_
_atom_site_type_symbol
_atom_site_label
_atom_site_fract_x
_atom_site_fract_y
_atom_site_fract_z
Si Si1 0.417694 0.718501 0.591122
Si Si2 0.380395 0.208889 0.444349
Si Si3 0.640944 0.779431 0.119542
Si Si4 0.082967 0.709211 0.833435
Si Si5 0.892910 0.719488 0.027146
Si Si6 0.347814 0.281754 0.691006
Si Si7 0.647671 0.705454 0.730785
O O1 0.417518 0.500000 0.590092
O O2 0.354643 0.785797 0.503373
O O3 0.375848 0.775633 0.636041
O O4 0.543504 0.784142 0.648059
O O5 0.500000 0.295960 0.500000
O O6 0.276278 0.281112 0.359244
O O7 0.390661 0.000000 0.432420
O O8 0.518862 0.728084 0.076658
O O9 0.733355 0.710131 0.208067
O O10 0.644555 0.000000 0.122445
O O11 0.663970 0.723567 0.061485
O O12 0.111030 0.500000 0.840277
O O13 0.951244 0.717709 0.777699
O O14 0.135344 0.784203 0.919522
O O15 0.111625 0.800334 0.784297
O O16 0.889411 0.500000 0.027391
O O17 0.348096 0.500000 0.693297
O O18 0.657346 0.500000 0.715736
#
# Coordination Sequence:
#
# PCOD9178425 Si02
#       7
#     8   8   8   8   8   8   8
#     4   9  18  32  50  71  94 124 163 199 229 272
#     4  10  21  35  51  73  99 125 154 191 238 288
#     4   8  14  28  48  67  94 131 164 195 234 279
#     4  10  19  30  48  75 100 121 155 202 242 276
#     4   8  15  27  45  71  97 124 163 203 234 272
#     4   9  19  36  53  69  94 128 162 191 229 287
#     4   9  18  32  50  72  97 127 160 193 236 287
#
# _framework density 27.498573
#
# number of rings (size 3 to 8) (size 9 to 14) (size 15 to 20)
#    0.000    3.000    0.000    2.571    0.000    4.857 
#    0.000    1.429    0.000    2.571    0.000    5.000 
#    0.000    0.000    0.000    0.000    0.000    0.000 
#
# Total GULP energy -156662.398860 kJ/mol
# GULP energy per Si atom -5595.085674 kJ/mol
# Density = 2.743599 g / cm^3
# Si number density = 27.498573 Si / 1000 Ang^3
#
#
#
# Elastic Constant Matrix: (Units=GPa)
#
#
# Indices 1 2 3 4 5 6 
#
# 1 71.8297 17.4320 14.9757 0.0000 4.9776 0.0000
# 2 17.4320 121.6303 8.3824 0.0000 -4.8464 0.0000
# 3 14.9757 8.3824 178.4457 0.0000 1.3538 0.0000
# 4 0.0000 0.0000 0.0000 10.4187 0.0000 -1.9267
# 5 4.9776 -4.8464 1.3538 0.0000 68.2681 0.0000
# 6 0.0000 0.0000 0.0000 -1.9267 0.0000 13.8909
#
#
#
# Elastic Compliance Matrix: (Units=1/GPa)
#
#
# Indices 1 2 3 4 5 6 
#
# 1 0.014746 -0.002083 -0.001131 0.000000 -0.001201 0.000000
# 2 -0.002083 0.008567 -0.000233 0.000000 0.000765 0.000000
# 3 -0.001131 -0.000233 0.005710 0.000000 -0.000047 0.000000
# 4 0.000000 0.000000 0.000000 0.098508 0.000000 0.013664
# 5 -0.001201 0.000765 -0.000047 0.000000 0.014791 0.000000
# 6 0.000000 0.000000 0.000000 0.013664 0.000000 0.073885
#
#
# Mechanical properties :
#
#
# Convention : Reuss Voigt Hill
#
# Bulk Modulus (GPa) = 45.19036 50.38732 47.78884
# Shear Modulus (GPa) = 21.69411 40.58993 31.14202
#
# Velocity S-wave (km/s) = 2.81181 3.84614 3.36891
# Velocity P-wave (km/s) = 5.19722 6.17148 5.70518
#
# Compressibility (1/GPa) = 0.02212861
#
# Stress axis : x y z
#
# Youngs Moduli (GPa) = 67.81348 116.73009 175.12676
#
# Poissons Ratio (x) = 0.24319 0.19800
# Poissons Ratio (y) = 0.14128 0.04087
# Poissons Ratio (z) = 0.07667 0.02724
#
# Static dielectric constant tensor:
#      x y z
#    x 2.275520 0.000000 0.018980 
#    y 0.000000 1.987340 0.000000 
#    z 0.018980 0.000000 2.105530 
# 
# From -- ./inp_files/280300.got.cif
#   From: 2010.05.17/outbox.cif.g08.bks.cpg/sg12_141_cif.got.tgz:280300.got - 2010.06.03 13:09:07.
