data_PCOD9178446
_publ_section_title
;
Structure prediction by ZEFSAII (Michael W. Deem and Ramdas Pophale) SiO2 
 PCOD9178446
Probable space group: C 2/M
;
_chemical_formula_sum "Si O2"
_cell_formula_units_Z 48
_cell_length_a 5.805203
_cell_length_b 29.977233
_cell_length_c 14.998048
_cell_angle_alpha 90.000000
_cell_angle_beta 57.882651
_cell_angle_gamma 90.000000
_cell_volume 2210.584368
_symmetry_space_group_name_H-M "C 2/M"
_symmetry_group_IT_number 12
_symmetry_cell_setting 'monoclinic'
loop_
_space_group_symop_operation_xyz
x,y,z
-x,y,-z
-x,-y,-z
x,-y,z
1/2+x,1/2+y,z
1/2-x,1/2+y,-z
1/2-x,1/2-y,-z
1/2+x,1/2-y,z
loop_
_atom_site_type_symbol
_atom_site_label
_atom_site_fract_x
_atom_site_fract_y
_atom_site_fract_z
Si Si1 0.779372 0.137013 0.836247
Si Si2 0.458325 0.550206 0.902124
Si Si3 0.935096 0.952845 0.408912
Si Si4 0.339827 0.867230 0.611570
Si Si5 0.478754 0.086949 0.257631
Si Si6 0.307776 0.237119 0.117669
O O1 0.540445 0.121697 0.818979
O O2 0.720380 0.184291 0.890670
O O3 0.811241 0.094517 0.895217
O O4 0.059258 0.146056 0.720745
O O5 0.351203 0.500000 0.903512
O O6 0.754248 0.557227 0.797322
O O7 0.500000 0.552593 0.000000
O O8 0.221289 0.944927 0.301784
O O9 0.000000 0.953335 0.500000
O O10 0.759816 0.911300 0.418573
O O11 0.812217 0.000000 0.407537
O O12 0.500000 0.840636 0.500000
O O13 0.536136 0.883289 0.650407
O O14 0.498832 0.244501 0.166497
O O15 0.500000 0.257105 0.000000
#
# Coordination Sequence:
#
# PCOD9178446 Si02
#       6
#     8   8   8   8   8   8
#     4  10  24  38  64  92 124 166 212 266 325 389
#     4  10  23  39  57  85 125 174 220 261 311 378
#     4  10  19  30  48  75 109 155 209 266 319 364
#     4  10  20  36  54  81 117 158 208 256 315 380
#     4  10  21  35  55  80 116 165 209 266 310 379
#     4  10  24  44  73 105 133 163 208 272 340 399
#
# _framework density 21.713715000000001
#
# number of rings (size 3 to 8) (size 9 to 14) (size 15 to 20)
#    0.000    2.000    1.667    0.500    7.000    8.333 
#    0.000    1.667    0.000    1.000    0.000    0.000 
#    0.000    0.000    0.000    0.000    0.000    0.000 
#
# Total GULP energy -133709.063983 kJ/mol
# GULP energy per Si atom -5571.210999 kJ/mol
# Density = 2.166429 g / cm^3
# Si number density = 21.713715 Si / 1000 Ang^3
#
#
#
# Elastic Constant Matrix: (Units=GPa)
#
#
# Indices 1 2 3 4 5 6 
#
# 1 91.4152 30.1450 4.7304 0.0000 3.6352 0.0000
# 2 30.1450 97.4254 8.3211 0.0000 6.6501 0.0000
# 3 4.7304 8.3211 76.7952 0.0000 -0.7353 0.0000
# 4 0.0000 0.0000 0.0000 -5.8716 0.0000 -33.1145
# 5 3.6352 6.6501 -0.7353 0.0000 37.7656 0.0000
# 6 0.0000 0.0000 0.0000 -33.1145 0.0000 -16.9918
#
#
#
# Elastic Compliance Matrix: (Units=1/GPa)
#
#
# Indices 1 2 3 4 5 6 
#
# 1 0.012202 -0.003709 -0.000355 0.000000 -0.000528 0.000000
# 2 -0.003709 0.011618 -0.001047 0.000000 -0.001709 0.000000
# 3 -0.000355 -0.001047 0.013161 0.000000 0.000475 0.000000
# 4 0.000000 0.000000 0.000000 0.017046 0.000000 -0.033221
# 5 -0.000528 -0.001709 0.000475 0.000000 0.026840 0.000000
# 6 0.000000 0.000000 0.000000 -0.033221 0.000000 0.005890
#
#
# Mechanical properties :
#
#
# Convention : Reuss Voigt Hill
#
# Bulk Modulus (GPa) = 37.36930 39.11432 38.24181
# Shear Modulus (GPa) = 47.21488 17.80973 32.51230
#
# Velocity S-wave (km/s) = 4.66813 2.86703 3.87372
# Velocity P-wave (km/s) = 6.80461 5.38633 6.13658
#
# Compressibility (1/GPa) = 0.02675993
#
# Stress axis : x y z
#
# Youngs Moduli (GPa) = 81.95690 86.07376 75.97938
#
# Poissons Ratio (x) = 0.31925 0.02695
# Poissons Ratio (y) = 0.30398 0.07953
# Poissons Ratio (z) = 0.02908 0.09010
#
# Static dielectric constant tensor:
#      x y z
#    x 1.939790 0.000000 0.042850 
#    y 0.000000 1.755320 0.000000 
#    z 0.042850 0.000000 1.919280 
# 
# From -- ./inp_files/192530.got.cif
#   From: 2010.05.17/outbox.cif.g08.bks.cpg/sg12_97_cif.got.tgz:192530.got - 2010.06.03 13:09:07.
