data_PCOD9178727
_publ_section_title
;
Structure prediction by ZEFSAII (Michael W. Deem and Ramdas Pophale) SiO2 
 PCOD9178727
Probable space group: C 2/M
;
_chemical_formula_sum "Si O2"
_cell_formula_units_Z 56
_cell_length_a 20.076078
_cell_length_b 7.453976
_cell_length_c 33.370965
_cell_angle_alpha 90.000000
_cell_angle_beta 33.136235
_cell_angle_gamma 90.000000
_cell_volume 2729.797283
_symmetry_space_group_name_H-M "C 2/M"
_symmetry_group_IT_number 12
_symmetry_cell_setting 'monoclinic'
loop_
_space_group_symop_operation_xyz
x,y,z
-x,y,-z
-x,-y,-z
x,-y,z
1/2+x,1/2+y,z
1/2-x,1/2+y,-z
1/2-x,1/2-y,-z
1/2+x,1/2-y,z
loop_
_atom_site_type_symbol
_atom_site_label
_atom_site_fract_x
_atom_site_fract_y
_atom_site_fract_z
Si Si1 0.941961 0.291309 0.675625
Si Si2 0.693777 0.782919 0.395257
Si Si3 0.338892 0.218618 0.199168
Si Si4 0.901321 0.287401 0.080639
Si Si5 0.555345 0.793747 0.771421
Si Si6 0.968407 0.718826 0.451613
Si Si7 0.878886 0.717110 0.794086
O O1 0.975701 0.500000 0.662458
O O2 0.801386 0.280276 0.731692
O O3 0.938716 0.215114 0.722225
O O4 0.021520 0.215340 0.599003
O O5 0.822991 0.709855 0.316816
O O6 0.644886 0.726997 0.463569
O O7 0.589820 0.730215 0.415419
O O8 0.700609 0.000000 0.391181
O O9 0.401285 0.279916 0.126420
O O10 0.406520 0.283968 0.204914
O O11 0.334703 0.000000 0.201899
O O12 0.924045 0.500000 0.072265
O O13 0.763548 0.261604 0.134831
O O14 0.000000 0.212286 0.000000
O O15 0.448869 0.714216 0.797842
O O16 0.520996 0.000000 0.796805
O O17 0.968541 0.500000 0.450625
O O18 0.888493 0.500000 0.788523
#
# Coordination Sequence:
#
# PCOD9178727 Si02
#       7
#     8   8   8   8   8   8   8
#     4   9  15  28  48  66  85 116 159 196 221 257
#     4   9  16  27  44  65  89 119 156 195 229 261
#     4   9  17  29  47  68  91 119 148 182 224 268
#     4   9  18  34  54  73  91 114 148 187 223 262
#     4  10  19  31  44  66  98 125 148 180 228 276
#     4   8  14  25  43  66  88 113 154 201 232 255
#     4   9  19  32  48  69  95 124 149 179 223 273
#
# _framework density 20.514344000000001
#
# number of rings (size 3 to 8) (size 9 to 14) (size 15 to 20)
#    0.000    3.000    1.429    0.857    0.000    0.857 
#    0.000    3.571    0.000    0.000    0.000    0.000 
#    0.000    0.000    0.000    0.000    0.000    0.000 
#
# Total GULP energy -156121.294888 kJ/mol
# GULP energy per Si atom -5575.760532 kJ/mol
# Density = 2.046765 g / cm^3
# Si number density = 20.514344 Si / 1000 Ang^3
#
#
#
# Elastic Constant Matrix: (Units=GPa)
#
#
# Indices 1 2 3 4 5 6 
#
# 1 109.1608 -13.9793 45.8006 -0.0412 18.7438 0.0667
# 2 -13.9793 59.1780 -7.5803 0.1094 3.5043 -0.0126
# 3 45.8006 -7.5803 112.6417 -0.0276 24.0525 -0.0031
# 4 -0.0412 0.1094 -0.0276 14.7528 0.0056 -3.6738
# 5 18.7438 3.5043 24.0525 0.0056 18.7806 0.0145
# 6 0.0667 -0.0126 -0.0031 -3.6738 0.0145 7.4938
#
#
#
# Elastic Compliance Matrix: (Units=1/GPa)
#
#
# Indices 1 2 3 4 5 6 
#
# 1 0.012336 0.003101 -0.002828 -0.000014 -0.009268 -0.000095
# 2 0.003101 0.018402 0.001888 -0.000132 -0.008946 -0.000043
# 3 -0.002828 0.001888 0.013251 0.000027 -0.014500 0.000075
# 4 -0.000014 -0.000132 0.000027 0.077211 -0.000049 0.037852
# 5 -0.009268 -0.008946 -0.014500 -0.000049 0.082736 -0.000123
# 6 -0.000095 -0.000043 0.000075 0.037852 -0.000123 0.152001
#
#
# Mechanical properties :
#
#
# Convention : Reuss Voigt Hill
#
# Bulk Modulus (GPa) = 20.69962 36.60695 28.65328
# Shear Modulus (GPa) = 13.59730 25.32141 19.45936
#
# Velocity S-wave (km/s) = 2.57732 3.51711 3.08323
# Velocity P-wave (km/s) = 4.35534 5.86317 5.16458
#
# Compressibility (1/GPa) = 0.04831007
#
# Stress axis : x y z
#
# Youngs Moduli (GPa) = 81.06386 54.34072 75.46598
#
# Poissons Ratio (x) = -0.16849 0.21343
# Poissons Ratio (y) = -0.25135 -0.14247
# Poissons Ratio (z) = 0.22926 -0.10259
#
# Static dielectric constant tensor:
#      x y z
#    x 1.735130 0.000020 0.046120 
#    y 0.000020 1.767220 -0.000050 
#    z 0.046120 -0.000050 1.721340 
# 
# From -- ./inp_files/377682.got.cif
#   From: 2010.05.17/outbox.cif.g08.bks.cpg/sg12_189_cif.got.tgz:377682.got - 2010.06.03 13:09:07.
