data_PCOD9178092
_publ_section_title
;
Structure prediction by ZEFSAII (Michael W. Deem and Ramdas Pophale) SiO2 
 PCOD9178092
Probable space group: C 2/M
;
_chemical_formula_sum "Si O2"
_cell_formula_units_Z 40
_cell_length_a 28.778338
_cell_length_b 9.034674
_cell_length_c 20.628548
_cell_angle_alpha 90.000000
_cell_angle_beta 154.372751
_cell_angle_gamma 90.000000
_cell_volume 2319.784409
_symmetry_space_group_name_H-M "C 2/M"
_symmetry_group_IT_number 12
_symmetry_cell_setting 'monoclinic'
loop_
_space_group_symop_operation_xyz
x,y,z
-x,y,-z
-x,-y,-z
x,-y,z
1/2+x,1/2+y,z
1/2-x,1/2+y,-z
1/2-x,1/2-y,-z
1/2+x,1/2-y,z
loop_
_atom_site_type_symbol
_atom_site_label
_atom_site_fract_x
_atom_site_fract_y
_atom_site_fract_z
Si Si1 0.427981 0.677957 0.969723
Si Si2 0.677303 0.676150 0.794323
Si Si3 0.431014 0.823301 0.108900
Si Si4 0.822027 0.322356 0.341000
Si Si5 0.493027 0.178380 0.326949
O O1 0.434952 0.500000 0.982204
O O2 0.302239 0.716450 0.801855
O O3 0.500000 0.728364 0.000000
O O4 0.462774 0.744849 0.082279
O O5 0.662582 0.500000 0.776200
O O6 0.644661 0.742984 0.683602
O O7 0.607197 0.750059 0.761995
O O8 0.804324 0.708054 0.961591
O O9 0.493457 0.776921 0.252249
O O10 0.441723 0.000000 0.114140
O O11 0.828193 0.500000 0.338941
O O12 0.900748 0.282958 0.498758
O O13 0.480809 0.000000 0.313225
#
# Coordination Sequence:
#
# PCOD9178092 Si02
#       5
#     8   8   8   8   8
#     4   9  18  34  54  71  88 116 155 195 233 275
#     4  10  19  30  46  69  97 127 157 188 223 266
#     4   9  19  33  48  69  95 123 155 189 227 273
#     4   9  18  32  49  68  92 124 158 189 225 273
#     4  10  19  31  47  68  96 127 156 186 224 272
#
# _framework density 17.242982000000001
#
# number of rings (size 3 to 8) (size 9 to 14) (size 15 to 20)
#    0.000    2.600    0.000    1.800    0.000    5.200 
#    0.000    1.000    0.000    0.000    0.000    0.000 
#    0.000    0.000    0.000    0.000    0.000    0.000 
#
# Total GULP energy -111561.164215 kJ/mol
# GULP energy per Si atom -5578.058211 kJ/mol
# Density = 1.720374 g / cm^3
# Si number density = 17.242982 Si / 1000 Ang^3
#
#
#
# Elastic Constant Matrix: (Units=GPa)
#
#
# Indices 1 2 3 4 5 6 
#
# 1 128.7438 26.1516 38.9653 0.0000 -25.5588 0.0000
# 2 26.1516 5.9773 20.4717 0.0000 -8.3992 0.0000
# 3 38.9653 20.4717 67.8342 0.0000 -38.1447 0.0000
# 4 0.0000 0.0000 0.0000 17.7546 0.0000 -4.4061
# 5 -25.5588 -8.3992 -38.1447 0.0000 27.4687 0.0000
# 6 0.0000 0.0000 0.0000 -4.4061 0.0000 26.3184
#
#
#
# Elastic Compliance Matrix: (Units=1/GPa)
#
#
# Indices 1 2 3 4 5 6 
#
# 1 0.003991 0.035893 -0.022202 0.000000 -0.016141 0.000000
# 2 0.035893 -0.229646 0.127694 0.000000 0.140501 0.000000
# 3 -0.022202 0.127694 -0.003205 0.000000 0.013938 0.000000
# 4 0.000000 0.000000 0.000000 0.058765 0.000000 0.009838
# 5 -0.016141 0.140501 0.013938 0.000000 0.083702 0.000000
# 6 0.000000 0.000000 0.000000 0.009838 0.000000 0.039643
#
#
# Mechanical properties :
#
#
# Convention : Reuss Voigt Hill
#
# Bulk Modulus (GPa) = 18.54880 41.52584 30.03732
# Shear Modulus (GPa) = -16.04881 22.10613 3.02866
#
# Velocity S-wave (km/s) = -3.05412 3.58444 1.32675
# Velocity P-wave (km/s) = 1.28694 6.42386 4.45027
#
# Compressibility (1/GPa) = 0.05391184
#
# Stress axis : x y z
#
# Youngs Moduli (GPa) = 250.53267 -4.35452 -312.05816
#
# Poissons Ratio (x) = 0.15630 -6.92816
# Poissons Ratio (y) = -8.99238 39.84798
# Poissons Ratio (z) = 5.56220 0.55605
#
# Static dielectric constant tensor:
#      x y z
#    x 1.557400 0.000000 -0.003240 
#    y 0.000000 1.576610 0.000000 
#    z -0.003240 0.000000 1.600530 
# 
# From -- ./inp_files/151972.got.cif
#   From: 2010.05.17/outbox.cif.g08.bks.cpg/sg12_76_cif.got.tgz:151972.got - 2010.06.03 13:09:07.
