data_PCOD9178421
_publ_section_title
;
Structure prediction by ZEFSAII (Michael W. Deem and Ramdas Pophale) SiO2 
 PCOD9178421
Probable space group: C 2/M
;
_chemical_formula_sum "Si O2"
_cell_formula_units_Z 40
_cell_length_a 15.646593
_cell_length_b 9.970769
_cell_length_c 12.140377
_cell_angle_alpha 90.000000
_cell_angle_beta 73.811398
_cell_angle_gamma 90.000000
_cell_volume 1818.904000
_symmetry_space_group_name_H-M "C 2/M"
_symmetry_group_IT_number 12
_symmetry_cell_setting 'monoclinic'
loop_
_space_group_symop_operation_xyz
x,y,z
-x,y,-z
-x,-y,-z
x,-y,z
1/2+x,1/2+y,z
1/2-x,1/2+y,-z
1/2-x,1/2-y,-z
1/2+x,1/2-y,z
loop_
_atom_site_type_symbol
_atom_site_label
_atom_site_fract_x
_atom_site_fract_y
_atom_site_fract_z
Si Si1 0.649506 0.651465 0.955705
Si Si2 0.106132 0.154326 0.448969
Si Si3 0.764904 0.153213 0.780277
Si Si4 0.117334 0.655275 0.639795
Si Si5 0.501686 0.346676 0.182164
O O1 0.684246 0.500000 0.948920
O O2 0.724598 0.752267 0.887746
O O3 0.573284 0.651833 0.887800
O O4 0.594435 0.681249 0.086735
O O5 0.142559 0.185326 0.313902
O O6 0.142720 0.261139 0.522659
O O7 0.000000 0.158710 0.500000
O O8 0.134410 0.000000 0.463119
O O9 0.694951 0.159476 0.703133
O O10 0.767182 0.000000 0.818040
O O11 0.097711 0.500000 0.622342
O O12 0.034207 0.734426 0.722942
O O13 0.503332 0.500000 0.227517
#
# Coordination Sequence:
#
# PCOD9178421 Si02
#       5
#     8   8   8   8   8
#     4   8  14  25  44  70  97 125 154 186 227 274
#     4  10  21  36  51  66  90 127 164 195 232 280
#     4   9  18  31  48  72  98 123 154 193 236 278
#     4  10  19  30  48  74  99 122 152 194 239 277
#     4   8  14  26  44  68  98 127 154 184 224 278
#
# _framework density 21.991266
#
# number of rings (size 3 to 8) (size 9 to 14) (size 15 to 20)
#    0.000    3.000    0.000    2.400    0.000    2.800 
#    0.000    4.000    0.000    1.200    0.000    0.000 
#    0.000    0.000    0.000    0.000    0.000    0.000 
#
# Total GULP energy -111792.229326 kJ/mol
# GULP energy per Si atom -5589.611466 kJ/mol
# Density = 2.194121 g / cm^3
# Si number density = 21.991266 Si / 1000 Ang^3
#
#
#
# Elastic Constant Matrix: (Units=GPa)
#
#
# Indices 1 2 3 4 5 6 
#
# 1 77.8425 44.6999 32.8425 0.0000 -14.2758 0.0000
# 2 44.6999 131.7658 112.4119 0.0000 -12.1636 0.0000
# 3 32.8425 112.4119 180.9844 0.0000 -21.4421 0.0000
# 4 0.0000 0.0000 0.0000 42.2804 0.0000 -5.0362
# 5 -14.2758 -12.1636 -21.4421 0.0000 47.1819 0.0000
# 6 0.0000 0.0000 0.0000 -5.0362 0.0000 14.9235
#
#
#
# Elastic Compliance Matrix: (Units=1/GPa)
#
#
# Indices 1 2 3 4 5 6 
#
# 1 0.016746 -0.006645 0.001570 0.000000 0.004067 0.000000
# 2 -0.006645 0.018788 -0.010704 0.000000 -0.002032 0.000000
# 3 0.001570 -0.010704 0.012279 0.000000 0.003296 0.000000
# 4 0.000000 0.000000 0.000000 0.024642 0.000000 0.008316
# 5 0.004067 -0.002032 0.003296 0.000000 0.023399 0.000000
# 6 0.000000 0.000000 0.000000 0.008316 0.000000 0.069815
#
#
# Mechanical properties :
#
#
# Convention : Reuss Voigt Hill
#
# Bulk Modulus (GPa) = 61.51883 85.61126 73.56505
# Shear Modulus (GPa) = 24.67360 34.25306 29.46333
#
# Velocity S-wave (km/s) = 3.35322 3.95089 3.66426
# Velocity P-wave (km/s) = 6.55950 7.73479 7.17126
#
# Compressibility (1/GPa) = 0.01625519
#
# Stress axis : x y z
#
# Youngs Moduli (GPa) = 59.71717 53.22540 81.43670
#
# Poissons Ratio (x) = 0.35369 -0.12789
# Poissons Ratio (y) = 0.39682 0.87173
# Poissons Ratio (z) = -0.09378 0.56974
#
# Static dielectric constant tensor:
#      x y z
#    x 1.898350 0.000000 0.023800 
#    y 0.000000 1.734070 0.000000 
#    z 0.023800 0.000000 1.791250 
# 
# From -- ./inp_files/228877.got.cif
#   From: 2010.05.17/outbox.cif.g08.bks.cpg/sg12_115_cif.got.tgz:228877.got - 2010.06.03 13:09:07.
