data_PCOD9178268
_publ_section_title
;
Structure prediction by ZEFSAII (Michael W. Deem and Ramdas Pophale) SiO2 
 PCOD9178268
Probable space group: C 2/M
;
_chemical_formula_sum "Si O2"
_cell_formula_units_Z 64
_cell_length_a 25.771401
_cell_length_b 8.590442
_cell_length_c 16.553269
_cell_angle_alpha 90.000000
_cell_angle_beta 117.168358
_cell_angle_gamma 90.000000
_cell_volume 3260.360401
_symmetry_space_group_name_H-M "C 2/M"
_symmetry_group_IT_number 12
_symmetry_cell_setting 'monoclinic'
loop_
_space_group_symop_operation_xyz
x,y,z
-x,y,-z
-x,-y,-z
x,-y,z
1/2+x,1/2+y,z
1/2-x,1/2+y,-z
1/2-x,1/2-y,-z
1/2+x,1/2-y,z
loop_
_atom_site_type_symbol
_atom_site_label
_atom_site_fract_x
_atom_site_fract_y
_atom_site_fract_z
Si Si1 0.697986 0.184528 0.018438
Si Si2 0.688009 0.176341 0.470710
Si Si3 0.089868 0.181404 0.504346
Si Si4 0.883999 0.187691 0.168001
Si Si5 0.387465 0.824952 0.744081
Si Si6 0.016316 0.187748 0.302582
Si Si7 0.293539 0.684344 0.795278
Si Si8 0.667945 0.311874 0.698996
O O1 0.639686 0.230302 0.928532
O O2 0.704239 0.000000 0.030382
O O3 0.750000 0.250000 0.000000
O O4 0.700282 0.258285 0.108463
O O5 0.750000 0.250000 0.500000
O O6 0.649092 0.292391 0.495943
O O7 0.656510 0.165443 0.362569
O O8 0.690355 0.000000 0.506885
O O9 0.041264 0.246777 0.407574
O O10 0.112018 0.244248 0.606461
O O11 0.075250 0.000000 0.506356
O O12 0.843610 0.228922 0.216038
O O13 0.949830 0.230195 0.238479
O O14 0.881152 0.000000 0.155541
O O15 0.443350 0.744091 0.742797
O O16 0.350190 0.739777 0.786044
O O17 0.402458 0.000000 0.781273
O O18 0.020287 0.000000 0.309012
O O19 0.289879 0.500000 0.789334
O O20 0.231544 0.750984 0.718612
O O21 0.668909 0.500000 0.693293
#
# Coordination Sequence:
#
# PCOD9178268 Si02
#       8
#     8   8   8   8   8   8   8   8
#     4  12  24  41  64  90 119 150 188 234 290 351
#     4  10  19  30  47  72 105 147 192 238 289 340
#     4   9  18  32  51  78 113 154 197 238 280 332
#     4  10  21  38  61  87 118 156 195 240 291 344
#     4  10  21  37  56  80 113 153 194 240 293 345
#     4   9  19  37  59  84 117 158 203 242 281 338
#     4  12  24  38  60  89 119 151 190 241 297 351
#     4  10  20  34  55  85 121 157 195 241 291 345
#
# _framework density 19.629731
#
# number of rings (size 3 to 8) (size 9 to 14) (size 15 to 20)
#    0.000    1.750    1.250    3.750    0.000    6.000 
#    0.000    3.125    0.000    3.750    0.000    5.250 
#    0.000    0.000    0.000    0.000    0.000    0.000 
#
# Total GULP energy -178550.885700 kJ/mol
# GULP energy per Si atom -5579.715178 kJ/mol
# Density = 1.958505 g / cm^3
# Si number density = 19.629731 Si / 1000 Ang^3
#
#
#
# Elastic Constant Matrix: (Units=GPa)
#
#
# Indices 1 2 3 4 5 6 
#
# 1 45.9036 9.3070 26.6143 0.0000 11.2271 0.0000
# 2 9.3070 45.4936 17.4906 0.0000 0.3849 0.0000
# 3 26.6143 17.4906 92.5558 0.0000 3.0248 0.0000
# 4 0.0000 0.0000 0.0000 20.7061 0.0000 -1.0904
# 5 11.2271 0.3849 3.0248 0.0000 32.1228 0.0000
# 6 0.0000 0.0000 0.0000 -1.0904 0.0000 22.1611
#
#
#
# Elastic Compliance Matrix: (Units=1/GPa)
#
#
# Indices 1 2 3 4 5 6 
#
# 1 0.029024 -0.002984 -0.007474 0.000000 -0.009404 0.000000
# 2 -0.002984 0.024011 -0.003715 0.000000 0.001105 0.000000
# 3 -0.007474 -0.003715 0.013611 0.000000 0.001375 0.000000
# 4 0.000000 0.000000 0.000000 0.048420 0.000000 0.002383
# 5 -0.009404 0.001105 0.001375 0.000000 0.034275 0.000000
# 6 0.000000 0.000000 0.000000 0.002383 0.000000 0.045241
#
#
# Mechanical properties :
#
#
# Convention : Reuss Voigt Hill
#
# Bulk Modulus (GPa) = 26.11190 32.30854 29.21022
# Shear Modulus (GPa) = 21.21384 23.70074 22.45729
#
# Velocity S-wave (km/s) = 3.29097 3.47852 3.38604
# Velocity P-wave (km/s) = 5.26989 5.71211 5.49545
#
# Compressibility (1/GPa) = 0.03829671
#
# Stress axis : x y z
#
# Youngs Moduli (GPa) = 34.45475 41.64800 73.47161
#
# Poissons Ratio (x) = 0.12430 0.54915
# Poissons Ratio (y) = 0.10283 0.27297
# Poissons Ratio (z) = 0.25753 0.15474
#
# Static dielectric constant tensor:
#      x y z
#    x 1.752660 0.000000 0.041420 
#    y 0.000000 1.696010 0.000000 
#    z 0.041420 0.000000 1.720310 
# 
# From -- ./inp_files/244162.got.cif
#   From: 2010.05.17/outbox.cif.g08.bks.cpg/sg12_123_cif.got.tgz:244162.got - 2010.06.03 13:09:07.
