data_PCOD9178050
_publ_section_title
;
Structure prediction by ZEFSAII (Michael W. Deem and Ramdas Pophale) SiO2 
 PCOD9178050
Probable space group: C 2/M
;
_chemical_formula_sum "Si O2"
_cell_formula_units_Z 48
_cell_length_a 23.158516
_cell_length_b 18.808570
_cell_length_c 24.671650
_cell_angle_alpha 90.000000
_cell_angle_beta 162.958918
_cell_angle_gamma 90.000000
_cell_volume 3149.323446
_symmetry_space_group_name_H-M "C 2/M"
_symmetry_group_IT_number 12
_symmetry_cell_setting 'monoclinic'
loop_
_space_group_symop_operation_xyz
x,y,z
-x,y,-z
-x,-y,-z
x,-y,z
1/2+x,1/2+y,z
1/2-x,1/2+y,-z
1/2-x,1/2-y,-z
1/2+x,1/2-y,z
loop_
_atom_site_type_symbol
_atom_site_label
_atom_site_fract_x
_atom_site_fract_y
_atom_site_fract_z
Si Si1 0.576841 0.083567 0.507909
Si Si2 0.613362 0.320610 0.382593
Si Si3 0.192095 0.418827 0.833910
Si Si4 0.056981 0.830825 0.205033
Si Si5 0.182256 0.701701 0.990596
Si Si6 0.559040 0.082290 0.283450
O O1 0.500000 0.089157 0.500000
O O2 0.405629 0.099789 0.310859
O O3 0.753012 0.137723 0.653858
O O4 0.635439 0.000000 0.551181
O O5 0.750000 0.250000 0.500000
O O6 0.583395 0.345697 0.293237
O O7 0.394115 0.306969 0.209432
O O8 0.733948 0.377150 0.525895
O O9 0.262012 0.500000 0.893456
O O10 0.028023 0.414704 0.733621
O O11 0.369772 0.371085 0.012830
O O12 0.994097 0.748253 0.142201
O O13 0.250000 0.750000 0.000000
O O14 0.090476 0.628113 0.887455
O O15 0.572880 0.000000 0.279844
#
# Coordination Sequence:
#
# PCOD9178050 Si02
#       6
#     8   8   8   8   8   8
#     4  10  22  36  48  67  96 129 169 215 254 283
#     4  11  18  30  48  69  96 129 166 200 241 290
#     4  10  19  30  46  68  92 126 171 206 237 286
#     4  11  19  30  51  66  89 129 167 203 243 284
#     4  10  19  31  46  69  96 125 161 201 243 288
#     4  11  20  30  46  73 101 129 165 201 236 292
#
# _framework density 15.241368
#
# number of rings (size 3 to 8) (size 9 to 14) (size 15 to 20)
#    0.000    1.500    8.333    0.500    0.000    2.000 
#    0.000    2.500    0.000    0.000    0.000    0.000 
#    0.000    0.667    0.000    3.333    0.000    0.167 
#
# Total GULP energy -133673.509863 kJ/mol
# GULP energy per Si atom -5569.729578 kJ/mol
# Density = 1.520668 g / cm^3
# Si number density = 15.241368 Si / 1000 Ang^3
#
#
#
# Elastic Constant Matrix: (Units=GPa)
#
#
# Indices 1 2 3 4 5 6 
#
# 1 36.6177 16.8558 18.4072 -0.0102 -0.0405 0.0007
# 2 16.8558 101.2170 60.0136 -0.0119 2.4322 -0.0044
# 3 18.4072 60.0136 101.3282 -0.0338 -2.4042 -0.0168
# 4 -0.0102 -0.0119 -0.0338 33.2224 -0.0010 1.3718
# 5 -0.0405 2.4322 -2.4042 -0.0010 10.4525 0.0018
# 6 0.0007 -0.0044 -0.0168 1.3718 0.0018 15.7606
#
#
#
# Elastic Compliance Matrix: (Units=1/GPa)
#
#
# Indices 1 2 3 4 5 6 
#
# 1 0.030549 -0.002761 -0.003917 0.000005 -0.000140 -0.000007
# 2 -0.002761 0.015816 -0.009002 -0.000004 -0.005761 -0.000004
# 3 -0.003917 -0.009002 0.016049 0.000012 0.005771 0.000013
# 4 0.000005 -0.000004 0.000012 0.030209 0.000007 -0.002629
# 5 -0.000140 -0.005761 0.005771 0.000007 0.098338 -0.000008
# 6 -0.000007 -0.000004 0.000013 -0.002629 -0.000008 0.063678
#
#
# Mechanical properties :
#
#
# Convention : Reuss Voigt Hill
#
# Bulk Modulus (GPa) = 32.20372 47.74623 39.97497
# Shear Modulus (GPa) = 16.87181 21.47952 19.17566
#
# Velocity S-wave (km/s) = 3.33073 3.75812 3.55086
# Velocity P-wave (km/s) = 5.99723 7.08704 6.56478
#
# Compressibility (1/GPa) = 0.03105231
#
# Stress axis : x y z
#
# Youngs Moduli (GPa) = 32.73385 63.22850 62.30820
#
# Poissons Ratio (x) = 0.17459 0.24409
# Poissons Ratio (y) = 0.09039 0.56091
# Poissons Ratio (z) = 0.12823 0.56920
#
# Static dielectric constant tensor:
#      x y z
#    x 1.496510 0.000000 0.016250 
#    y 0.000000 1.554260 -0.000010 
#    z 0.016250 -0.000010 1.546170 
# 
# From -- ./inp_files/25022.got.cif
#   From: 2010.05.17/outbox.cif.g08.bks.cpg/sg12_13_cif.got.tgz:25022.got - 2010.06.03 13:09:07.
