data_PCOD9178211
_publ_section_title
;
Structure prediction by ZEFSAII (Michael W. Deem and Ramdas Pophale) SiO2 
 PCOD9178211
Probable space group: C 2/M
;
_chemical_formula_sum "Si O2"
_cell_formula_units_Z 56
_cell_length_a 27.791646
_cell_length_b 8.988467
_cell_length_c 14.191340
_cell_angle_alpha 90.000000
_cell_angle_beta 59.666565
_cell_angle_gamma 90.000000
_cell_volume 3059.742758
_symmetry_space_group_name_H-M "C 2/M"
_symmetry_group_IT_number 12
_symmetry_cell_setting 'monoclinic'
loop_
_space_group_symop_operation_xyz
x,y,z
-x,y,-z
-x,-y,-z
x,-y,z
1/2+x,1/2+y,z
1/2-x,1/2+y,-z
1/2-x,1/2-y,-z
1/2+x,1/2-y,z
loop_
_atom_site_type_symbol
_atom_site_label
_atom_site_fract_x
_atom_site_fract_y
_atom_site_fract_z
Si Si1 0.533938 0.168844 0.367654
Si Si2 0.436879 0.320693 0.168030
Si Si3 0.668472 0.176140 0.027614
Si Si4 0.271101 0.823404 0.832984
Si Si5 0.865376 0.822175 0.631631
Si Si6 0.431442 0.321058 0.965670
Si Si7 0.430610 0.679511 0.378184
O O1 0.500000 0.161061 0.500000
O O2 0.589164 0.259336 0.339177
O O3 0.490770 0.249658 0.341471
O O4 0.547357 0.000000 0.324538
O O5 0.432305 0.500000 0.168702
O O6 0.415166 0.269088 0.088022
O O7 0.411577 0.272090 0.292744
O O8 0.503017 0.288054 0.108236
O O9 0.693351 0.205886 0.106563
O O10 0.668004 0.000000 0.014259
O O11 0.711065 0.252750 0.912330
O O12 0.607712 0.243269 0.070998
O O13 0.306357 0.749857 0.714801
O O14 0.266407 0.000000 0.825127
O O15 0.888925 0.782111 0.504621
O O16 0.862816 0.000000 0.641506
O O17 0.425088 0.500000 0.964825
O O18 0.436929 0.500000 0.372699
#
# Coordination Sequence:
#
# PCOD9178211 Si02
#       7
#     8   8   8   8   8   8   8
#     4   9  17  28  41  62  95 132 167 200 237 286
#     4   8  16  31  51  76 102 132 170 204 240 294
#     4  10  21  36  53  75 101 127 162 207 253 296
#     4  10  21  36  53  74 100 130 166 202 247 303
#     4  10  19  30  47  70  99 132 166 205 247 290
#     4   9  17  32  54  76 100 132 168 205 247 292
#     4   9  17  30  47  70  99 133 169 204 243 290
#
# _framework density 18.302191000000001
#
# number of rings (size 3 to 8) (size 9 to 14) (size 15 to 20)
#    0.000    2.714    0.000    2.571    2.000    4.000 
#    0.000    2.143    0.000    0.857    0.000    0.000 
#    0.000    0.000    0.000    0.000    0.000    0.000 
#
# Total GULP energy -156133.417083 kJ/mol
# GULP energy per Si atom -5576.193467 kJ/mol
# Density = 1.826053 g / cm^3
# Si number density = 18.302191 Si / 1000 Ang^3
#
#
#
# Elastic Constant Matrix: (Units=GPa)
#
#
# Indices 1 2 3 4 5 6 
#
# 1 26.6187 13.1402 -4.6954 0.0000 1.4118 0.0000
# 2 13.1402 28.6354 25.1444 0.0000 -0.7410 0.0000
# 3 -4.6954 25.1444 76.7336 0.0000 1.7899 0.0000
# 4 0.0000 0.0000 0.0000 19.9778 0.0000 -5.1958
# 5 1.4118 -0.7410 1.7899 0.0000 23.8159 0.0000
# 6 0.0000 0.0000 0.0000 -5.1958 0.0000 14.4433
#
#
#
# Elastic Compliance Matrix: (Units=1/GPa)
#
#
# Indices 1 2 3 4 5 6 
#
# 1 0.064482 -0.046846 0.019453 0.000000 -0.006742 0.000000
# 2 -0.046846 0.083241 -0.030322 0.000000 0.007646 0.000000
# 3 0.019453 -0.030322 0.024250 0.000000 -0.003919 0.000000
# 4 0.000000 0.000000 0.000000 0.055222 0.000000 0.019865
# 5 -0.006742 0.007646 -0.003919 0.000000 0.042921 0.000000
# 6 0.000000 0.000000 0.000000 0.019865 0.000000 0.076382
#
#
# Mechanical properties :
#
#
# Convention : Reuss Voigt Hill
#
# Bulk Modulus (GPa) = 17.68499 22.12957 19.90728
# Shear Modulus (GPa) = 10.39990 18.20731 14.30361
#
# Velocity S-wave (km/s) = 2.38635 3.15749 2.79861
# Velocity P-wave (km/s) = 4.15652 5.04088 4.61991
#
# Compressibility (1/GPa) = 0.05654513
#
# Stress axis : x y z
#
# Youngs Moduli (GPa) = 15.50830 12.01330 41.23743
#
# Poissons Ratio (x) = 0.56277 -0.80221
# Poissons Ratio (y) = 0.72649 1.25039
# Poissons Ratio (z) = -0.30169 0.36426
#
# Static dielectric constant tensor:
#      x y z
#    x 1.608060 0.000000 0.014930 
#    y 0.000000 1.610670 0.000000 
#    z 0.014930 0.000000 1.684300 
# 
# From -- ./inp_files/243617.got.cif
#   From: 2010.05.17/outbox.cif.g08.bks.cpg/sg12_122_cif.got.tgz:243617.got - 2010.06.03 13:09:07.
