data_PCOD9178124
_publ_section_title
;
Structure prediction by ZEFSAII (Michael W. Deem and Ramdas Pophale) SiO2 
 PCOD9178124
Probable space group: C 2/M
;
_chemical_formula_sum "Si O2"
_cell_formula_units_Z 40
_cell_length_a 13.306993
_cell_length_b 14.471585
_cell_length_c 8.892836
_cell_angle_alpha 90.000000
_cell_angle_beta 71.626277
_cell_angle_gamma 90.000000
_cell_volume 1625.219353
_symmetry_space_group_name_H-M "C 2/M"
_symmetry_group_IT_number 12
_symmetry_cell_setting 'monoclinic'
loop_
_space_group_symop_operation_xyz
x,y,z
-x,y,-z
-x,-y,-z
x,-y,z
1/2+x,1/2+y,z
1/2-x,1/2+y,-z
1/2-x,1/2-y,-z
1/2+x,1/2-y,z
loop_
_atom_site_type_symbol
_atom_site_label
_atom_site_fract_x
_atom_site_fract_y
_atom_site_fract_z
Si Si1 0.785917 0.796738 0.781425
Si Si2 0.115663 0.103131 0.525503
Si Si3 0.978635 0.214677 0.185471
Si Si4 0.220664 0.602010 0.095429
Si Si5 0.017183 0.397633 0.668568
O O1 0.807833 0.829005 0.602306
O O2 0.904761 0.792038 0.795159
O O3 0.740316 0.694662 0.836419
O O4 0.728645 0.870639 0.916130
O O5 0.000000 0.103362 0.500000
O O6 0.088720 0.134840 0.705068
O O7 0.158834 0.000000 0.499388
O O8 0.931744 0.312689 0.265993
O O9 0.000000 0.211012 0.000000
O O10 0.269625 0.500000 0.097084
O O11 0.099156 0.594513 0.203887
O O12 0.067270 0.500000 0.652873
O O13 0.000000 0.374246 0.500000
#
# Coordination Sequence:
#
# PCOD9178124 Si02
#       5
#     8   8   8   8   8
#     4   9  17  30  48  70  94 122 159 196 231 274
#     4   9  17  30  47  65  88 122 162 197 228 268
#     4  10  19  30  46  71 101 127 152 187 234 285
#     4   9  16  27  48  73  93 117 155 202 238 265
#     4   9  17  31  52  74  94 121 159 197 231 272
#
# _framework density 24.61206
#
# number of rings (size 3 to 8) (size 9 to 14) (size 15 to 20)
#    0.000    2.800    0.000    3.600    0.000    1.600 
#    0.000    0.000    0.000   19.200    0.000   19.600 
#    0.000    0.000    0.000    0.000    0.000    0.000 
#
# Total GULP energy -111750.517020 kJ/mol
# GULP energy per Si atom -5587.525851 kJ/mol
# Density = 2.455604 g / cm^3
# Si number density = 24.612060 Si / 1000 Ang^3
#
#
#
# Elastic Constant Matrix: (Units=GPa)
#
#
# Indices 1 2 3 4 5 6 
#
# 1 50.2146 -6.9008 30.4897 0.0000 -5.4899 0.0000
# 2 -6.9008 171.4772 92.2269 0.0000 1.4257 0.0000
# 3 30.4897 92.2269 166.6611 0.0000 -8.7178 0.0000
# 4 0.0000 0.0000 0.0000 44.2902 0.0000 -11.9737
# 5 -5.4899 1.4257 -8.7178 0.0000 30.4542 0.0000
# 6 0.0000 0.0000 0.0000 -11.9737 0.0000 12.4353
#
#
#
# Elastic Compliance Matrix: (Units=1/GPa)
#
#
# Indices 1 2 3 4 5 6 
#
# 1 0.025185 0.004854 -0.007175 0.000000 0.002259 0.000000
# 2 0.004854 0.009329 -0.006119 0.000000 -0.001313 0.000000
# 3 -0.007175 -0.006119 0.010808 0.000000 0.002087 0.000000
# 4 0.000000 0.000000 0.000000 0.030524 0.000000 0.029391
# 5 0.002259 -0.001313 0.002087 0.000000 0.033902 0.000000
# 6 0.000000 0.000000 0.000000 0.029391 0.000000 0.108716
#
#
# Mechanical properties :
#
#
# Convention : Reuss Voigt Hill
#
# Bulk Modulus (GPa) = 35.15995 68.88716 52.02356
# Shear Modulus (GPa) = 20.42254 35.60508 28.01381
#
# Velocity S-wave (km/s) = 2.88371 3.80761 3.37740
# Velocity P-wave (km/s) = 5.04028 6.88335 6.03262
#
# Compressibility (1/GPa) = 0.02844145
#
# Stress axis : x y z
#
# Youngs Moduli (GPa) = 39.70546 107.19137 92.52101
#
# Poissons Ratio (x) = -0.52031 0.66388
# Poissons Ratio (y) = -0.19273 0.56616
# Poissons Ratio (z) = 0.28491 0.65593
#
# Static dielectric constant tensor:
#      x y z
#    x 2.034220 0.000000 0.033130 
#    y 0.000000 2.003900 0.000000 
#    z 0.033130 0.000000 1.872320 
# 
# From -- ./inp_files/73355.got.cif
#   From: 2010.05.17/outbox.cif.g08.bks.cpg/sg12_37_cif.got.tgz:73355.got - 2010.06.03 13:09:07.
