data_PCOD9178035
_publ_section_title
;
Structure prediction by ZEFSAII (Michael W. Deem and Ramdas Pophale) SiO2 
 PCOD9178035
Probable space group: C 2/M
;
_chemical_formula_sum "Si O2"
_cell_formula_units_Z 64
_cell_length_a 21.523522
_cell_length_b 9.799479
_cell_length_c 22.814971
_cell_angle_alpha 90.000000
_cell_angle_beta 142.800502
_cell_angle_gamma 90.000000
_cell_volume 2909.368552
_symmetry_space_group_name_H-M "C 2/M"
_symmetry_group_IT_number 12
_symmetry_cell_setting 'monoclinic'
loop_
_space_group_symop_operation_xyz
x,y,z
-x,y,-z
-x,-y,-z
x,-y,z
1/2+x,1/2+y,z
1/2-x,1/2+y,-z
1/2-x,1/2-y,-z
1/2+x,1/2-y,z
loop_
_atom_site_type_symbol
_atom_site_label
_atom_site_fract_x
_atom_site_fract_y
_atom_site_fract_z
Si Si1 0.288988 0.850058 0.729548
Si Si2 0.027541 0.652257 0.455142
Si Si3 0.130767 0.348097 0.335729
Si Si4 0.296899 0.847290 0.241228
Si Si5 0.159947 0.157277 0.828736
Si Si6 0.578957 0.345406 0.395346
Si Si7 0.602377 0.159461 0.890683
Si Si8 0.479387 0.155459 0.047906
O O1 0.297223 0.832433 0.666389
O O2 0.238387 0.727383 0.726335
O O3 0.406413 0.853832 0.839823
O O4 0.242295 0.000000 0.708043
O O5 0.074348 0.500000 0.494362
O O6 0.919145 0.638482 0.340123
O O7 0.000000 0.698342 0.500000
O O8 0.086692 0.760379 0.460766
O O9 0.143111 0.500000 0.370582
O O10 0.139729 0.232144 0.390329
O O11 0.013966 0.342709 0.222885
O O12 0.278671 0.744705 0.173644
O O13 0.253883 0.000000 0.201216
O O14 0.160556 0.237820 0.890783
O O15 0.040954 0.153130 0.716420
O O16 0.193202 0.000000 0.858181
O O17 0.611495 0.500000 0.427902
O O18 0.589847 0.205161 0.949297
O O19 0.637057 0.000000 0.914009
O O20 0.442067 0.000000 0.007966
O O21 0.500000 0.224269 0.000000
#
# Coordination Sequence:
#
# PCOD9178035 Si02
#       8
#     8   8   8   8   8   8   8   8
#     4   9  17  29  46  68  93 120 149 181 218 261
#     4   9  18  32  48  65  87 117 149 179 217 267
#     4   8  14  25  41  61  86 116 146 176 213 257
#     4  10  19  30  46  67  90 116 146 182 222 263
#     4   9  16  26  41  62  88 115 144 180 221 262
#     4   9  16  25  41  66  90 111 140 182 224 256
#     4   8  13  23  41  64  87 111 144 183 217 252
#     4   8  14  26  46  70  93 119 150 181 216 261
#
# _framework density 21.997900000000001
#
# number of rings (size 3 to 8) (size 9 to 14) (size 15 to 20)
#    0.000    3.250    0.000    2.625    0.000    4.250 
#    0.000    1.875    0.000    3.000    0.000    0.000 
#    0.000    0.000    0.000    0.000    0.000    0.000 
#
# Total GULP energy -178525.707511 kJ/mol
# GULP energy per Si atom -5578.928360 kJ/mol
# Density = 2.194783 g / cm^3
# Si number density = 21.997900 Si / 1000 Ang^3
#
#
#
# Elastic Constant Matrix: (Units=GPa)
#
#
# Indices 1 2 3 4 5 6 
#
# 1 90.3001 93.3210 12.9827 0.0000 -42.3726 0.0000
# 2 93.3210 170.2274 25.9437 0.0000 -40.1130 0.0000
# 3 12.9827 25.9437 67.8222 0.0000 -9.9839 0.0000
# 4 0.0000 0.0000 0.0000 -1.0896 0.0000 1.5697
# 5 -42.3726 -40.1130 -9.9839 0.0000 44.6062 0.0000
# 6 0.0000 0.0000 0.0000 1.5697 0.0000 2.5818
#
#
#
# Elastic Compliance Matrix: (Units=1/GPa)
#
#
# Indices 1 2 3 4 5 6 
#
# 1 0.036858 -0.015426 0.002024 0.000000 0.021593 0.000000
# 2 -0.015426 0.014163 -0.002841 0.000000 -0.002554 0.000000
# 3 0.002024 -0.002841 0.015874 0.000000 0.002921 0.000000
# 4 0.000000 0.000000 0.000000 -0.489265 0.000000 0.297459
# 5 0.021593 -0.002554 0.002921 0.000000 0.041287 0.000000
# 6 0.000000 0.000000 0.000000 0.297459 0.000000 0.206472
#
#
# Mechanical properties :
#
#
# Convention : Reuss Voigt Hill
#
# Bulk Modulus (GPa) = 29.06246 65.87161 47.46704
# Shear Modulus (GPa) = -38.26818 22.29318 -7.98750
#
# Velocity S-wave (km/s) = -4.17541 3.18688 -1.90759
# Velocity P-wave (km/s) = 3.16311 6.59933 4.09548
#
# Compressibility (1/GPa) = 0.03440865
#
# Stress axis : x y z
#
# Youngs Moduli (GPa) = 27.13137 70.60883 62.99779
#
# Poissons Ratio (x) = 1.08923 -0.12752
# Poissons Ratio (y) = 0.41853 0.17895
# Poissons Ratio (z) = -0.05492 0.20057
#
# Static dielectric constant tensor:
#      x y z
#    x 1.822160 0.000000 0.041040 
#    y 0.000000 1.786900 0.000000 
#    z 0.041040 0.000000 1.862960 
# 
# From -- ./inp_files/348599.got.cif
#   From: 2010.05.17/outbox.cif.g08.bks.cpg/sg12_175_cif.got.tgz:348599.got - 2010.06.03 13:09:07.
