data_PCOD9178273
_publ_section_title
;
Structure prediction by ZEFSAII (Michael W. Deem and Ramdas Pophale) SiO2 
 PCOD9178273
Probable space group: C 2/M
;
_chemical_formula_sum "Si O2"
_cell_formula_units_Z 64
_cell_length_a 21.682792
_cell_length_b 8.235024
_cell_length_c 17.897757
_cell_angle_alpha 90.000000
_cell_angle_beta 124.345566
_cell_angle_gamma 90.000000
_cell_volume 2638.606326
_symmetry_space_group_name_H-M "C 2/M"
_symmetry_group_IT_number 12
_symmetry_cell_setting 'monoclinic'
loop_
_space_group_symop_operation_xyz
x,y,z
-x,y,-z
-x,-y,-z
x,-y,z
1/2+x,1/2+y,z
1/2-x,1/2+y,-z
1/2-x,1/2-y,-z
1/2+x,1/2-y,z
loop_
_atom_site_type_symbol
_atom_site_label
_atom_site_fract_x
_atom_site_fract_y
_atom_site_fract_z
Si Si1 0.498701 0.813072 0.890308
Si Si2 0.836351 0.196158 0.554178
Si Si3 0.183364 0.680239 0.864357
Si Si4 0.031585 0.814704 0.753613
Si Si5 0.649281 0.307398 0.268361
Si Si6 0.817329 0.804319 0.375322
Si Si7 0.160614 0.686086 0.029424
Si Si8 0.040723 0.801602 0.602967
O O1 0.517343 0.794103 0.815141
O O2 0.415608 0.741099 0.834009
O O3 0.575602 0.746547 0.980304
O O4 0.494355 0.000000 0.908533
O O5 0.750000 0.250000 0.500000
O O6 0.868093 0.249229 0.657250
O O7 0.851080 0.250027 0.478897
O O8 0.843858 0.000000 0.558545
O O9 0.160834 0.500000 0.824319
O O10 0.121050 0.811847 0.802117
O O11 0.178001 0.678320 0.951805
O O12 0.266797 0.718369 0.893231
O O13 0.002685 0.752647 0.654448
O O14 0.007624 0.000000 0.753297
O O15 0.652594 0.500000 0.272498
O O16 0.731913 0.245368 0.306924
O O17 0.874181 0.746577 0.350977
O O18 0.819119 0.000000 0.377109
O O19 0.161603 0.500000 0.057695
O O20 0.000000 0.752000 0.500000
O O21 0.038462 0.000000 0.604727
#
# Coordination Sequence:
#
# PCOD9178273 Si02
#       8
#     8   8   8   8   8   8   8   8
#     4  10  20  32  47  71 103 133 160 196 244 296
#     4   8  15  26  43  64  86 113 149 193 237 279
#     4   9  16  27  45  67  96 129 160 194 236 290
#     4  10  19  31  49  72  98 130 167 206 243 286
#     4  10  19  30  47  72  97 124 159 199 245 296
#     4   9  17  32  51  68  90 124 164 205 245 286
#     4   8  15  27  43  66  95 126 159 193 233 285
#     4   9  19  33  52  73  95 127 170 211 245 281
#
# _framework density 24.255227999999999
#
# number of rings (size 3 to 8) (size 9 to 14) (size 15 to 20)
#    0.000    2.875    0.000    2.250    1.750    4.000 
#    0.000    1.250    0.000    1.875    0.000    0.875 
#    0.000    7.000    0.000    0.000    0.000    0.000 
#
# Total GULP energy -178425.311025 kJ/mol
# GULP energy per Si atom -5575.790970 kJ/mol
# Density = 2.420002 g / cm^3
# Si number density = 24.255228 Si / 1000 Ang^3
#
#
#
# Elastic Constant Matrix: (Units=GPa)
#
#
# Indices 1 2 3 4 5 6 
#
# 1 87.6764 4.7414 32.6608 0.0000 8.7074 0.0000
# 2 4.7414 25.6837 8.7358 0.0000 0.6348 0.0000
# 3 32.6608 8.7358 74.5217 0.0000 9.3835 0.0000
# 4 0.0000 0.0000 0.0000 -4.0744 0.0000 -9.9015
# 5 8.7074 0.6348 9.3835 0.0000 52.6207 0.0000
# 6 0.0000 0.0000 0.0000 -9.9015 0.0000 -5.8129
#
#
#
# Elastic Compliance Matrix: (Units=1/GPa)
#
#
# Indices 1 2 3 4 5 6 
#
# 1 0.013715 -0.000531 -0.005794 0.000000 -0.001230 0.000000
# 2 -0.000531 0.040579 -0.004576 0.000000 0.000414 0.000000
# 3 -0.005794 -0.004576 0.016743 0.000000 -0.001972 0.000000
# 4 0.000000 0.000000 0.000000 0.078177 0.000000 -0.133164
# 5 -0.001230 0.000414 -0.001972 0.000000 0.019554 0.000000
# 6 0.000000 0.000000 0.000000 -0.133164 0.000000 0.054797
#
#
# Mechanical properties :
#
#
# Convention : Reuss Voigt Hill
#
# Bulk Modulus (GPa) = 20.31070 31.12865 25.71968
# Shear Modulus (GPa) = 19.10009 17.99626 18.54818
#
# Velocity S-wave (km/s) = 2.80922 2.72684 2.76834
# Velocity P-wave (km/s) = 4.34905 4.77240 4.56564
#
# Compressibility (1/GPa) = 0.04923512
#
# Stress axis : x y z
#
# Youngs Moduli (GPa) = 72.91469 24.64300 59.72696
#
# Poissons Ratio (x) = 0.01308 0.34604
# Poissons Ratio (y) = 0.03870 0.27334
# Poissons Ratio (z) = 0.42244 0.11278
#
# Static dielectric constant tensor:
#      x y z
#    x 1.997460 0.000000 0.007950 
#    y 0.000000 1.877970 0.000000 
#    z 0.007950 0.000000 2.008430 
# 
# From -- ./inp_files/324214.got.cif
#   From: 2010.05.17/outbox.cif.g08.bks.cpg/sg12_163_cif.got.tgz:324214.got - 2010.06.03 13:09:07.
