data_PCOD9178129
_publ_section_title
;
Structure prediction by ZEFSAII (Michael W. Deem and Ramdas Pophale) SiO2 
 PCOD9178129
Probable space group: C 2/M
;
_chemical_formula_sum "Si O2"
_cell_formula_units_Z 48
_cell_length_a 27.700746
_cell_length_b 9.189500
_cell_length_c 12.109182
_cell_angle_alpha 90.000000
_cell_angle_beta 72.367743
_cell_angle_gamma 90.000000
_cell_volume 2937.651672
_symmetry_space_group_name_H-M "C 2/M"
_symmetry_group_IT_number 12
_symmetry_cell_setting 'monoclinic'
loop_
_space_group_symop_operation_xyz
x,y,z
-x,y,-z
-x,-y,-z
x,-y,z
1/2+x,1/2+y,z
1/2-x,1/2+y,-z
1/2-x,1/2-y,-z
1/2+x,1/2-y,z
loop_
_atom_site_type_symbol
_atom_site_label
_atom_site_fract_x
_atom_site_fract_y
_atom_site_fract_z
Si Si1 0.394214 0.671960 0.746499
Si Si2 0.925678 0.670167 0.269096
Si Si3 0.445275 0.672275 0.485345
Si Si4 0.958768 0.669711 0.880159
Si Si5 0.303676 0.326791 0.967669
Si Si6 0.885418 0.826029 0.095248
O O1 0.404609 0.500000 0.763670
O O2 0.403803 0.692230 0.610614
O O3 0.433633 0.771432 0.785218
O O4 0.339508 0.705101 0.836843
O O5 0.913110 0.500000 0.285578
O O6 0.931217 0.740511 0.385765
O O7 0.887727 0.753207 0.213427
O O8 0.981340 0.682679 0.175040
O O9 0.500000 0.713868 0.500000
O O10 0.448791 0.500000 0.456308
O O11 0.946470 0.500000 0.908138
O O12 0.933160 0.766322 0.992270
O O13 0.296248 0.500000 0.976025
O O14 0.250000 0.250000 0.000000
O O15 0.337023 0.286685 0.052575
O O16 0.887969 0.000000 0.101910
#
# Coordination Sequence:
#
# PCOD9178129 Si02
#       6
#     8   8   8   8   8   8
#     4   9  18  33  51  75 103 133 174 211 243 294
#     4  11  22  32  46  72 107 140 170 207 251 296
#     4  10  19  32  52  73 100 142 181 206 238 292
#     4  10  19  30  46  71 104 137 168 206 251 296
#     4   9  19  35  56  79 100 124 160 212 263 305
#     4  10  21  35  51  72  99 132 172 211 251 303
#
# _framework density 16.339583000000001
#
# number of rings (size 3 to 8) (size 9 to 14) (size 15 to 20)
#    0.000    2.167    1.667    3.000    0.000    8.333 
#    0.000    0.000    0.000    1.000    0.000    0.000 
#    0.000    0.000    0.000    0.000    0.000    0.000 
#
# Total GULP energy -133851.949837 kJ/mol
# GULP energy per Si atom -5577.164577 kJ/mol
# Density = 1.630239 g / cm^3
# Si number density = 16.339583 Si / 1000 Ang^3
#
#
#
# Elastic Constant Matrix: (Units=GPa)
#
#
# Indices 1 2 3 4 5 6 
#
# 1 88.4843 57.0249 66.2521 0.0000 3.2081 0.0000
# 2 57.0249 71.9653 58.8340 0.0000 13.5634 0.0000
# 3 66.2521 58.8340 107.0547 0.0000 24.4676 0.0000
# 4 0.0000 0.0000 0.0000 16.5600 0.0000 -5.1255
# 5 3.2081 13.5634 24.4676 0.0000 21.1241 0.0000
# 6 0.0000 0.0000 0.0000 -5.1255 0.0000 22.5957
#
#
#
# Elastic Compliance Matrix: (Units=1/GPa)
#
#
# Indices 1 2 3 4 5 6 
#
# 1 0.036367 -0.018999 -0.018484 0.000000 0.028085 0.000000
# 2 -0.018999 0.035158 -0.004167 0.000000 -0.014862 0.000000
# 3 -0.018484 -0.004167 0.029672 0.000000 -0.028886 0.000000
# 4 0.000000 0.000000 0.000000 0.064946 0.000000 0.014732
# 5 0.028085 -0.014862 -0.028886 0.000000 0.086074 0.000000
# 6 0.000000 0.000000 0.000000 0.014732 0.000000 0.047598
#
#
# Mechanical properties :
#
#
# Convention : Reuss Voigt Hill
#
# Bulk Modulus (GPa) = 55.87551 70.19181 63.03366
# Shear Modulus (GPa) = 12.85076 17.74885 15.29980
#
# Velocity S-wave (km/s) = 2.80747 3.29940 3.06333
# Velocity P-wave (km/s) = 6.69177 7.58724 7.15353
#
# Compressibility (1/GPa) = 0.01789693
#
# Stress axis : x y z
#
# Youngs Moduli (GPa) = 27.49743 28.44264 33.70184
#
# Poissons Ratio (x) = 0.54039 0.62294
# Poissons Ratio (y) = 0.52243 0.14045
# Poissons Ratio (z) = 0.50825 0.11853
#
# Static dielectric constant tensor:
#      x y z
#    x 1.533450 0.000000 0.007830 
#    y 0.000000 1.548030 0.000000 
#    z 0.007830 0.000000 1.563010 
# 
# From -- ./inp_files/172052.got.cif
#   From: 2010.05.17/outbox.cif.g08.bks.cpg/sg12_87_cif.got.tgz:172052.got - 2010.06.03 13:09:07.
