data_PCOD9178754
_publ_section_title
;
Structure prediction by ZEFSAII (Michael W. Deem and Ramdas Pophale) SiO2 
 PCOD9178754
Probable space group: C 2/M
;
_chemical_formula_sum "Si O2"
_cell_formula_units_Z 44
_cell_length_a 10.739775
_cell_length_b 17.282603
_cell_length_c 16.550480
_cell_angle_alpha 90.000000
_cell_angle_beta 144.046763
_cell_angle_gamma 90.000000
_cell_volume 1803.621186
_symmetry_space_group_name_H-M "C 2/M"
_symmetry_group_IT_number 12
_symmetry_cell_setting 'monoclinic'
loop_
_space_group_symop_operation_xyz
x,y,z
-x,y,-z
-x,-y,-z
x,-y,z
1/2+x,1/2+y,z
1/2-x,1/2+y,-z
1/2-x,1/2-y,-z
1/2+x,1/2-y,z
loop_
_atom_site_type_symbol
_atom_site_label
_atom_site_fract_x
_atom_site_fract_y
_atom_site_fract_z
Si Si1 0.500000 0.693664 0.500000
Si Si2 0.350868 0.406708 0.023734
Si Si3 0.354951 0.589292 0.216069
Si Si4 0.392781 0.909431 0.760745
Si Si5 0.782092 0.659705 0.457768
Si Si6 0.190836 0.407921 0.711174
O O1 0.304315 0.639290 0.373555
O O2 0.625199 0.755501 0.508490
O O3 0.350075 0.500000 0.010554
O O4 0.325705 0.392791 0.106734
O O5 0.591582 0.379407 0.131903
O O6 0.130624 0.378960 0.869225
O O7 0.431719 0.500000 0.261134
O O8 0.149004 0.593019 0.163926
O O9 0.538482 0.643377 0.349186
O O10 0.379133 0.000000 0.729684
O O11 0.788405 0.618672 0.371608
O O12 0.953912 0.619729 0.606654
O O13 0.194642 0.500000 0.717899
#
# Coordination Sequence:
#
# PCOD9178754 Si02
#       6
#     4   8   8   8   8   8
#     4  10  21  32  41  60  90 126 154 170 199 252
#     4   8  14  25  44  69  88 105 138 184 226 253
#     4   9  16  28  49  72  89 106 135 182 230 261
#     4  10  19  31  46  63  86 117 151 182 210 248
#     4   9  16  27  41  64  90 114 142 171 213 260
#     4   8  12  22  42  65  89 110 132 172 221 265
#
# _framework density 24.395365999999999
#
# number of rings (size 3 to 8) (size 9 to 14) (size 15 to 20)
#    0.000    3.273    0.000    4.091    0.000    2.909 
#    0.000    8.182    0.000    0.000    0.000    1.273 
#    0.000    7.273    0.000    0.000    0.000   24.182 
#
# Total GULP energy -122722.302893 kJ/mol
# GULP energy per Si atom -5578.286495 kJ/mol
# Density = 2.433984 g / cm^3
# Si number density = 24.395366 Si / 1000 Ang^3
#
#
#
# Elastic Constant Matrix: (Units=GPa)
#
#
# Indices 1 2 3 4 5 6 
#
# 1 98.6966 21.1078 43.0751 -0.0002 28.8863 0.0000
# 2 21.1078 71.7049 60.4658 0.0024 7.0107 0.0017
# 3 43.0751 60.4658 238.3742 0.0064 35.8907 0.0056
# 4 -0.0002 0.0024 0.0064 -69.4274 0.0000 -50.4217
# 5 28.8863 7.0107 35.8907 0.0000 43.5523 0.0001
# 6 0.0000 0.0017 0.0056 -50.4217 0.0001 -45.9009
#
#
#
# Elastic Compliance Matrix: (Units=1/GPa)
#
#
# Indices 1 2 3 4 5 6 
#
# 1 0.013255 -0.002689 -0.000519 0.000000 -0.007931 0.000000
# 2 -0.002689 0.018322 -0.004551 0.000000 0.002584 0.000000
# 3 -0.000519 -0.004551 0.006029 0.000000 -0.003892 0.000001
# 4 0.000000 0.000000 0.000000 -0.071227 0.000000 0.078242
# 5 -0.007931 0.002584 -0.003892 0.000000 0.031012 0.000000
# 6 0.000000 0.000000 0.000001 0.078242 0.000000 -0.107734
#
#
# Mechanical properties :
#
#
# Convention : Reuss Voigt Hill
#
# Bulk Modulus (GPa) = 45.27120 73.11922 59.19521
# Shear Modulus (GPa) = -57.16740 4.58660 -26.29040
#
# Velocity S-wave (km/s) = -4.84609 1.37266 -3.28637
# Velocity P-wave (km/s) = 3.56584 5.70525 3.14918
#
# Compressibility (1/GPa) = 0.02208910
#
# Stress axis : x y z
#
# Youngs Moduli (GPa) = 75.44448 54.57789 165.85904
#
# Poissons Ratio (x) = 0.14674 0.08610
# Poissons Ratio (y) = 0.20285 0.75481
# Poissons Ratio (z) = 0.03916 0.24838
#
# Static dielectric constant tensor:
#      x y z
#    x 2.150630 0.000000 -0.005450 
#    y 0.000000 1.861190 0.000000 
#    z -0.005450 0.000000 1.946690 
# 
# From -- ./inp_files/364313.got.cif
#   From: 2010.05.17/outbox.cif.g08.bks.cpg/sg12_183_cif.got.tgz:364313.got - 2010.06.03 13:09:07.
