data_PCOD9178875
_publ_section_title
;
Structure prediction by ZEFSAII (Michael W. Deem and Ramdas Pophale) SiO2 
 PCOD9178875
Probable space group: C 2/M
;
_chemical_formula_sum "Si O2"
_cell_formula_units_Z 56
_cell_length_a 31.837384
_cell_length_b 7.440445
_cell_length_c 12.001010
_cell_angle_alpha 90.000000
_cell_angle_beta 65.550033
_cell_angle_gamma 90.000000
_cell_volume 2587.912712
_symmetry_space_group_name_H-M "C 2/M"
_symmetry_group_IT_number 12
_symmetry_cell_setting 'monoclinic'
loop_
_space_group_symop_operation_xyz
x,y,z
-x,y,-z
-x,-y,-z
x,-y,z
1/2+x,1/2+y,z
1/2-x,1/2+y,-z
1/2-x,1/2-y,-z
1/2+x,1/2-y,z
loop_
_atom_site_type_symbol
_atom_site_label
_atom_site_fract_x
_atom_site_fract_y
_atom_site_fract_z
Si Si1 0.133375 0.788107 0.923492
Si Si2 0.717920 0.707077 0.704022
Si Si3 0.485355 0.208627 0.328686
Si Si4 0.900469 0.280336 0.556849
Si Si5 0.589735 0.783132 0.205900
Si Si6 0.454482 0.282233 0.118039
Si Si7 0.814129 0.718826 0.504838
O O1 0.182952 0.712558 0.832725
O O2 0.091145 0.716428 0.894997
O O3 0.135666 0.000000 0.895023
O O4 0.119299 0.771739 0.067129
O O5 0.726855 0.500000 0.725206
O O6 0.768410 0.783017 0.621149
O O7 0.690816 0.715139 0.615990
O O8 0.450430 0.283334 0.459039
O O9 0.536691 0.284014 0.256384
O O10 0.459395 0.219784 0.239113
O O11 0.492367 0.000000 0.351219
O O12 0.901217 0.500000 0.553283
O O13 0.891924 0.226972 0.693436
O O14 0.860229 0.224107 0.517187
O O15 0.588915 0.000000 0.203735
O O16 0.454225 0.500000 0.119224
O O17 0.500000 0.225233 0.000000
O O18 0.813261 0.500000 0.500948
#
# Coordination Sequence:
#
# PCOD9178875 Si02
#       7
#     8   8   8   8   8   8   8
#     4  10  20  34  49  68  99 132 159 191 238 287
#     4   9  18  32  52  76  99 124 153 193 243 287
#     4  10  19  31  50  73  95 123 161 202 239 278
#     4   9  18  33  51  71  96 126 159 198 242 281
#     4  10  20  33  49  69  96 129 164 198 232 278
#     4  10  19  31  47  67  96 129 156 189 236 285
#     4   9  17  32  54  76  97 122 156 196 238 286
#
# _framework density 21.639059
#
# number of rings (size 3 to 8) (size 9 to 14) (size 15 to 20)
#    0.000    2.429    1.429    1.286    0.000    3.143 
#    0.000    2.143    0.000    1.714    0.000    0.000 
#    0.000    0.000    0.000    0.000    0.000    0.000 
#
# Total GULP energy -156365.162203 kJ/mol
# GULP energy per Si atom -5584.470079 kJ/mol
# Density = 2.158981 g / cm^3
# Si number density = 21.639059 Si / 1000 Ang^3
#
#
#
# Elastic Constant Matrix: (Units=GPa)
#
#
# Indices 1 2 3 4 5 6 
#
# 1 51.4499 -4.0214 41.1200 0.0000 -16.6231 0.0000
# 2 -4.0214 67.7162 -12.8507 0.0000 -7.8674 0.0000
# 3 41.1200 -12.8507 118.3184 0.0000 -32.2740 0.0000
# 4 0.0000 0.0000 0.0000 26.1655 0.0000 11.3887
# 5 -16.6231 -7.8674 -32.2740 0.0000 32.3188 0.0000
# 6 0.0000 0.0000 0.0000 11.3887 0.0000 7.5408
#
#
#
# Elastic Compliance Matrix: (Units=1/GPa)
#
#
# Indices 1 2 3 4 5 6 
#
# 1 0.027903 0.000996 -0.007708 0.000000 0.006897 0.000000
# 2 0.000996 0.016477 0.003680 0.000000 0.008198 0.000000
# 3 -0.007708 0.003680 0.014696 0.000000 0.011607 0.000000
# 4 0.000000 0.000000 0.000000 0.111541 0.000000 -0.168458
# 5 0.006897 0.008198 0.011607 0.000000 0.048076 0.000000
# 6 0.000000 0.000000 0.000000 -0.168458 0.000000 0.387032
#
#
# Mechanical properties :
#
#
# Convention : Reuss Voigt Hill
#
# Bulk Modulus (GPa) = 18.86378 31.77559 25.31969
# Shear Modulus (GPa) = 7.94331 27.42078 17.68204
#
# Velocity S-wave (km/s) = 1.91802 3.56362 2.86166
# Velocity P-wave (km/s) = 3.69343 5.62572 4.75869
#
# Compressibility (1/GPa) = 0.05301165
#
# Stress axis : x y z
#
# Youngs Moduli (GPa) = 35.83860 60.68916 68.04426
#
# Poissons Ratio (x) = -0.06042 0.52447
# Poissons Ratio (y) = -0.03568 -0.25039
# Poissons Ratio (z) = 0.27624 -0.22332
#
# Static dielectric constant tensor:
#      x y z
#    x 1.769130 0.000000 -0.035620 
#    y 0.000000 1.751360 0.000000 
#    z -0.035620 0.000000 1.768150 
# 
# From -- ./inp_files/186429.got.cif
#   From: 2010.05.17/outbox.cif.g08.bks.cpg/sg12_94_cif.got.tgz:186429.got - 2010.06.03 13:09:07.
