data_PCOD9178515
_publ_section_title
;
Structure prediction by ZEFSAII (Michael W. Deem and Ramdas Pophale) SiO2 
 PCOD9178515
Probable space group: C 2/M
;
_chemical_formula_sum "Si O2"
_cell_formula_units_Z 64
_cell_length_a 25.402438
_cell_length_b 9.698823
_cell_length_c 15.771669
_cell_angle_alpha 90.000000
_cell_angle_beta 107.351284
_cell_angle_gamma 90.000000
_cell_volume 3708.902371
_symmetry_space_group_name_H-M "C 2/M"
_symmetry_group_IT_number 12
_symmetry_cell_setting 'monoclinic'
loop_
_space_group_symop_operation_xyz
x,y,z
-x,y,-z
-x,-y,-z
x,-y,z
1/2+x,1/2+y,z
1/2-x,1/2+y,-z
1/2-x,1/2-y,-z
1/2+x,1/2-y,z
loop_
_atom_site_type_symbol
_atom_site_label
_atom_site_fract_x
_atom_site_fract_y
_atom_site_fract_z
Si Si1 0.289370 0.158842 0.463139
Si Si2 0.080912 0.659717 0.460645
Si Si3 0.267533 0.656285 0.115559
Si Si4 0.031951 0.667178 0.929745
Si Si5 0.658532 0.835132 0.960246
Si Si6 0.928284 0.841544 0.378935
Si Si7 0.506263 0.163888 0.724563
Si Si8 0.796735 0.149330 0.318732
O O1 0.250000 0.250000 0.500000
O O2 0.353613 0.177400 0.517791
O O3 0.282557 0.219168 0.366467
O O4 0.275577 0.000000 0.462313
O O5 0.070541 0.500000 0.481925
O O6 0.062186 0.760980 0.527445
O O7 0.050078 0.680979 0.356558
O O8 0.279381 0.500000 0.090598
O O9 0.316378 0.755471 0.107988
O O10 0.266715 0.654100 0.215461
O O11 0.207139 0.694172 0.051496
O O12 0.030657 0.500000 0.932997
O O13 0.096855 0.707773 0.957252
O O14 0.006533 0.703446 0.824484
O O15 0.000000 0.715722 0.000000
O O16 0.656804 0.000000 0.944756
O O17 0.862360 0.847732 0.336445
O O18 0.952400 0.755515 0.311898
O O19 0.948812 0.000000 0.391180
O O20 0.520818 0.000000 0.727901
O O21 0.784177 0.000000 0.354692
#
# Coordination Sequence:
#
# PCOD9178515 Si02
#       8
#     8   8   8   8   8   8   8   8
#     4  10  20  35  52  70  96 129 164 200 243 289
#     4   9  19  34  50  73 101 130 164 201 244 295
#     4   9  17  30  49  76 103 128 161 204 253 302
#     4   9  18  33  51  73 100 130 171 215 251 290
#     4   9  17  30  50  75 100 129 162 205 257 299
#     4  10  19  30  49  76 105 134 161 197 247 296
#     4  10  19  32  51  74  99 130 166 205 246 290
#     4   9  18  32  48  71 101 131 165 199 239 293
#
# _framework density 17.255777999999999
#
# number of rings (size 3 to 8) (size 9 to 14) (size 15 to 20)
#    0.000    2.625    0.000    1.875    0.000    3.500 
#    2.250    0.000    0.000    1.500    0.000    0.000 
#    0.000    0.000    0.000    0.000    0.000    0.000 
#
# Total GULP energy -178172.752821 kJ/mol
# GULP energy per Si atom -5567.898526 kJ/mol
# Density = 1.721650 g / cm^3
# Si number density = 17.255778 Si / 1000 Ang^3
#
#
#
# Elastic Constant Matrix: (Units=GPa)
#
#
# Indices 1 2 3 4 5 6 
#
# 1 55.1286 48.3428 49.5302 0.0000 -15.3503 0.0000
# 2 48.3428 77.1963 47.7807 0.0000 -12.9682 0.0000
# 3 49.5302 47.7807 114.6821 0.0000 -8.9899 0.0000
# 4 0.0000 0.0000 0.0000 18.9196 0.0000 -7.3524
# 5 -15.3503 -12.9682 -8.9899 0.0000 18.3330 0.0000
# 6 0.0000 0.0000 0.0000 -7.3524 0.0000 25.0383
#
#
#
# Elastic Compliance Matrix: (Units=1/GPa)
#
#
# Indices 1 2 3 4 5 6 
#
# 1 0.057818 -0.023922 -0.013037 0.000000 0.025096 0.000000
# 2 -0.023922 0.028959 -0.001766 0.000000 -0.000412 0.000000
# 3 -0.013037 -0.001766 0.014697 0.000000 -0.004958 0.000000
# 4 0.000000 0.000000 0.000000 0.059664 0.000000 0.017520
# 5 0.025096 -0.000412 -0.004958 0.000000 0.072837 0.000000
# 6 0.000000 0.000000 0.000000 0.017520 0.000000 0.045083
#
#
# Mechanical properties :
#
#
# Convention : Reuss Voigt Hill
#
# Bulk Modulus (GPa) = 41.62468 59.81272 50.71870
# Shear Modulus (GPa) = 13.71678 19.21507 16.46593
#
# Velocity S-wave (km/s) = 2.82247 3.34060 3.09241
# Velocity P-wave (km/s) = 5.89884 7.04395 6.49667
#
# Compressibility (1/GPa) = 0.02402421
#
# Stress axis : x y z
#
# Youngs Moduli (GPa) = 17.29556 34.53204 68.03976
#
# Poissons Ratio (x) = 0.82609 0.88703
# Poissons Ratio (y) = 0.41375 0.12013
# Poissons Ratio (z) = 0.22548 0.06097
#
# Static dielectric constant tensor:
#      x y z
#    x 1.590830 0.000000 0.008060 
#    y 0.000000 1.594040 0.000000 
#    z 0.008060 0.000000 1.607430 
# 
# From -- ./inp_files/244041.got.cif
#   From: 2010.05.17/outbox.cif.g08.bks.cpg/sg12_123_cif.got.tgz:244041.got - 2010.06.03 13:09:07.
