data_PCOD9178766
_publ_section_title
;
Structure prediction by ZEFSAII (Michael W. Deem and Ramdas Pophale) SiO2 
 PCOD9178766
Probable space group: C 2/M
;
_chemical_formula_sum "Si O2"
_cell_formula_units_Z 64
_cell_length_a 14.522157
_cell_length_b 9.154999
_cell_length_c 25.923951
_cell_angle_alpha 90.000000
_cell_angle_beta 58.732121
_cell_angle_gamma 90.000000
_cell_volume 2945.979384
_symmetry_space_group_name_H-M "C 2/M"
_symmetry_group_IT_number 12
_symmetry_cell_setting 'monoclinic'
loop_
_space_group_symop_operation_xyz
x,y,z
-x,y,-z
-x,-y,-z
x,-y,z
1/2+x,1/2+y,z
1/2-x,1/2+y,-z
1/2-x,1/2-y,-z
1/2+x,1/2-y,z
loop_
_atom_site_type_symbol
_atom_site_label
_atom_site_fract_x
_atom_site_fract_y
_atom_site_fract_z
Si Si1 0.720639 0.324993 0.134301
Si Si2 0.021916 0.162769 0.376916
Si Si3 0.112628 0.665277 0.744111
Si Si4 0.107586 0.666457 0.505534
Si Si5 0.846703 0.675147 0.003548
Si Si6 0.769071 0.164872 0.612852
Si Si7 0.025497 0.678375 0.127501
Si Si8 0.111000 0.334963 0.253737
O O1 0.715726 0.500000 0.142063
O O2 0.825343 0.286265 0.069390
O O3 0.621341 0.265050 0.128380
O O4 0.700952 0.247469 0.194306
O O5 0.117482 0.150729 0.390717
O O6 0.073747 0.248051 0.314476
O O7 0.927770 0.249734 0.432771
O O8 0.988010 0.000000 0.371387
O O9 0.156616 0.500000 0.738353
O O10 0.190000 0.735596 0.678747
O O11 0.082321 0.721683 0.809936
O O12 0.996516 0.657747 0.750233
O O13 0.135711 0.500000 0.508427
O O14 0.201470 0.745264 0.446309
O O15 0.000000 0.665111 0.500000
O O16 0.833001 0.500000 0.005213
O O17 0.750000 0.750000 0.000000
O O18 0.953684 0.707317 0.939121
O O19 0.729380 0.000000 0.611984
O O20 0.035729 0.500000 0.131381
O O21 0.143702 0.500000 0.256785
#
# Coordination Sequence:
#
# PCOD9178766 Si02
#       8
#     8   8   8   8   8   8   8   8
#     4   9  15  23  36  57  85 114 145 181 219 256
#     4  10  19  31  49  70  90 113 143 181 220 258
#     4   8  15  28  46  66  89 118 147 177 216 261
#     4   9  17  30  48  69  91 114 143 179 216 255
#     4   8  13  20  33  54  80 110 143 179 215 253
#     4   9  17  31  50  70  90 113 144 180 218 258
#     4   8  13  23  38  57  83 115 147 177 215 259
#     4  10  19  31  46  64  90 121 149 178 216 263
#
# _framework density 21.724525
#
# number of rings (size 3 to 8) (size 9 to 14) (size 15 to 20)
#    0.000    3.125    0.000    2.250    0.000    2.500 
#    0.000    3.750    0.000    0.000    0.000    0.875 
#    0.000    7.000    0.000    0.000    0.000    0.000 
#
# Total GULP energy -178262.276966 kJ/mol
# GULP energy per Si atom -5570.696155 kJ/mol
# Density = 2.167508 g / cm^3
# Si number density = 21.724525 Si / 1000 Ang^3
#
#
#
# Elastic Constant Matrix: (Units=GPa)
#
#
# Indices 1 2 3 4 5 6 
#
# 1 52.7731 8.4018 9.1283 0.0000 -8.3346 0.0000
# 2 8.4018 106.7720 103.8613 0.0000 2.1757 0.0000
# 3 9.1283 103.8613 299.5086 0.0000 -29.1173 0.0000
# 4 0.0000 0.0000 0.0000 21.8966 0.0000 3.4089
# 5 -8.3346 2.1757 -29.1173 0.0000 31.0233 0.0000
# 6 0.0000 0.0000 0.0000 3.4089 0.0000 0.0393
#
#
#
# Elastic Compliance Matrix: (Units=1/GPa)
#
#
# Indices 1 2 3 4 5 6 
#
# 1 0.020231 -0.002622 0.000923 0.000000 0.006486 0.000000
# 2 -0.002622 0.015627 -0.006068 0.000000 -0.007496 0.000000
# 3 0.000923 -0.006068 0.006031 0.000000 0.006334 0.000000
# 4 0.000000 0.000000 0.000000 -0.003656 0.000000 0.316831
# 5 0.006486 -0.007496 0.006334 0.000000 0.040447 0.000000
# 6 0.000000 0.000000 0.000000 0.316831 0.000000 -2.035111
#
#
# Mechanical properties :
#
#
# Convention : Reuss Voigt Hill
#
# Bulk Modulus (GPa) = 37.94300 77.98182 57.96241
# Shear Modulus (GPa) = -2.58784 33.10266 15.25741
#
# Velocity S-wave (km/s) = -1.09261 3.90775 2.65299
# Velocity P-wave (km/s) = 3.98895 7.50562 6.01025
#
# Compressibility (1/GPa) = 0.02635532
#
# Stress axis : x y z
#
# Youngs Moduli (GPa) = 49.42875 63.99059 165.82147
#
# Poissons Ratio (x) = 0.16779 -0.15309
# Poissons Ratio (y) = 0.12961 1.00619
# Poissons Ratio (z) = -0.04563 0.38829
#
# Static dielectric constant tensor:
#      x y z
#    x 1.900530 0.000000 0.023240 
#    y 0.000000 1.759680 0.000000 
#    z 0.023240 0.000000 1.860150 
# 
# From -- ./inp_files/365170.got.cif
#   From: 2010.05.17/outbox.cif.g08.bks.cpg/sg12_183_cif.got.tgz:365170.got - 2010.06.03 13:09:07.
