data_PCOD9178586
_publ_section_title
;
Structure prediction by ZEFSAII (Michael W. Deem and Ramdas Pophale) SiO2 
 PCOD9178586
Probable space group: C 2/M
;
_chemical_formula_sum "Si O2"
_cell_formula_units_Z 40
_cell_length_a 10.172861
_cell_length_b 33.660871
_cell_length_c 5.312914
_cell_angle_alpha 90.000000
_cell_angle_beta 93.434697
_cell_angle_gamma 90.000000
_cell_volume 1816.019194
_symmetry_space_group_name_H-M "C 2/M"
_symmetry_group_IT_number 12
_symmetry_cell_setting 'monoclinic'
loop_
_space_group_symop_operation_xyz
x,y,z
-x,y,-z
-x,-y,-z
x,-y,z
1/2+x,1/2+y,z
1/2-x,1/2+y,-z
1/2-x,1/2-y,-z
1/2+x,1/2-y,z
loop_
_atom_site_type_symbol
_atom_site_label
_atom_site_fract_x
_atom_site_fract_y
_atom_site_fract_z
Si Si1 0.659352 0.453212 0.285281
Si Si2 0.125719 0.667965 0.658258
Si Si3 0.875289 0.757955 0.334177
Si Si4 0.787440 0.835855 0.162911
Si Si5 0.136539 0.080221 0.781525
O O1 0.674227 0.500000 0.319899
O O2 0.503477 0.442161 0.251259
O O3 0.709906 0.429166 0.530710
O O4 0.712340 0.437954 0.026591
O O5 0.085531 0.713212 0.735210
O O6 0.229466 0.667474 0.439348
O O7 0.000000 0.649715 0.500000
O O8 0.187220 0.652809 0.926249
O O9 0.750000 0.750000 0.500000
O O10 0.840657 0.791116 0.122521
O O11 0.000000 0.774722 0.500000
O O12 0.885594 0.872990 0.187517
#
# Coordination Sequence:
#
# PCOD9178586 Si02
#       5
#     8   8   8   8   8
#     4  10  19  34  51  74 116 154 176 206 275 359
#     4  10  21  39  57  75 107 152 195 240 293 347
#     4   9  20  37  57  80 113 157 203 244 299 351
#     4  11  21  35  55  84 112 139 194 246 289 334
#     4  10  19  30  50  77 110 140 184 218 271 328
#
# _framework density 22.026197
#
# number of rings (size 3 to 8) (size 9 to 14) (size 15 to 20)
#    0.000    2.000    0.000    5.400    2.800    0.000 
#    3.600    6.000    0.000    0.000    0.000    0.000 
#    0.000   92.800    0.000    0.000    0.000    0.000 
#
# Total GULP energy -111423.975200 kJ/mol
# GULP energy per Si atom -5571.198760 kJ/mol
# Density = 2.197606 g / cm^3
# Si number density = 22.026197 Si / 1000 Ang^3
#
#
#
# Elastic Constant Matrix: (Units=GPa)
#
#
# Indices 1 2 3 4 5 6 
#
# 1 38.1429 1.8559 13.6244 0.0000 6.5886 0.0000
# 2 1.8559 94.6101 37.9557 0.0000 2.2567 0.0000
# 3 13.6244 37.9557 166.1558 0.0000 -9.2563 0.0000
# 4 0.0000 0.0000 0.0000 -95.9118 0.0000 187.5770
# 5 6.5886 2.2567 -9.2563 0.0000 23.5632 0.0000
# 6 0.0000 0.0000 0.0000 187.5770 0.0000 -280.0193
#
#
#
# Elastic Compliance Matrix: (Units=1/GPa)
#
#
# Indices 1 2 3 4 5 6 
#
# 1 0.028901 0.000900 -0.003098 0.000000 -0.009384 0.000000
# 2 0.000900 0.011777 -0.002905 0.000000 -0.002521 0.000000
# 3 -0.003098 -0.002905 0.007156 0.000000 0.003956 0.000000
# 4 0.000000 0.000000 0.000000 0.033624 0.000000 0.022524
# 5 -0.009384 -0.002521 0.003956 0.000000 0.046858 0.000000
# 6 0.000000 0.000000 0.000000 0.022524 0.000000 0.011517
#
#
# Mechanical properties :
#
#
# Convention : Reuss Voigt Hill
#
# Bulk Modulus (GPa) = 26.57521 45.08674 35.83098
# Shear Modulus (GPa) = 30.75356 -54.10873 -11.67758
#
# Velocity S-wave (km/s) = 3.74067 -4.96175 -2.30504
# Velocity P-wave (km/s) = 5.54511 3.50874 3.03620
#
# Compressibility (1/GPa) = 0.03762905
#
# Stress axis : x y z
#
# Youngs Moduli (GPa) = 34.60081 84.90818 139.73585
#
# Poissons Ratio (x) = -0.07640 0.43292
# Poissons Ratio (y) = -0.03114 0.40587
# Poissons Ratio (z) = 0.10720 0.24662
#
# Static dielectric constant tensor:
#      x y z
#    x 1.887790 0.000000 0.094640 
#    y 0.000000 1.841560 0.000000 
#    z 0.094640 0.000000 2.197590 
# 
# From -- ./inp_files/8195.got.cif
#   From: 2010.05.17/outbox.cif.g08.bks.cpg/sg12_5_cif.got.tgz:8195.got - 2010.06.03 13:09:07.
