data_PCOD9178978
_publ_section_title
;
Structure prediction by ZEFSAII (Michael W. Deem and Ramdas Pophale) SiO2 
 PCOD9178978
Probable space group: C 2/M
;
_chemical_formula_sum "Si O2"
_cell_formula_units_Z 56
_cell_length_a 24.034739
_cell_length_b 8.544863
_cell_length_c 19.660147
_cell_angle_alpha 90.000000
_cell_angle_beta 51.369470
_cell_angle_gamma 90.000000
_cell_volume 3154.182359
_symmetry_space_group_name_H-M "C 2/M"
_symmetry_group_IT_number 12
_symmetry_cell_setting 'monoclinic'
loop_
_space_group_symop_operation_xyz
x,y,z
-x,y,-z
-x,-y,-z
x,-y,z
1/2+x,1/2+y,z
1/2-x,1/2+y,-z
1/2-x,1/2-y,-z
1/2+x,1/2-y,z
loop_
_atom_site_type_symbol
_atom_site_label
_atom_site_fract_x
_atom_site_fract_y
_atom_site_fract_z
Si Si1 0.689391 0.689006 0.742650
Si Si2 0.996071 0.313842 0.219563
Si Si3 0.657627 0.189123 0.335297
Si Si4 0.463701 0.187864 0.096412
Si Si5 0.546892 0.314614 0.311451
Si Si6 0.156451 0.184165 0.620903
Si Si7 0.893481 0.313207 0.474967
O O1 0.686280 0.500000 0.742653
O O2 0.759440 0.734722 0.730578
O O3 0.615760 0.749871 0.829586
O O4 0.697113 0.740878 0.657534
O O5 0.981157 0.500000 0.237130
O O6 0.052941 0.265549 0.232688
O O7 0.008669 0.278282 0.130766
O O8 0.925363 0.217777 0.294059
O O9 0.608596 0.263266 0.315434
O O10 0.630808 0.233455 0.431330
O O11 0.652587 0.000000 0.334217
O O12 0.458648 0.000000 0.095123
O O13 0.500000 0.248466 0.000000
O O14 0.545508 0.500000 0.304571
O O15 0.470912 0.258896 0.400127
O O16 0.160501 0.265732 0.544590
O O17 0.168837 0.000000 0.602443
O O18 0.900173 0.500000 0.468198
#
# Coordination Sequence:
#
# PCOD9178978 Si02
#       7
#     8   8   8   8   8   8   8
#     4   9  19  34  50  71  99 130 161 194 239 291
#     4   9  16  29  50  72  96 127 157 188 233 285
#     4  10  21  35  48  65  95 133 169 203 240 285
#     4   9  18  33  55  82 105 123 149 189 236 288
#     4  11  21  32  48  70  96 126 166 211 243 274
#     4   9  16  28  46  68  96 125 157 201 242 278
#     4  10  19  31  48  68  92 128 170 207 243 282
#
# _framework density 17.754204999999999
#
# number of rings (size 3 to 8) (size 9 to 14) (size 15 to 20)
#    0.000    2.429    0.000    4.714    0.000    5.429 
#    0.000    0.000    0.000    0.857    0.000    0.000 
#    0.000    0.000    0.000    0.000    0.000    0.000 
#
# Total GULP energy -156119.143283 kJ/mol
# GULP energy per Si atom -5575.683689 kJ/mol
# Density = 1.771380 g / cm^3
# Si number density = 17.754205 Si / 1000 Ang^3
#
#
#
# Elastic Constant Matrix: (Units=GPa)
#
#
# Indices 1 2 3 4 5 6 
#
# 1 107.0695 22.5671 60.1763 0.0005 10.0852 -0.0001
# 2 22.5671 31.5594 22.0440 0.0002 4.3860 -0.0002
# 3 60.1763 22.0440 112.5562 -0.0002 19.5997 -0.0001
# 4 0.0005 0.0002 -0.0002 -19.4602 0.0001 8.8541
# 5 10.0852 4.3860 19.5997 0.0001 17.6470 0.0002
# 6 -0.0001 -0.0002 -0.0001 8.8541 0.0002 23.3924
#
#
#
# Elastic Compliance Matrix: (Units=1/GPa)
#
#
# Indices 1 2 3 4 5 6 
#
# 1 0.014164 -0.005618 -0.006578 0.000000 0.000608 0.000000
# 2 -0.005618 0.038964 -0.004340 0.000000 -0.001654 0.000000
# 3 -0.006578 -0.004340 0.015384 0.000000 -0.012248 0.000000
# 4 0.000000 0.000000 0.000000 -0.043838 0.000000 0.016593
# 5 0.000608 -0.001654 -0.012248 0.000000 0.070335 -0.000001
# 6 0.000000 0.000000 0.000000 0.016593 -0.000001 0.036468
#
#
# Mechanical properties :
#
#
# Convention : Reuss Voigt Hill
#
# Bulk Modulus (GPa) = 28.21566 51.19552 39.70559
# Shear Modulus (GPa) = 28.35082 14.07569 21.21325
#
# Velocity S-wave (km/s) = 4.00040 2.81874 3.46038
# Velocity P-wave (km/s) = 6.10446 6.28427 6.19502
#
# Compressibility (1/GPa) = 0.03544131
#
# Stress axis : x y z
#
# Youngs Moduli (GPa) = 70.60398 25.66446 65.00267
#
# Poissons Ratio (x) = 0.14418 0.42758
# Poissons Ratio (y) = 0.39663 0.28209
# Poissons Ratio (z) = 0.46442 0.11138
#
# Static dielectric constant tensor:
#      x y z
#    x 1.633430 0.000000 0.025300 
#    y 0.000000 1.601860 0.000000 
#    z 0.025300 0.000000 1.613460 
# 
# From -- ./inp_files/287365.got.cif
#   From: 2010.05.17/outbox.cif.g08.bks.cpg/sg12_144_cif.got.tgz:287365.got - 2010.06.03 13:09:07.
