data_PCOD9178090
_publ_section_title
;
Structure prediction by ZEFSAII (Michael W. Deem and Ramdas Pophale) SiO2 
 PCOD9178090
Probable space group: C 2/M
;
_chemical_formula_sum "Si O2"
_cell_formula_units_Z 56
_cell_length_a 16.256742
_cell_length_b 7.457338
_cell_length_c 26.927770
_cell_angle_alpha 90.000000
_cell_angle_beta 39.199184
_cell_angle_gamma 90.000000
_cell_volume 2063.228652
_symmetry_space_group_name_H-M "C 2/M"
_symmetry_group_IT_number 12
_symmetry_cell_setting 'monoclinic'
loop_
_space_group_symop_operation_xyz
x,y,z
-x,y,-z
-x,-y,-z
x,-y,z
1/2+x,1/2+y,z
1/2-x,1/2+y,-z
1/2-x,1/2-y,-z
1/2+x,1/2-y,z
loop_
_atom_site_type_symbol
_atom_site_label
_atom_site_fract_x
_atom_site_fract_y
_atom_site_fract_z
Si Si1 0.966150 0.719759 0.233872
Si Si2 0.185575 0.781675 0.380425
Si Si3 0.712301 0.293119 0.811224
Si Si4 0.923693 0.294603 0.914793
Si Si5 0.352973 0.216012 0.051865
Si Si6 0.490134 0.786516 0.675117
Si Si7 0.404070 0.714803 0.473740
O O1 0.972160 0.500000 0.229917
O O2 0.817264 0.773430 0.291922
O O3 0.064713 0.787191 0.145586
O O4 0.984025 0.781139 0.281776
O O5 0.049382 0.721568 0.421389
O O6 0.184847 0.724527 0.438879
O O7 0.183833 0.000000 0.380993
O O8 0.696481 0.500000 0.804926
O O9 0.576390 0.202080 0.860909
O O10 0.730320 0.286180 0.863121
O O11 0.846903 0.215391 0.726948
O O12 0.883628 0.500000 0.929282
O O13 0.845496 0.217174 0.998434
O O14 0.343232 0.000000 0.056104
O O15 0.500000 0.263527 0.000000
O O16 0.600739 0.760593 0.581977
O O17 0.475509 0.000000 0.686422
O O18 0.400830 0.500000 0.477032
#
# Coordination Sequence:
#
# PCOD9178090 Si02
#       7
#     8   8   8   8   8   8   8
#     4   9  17  31  49  67  93 128 159 187 226 277
#     4   8  15  29  51  75  93 116 155 197 232 271
#     4  10  19  30  46  69  97 125 152 188 235 281
#     4   9  17  31  53  74  89 116 160 200 229 266
#     4   8  15  28  47  72  94 114 152 198 232 269
#     4  10  21  33  45  67  98 129 158 186 225 281
#     4   9  17  31  52  75  94 115 153 200 237 270
#
# _framework density 27.141925000000001
#
# number of rings (size 3 to 8) (size 9 to 14) (size 15 to 20)
#    0.000    3.000    0.000    3.000    0.000    5.429 
#    0.000    2.857    0.000    1.714    0.000    0.000 
#    0.000    0.000    0.000    0.000    0.000    0.000 
#
# Total GULP energy -156540.113548 kJ/mol
# GULP energy per Si atom -5590.718341 kJ/mol
# Density = 2.708015 g / cm^3
# Si number density = 27.141925 Si / 1000 Ang^3
#
#
#
# Elastic Constant Matrix: (Units=GPa)
#
#
# Indices 1 2 3 4 5 6 
#
# 1 86.8674 7.3698 28.2185 0.0001 27.4766 0.0004
# 2 7.3698 96.8255 3.9525 0.0000 -0.8002 0.0007
# 3 28.2185 3.9525 193.4116 0.0000 28.0215 0.0000
# 4 0.0001 0.0000 0.0000 20.4217 -0.0001 8.0608
# 5 27.4766 -0.8002 28.0215 -0.0001 58.3957 0.0000
# 6 0.0004 0.0007 0.0000 8.0608 0.0000 12.4205
#
#
#
# Elastic Compliance Matrix: (Units=1/GPa)
#
#
# Indices 1 2 3 4 5 6 
#
# 1 0.013866 -0.001059 -0.001133 0.000000 -0.005995 0.000000
# 2 -0.001059 0.010421 -0.000163 0.000000 0.000719 -0.000001
# 3 -0.001133 -0.000163 0.005655 0.000000 -0.002183 0.000000
# 4 0.000000 0.000000 0.000000 0.065832 0.000000 -0.042725
# 5 -0.005995 0.000719 -0.002183 0.000000 0.021003 0.000000
# 6 0.000000 -0.000001 0.000000 -0.042725 0.000000 0.108240
#
#
# Mechanical properties :
#
#
# Convention : Reuss Voigt Hill
#
# Bulk Modulus (GPa) = 39.62943 50.68736 45.15839
# Shear Modulus (GPa) = 20.99636 40.75182 30.87409
#
# Velocity S-wave (km/s) = 2.78434 3.87904 3.37635
# Velocity P-wave (km/s) = 4.99693 6.22720 5.64568
#
# Compressibility (1/GPa) = 0.02523377
#
# Stress axis : x y z
#
# Youngs Moduli (GPa) = 72.11930 95.95989 176.82918
#
# Poissons Ratio (x) = 0.10159 0.20031
# Poissons Ratio (y) = 0.07635 0.02876
# Poissons Ratio (z) = 0.08170 0.01561
#
# Static dielectric constant tensor:
#      x y z
#    x 2.240920 0.000000 0.034510 
#    y 0.000000 1.993160 0.000000 
#    z 0.034510 0.000000 2.107120 
# 
# From -- ./inp_files/362887.got.cif
#   From: 2010.05.17/outbox.cif.g08.bks.cpg/sg12_182_cif.got.tgz:362887.got - 2010.06.03 13:09:07.
