data_PCOD9178057
_publ_section_title
;
Structure prediction by ZEFSAII (Michael W. Deem and Ramdas Pophale) SiO2 
 PCOD9178057
Probable space group: C 2/M
;
_chemical_formula_sum "Si O2"
_cell_formula_units_Z 42
_cell_length_a 13.247163
_cell_length_b 9.064976
_cell_length_c 15.345681
_cell_angle_alpha 90.000000
_cell_angle_beta 109.410682
_cell_angle_gamma 90.000000
_cell_volume 1738.046565
_symmetry_space_group_name_H-M "C 2/M"
_symmetry_group_IT_number 12
_symmetry_cell_setting 'monoclinic'
loop_
_space_group_symop_operation_xyz
x,y,z
-x,y,-z
-x,-y,-z
x,-y,z
1/2+x,1/2+y,z
1/2-x,1/2+y,-z
1/2-x,1/2-y,-z
1/2+x,1/2-y,z
loop_
_atom_site_type_symbol
_atom_site_label
_atom_site_fract_x
_atom_site_fract_y
_atom_site_fract_z
Si Si1 0.688743 0.324558 0.403103
Si Si2 0.500000 0.000000 0.500000
Si Si3 0.166750 0.829127 0.204207
Si Si4 0.967224 0.332879 0.341392
Si Si5 0.628470 0.832105 0.019332
Si Si6 0.591429 0.332030 0.836049
O O1 0.699032 0.500000 0.410005
O O2 0.750000 0.250000 0.500000
O O3 0.713106 0.275972 0.310215
O O4 0.564432 0.279038 0.377558
O O5 0.569889 0.127806 0.572072
O O6 0.179525 0.728828 0.122943
O O7 0.037335 0.831684 0.182954
O O8 0.198736 0.000000 0.197949
O O9 0.012022 0.500000 0.332781
O O10 0.895064 0.276988 0.242313
O O11 0.659946 0.000000 0.008648
O O12 0.500000 0.834314 0.000000
O O13 0.641502 0.726852 0.939881
O O14 0.621204 0.500000 0.824209
#
# Coordination Sequence:
#
# PCOD9178057 Si02
#       6
#     8   2   8   8   8   8
#     4  10  19  30  46  68  93 128 158 190 229 275
#     4   8  20  32  50  64  90 128 150 202 238 268
#     4   8  15  25  35  53  85 118 149 177 217 267
#     4   9  17  31  46  64  89 120 156 191 232 275
#     4   9  15  21  33  55  81 115 149 177 215 269
#     4   9  15  24  39  58  83 117 150 182 223 273
#
# _framework density 24.165061999999999
#
# number of rings (size 3 to 8) (size 9 to 14) (size 15 to 20)
#    0.571    2.476    0.000    3.429    0.000    7.619 
#    0.000    1.905    0.000    0.000    0.000    0.000 
#    0.000    1.524    0.762    0.000    0.000    0.000 
#
# Total GULP energy -117027.166507 kJ/mol
# GULP energy per Si atom -5572.722215 kJ/mol
# Density = 2.411006 g / cm^3
# Si number density = 24.165062 Si / 1000 Ang^3
#
#
#
# Elastic Constant Matrix: (Units=GPa)
#
#
# Indices 1 2 3 4 5 6 
#
# 1 59.4384 7.0354 15.4287 0.0000 -1.4416 0.0000
# 2 7.0354 96.1933 51.1932 0.0000 -15.0834 0.0000
# 3 15.4287 51.1932 204.9163 0.0000 17.4614 0.0000
# 4 0.0000 0.0000 0.0000 55.8732 0.0000 -4.6109
# 5 -1.4416 -15.0834 17.4614 0.0000 43.6977 0.0000
# 6 0.0000 0.0000 0.0000 -4.6109 0.0000 23.2388
#
#
#
# Elastic Compliance Matrix: (Units=1/GPa)
#
#
# Indices 1 2 3 4 5 6 
#
# 1 0.017227 -0.000442 -0.001265 0.000000 0.000921 0.000000
# 2 -0.000442 0.013444 -0.003851 0.000000 0.006165 0.000000
# 3 -0.001265 -0.003851 0.006268 0.000000 -0.003875 0.000000
# 4 0.000000 0.000000 0.000000 0.018196 0.000000 0.003610
# 5 0.000921 0.006165 -0.003875 0.000000 0.026591 0.000000
# 6 0.000000 0.000000 0.000000 0.003610 0.000000 0.043748
#
#
# Mechanical properties :
#
#
# Convention : Reuss Voigt Hill
#
# Bulk Modulus (GPa) = 38.72561 56.42920 47.57740
# Shear Modulus (GPa) = 34.43595 43.68798 39.06197
#
# Velocity S-wave (km/s) = 3.77905 4.25655 4.02489
# Velocity P-wave (km/s) = 5.92469 6.89637 6.42891
#
# Compressibility (1/GPa) = 0.02582271
#
# Stress axis : x y z
#
# Youngs Moduli (GPa) = 58.04772 74.38265 159.55296
#
# Poissons Ratio (x) = 0.03290 0.20185
# Poissons Ratio (y) = 0.02567 0.61438
# Poissons Ratio (z) = 0.07344 0.28642
#
# Static dielectric constant tensor:
#      x y z
#    x 2.174230 0.000000 -0.039030 
#    y 0.000000 1.815570 0.000000 
#    z -0.039030 0.000000 1.999510 
# 
# From -- ./inp_files/185547.got.cif
#   From: 2010.05.17/outbox.cif.g08.bks.cpg/sg12_93_cif.got.tgz:185547.got - 2010.06.03 13:09:07.
