data_PCOD9178096
_publ_section_title
;
Structure prediction by ZEFSAII (Michael W. Deem and Ramdas Pophale) SiO2 
 PCOD9178096
Probable space group: C 2/M
;
_chemical_formula_sum "Si O2"
_cell_formula_units_Z 56
_cell_length_a 23.462542
_cell_length_b 20.956911
_cell_length_c 16.981683
_cell_angle_alpha 90.000000
_cell_angle_beta 159.450880
_cell_angle_gamma 90.000000
_cell_volume 2930.912690
_symmetry_space_group_name_H-M "C 2/M"
_symmetry_group_IT_number 12
_symmetry_cell_setting 'monoclinic'
loop_
_space_group_symop_operation_xyz
x,y,z
-x,y,-z
-x,-y,-z
x,-y,z
1/2+x,1/2+y,z
1/2-x,1/2+y,-z
1/2-x,1/2-y,-z
1/2+x,1/2-y,z
loop_
_atom_site_type_symbol
_atom_site_label
_atom_site_fract_x
_atom_site_fract_y
_atom_site_fract_z
Si Si1 0.119689 0.849918 0.217753
Si Si2 0.333711 0.744977 0.438907
Si Si3 0.820480 0.790132 0.163631
Si Si4 0.929394 0.278341 0.020371
Si Si5 0.811598 0.427138 0.779184
Si Si6 0.238220 0.850251 0.536314
Si Si7 0.824064 0.073750 0.230908
O O1 0.275973 0.817563 0.377082
O O2 0.178322 0.878789 0.376340
O O3 0.014921 0.788917 0.111434
O O4 0.000000 0.883582 0.000000
O O5 0.491298 0.731250 0.591133
O O6 0.355609 0.713105 0.553259
O O7 0.178594 0.709731 0.198099
O O8 0.815943 0.868083 0.158065
O O9 0.750000 0.750000 0.000000
O O10 0.705586 0.771829 0.087418
O O11 0.075686 0.326165 0.230148
O O12 0.755182 0.500000 0.708585
O O13 0.718516 0.396218 0.585468
O O14 0.789033 0.407550 0.840993
O O15 0.000000 0.424879 0.000000
O O16 0.000000 0.075325 0.500000
O O17 0.792469 0.000000 0.164266
#
# Coordination Sequence:
#
# PCOD9178096 Si02
#       7
#     8   8   8   8   8   8   8
#     4   9  19  32  45  66  95 130 166 200 249 311
#     4  10  19  30  46  69  97 127 163 206 254 306
#     4  12  21  30  47  74 104 135 172 212 256 308
#     4  10  19  30  46  69  98 129 161 209 261 303
#     4  10  20  32  49  73  97 126 167 210 253 305
#     4  11  17  30  50  66  91 128 166 202 248 307
#     4  10  21  36  51  70 103 142 174 211 264 318
#
# _framework density 19.106674999999999
#
# number of rings (size 3 to 8) (size 9 to 14) (size 15 to 20)
#    0.000    1.714    0.000    9.429    0.000    0.000 
#    0.000    0.000    0.000    0.429    0.000    0.000 
#    0.000    7.429    0.000    0.000    0.000   76.286 
#
# Total GULP energy -155948.828462 kJ/mol
# GULP energy per Si atom -5569.601017 kJ/mol
# Density = 1.906319 g / cm^3
# Si number density = 19.106675 Si / 1000 Ang^3
#
#
#
# Elastic Constant Matrix: (Units=GPa)
#
#
# Indices 1 2 3 4 5 6 
#
# 1 104.5403 23.2402 35.7602 0.0000 1.3763 0.0000
# 2 23.2402 63.5268 11.3461 0.0000 -10.5256 0.0000
# 3 35.7602 11.3461 70.9967 0.0000 2.8921 0.0000
# 4 0.0000 0.0000 0.0000 14.9845 0.0000 -4.9642
# 5 1.3763 -10.5256 2.8921 0.0000 53.8525 0.0000
# 6 0.0000 0.0000 0.0000 -4.9642 0.0000 27.3332
#
#
#
# Elastic Compliance Matrix: (Units=1/GPa)
#
#
# Indices 1 2 3 4 5 6 
#
# 1 0.012289 -0.003618 -0.005582 0.000000 -0.000721 0.000000
# 2 -0.003618 0.017881 -0.001184 0.000000 0.003651 0.000000
# 3 -0.005582 -0.001184 0.017127 0.000000 -0.001009 0.000000
# 4 0.000000 0.000000 0.000000 0.071008 0.000000 0.012896
# 5 -0.000721 0.003651 -0.001009 0.000000 0.019355 0.000000
# 6 0.000000 0.000000 0.000000 0.012896 0.000000 0.038928
#
#
# Mechanical properties :
#
#
# Convention : Reuss Voigt Hill
#
# Bulk Modulus (GPa) = 37.69484 42.19522 39.94503
# Shear Modulus (GPa) = 24.24822 30.48186 27.36504
#
# Velocity S-wave (km/s) = 3.56630 3.99852 3.78858
# Velocity P-wave (km/s) = 6.06048 6.59162 6.33163
#
# Compressibility (1/GPa) = 0.02652883
#
# Stress axis : x y z
#
# Youngs Moduli (GPa) = 81.37306 55.92387 58.38682
#
# Poissons Ratio (x) = 0.20235 0.32593
# Poissons Ratio (y) = 0.29443 0.06912
# Poissons Ratio (z) = 0.45424 0.06621
#
# Static dielectric constant tensor:
#      x y z
#    x 1.723030 0.000000 -0.018440 
#    y 0.000000 1.736980 0.000000 
#    z -0.018440 0.000000 1.745530 
# 
# From -- ./inp_files/291042.got.cif
#   From: 2010.05.17/outbox.cif.g08.bks.cpg/sg12_146_cif.got.tgz:291042.got - 2010.06.03 13:09:07.
