data_PCOD9178520
_publ_section_title
;
Structure prediction by ZEFSAII (Michael W. Deem and Ramdas Pophale) SiO2 
 PCOD9178520
Probable space group: C 2/M
;
_chemical_formula_sum "Si O2"
_cell_formula_units_Z 48
_cell_length_a 23.683352
_cell_length_b 9.478070
_cell_length_c 21.014897
_cell_angle_alpha 90.000000
_cell_angle_beta 38.881722
_cell_angle_gamma 90.000000
_cell_volume 2961.097355
_symmetry_space_group_name_H-M "C 2/M"
_symmetry_group_IT_number 12
_symmetry_cell_setting 'monoclinic'
loop_
_space_group_symop_operation_xyz
x,y,z
-x,y,-z
-x,-y,-z
x,-y,z
1/2+x,1/2+y,z
1/2-x,1/2+y,-z
1/2-x,1/2-y,-z
1/2+x,1/2-y,z
loop_
_atom_site_type_symbol
_atom_site_label
_atom_site_fract_x
_atom_site_fract_y
_atom_site_fract_z
Si Si1 0.067329 0.668012 0.883580
Si Si2 0.546832 0.834379 0.650082
Si Si3 0.278585 0.839134 0.579405
Si Si4 0.061114 0.668435 0.384575
Si Si5 0.065275 0.836637 0.756209
Si Si6 0.723558 0.667392 0.292201
O O1 0.061685 0.500000 0.874993
O O2 0.045866 0.754723 0.838715
O O3 0.170907 0.697539 0.812243
O O4 0.000000 0.701237 0.000000
O O5 0.651287 0.815281 0.538471
O O6 0.491020 0.800765 0.635201
O O7 0.525145 0.740334 0.729935
O O8 0.533724 0.000000 0.676423
O O9 0.174141 0.831848 0.653290
O O10 0.294895 0.728759 0.621223
O O11 0.296782 0.000000 0.587256
O O12 0.076694 0.500000 0.373514
O O13 0.154052 0.752350 0.308085
O O14 0.000000 0.704628 0.500000
O O15 0.038696 0.000000 0.783511
O O16 0.709836 0.500000 0.301892
#
# Coordination Sequence:
#
# PCOD9178520 Si02
#       6
#     8   8   8   8   8   8
#     4   9  19  37  58  76  97 128 164 204 255 311
#     4  10  19  31  48  67  97 141 175 196 232 294
#     4   9  17  31  47  66  98 138 170 197 237 296
#     4  10  19  33  50  68  99 143 178 200 233 291
#     4  10  20  31  48  75 103 127 160 210 257 291
#     4  10  19  30  49  77 102 126 164 213 252 284
#
# _framework density 16.210207
#
# number of rings (size 3 to 8) (size 9 to 14) (size 15 to 20)
#    0.000    2.333    1.667    1.500    0.000    3.333 
#    0.000    0.000    0.000    1.000    0.000    0.000 
#    0.000    0.000    0.000    0.000    0.000    0.000 
#
# Total GULP energy -133821.329165 kJ/mol
# GULP energy per Si atom -5575.888715 kJ/mol
# Density = 1.617331 g / cm^3
# Si number density = 16.210207 Si / 1000 Ang^3
#
#
#
# Elastic Constant Matrix: (Units=GPa)
#
#
# Indices 1 2 3 4 5 6 
#
# 1 97.0007 65.9602 52.7708 0.0000 21.1216 0.0000
# 2 65.9602 75.2995 62.7136 0.0002 14.4134 0.0000
# 3 52.7708 62.7136 90.6764 0.0002 14.7565 -0.0001
# 4 0.0000 0.0002 0.0002 20.3913 -0.0001 1.1955
# 5 21.1216 14.4134 14.7565 -0.0001 16.0537 0.0000
# 6 0.0000 0.0000 -0.0001 1.1955 0.0000 31.6081
#
#
#
# Elastic Compliance Matrix: (Units=1/GPa)
#
#
# Indices 1 2 3 4 5 6 
#
# 1 0.029953 -0.025035 0.003103 0.000000 -0.019783 0.000000
# 2 -0.025035 0.053574 -0.023537 0.000000 0.006473 0.000000
# 3 0.003103 -0.023537 0.026724 0.000000 -0.007515 0.000000
# 4 0.000000 0.000000 0.000000 0.049150 0.000000 -0.001859
# 5 -0.019783 0.006473 -0.007515 0.000000 0.089416 0.000000
# 6 0.000000 0.000000 0.000000 -0.001859 0.000000 0.031708
#
#
# Mechanical properties :
#
#
# Convention : Reuss Voigt Hill
#
# Bulk Modulus (GPa) = 51.77949 69.54065 60.66007
# Shear Modulus (GPa) = 13.23104 19.04606 16.13855
#
# Velocity S-wave (km/s) = 2.86005 3.43146 3.15870
# Velocity P-wave (km/s) = 6.55121 7.66109 7.12779
#
# Compressibility (1/GPa) = 0.01931266
#
# Stress axis : x y z
#
# Youngs Moduli (GPa) = 33.38590 18.66583 37.41972
#
# Poissons Ratio (x) = 0.46730 -0.11610
# Poissons Ratio (y) = 0.83582 0.88073
# Poissons Ratio (z) = -0.10359 0.43933
#
# Static dielectric constant tensor:
#      x y z
#    x 1.548810 0.000000 -0.014750 
#    y 0.000000 1.545110 0.000000 
#    z -0.014750 0.000000 1.523340 
# 
# From -- ./inp_files/172955.got.cif
#   From: 2010.05.17/outbox.cif.g08.bks.cpg/sg12_87_cif.got.tgz:172955.got - 2010.06.03 13:09:07.
