data_PCOD9178311
_publ_section_title
;
Structure prediction by ZEFSAII (Michael W. Deem and Ramdas Pophale) SiO2 
 PCOD9178311
Probable space group: C 2/M
;
_chemical_formula_sum "Si O2"
_cell_formula_units_Z 56
_cell_length_a 19.940806
_cell_length_b 8.835515
_cell_length_c 22.489983
_cell_angle_alpha 90.000000
_cell_angle_beta 125.232041
_cell_angle_gamma 90.000000
_cell_volume 3236.617309
_symmetry_space_group_name_H-M "C 2/M"
_symmetry_group_IT_number 12
_symmetry_cell_setting 'monoclinic'
loop_
_space_group_symop_operation_xyz
x,y,z
-x,y,-z
-x,-y,-z
x,-y,z
1/2+x,1/2+y,z
1/2-x,1/2+y,-z
1/2-x,1/2-y,-z
1/2+x,1/2-y,z
loop_
_atom_site_type_symbol
_atom_site_label
_atom_site_fract_x
_atom_site_fract_y
_atom_site_fract_z
Si Si1 0.193635 0.817161 0.920088
Si Si2 0.339168 0.181284 0.758268
Si Si3 0.534577 0.681593 0.680987
Si Si4 0.718089 0.684136 0.797545
Si Si5 0.766234 0.819593 0.602895
Si Si6 0.491991 0.681384 0.193581
Si Si7 0.622565 0.180154 0.444666
O O1 0.221250 0.767746 0.867924
O O2 0.097562 0.774480 0.876729
O O3 0.197408 0.000000 0.923740
O O4 0.250000 0.750000 0.000000
O O5 0.292618 0.233044 0.794116
O O6 0.288304 0.240942 0.675666
O O7 0.431271 0.241755 0.798436
O O8 0.340148 0.000000 0.757694
O O9 0.529709 0.500000 0.671257
O O10 0.629647 0.729017 0.725141
O O11 0.508767 0.716387 0.736147
O O12 0.470095 0.760946 0.604889
O O13 0.717172 0.500000 0.798021
O O14 0.675476 0.786706 0.530790
O O15 0.828858 0.760602 0.584428
O O16 0.776169 0.000000 0.613844
O O17 0.499799 0.500000 0.192692
O O18 0.624836 0.000000 0.436316
#
# Coordination Sequence:
#
# PCOD9178311 Si02
#       7
#     8   8   8   8   8   8   8
#     4   9  18  36  59  80 104 133 167 205 246 299
#     4  11  20  32  52  77 103 132 174 216 248 297
#     4   9  16  31  53  71  95 134 174 211 255 303
#     4   8  18  35  53  75 104 138 168 203 254 304
#     4  10  20  32  46  68 103 139 167 208 266 308
#     4   9  18  32  52  76 102 134 167 205 256 302
#     4  10  19  30  47  73  99 128 174 222 256 295
#
# _framework density 17.302012999999999
#
# number of rings (size 3 to 8) (size 9 to 14) (size 15 to 20)
#    0.000    2.571    1.429    3.000    0.000    2.286 
#    0.000    6.429    0.000    8.571    0.000    0.000 
#    0.000    0.000    0.000    0.000    0.000    0.000 
#
# Total GULP energy -156126.018774 kJ/mol
# GULP energy per Si atom -5575.929242 kJ/mol
# Density = 1.726263 g / cm^3
# Si number density = 17.302013 Si / 1000 Ang^3
#
#
#
# Elastic Constant Matrix: (Units=GPa)
#
#
# Indices 1 2 3 4 5 6 
#
# 1 129.2014 37.0663 66.2417 0.0000 9.5452 0.0000
# 2 37.0663 27.2067 35.6474 0.0000 8.2323 0.0000
# 3 66.2417 35.6474 130.9671 0.0000 18.3902 0.0000
# 4 0.0000 0.0000 0.0000 31.3514 0.0000 5.4731
# 5 9.5452 8.2323 18.3902 0.0000 18.8772 0.0000
# 6 0.0000 0.0000 0.0000 5.4731 0.0000 21.9525
#
#
#
# Elastic Compliance Matrix: (Units=1/GPa)
#
#
# Indices 1 2 3 4 5 6 
#
# 1 0.013456 -0.015150 -0.003075 0.000000 0.002799 0.000000
# 2 -0.015150 0.076351 -0.011028 0.000000 -0.014893 0.000000
# 3 -0.003075 -0.011028 0.013090 0.000000 -0.006388 0.000000
# 4 0.000000 0.000000 0.000000 0.033348 0.000000 -0.008314
# 5 0.002799 -0.014893 -0.006388 0.000000 0.064276 0.000000
# 6 0.000000 0.000000 0.000000 -0.008314 0.000000 0.047626
#
#
# Mechanical properties :
#
#
# Convention : Reuss Voigt Hill
#
# Bulk Modulus (GPa) = 22.52728 62.80955 42.66841
# Shear Modulus (GPa) = 15.55451 24.33089 19.94270
#
# Velocity S-wave (km/s) = 3.00159 3.75406 3.39871
# Velocity P-wave (km/s) = 5.00609 7.42774 6.33373
#
# Compressibility (1/GPa) = 0.04439062
#
# Stress axis : x y z
#
# Youngs Moduli (GPa) = 74.31533 13.09735 76.39680
#
# Poissons Ratio (x) = 0.19843 0.23495
# Poissons Ratio (y) = 1.12588 0.84249
# Poissons Ratio (z) = 0.22855 0.14444
#
# Static dielectric constant tensor:
#      x y z
#    x 1.589650 0.000000 0.015310 
#    y 0.000000 1.581160 0.000000 
#    z 0.015310 0.000000 1.581290 
# 
# From -- ./inp_files/345663.got.cif
#   From: 2010.05.17/outbox.cif.g08.bks.cpg/sg12_173_cif.got.tgz:345663.got - 2010.06.03 13:09:07.
