data_PCOD9178536
_publ_section_title
;
Structure prediction by ZEFSAII (Michael W. Deem and Ramdas Pophale) SiO2 
 PCOD9178536
Probable space group: C 2/M
;
_chemical_formula_sum "Si O2"
_cell_formula_units_Z 56
_cell_length_a 30.138638
_cell_length_b 7.784435
_cell_length_c 14.550437
_cell_angle_alpha 90.000000
_cell_angle_beta 120.682974
_cell_angle_gamma 90.000000
_cell_volume 2935.804960
_symmetry_space_group_name_H-M "C 2/M"
_symmetry_group_IT_number 12
_symmetry_cell_setting 'monoclinic'
loop_
_space_group_symop_operation_xyz
x,y,z
-x,y,-z
-x,-y,-z
x,-y,z
1/2+x,1/2+y,z
1/2-x,1/2+y,-z
1/2-x,1/2-y,-z
1/2+x,1/2-y,z
loop_
_atom_site_type_symbol
_atom_site_label
_atom_site_fract_x
_atom_site_fract_y
_atom_site_fract_z
Si Si1 0.586919 0.792134 0.348144
Si Si2 0.528411 0.798964 0.750134
Si Si3 0.846569 0.197665 0.417282
Si Si4 0.129589 0.292912 0.198341
Si Si5 0.757903 0.292041 0.616318
Si Si6 0.943689 0.800125 0.410991
Si Si7 0.043120 0.200164 0.973853
O O1 0.530588 0.736614 0.320249
O O2 0.629550 0.705207 0.455526
O O3 0.595274 0.749371 0.251147
O O4 0.591429 0.000000 0.361785
O O5 0.560219 0.710134 0.703188
O O6 0.529335 0.000000 0.729579
O O7 0.542755 0.777960 0.871768
O O8 0.789802 0.274126 0.372244
O O9 0.892483 0.277097 0.404163
O O10 0.839698 0.000000 0.379526
O O11 0.130741 0.500000 0.190722
O O12 0.187241 0.234071 0.284680
O O13 0.098988 0.221059 0.079410
O O14 0.757586 0.500000 0.620218
O O15 0.750000 0.250000 0.500000
O O16 0.000000 0.726267 0.500000
O O17 0.944785 0.000000 0.441411
O O18 0.030809 0.000000 0.948907
O O19 0.000000 0.273026 0.000000
#
# Coordination Sequence:
#
# PCOD9178536 Si02
#       7
#     8   8   8   8   8   8   8
#     4  10  19  30  49  77 108 140 173 211 254 307
#     4  11  22  35  53  77 107 141 176 215 260 311
#     4  10  20  33  51  76 108 143 177 214 258 307
#     4  10  20  35  52  75 109 143 175 212 259 312
#     4  10  20  33  52  78 107 141 176 214 260 308
#     4  10  20  34  52  76 107 142 177 216 262 309
#     4  11  23  36  54  79 106 138 175 215 262 315
#
# _framework density 19.074836000000001
#
# number of rings (size 3 to 8) (size 9 to 14) (size 15 to 20)
#    0.000    1.714    4.286    0.857    0.000    3.143 
#    0.000    0.000    0.000    0.857    0.000    0.000 
#    0.000    0.000    0.000    0.000    0.000    0.000 
#
# Total GULP energy -156193.394630 kJ/mol
# GULP energy per Si atom -5578.335523 kJ/mol
# Density = 1.903142 g / cm^3
# Si number density = 19.074836 Si / 1000 Ang^3
#
#
#
# Elastic Constant Matrix: (Units=GPa)
#
#
# Indices 1 2 3 4 5 6 
#
# 1 127.1086 5.2654 31.7503 0.0000 5.4229 0.0000
# 2 5.2654 28.5447 -4.2140 0.0000 0.1904 0.0000
# 3 31.7503 -4.2140 78.8187 0.0000 3.6420 0.0000
# 4 0.0000 0.0000 0.0000 21.3341 0.0000 -3.9395
# 5 5.4229 0.1904 3.6420 0.0000 30.2029 0.0000
# 6 0.0000 0.0000 0.0000 -3.9395 0.0000 9.7734
#
#
#
# Elastic Compliance Matrix: (Units=1/GPa)
#
#
# Indices 1 2 3 4 5 6 
#
# 1 0.008920 -0.002178 -0.003657 0.000000 -0.001147 0.000000
# 2 -0.002178 0.035849 0.002802 0.000000 -0.000173 0.000000
# 3 -0.003657 0.002802 0.014361 0.000000 -0.001093 0.000000
# 4 0.000000 0.000000 0.000000 0.050643 0.000000 0.020413
# 5 -0.001147 -0.000173 -0.001093 0.000000 0.033448 0.000000
# 6 0.000000 0.000000 0.000000 0.020413 0.000000 0.110546
#
#
# Mechanical properties :
#
#
# Convention : Reuss Voigt Hill
#
# Bulk Modulus (GPa) = 18.84478 33.34171 26.09325
# Shear Modulus (GPa) = 18.01673 25.70676 21.86175
#
# Velocity S-wave (km/s) = 3.07665 3.67506 3.38909
# Velocity P-wave (km/s) = 4.74572 5.96032 5.38736
#
# Compressibility (1/GPa) = 0.05306509
#
# Stress axis : x y z
#
# Youngs Moduli (GPa) = 112.11033 27.89462 69.63499
#
# Poissons Ratio (x) = 0.06074 0.25462
# Poissons Ratio (y) = 0.24412 -0.19510
# Poissons Ratio (z) = 0.40994 -0.07816
#
# Static dielectric constant tensor:
#      x y z
#    x 1.704580 0.000000 0.016380 
#    y 0.000000 1.711670 0.000000 
#    z 0.016380 0.000000 1.642140 
# 
# From -- ./inp_files/180648.got.cif
#   From: 2010.05.17/outbox.cif.g08.bks.cpg/sg12_91_cif.got.tgz:180648.got - 2010.06.03 13:09:07.
