data_PCOD9178279
_publ_section_title
;
Structure prediction by ZEFSAII (Michael W. Deem and Ramdas Pophale) SiO2 
 PCOD9178279
Probable space group: C 2/M
;
_chemical_formula_sum "Si O2"
_cell_formula_units_Z 40
_cell_length_a 25.823106
_cell_length_b 7.897404
_cell_length_c 12.870064
_cell_angle_alpha 90.000000
_cell_angle_beta 122.434533
_cell_angle_gamma 90.000000
_cell_volume 2215.228180
_symmetry_space_group_name_H-M "C 2/M"
_symmetry_group_IT_number 12
_symmetry_cell_setting 'monoclinic'
loop_
_space_group_symop_operation_xyz
x,y,z
-x,y,-z
-x,-y,-z
x,-y,z
1/2+x,1/2+y,z
1/2-x,1/2+y,-z
1/2-x,1/2-y,-z
1/2+x,1/2-y,z
loop_
_atom_site_type_symbol
_atom_site_label
_atom_site_fract_x
_atom_site_fract_y
_atom_site_fract_z
Si Si1 0.659396 0.302048 0.826236
Si Si2 0.598977 0.795754 0.099894
Si Si3 0.713550 0.700001 0.103898
Si Si4 0.992869 0.707114 0.825671
Si Si5 0.025003 0.698706 0.634390
O O1 0.644937 0.500000 0.821645
O O2 0.719267 0.280285 0.818976
O O3 0.598401 0.213636 0.720687
O O4 0.680637 0.234824 0.962497
O O5 0.666555 0.732885 0.146166
O O6 0.566923 0.741762 0.172850
O O7 0.600160 0.000000 0.100177
O O8 0.552190 0.740973 0.957614
O O9 0.722539 0.500000 0.100668
O O10 0.993897 0.500000 0.825583
O O11 0.998468 0.769787 0.714162
O O12 0.008213 0.500000 0.616331
O O13 0.000000 0.773908 0.500000
#
# Coordination Sequence:
#
# PCOD9178279 Si02
#       5
#     8   8   8   8   8
#     4  10  20  32  47  69  97 129 160 193 238 287
#     4   9  15  27  48  69  95 127 155 191 234 286
#     4  10  19  30  47  72  99 124 154 199 245 283
#     4   8  15  27  45  70  96 125 159 189 231 284
#     4  10  19  32  51  72  97 128 161 197 231 273
#
# _framework density 18.056830000000001
#
# number of rings (size 3 to 8) (size 9 to 14) (size 15 to 20)
#    0.000    2.600    2.000    2.400    0.000    2.000 
#    0.000    3.000    0.000    1.200    0.000    0.000 
#    0.000    0.000    0.000    0.000    0.000    0.000 
#
# Total GULP energy -111490.270517 kJ/mol
# GULP energy per Si atom -5574.513526 kJ/mol
# Density = 1.801573 g / cm^3
# Si number density = 18.056830 Si / 1000 Ang^3
#
#
#
# Elastic Constant Matrix: (Units=GPa)
#
#
# Indices 1 2 3 4 5 6 
#
# 1 139.1063 -8.5819 48.4555 0.0000 -20.3581 0.0000
# 2 -8.5819 18.9352 2.4183 0.0000 -6.3941 0.0000
# 3 48.4555 2.4183 89.2637 0.0000 -19.3304 0.0000
# 4 0.0000 0.0000 0.0000 6.4051 0.0000 3.3431
# 5 -20.3581 -6.3941 -19.3304 0.0000 19.8424 0.0000
# 6 0.0000 0.0000 0.0000 3.3431 0.0000 23.1830
#
#
#
# Elastic Compliance Matrix: (Units=1/GPa)
#
#
# Indices 1 2 3 4 5 6 
#
# 1 0.010471 0.008539 -0.003793 0.000000 0.009800 0.000000
# 2 0.008539 0.066957 0.000153 0.000000 0.030487 0.000000
# 3 -0.003793 0.000153 0.015748 0.000000 0.011499 0.000000
# 4 0.000000 0.000000 0.000000 0.168833 0.000000 -0.024346
# 5 0.009800 0.030487 0.011499 0.000000 0.081477 0.000000
# 6 0.000000 0.000000 0.000000 -0.024346 0.000000 0.046646
#
#
# Mechanical properties :
#
#
# Convention : Reuss Voigt Hill
#
# Bulk Modulus (GPa) = 9.71125 36.87656 23.29391
# Shear Modulus (GPa) = 12.05807 23.55367 17.80587
#
# Velocity S-wave (km/s) = 2.58696 3.61559 3.14363
# Velocity P-wave (km/s) = 3.78325 6.15604 5.10930
#
# Compressibility (1/GPa) = 0.10297334
#
# Stress axis : x y z
#
# Youngs Moduli (GPa) = 95.50148 14.93490 63.50075
#
# Poissons Ratio (x) = -0.12753 0.24088
# Poissons Ratio (y) = -0.81552 -0.00969
# Poissons Ratio (z) = 0.36226 -0.00228
#
# Static dielectric constant tensor:
#      x y z
#    x 1.639750 0.000000 -0.027930 
#    y 0.000000 1.642670 0.000000 
#    z -0.027930 0.000000 1.607800 
# 
# From -- ./inp_files/171383.got.cif
#   From: 2010.05.17/outbox.cif.g08.bks.cpg/sg12_86_cif.got.tgz:171383.got - 2010.06.03 13:09:07.
