data_PCOD9178326
_publ_section_title
;
Structure prediction by ZEFSAII (Michael W. Deem and Ramdas Pophale) SiO2 
 PCOD9178326
Probable space group: C 2/M
;
_chemical_formula_sum "Si O2"
_cell_formula_units_Z 64
_cell_length_a 31.361412
_cell_length_b 8.775167
_cell_length_c 23.178244
_cell_angle_alpha 90.000000
_cell_angle_beta 31.673715
_cell_angle_gamma 90.000000
_cell_volume 3349.330946
_symmetry_space_group_name_H-M "C 2/M"
_symmetry_group_IT_number 12
_symmetry_cell_setting 'monoclinic'
loop_
_space_group_symop_operation_xyz
x,y,z
-x,y,-z
-x,-y,-z
x,-y,z
1/2+x,1/2+y,z
1/2-x,1/2+y,-z
1/2-x,1/2-y,-z
1/2+x,1/2-y,z
loop_
_atom_site_type_symbol
_atom_site_label
_atom_site_fract_x
_atom_site_fract_y
_atom_site_fract_z
Si Si1 0.591798 0.679309 0.040228
Si Si2 0.948542 0.181002 0.291365
Si Si3 0.721749 0.680546 0.355042
Si Si4 0.566585 0.814865 0.375981
Si Si5 0.470949 0.169452 0.098033
Si Si6 0.166214 0.823045 0.682001
Si Si7 0.244616 0.682294 0.207715
Si Si8 0.053820 0.318309 0.580157
O O1 0.578035 0.500000 0.040500
O O2 0.687014 0.706575 0.920179
O O3 0.538200 0.700965 0.159687
O O4 0.548391 0.794447 0.047123
O O5 0.877995 0.229048 0.326575
O O6 0.944301 0.267942 0.355955
O O7 0.937020 0.000000 0.313889
O O8 0.724264 0.500000 0.350331
O O9 0.760849 0.735879 0.370728
O O10 0.763582 0.744933 0.248514
O O11 0.630226 0.742797 0.460441
O O12 0.500000 0.767190 0.500000
O O13 0.656763 0.760897 0.287222
O O14 0.528743 0.772469 0.357766
O O15 0.570017 0.000000 0.373825
O O16 0.405925 0.296730 0.188950
O O17 0.437147 0.000000 0.149479
O O18 0.500000 0.175171 0.000000
O O19 0.187326 0.000000 0.651457
O O20 0.239989 0.500000 0.222653
O O21 0.062555 0.500000 0.565388
#
# Coordination Sequence:
#
# PCOD9178326 Si02
#       8
#     8   8   8   8   8   8   8   8
#     4   9  19  34  55  79 107 149 191 227 273 331
#     4   9  20  39  57  79 112 148 189 234 277 325
#     4  12  24  36  54  85 120 148 182 235 292 336
#     4   9  17  34  60  87 113 141 183 234 278 331
#     4  10  19  30  47  74 110 146 182 231 284 327
#     4  10  21  37  56  77 107 150 194 230 271 332
#     4  10  19  36  61  86 114 149 190 233 277 335
#     4  11  22  38  61  84 108 148 193 231 279 339
#
# _framework density 19.108294000000001
#
# number of rings (size 3 to 8) (size 9 to 14) (size 15 to 20)
#    0.000    2.000    1.250    3.750    0.000    6.500 
#    0.000    2.500    0.000    0.000    0.000    0.000 
#    0.000    0.000    0.000    0.000    0.000    0.000 
#
# Total GULP energy -178373.196275 kJ/mol
# GULP energy per Si atom -5574.162384 kJ/mol
# Density = 1.906480 g / cm^3
# Si number density = 19.108294 Si / 1000 Ang^3
#
#
#
# Elastic Constant Matrix: (Units=GPa)
#
#
# Indices 1 2 3 4 5 6 
#
# 1 91.9586 23.7543 17.0162 -0.0025 -5.5277 -0.0017
# 2 23.7543 29.9896 12.4927 -0.0041 -1.2720 0.0125
# 3 17.0162 12.4927 41.6793 -0.0047 -10.5408 0.0092
# 4 -0.0025 -0.0041 -0.0047 19.9756 -0.0019 3.6021
# 5 -5.5277 -1.2720 -10.5408 -0.0019 20.7226 0.0044
# 6 -0.0017 0.0125 0.0092 3.6021 0.0044 29.4167
#
#
#
# Elastic Compliance Matrix: (Units=1/GPa)
#
#
# Indices 1 2 3 4 5 6 
#
# 1 0.014008 -0.010101 -0.002184 -0.000002 0.002006 0.000006
# 2 -0.010101 0.045674 -0.010947 0.000008 -0.005459 -0.000017
# 3 -0.002184 -0.010947 0.031960 0.000008 0.015002 -0.000009
# 4 -0.000002 0.000008 0.000008 0.051191 0.000010 -0.006268
# 5 0.002006 -0.005459 0.015002 0.000010 0.056087 -0.000012
# 6 0.000006 -0.000017 -0.000009 -0.006268 -0.000012 0.034762
#
#
# Mechanical properties :
#
#
# Convention : Reuss Voigt Hill
#
# Bulk Modulus (GPa) = 22.13462 30.01711 26.07587
# Shear Modulus (GPa) = 16.93731 21.38062 19.15896
#
# Velocity S-wave (km/s) = 2.98045 3.34865 3.16990
# Velocity P-wave (km/s) = 4.84283 5.54025 5.20324
#
# Compressibility (1/GPa) = 0.04517809
#
# Stress axis : x y z
#
# Youngs Moduli (GPa) = 71.38565 21.89422 31.28944
#
# Poissons Ratio (x) = 0.22115 0.06835
# Poissons Ratio (y) = 0.72106 0.34252
# Poissons Ratio (z) = 0.15593 0.23967
#
# Static dielectric constant tensor:
#      x y z
#    x 1.704850 -0.000010 0.101850 
#    y -0.000010 1.653600 -0.000060 
#    z 0.101850 -0.000060 2.326840 
# 
# From -- ./inp_files/353341.got.cif
#   From: 2010.05.17/outbox.cif.g08.bks.cpg/sg12_177_cif.got.tgz:353341.got - 2010.06.03 13:09:07.
