data_PCOD9178581
_publ_section_title
;
Structure prediction by ZEFSAII (Michael W. Deem and Ramdas Pophale) SiO2 
 PCOD9178581
Probable space group: C 2/M
;
_chemical_formula_sum "Si O2"
_cell_formula_units_Z 56
_cell_length_a 23.014148
_cell_length_b 7.338663
_cell_length_c 15.241504
_cell_angle_alpha 90.000000
_cell_angle_beta 112.103642
_cell_angle_gamma 90.000000
_cell_volume 2384.994074
_symmetry_space_group_name_H-M "C 2/M"
_symmetry_group_IT_number 12
_symmetry_cell_setting 'monoclinic'
loop_
_space_group_symop_operation_xyz
x,y,z
-x,y,-z
-x,-y,-z
x,-y,z
1/2+x,1/2+y,z
1/2-x,1/2+y,-z
1/2-x,1/2-y,-z
1/2+x,1/2-y,z
loop_
_atom_site_type_symbol
_atom_site_label
_atom_site_fract_x
_atom_site_fract_y
_atom_site_fract_z
Si Si1 0.186870 0.220090 0.061926
Si Si2 0.129793 0.777098 0.852874
Si Si3 0.795891 0.791035 0.258830
Si Si4 0.561054 0.721858 0.088028
Si Si5 0.011182 0.778615 0.237933
Si Si6 0.302286 0.282728 0.454317
Si Si7 0.949140 0.222437 0.545717
O O1 0.241051 0.288066 0.156089
O O2 0.122921 0.276391 0.073097
O O3 0.191204 0.000000 0.063545
O O4 0.177837 0.282214 0.956245
O O5 0.147633 0.710381 0.766118
O O6 0.058663 0.725588 0.831174
O O7 0.131781 0.000000 0.854307
O O8 0.779326 0.716927 0.344829
O O9 0.813952 0.000000 0.285650
O O10 0.560353 0.500000 0.086913
O O11 0.557607 0.779961 0.187126
O O12 0.500000 0.780931 0.000000
O O13 0.026728 0.719989 0.344614
O O14 0.012196 0.000000 0.240515
O O15 0.306916 0.500000 0.458992
O O16 0.250000 0.250000 0.500000
O O17 0.375514 0.219112 0.499814
O O18 0.000000 0.279125 0.500000
O O19 0.948682 0.000000 0.541770
#
# Coordination Sequence:
#
# PCOD9178581 Si02
#       7
#     8   8   8   8   8   8   8
#     4  10  19  30  50  77 102 131 170 209 244 296
#     4   9  16  29  48  74 105 134 164 204 255 305
#     4  10  21  35  50  70 103 141 170 201 251 307
#     4   9  15  25  41  69 101 123 153 203 255 292
#     4   9  15  24  44  71  98 125 156 205 259 296
#     4  10  22  38  55  78 108 141 177 220 267 316
#     4   9  17  30  50  76 102 130 171 221 268 312
#
# _framework density 23.480142000000001
#
# number of rings (size 3 to 8) (size 9 to 14) (size 15 to 20)
#    0.000    2.571    1.429    1.286    2.000    4.000 
#    0.000    0.000    0.000    0.857    0.000    2.000 
#    0.000    0.000    0.000    0.000    0.000    0.000 
#
# Total GULP energy -156229.237531 kJ/mol
# GULP energy per Si atom -5579.615626 kJ/mol
# Density = 2.342670 g / cm^3
# Si number density = 23.480142 Si / 1000 Ang^3
#
#
#
# Elastic Constant Matrix: (Units=GPa)
#
#
# Indices 1 2 3 4 5 6 
#
# 1 136.1852 1.0398 70.0713 0.0000 -30.1970 0.0000
# 2 1.0398 89.0778 -0.2122 0.0000 -3.6440 0.0000
# 3 70.0713 -0.2122 166.2959 0.0000 -36.8468 0.0000
# 4 0.0000 0.0000 0.0000 2.5965 0.0000 3.4777
# 5 -30.1970 -3.6440 -36.8468 0.0000 48.3531 0.0000
# 6 0.0000 0.0000 0.0000 3.4777 0.0000 -1.7895
#
#
#
# Elastic Compliance Matrix: (Units=1/GPa)
#
#
# Indices 1 2 3 4 5 6 
#
# 1 0.009871 0.000024 -0.003360 0.000000 0.003606 0.000000
# 2 0.000024 0.011269 0.000235 0.000000 0.001044 0.000000
# 3 -0.003360 0.000235 0.008384 0.000000 0.004308 0.000000
# 4 0.000000 0.000000 0.000000 0.106897 0.000000 0.207738
# 5 0.003606 0.001044 0.004308 0.000000 0.026295 0.000000
# 6 0.000000 0.000000 0.000000 0.207738 0.000000 -0.155098
#
#
# Mechanical properties :
#
#
# Convention : Reuss Voigt Hill
#
# Bulk Modulus (GPa) = 42.87576 59.26185 51.06881
# Shear Modulus (GPa) = 231.54984 31.20934 131.37959
#
# Velocity S-wave (km/s) = 9.94129 3.64975 7.48832
# Velocity P-wave (km/s) = 12.25041 6.56162 9.82668
#
# Compressibility (1/GPa) = 0.02332320
#
# Stress axis : x y z
#
# Youngs Moduli (GPa) = 101.30338 88.73806 119.27143
#
# Poissons Ratio (x) = -0.00215 0.40081
# Poissons Ratio (y) = -0.00246 -0.02808
# Poissons Ratio (z) = 0.34043 -0.02089
#
# Static dielectric constant tensor:
#      x y z
#    x 1.885600 0.000000 -0.010650 
#    y 0.000000 1.929350 0.000000 
#    z -0.010650 0.000000 1.871970 
# 
# From -- ./inp_files/231963.got.cif
#   From: 2010.05.17/outbox.cif.g08.bks.cpg/sg12_116_cif.got.tgz:231963.got - 2010.06.03 13:09:07.
