data_PCOD9178104
_publ_section_title
;
Structure prediction by ZEFSAII (Michael W. Deem and Ramdas Pophale) SiO2 
 PCOD9178104
Probable space group: C 2/M
;
_chemical_formula_sum "Si O2"
_cell_formula_units_Z 48
_cell_length_a 20.939028
_cell_length_b 8.826360
_cell_length_c 17.193965
_cell_angle_alpha 90.000000
_cell_angle_beta 115.492062
_cell_angle_gamma 90.000000
_cell_volume 2868.343344
_symmetry_space_group_name_H-M "C 2/M"
_symmetry_group_IT_number 12
_symmetry_cell_setting 'monoclinic'
loop_
_space_group_symop_operation_xyz
x,y,z
-x,y,-z
-x,-y,-z
x,-y,z
1/2+x,1/2+y,z
1/2-x,1/2+y,-z
1/2-x,1/2-y,-z
1/2+x,1/2-y,z
loop_
_atom_site_type_symbol
_atom_site_label
_atom_site_fract_x
_atom_site_fract_y
_atom_site_fract_z
Si Si1 0.452065 0.817696 0.047979
Si Si2 0.822229 0.681023 0.226195
Si Si3 0.538452 0.680705 0.410881
Si Si4 0.898097 0.319164 0.417478
Si Si5 0.287469 0.181234 0.943667
Si Si6 0.037144 0.181179 0.779846
O O1 0.475127 0.740870 0.140311
O O2 0.456446 0.000000 0.059545
O O3 0.500000 0.773577 0.000000
O O4 0.370141 0.778869 0.989153
O O5 0.820259 0.500000 0.215034
O O6 0.834729 0.713996 0.324274
O O7 0.753590 0.754961 0.152403
O O8 0.890849 0.743632 0.215683
O O9 0.541887 0.500000 0.421680
O O10 0.465967 0.742744 0.411567
O O11 0.600591 0.755559 0.494324
O O12 0.526456 0.717082 0.313888
O O13 0.908054 0.500000 0.424811
O O14 0.280969 0.000000 0.942494
O O15 0.250000 0.250000 0.000000
O O16 0.046901 0.000000 0.784483
#
# Coordination Sequence:
#
# PCOD9178104 Si02
#       6
#     8   8   8   8   8   8
#     4  10  22  38  53  71  98 132 168 206 248 296
#     4  10  19  30  46  70 100 131 164 202 244 292
#     4   9  16  25  39  62  93 125 157 195 241 290
#     4   9  16  25  39  62  92 126 160 194 237 287
#     4  11  21  33  52  75  99 129 166 205 248 298
#     4  10  19  30  47  71  97 129 166 203 247 294
#
# _framework density 16.734399
#
# number of rings (size 3 to 8) (size 9 to 14) (size 15 to 20)
#    0.000    2.167    1.667    3.500    0.000    5.000 
#    0.000    0.000    0.000    0.000    0.000    1.167 
#    0.000    0.000    0.000    0.000    0.000    0.000 
#
# Total GULP energy -133755.783227 kJ/mol
# GULP energy per Si atom -5573.157634 kJ/mol
# Density = 1.669631 g / cm^3
# Si number density = 16.734399 Si / 1000 Ang^3
#
#
#
# Elastic Constant Matrix: (Units=GPa)
#
#
# Indices 1 2 3 4 5 6 
#
# 1 61.2744 27.5652 51.7662 0.0000 -4.4853 0.0000
# 2 27.5652 54.7546 62.0748 0.0000 0.0454 0.0000
# 3 51.7662 62.0748 196.4970 0.0000 -3.1898 0.0000
# 4 0.0000 0.0000 0.0000 35.0856 0.0000 -0.4600
# 5 -4.4853 0.0454 -3.1898 0.0000 12.9707 0.0000
# 6 0.0000 0.0000 0.0000 -0.4600 0.0000 13.0615
#
#
#
# Elastic Compliance Matrix: (Units=1/GPa)
#
#
# Indices 1 2 3 4 5 6 
#
# 1 0.023348 -0.007665 -0.003613 0.000000 0.007212 0.000000
# 2 -0.007665 0.031040 -0.007863 0.000000 -0.004693 0.000000
# 3 -0.003613 -0.007863 0.008539 0.000000 0.000878 0.000000
# 4 0.000000 0.000000 0.000000 0.028515 0.000000 0.001004
# 5 0.007212 -0.004693 0.000878 0.000000 0.079823 0.000000
# 6 0.000000 0.000000 0.000000 0.001004 0.000000 0.076596
#
#
# Mechanical properties :
#
#
# Convention : Reuss Voigt Hill
#
# Bulk Modulus (GPa) = 40.57283 66.14871 53.36077
# Shear Modulus (GPa) = 16.98624 23.63154 20.30889
#
# Velocity S-wave (km/s) = 3.18944 3.76194 3.48746
# Velocity P-wave (km/s) = 6.15314 7.64748 6.94065
#
# Compressibility (1/GPa) = 0.02464704
#
# Stress axis : x y z
#
# Youngs Moduli (GPa) = 42.83031 32.21690 117.11037
#
# Poissons Ratio (x) = 0.24693 0.42306
# Poissons Ratio (y) = 0.32828 0.92079
# Poissons Ratio (z) = 0.15473 0.25331
#
# Static dielectric constant tensor:
#      x y z
#    x 1.521400 0.000000 -0.000750 
#    y 0.000000 1.559470 0.000000 
#    z -0.000750 0.000000 1.631840 
# 
# From -- ./inp_files/280532.got.cif
#   From: 2010.05.17/outbox.cif.g08.bks.cpg/sg12_141_cif.got.tgz:280532.got - 2010.06.03 13:09:07.
