data_PCOD9178778
_publ_section_title
;
Structure prediction by ZEFSAII (Michael W. Deem and Ramdas Pophale) SiO2 
 PCOD9178778
Probable space group: C 2/M
;
_chemical_formula_sum "Si O2"
_cell_formula_units_Z 64
_cell_length_a 29.833278
_cell_length_b 7.595199
_cell_length_c 14.659709
_cell_angle_alpha 90.000000
_cell_angle_beta 86.706502
_cell_angle_gamma 90.000000
_cell_volume 3316.252444
_symmetry_space_group_name_H-M "C 2/M"
_symmetry_group_IT_number 12
_symmetry_cell_setting 'monoclinic'
loop_
_space_group_symop_operation_xyz
x,y,z
-x,y,-z
-x,-y,-z
x,-y,z
1/2+x,1/2+y,z
1/2-x,1/2+y,-z
1/2-x,1/2-y,-z
1/2+x,1/2-y,z
loop_
_atom_site_type_symbol
_atom_site_label
_atom_site_fract_x
_atom_site_fract_y
_atom_site_fract_z
Si Si1 0.857497 0.703888 0.150729
Si Si2 0.099680 0.207629 0.040249
Si Si3 0.332209 0.288741 0.810093
Si Si4 0.026100 0.712258 0.185498
Si Si5 0.431687 0.216349 0.273463
Si Si6 0.905566 0.289792 0.665101
Si Si7 0.449585 0.214950 0.477618
Si Si8 0.739414 0.788142 0.895751
O O1 0.849254 0.500000 0.175089
O O2 0.886588 0.780186 0.229773
O O3 0.809139 0.781735 0.129424
O O4 0.888937 0.709116 0.057559
O O5 0.135255 0.276389 0.111949
O O6 0.050743 0.236006 0.089344
O O7 0.106920 0.000000 0.028838
O O8 0.331397 0.500000 0.817853
O O9 0.356962 0.246384 0.713029
O O10 0.281886 0.223533 0.832090
O O11 0.026098 0.500000 0.188297
O O12 0.058010 0.776939 0.264952
O O13 0.975645 0.771416 0.210922
O O14 0.437367 0.272798 0.377404
O O15 0.431414 0.000000 0.272662
O O16 0.911361 0.500000 0.662062
O O17 0.916825 0.225370 0.562713
O O18 0.500000 0.266494 0.500000
O O19 0.449199 0.000000 0.475227
O O20 0.737895 0.000000 0.888480
O O21 0.750000 0.750000 0.000000
#
# Coordination Sequence:
#
# PCOD9178778 Si02
#       8
#     8   8   8   8   8   8   8   8
#     4  10  20  32  48  70  94 122 158 196 235 280
#     4  10  19  31  46  65  94 129 161 191 228 274
#     4   9  18  31  46  66  93 122 151 189 236 277
#     4   9  16  28  46  68  95 124 157 191 226 272
#     4   9  17  29  46  70  98 125 153 193 240 277
#     4   9  16  26  47  75  94 116 152 191 228 268
#     4   9  14  25  47  74  98 119 149 193 236 270
#     4  10  19  32  50  70  91 120 158 197 236 277
#
# _framework density 19.298891999999999
#
# number of rings (size 3 to 8) (size 9 to 14) (size 15 to 20)
#    0.000    2.625    2.500    0.375    0.000    1.500 
#    0.000    3.125    0.000    2.625    0.000    0.000 
#    0.000    0.000    0.000    0.000    0.000    0.000 
#
# Total GULP energy -178505.753796 kJ/mol
# GULP energy per Si atom -5578.304806 kJ/mol
# Density = 1.925497 g / cm^3
# Si number density = 19.298892 Si / 1000 Ang^3
#
#
#
# Elastic Constant Matrix: (Units=GPa)
#
#
# Indices 1 2 3 4 5 6 
#
# 1 146.2738 4.0469 84.5954 0.0000 -0.8614 0.0000
# 2 4.0469 41.5189 -4.7663 0.0000 2.4606 0.0000
# 3 84.5954 -4.7663 116.3933 0.0000 -3.1297 0.0000
# 4 0.0000 0.0000 0.0000 2.8484 0.0000 -3.3991
# 5 -0.8614 2.4606 -3.1297 0.0000 28.5242 0.0000
# 6 0.0000 0.0000 0.0000 -3.3991 0.0000 9.6018
#
#
#
# Elastic Compliance Matrix: (Units=1/GPa)
#
#
# Indices 1 2 3 4 5 6 
#
# 1 0.011992 -0.002156 -0.008815 0.000000 -0.000419 0.000000
# 2 -0.002156 0.024699 0.002527 0.000000 -0.001919 0.000000
# 3 -0.008815 0.002527 0.015134 0.000000 0.001176 0.000000
# 4 0.000000 0.000000 0.000000 0.607837 0.000000 0.215175
# 5 -0.000419 -0.001919 0.001176 0.000000 0.035340 0.000000
# 6 0.000000 0.000000 0.000000 0.215175 0.000000 0.180320
#
#
# Mechanical properties :
#
#
# Convention : Reuss Voigt Hill
#
# Bulk Modulus (GPa) = 28.62379 52.43754 40.53067
# Shear Modulus (GPa) = 5.53186 22.88221 14.20703
#
# Velocity S-wave (km/s) = 1.69488 3.44710 2.71617
# Velocity P-wave (km/s) = 4.32368 6.56305 5.55733
#
# Compressibility (1/GPa) = 0.03493597
#
# Stress axis : x y z
#
# Youngs Moduli (GPa) = 83.38954 40.48688 66.07757
#
# Poissons Ratio (x) = 0.08729 0.58250
# Poissons Ratio (y) = 0.17979 -0.16697
# Poissons Ratio (z) = 0.73511 -0.10230
#
# Static dielectric constant tensor:
#      x y z
#    x 1.691000 0.000000 -0.007010 
#    y 0.000000 1.727470 0.000000 
#    z -0.007010 0.000000 1.663850 
# 
# From -- ./inp_files/243981.got.cif
#   From: 2010.05.17/outbox.cif.g08.bks.cpg/sg12_122_cif.got.tgz:243981.got - 2010.06.03 13:09:07.
