data_PCOD9178184
_publ_section_title
;
Structure prediction by ZEFSAII (Michael W. Deem and Ramdas Pophale) SiO2 
 PCOD9178184
Probable space group: C 2/M
;
_chemical_formula_sum "Si O2"
_cell_formula_units_Z 56
_cell_length_a 15.608098
_cell_length_b 10.006817
_cell_length_c 18.360418
_cell_angle_alpha 90.000000
_cell_angle_beta 117.397787
_cell_angle_gamma 90.000000
_cell_volume 2546.008601
_symmetry_space_group_name_H-M "C 2/M"
_symmetry_group_IT_number 12
_symmetry_cell_setting 'monoclinic'
loop_
_space_group_symop_operation_xyz
x,y,z
-x,y,-z
-x,-y,-z
x,-y,z
1/2+x,1/2+y,z
1/2-x,1/2+y,-z
1/2-x,1/2-y,-z
1/2+x,1/2-y,z
loop_
_atom_site_type_symbol
_atom_site_label
_atom_site_fract_x
_atom_site_fract_y
_atom_site_fract_z
Si Si1 0.257277 0.652103 0.111591
Si Si2 0.783735 0.652372 0.700433
Si Si3 0.907536 0.345545 0.599767
Si Si4 0.113951 0.154462 0.986004
Si Si5 0.055809 0.847805 0.726086
Si Si6 0.070190 0.846957 0.173377
Si Si7 0.614991 0.346931 0.535794
O O1 0.221676 0.500000 0.103842
O O2 0.321940 0.657965 0.063038
O O3 0.334496 0.677667 0.205865
O O4 0.171198 0.754832 0.065102
O O5 0.789988 0.500000 0.729367
O O6 0.840654 0.657582 0.645182
O O7 0.840634 0.751102 0.775318
O O8 0.674672 0.681580 0.632636
O O9 0.924794 0.500000 0.587102
O O10 0.861525 0.261784 0.516131
O O11 0.004620 0.265795 0.659197
O O12 0.006823 0.195324 0.918499
O O13 0.110307 0.000000 0.007347
O O14 0.993340 0.849197 0.776801
O O15 0.048192 0.000000 0.692538
O O16 0.100360 0.000000 0.172217
O O17 0.500000 0.343037 0.500000
O O18 0.641016 0.500000 0.524321
#
# Coordination Sequence:
#
# PCOD9178184 Si02
#       7
#     8   8   8   8   8   8   8
#     4   8  13  20  31  49  75 110 147 178 210 249
#     4   9  18  31  47  68  90 114 148 186 222 261
#     4  10  19  30  47  70  92 114 145 186 226 262
#     4   8  13  20  30  48  77 111 144 176 212 254
#     4   8  14  25  39  56  82 115 149 181 214 258
#     4   8  14  24  38  57  82 114 148 180 217 259
#     4  10  21  36  51  66  88 118 148 179 220 270
#
# _framework density 21.995213
#
# number of rings (size 3 to 8) (size 9 to 14) (size 15 to 20)
#    0.000    3.286    0.000    2.571    0.000    2.571 
#    0.000    5.714    0.000    0.000    0.000    0.000 
#    0.000    1.143    0.000   12.857    0.000   18.714 
#
# Total GULP energy -156492.324521 kJ/mol
# GULP energy per Si atom -5589.011590 kJ/mol
# Density = 2.194515 g / cm^3
# Si number density = 21.995213 Si / 1000 Ang^3
#
#
#
# Elastic Constant Matrix: (Units=GPa)
#
#
# Indices 1 2 3 4 5 6 
#
# 1 87.7700 48.1184 38.8751 0.0000 17.4311 0.0000
# 2 48.1184 128.4207 116.5627 0.0000 27.5045 0.0000
# 3 38.8751 116.5627 186.4234 0.0000 28.1174 0.0000
# 4 0.0000 0.0000 0.0000 42.0820 0.0000 11.5813
# 5 17.4311 27.5045 28.1174 0.0000 49.4709 0.0000
# 6 0.0000 0.0000 0.0000 11.5813 0.0000 11.6076
#
#
#
# Elastic Compliance Matrix: (Units=1/GPa)
#
#
# Indices 1 2 3 4 5 6 
#
# 1 0.014658 -0.005843 0.000969 0.000000 -0.002467 0.000000
# 2 -0.005843 0.021070 -0.011484 0.000000 -0.003128 0.000000
# 3 0.000969 -0.011484 0.012503 0.000000 -0.001063 0.000000
# 4 0.000000 0.000000 0.000000 0.032758 0.000000 -0.032683
# 5 -0.002467 -0.003128 -0.001063 0.000000 0.023426 0.000000
# 6 0.000000 0.000000 0.000000 -0.032683 0.000000 0.118759
#
#
# Mechanical properties :
#
#
# Convention : Reuss Voigt Hill
#
# Bulk Modulus (GPa) = 64.45802 89.96963 77.21383
# Shear Modulus (GPa) = 19.15265 33.90263 26.52764
#
# Velocity S-wave (km/s) = 2.95407 3.93028 3.47661
# Velocity P-wave (km/s) = 6.40348 7.84787 7.16218
#
# Compressibility (1/GPa) = 0.01551397
#
# Stress axis : x y z
#
# Youngs Moduli (GPa) = 68.22391 47.46154 79.98361
#
# Poissons Ratio (x) = 0.27734 -0.07752
# Poissons Ratio (y) = 0.39867 0.91850
# Poissons Ratio (z) = -0.06612 0.54503
#
# Static dielectric constant tensor:
#      x y z
#    x 1.889210 0.000000 -0.044920 
#    y 0.000000 1.732630 0.000000 
#    z -0.044920 0.000000 1.796010 
# 
# From -- ./inp_files/342602.got.cif
#   From: 2010.05.17/outbox.cif.g08.bks.cpg/sg12_172_cif.got.tgz:342602.got - 2010.06.03 13:09:07.
