data_PCOD9178161
_publ_section_title
;
Structure prediction by ZEFSAII (Michael W. Deem and Ramdas Pophale) SiO2 
 PCOD9178161
Probable space group: C 2/M
;
_chemical_formula_sum "Si O2"
_cell_formula_units_Z 56
_cell_length_a 11.359631
_cell_length_b 21.431684
_cell_length_c 13.303995
_cell_angle_alpha 90.000000
_cell_angle_beta 99.283470
_cell_angle_gamma 90.000000
_cell_volume 3196.515060
_symmetry_space_group_name_H-M "C 2/M"
_symmetry_group_IT_number 12
_symmetry_cell_setting 'monoclinic'
loop_
_space_group_symop_operation_xyz
x,y,z
-x,y,-z
-x,-y,-z
x,-y,z
1/2+x,1/2+y,z
1/2-x,1/2+y,-z
1/2-x,1/2-y,-z
1/2+x,1/2-y,z
loop_
_atom_site_type_symbol
_atom_site_label
_atom_site_fract_x
_atom_site_fract_y
_atom_site_fract_z
Si Si1 0.819747 0.308769 0.408342
Si Si2 0.714335 0.171549 0.377009
Si Si3 0.014367 0.290372 0.746919
Si Si4 0.630648 0.674311 0.057199
Si Si5 0.078516 0.073468 0.611182
Si Si6 0.417929 0.347248 0.721064
Si Si7 0.121124 0.685716 0.978490
O O1 0.792837 0.234647 0.396570
O O2 0.854347 0.327476 0.525401
O O3 0.694556 0.341879 0.367832
O O4 0.910343 0.321391 0.331493
O O5 0.617684 0.179722 0.275424
O O6 0.800780 0.113419 0.377131
O O7 0.991440 0.217349 0.722662
O O8 0.086828 0.295698 0.859708
O O9 0.632233 0.652968 0.172640
O O10 0.748842 0.654182 0.011863
O O11 0.500000 0.655153 0.000000
O O12 0.633124 0.750323 0.045409
O O13 0.000000 0.086498 0.500000
O O14 0.001868 0.097462 0.695677
O O15 0.101036 0.000000 0.618863
O O16 0.000000 0.652424 0.000000
#
# Coordination Sequence:
#
# PCOD9178161 Si02
#       7
#     8   8   8   8   8   8   8
#     4  10  19  31  49  80 115 142 172 223 280 344
#     4  10  21  31  52  78 112 148 183 219 276 336
#     4  11  19  30  52  82 114 144 173 224 283 345
#     4  10  19  30  48  75 113 151 180 223 277 343
#     4  11  23  39  57  77 110 153 198 232 263 321
#     4  11  19  32  54  78 111 148 185 226 278 333
#     4  10  19  30  46  77 115 151 177 212 285 355
#
# _framework density 17.519079999999999
#
# number of rings (size 3 to 8) (size 9 to 14) (size 15 to 20)
#    0.000    1.571    7.143    0.429    0.000    1.143 
#    0.000    0.000    0.000    3.000    0.000    0.000 
#    0.000    2.286    0.000    0.000    0.000    0.000 
#
# Total GULP energy -156028.279035 kJ/mol
# GULP energy per Si atom -5572.438537 kJ/mol
# Density = 1.747921 g / cm^3
# Si number density = 17.519080 Si / 1000 Ang^3
#
#
#
# Elastic Constant Matrix: (Units=GPa)
#
#
# Indices 1 2 3 4 5 6 
#
# 1 105.1560 31.2312 19.6514 0.0000 -11.9663 0.0000
# 2 31.2312 52.1580 7.6604 0.0000 2.4861 0.0000
# 3 19.6514 7.6604 61.5064 0.0000 -1.2345 0.0000
# 4 0.0000 0.0000 0.0000 8.6908 0.0000 0.1184
# 5 -11.9663 2.4861 -1.2345 0.0000 34.6493 0.0000
# 6 0.0000 0.0000 0.0000 0.1184 0.0000 17.2265
#
#
#
# Elastic Compliance Matrix: (Units=1/GPa)
#
#
# Indices 1 2 3 4 5 6 
#
# 1 0.012861 -0.007481 -0.003080 0.000000 0.004869 0.000000
# 2 -0.007481 0.023958 -0.000681 0.000000 -0.004327 0.000000
# 3 -0.003080 -0.000681 0.017319 0.000000 -0.000398 0.000000
# 4 0.000000 0.000000 0.000000 0.115075 0.000000 -0.000791
# 5 0.004869 -0.004327 -0.000398 0.000000 0.030838 0.000000
# 6 0.000000 0.000000 0.000000 -0.000791 0.000000 0.058056
#
#
# Mechanical properties :
#
#
# Convention : Reuss Voigt Hill
#
# Bulk Modulus (GPa) = 31.58936 37.32292 34.45614
# Shear Modulus (GPa) = 17.17378 22.79848 19.98613
#
# Velocity S-wave (km/s) = 3.13436 3.61134 3.38127
# Velocity P-wave (km/s) = 5.58296 6.22410 5.91223
#
# Compressibility (1/GPa) = 0.03165623
#
# Stress axis : x y z
#
# Youngs Moduli (GPa) = 77.75457 41.73971 57.73927
#
# Poissons Ratio (x) = 0.31224 0.17782
# Poissons Ratio (y) = 0.58166 0.03930
# Poissons Ratio (z) = 0.23946 0.02841
#
# Static dielectric constant tensor:
#      x y z
#    x 1.663260 0.000000 -0.013730 
#    y 0.000000 1.539640 0.000000 
#    z -0.013730 0.000000 1.640430 
# 
# From -- ./inp_files/133298.got.cif
#   From: 2010.05.17/outbox.cif.g08.bks.cpg/sg12_67_cif.got.tgz:133298.got - 2010.06.03 13:09:07.
