data_PCOD9178654
_publ_section_title
;
Structure prediction by ZEFSAII (Michael W. Deem and Ramdas Pophale) SiO2 
 PCOD9178654
Probable space group: C 2/M
;
_chemical_formula_sum "Si O2"
_cell_formula_units_Z 64
_cell_length_a 19.876021
_cell_length_b 9.164191
_cell_length_c 23.758720
_cell_angle_alpha 90.000000
_cell_angle_beta 120.918258
_cell_angle_gamma 90.000000
_cell_volume 3712.649082
_symmetry_space_group_name_H-M "C 2/M"
_symmetry_group_IT_number 12
_symmetry_cell_setting 'monoclinic'
loop_
_space_group_symop_operation_xyz
x,y,z
-x,y,-z
-x,-y,-z
x,-y,z
1/2+x,1/2+y,z
1/2-x,1/2+y,-z
1/2-x,1/2-y,-z
1/2+x,1/2-y,z
loop_
_atom_site_type_symbol
_atom_site_label
_atom_site_fract_x
_atom_site_fract_y
_atom_site_fract_z
Si Si1 0.084597 0.674593 0.061501
Si Si2 0.332745 0.667614 0.803913
Si Si3 0.912203 0.827806 0.323274
Si Si4 0.827078 0.667557 0.190435
Si Si5 0.245121 0.826782 0.669818
Si Si6 0.759816 0.325562 0.944176
Si Si7 0.470759 0.169754 0.548455
Si Si8 0.283638 0.169842 0.460227
O O1 0.085677 0.500000 0.071902
O O2 0.104750 0.756057 0.128247
O O3 0.155117 0.706063 0.047709
O O4 0.000000 0.714520 0.000000
O O5 0.353216 0.500000 0.800222
O O6 0.252207 0.666832 0.805828
O O7 0.310899 0.756786 0.738586
O O8 0.891599 0.743431 0.257227
O O9 0.838547 0.804300 0.334331
O O10 0.988570 0.764094 0.386104
O O11 0.918066 0.000000 0.315624
O O12 0.846483 0.500000 0.185199
O O13 0.804637 0.759886 0.126063
O O14 0.241192 0.749029 0.608000
O O15 0.256928 0.000000 0.669061
O O16 0.752260 0.500000 0.945344
O O17 0.750000 0.250000 0.000000
O O18 0.500000 0.220998 0.500000
O O19 0.377554 0.175943 0.506803
O O20 0.495573 0.000000 0.565913
O O21 0.250000 0.250000 0.500000
O O22 0.260138 0.000000 0.448278
#
# Coordination Sequence:
#
# PCOD9178654 Si02
#       8
#     8   8   8   8   8   8   8   8
#     4   9  18  33  53  77 105 137 172 212 257 305
#     4   9  17  29  49  77 105 134 171 215 260 305
#     4  10  19  30  51  81 109 134 169 220 266 304
#     4   9  17  30  49  74 105 138 173 212 258 309
#     4  10  19  32  52  78 106 137 174 215 261 311
#     4  10  19  32  52  77 106 138 174 212 255 308
#     4  10  20  35  55  79 106 137 174 214 260 311
#     4  11  23  38  56  77 106 141 176 215 260 314
#
# _framework density 17.238365000000002
#
# number of rings (size 3 to 8) (size 9 to 14) (size 15 to 20)
#    0.000    2.250    1.250    2.250    0.000    6.000 
#    0.000    0.000    2.750    0.000    0.000    0.000 
#    0.000    0.000    0.000    0.000    0.000    0.000 
#
# Total GULP energy -178527.601354 kJ/mol
# GULP energy per Si atom -5578.987542 kJ/mol
# Density = 1.719913 g / cm^3
# Si number density = 17.238365 Si / 1000 Ang^3
#
#
#
# Elastic Constant Matrix: (Units=GPa)
#
#
# Indices 1 2 3 4 5 6 
#
# 1 30.4011 35.9530 40.1508 0.0000 -5.2989 0.0000
# 2 35.9530 120.1384 98.2339 0.0000 -8.4874 0.0000
# 3 40.1508 98.2339 177.1868 0.0000 -1.6694 0.0000
# 4 0.0000 0.0000 0.0000 39.9929 0.0000 -0.5158
# 5 -5.2989 -8.4874 -1.6694 0.0000 24.8153 0.0000
# 6 0.0000 0.0000 0.0000 -0.5158 0.0000 20.2344
#
#
#
# Elastic Compliance Matrix: (Units=1/GPa)
#
#
# Indices 1 2 3 4 5 6 
#
# 1 0.055615 -0.010701 -0.006597 0.000000 0.007772 0.000000
# 2 -0.010701 0.017839 -0.007434 0.000000 0.003316 0.000000
# 3 -0.006597 -0.007434 0.011230 0.000000 -0.003196 0.000000
# 4 0.000000 0.000000 0.000000 0.025013 0.000000 0.000638
# 5 0.007772 0.003316 -0.003196 0.000000 0.042877 0.000000
# 6 0.000000 0.000000 0.000000 0.000638 0.000000 0.049437
#
#
# Mechanical properties :
#
#
# Convention : Reuss Voigt Hill
#
# Bulk Modulus (GPa) = 28.39173 75.15574 51.77374
# Shear Modulus (GPa) = 18.99595 27.23442 23.11519
#
# Velocity S-wave (km/s) = 3.32318 3.97907 3.66582
# Velocity P-wave (km/s) = 5.58843 8.05005 6.92942
#
# Compressibility (1/GPa) = 0.03522152
#
# Stress axis : x y z
#
# Youngs Moduli (GPa) = 17.98062 56.05716 89.04707
#
# Poissons Ratio (x) = 0.59984 0.58743
# Poissons Ratio (y) = 0.19240 0.66198
# Poissons Ratio (z) = 0.11862 0.41673
#
# Static dielectric constant tensor:
#      x y z
#    x 1.566750 0.000000 0.000140 
#    y 0.000000 1.580590 0.000000 
#    z 0.000140 0.000000 1.559560 
# 
# From -- ./inp_files/320188.got.cif
#   From: 2010.05.17/outbox.cif.g08.bks.cpg/sg12_161_cif.got.tgz:320188.got - 2010.06.03 13:09:07.
