data_PCOD9178973
_publ_section_title
;
Structure prediction by ZEFSAII (Michael W. Deem and Ramdas Pophale) SiO2 
 PCOD9178973
Probable space group: C 2/M
;
_chemical_formula_sum "Si O2"
_cell_formula_units_Z 56
_cell_length_a 18.783297
_cell_length_b 7.534481
_cell_length_c 23.231984
_cell_angle_alpha 90.000000
_cell_angle_beta 55.515926
_cell_angle_gamma 90.000000
_cell_volume 2710.117524
_symmetry_space_group_name_H-M "C 2/M"
_symmetry_group_IT_number 12
_symmetry_cell_setting 'monoclinic'
loop_
_space_group_symop_operation_xyz
x,y,z
-x,y,-z
-x,-y,-z
x,-y,z
1/2+x,1/2+y,z
1/2-x,1/2+y,-z
1/2-x,1/2-y,-z
1/2+x,1/2-y,z
loop_
_atom_site_type_symbol
_atom_site_label
_atom_site_fract_x
_atom_site_fract_y
_atom_site_fract_z
Si Si1 0.293580 0.212409 0.848067
Si Si2 0.592356 0.794951 0.441078
Si Si3 0.332200 0.712562 0.003668
Si Si4 0.443211 0.718086 0.296770
Si Si5 0.259626 0.287010 0.428294
Si Si6 0.045286 0.796227 0.145135
Si Si7 0.101271 0.210211 0.305792
O O1 0.203092 0.272097 0.917951
O O2 0.371668 0.295250 0.849753
O O3 0.315598 0.254011 0.772286
O O4 0.299508 0.000000 0.852988
O O5 0.500000 0.713582 0.500000
O O6 0.675668 0.715118 0.433925
O O7 0.604551 0.791137 0.367188
O O8 0.588795 0.000000 0.462629
O O9 0.343803 0.500000 0.001018
O O10 0.250000 0.750000 0.000000
O O11 0.416086 0.784355 0.931491
O O12 0.445299 0.500000 0.294660
O O13 0.350160 0.778283 0.360964
O O14 0.470798 0.780174 0.220152
O O15 0.517749 0.773635 0.307702
O O16 0.262213 0.500000 0.419322
O O17 0.250000 0.250000 0.500000
O O18 0.021191 0.000000 0.143730
O O19 0.092500 0.000000 0.317127
#
# Coordination Sequence:
#
# PCOD9178973 Si02
#       7
#     8   8   8   8   8   8   8
#     4   9  15  23  37  60  90 120 149 183 225 267
#     4  10  21  35  50  70  95 120 146 182 228 271
#     4   8  13  20  33  55  84 117 148 181 221 263
#     4   8  15  28  46  67  90 118 151 186 223 262
#     4  10  20  34  51  70  92 118 148 182 222 267
#     4   8  13  23  38  58  86 118 152 186 221 264
#     4  10  19  31  48  68  91 121 155 188 222 264
#
# _framework density 20.663309999999999
#
# number of rings (size 3 to 8) (size 9 to 14) (size 15 to 20)
#    0.000    3.000    0.000    2.571    0.000    1.429 
#    0.000    2.857    0.000    0.000    0.000    1.000 
#    0.000    8.000    0.000    0.000    0.000    0.000 
#
# Total GULP energy -155960.158435 kJ/mol
# GULP energy per Si atom -5570.005658 kJ/mol
# Density = 2.061628 g / cm^3
# Si number density = 20.663310 Si / 1000 Ang^3
#
#
#
# Elastic Constant Matrix: (Units=GPa)
#
#
# Indices 1 2 3 4 5 6 
#
# 1 77.5920 2.0400 77.1036 -0.0002 -13.9528 0.0010
# 2 2.0400 57.2469 -12.7189 -0.0007 -4.4383 0.0013
# 3 77.1036 -12.7189 217.4709 -0.0001 -32.1821 -0.0003
# 4 -0.0002 -0.0007 -0.0001 13.8186 -0.0001 -0.2045
# 5 -13.9528 -4.4383 -32.1821 -0.0001 23.8885 -0.0001
# 6 0.0010 0.0013 -0.0003 -0.2045 -0.0001 -4.3350
#
#
#
# Elastic Compliance Matrix: (Units=1/GPa)
#
#
# Indices 1 2 3 4 5 6 
#
# 1 0.020277 -0.002127 -0.007019 0.000000 0.001993 0.000004
# 2 -0.002127 0.018601 0.002710 0.000001 0.005864 0.000005
# 3 -0.007019 0.002710 0.008385 0.000000 0.007700 -0.000001
# 4 0.000000 0.000001 0.000000 0.072316 0.000001 -0.003411
# 5 0.001993 0.005864 0.007700 0.000001 0.054487 0.000001
# 6 0.000004 0.000005 -0.000001 -0.003411 0.000001 -0.230517
#
#
# Mechanical properties :
#
#
# Convention : Reuss Voigt Hill
#
# Bulk Modulus (GPa) = 29.07830 53.90656 41.49243
# Shear Modulus (GPa) = -155.68077 25.73342 -64.97367
#
# Velocity S-wave (km/s) = -8.68937 3.53281 -5.61358
# Velocity P-wave (km/s) = 9.30433 6.54107 4.67894
#
# Compressibility (1/GPa) = 0.03438991
#
# Stress axis : x y z
#
# Youngs Moduli (GPa) = 49.31816 53.76131 119.26579
#
# Poissons Ratio (x) = 0.11437 0.83707
# Poissons Ratio (y) = 0.10492 -0.32320
# Poissons Ratio (z) = 0.34614 -0.14569
#
# Static dielectric constant tensor:
#      x y z
#    x 1.710390 0.000000 -0.028400 
#    y 0.000000 1.798060 0.000000 
#    z -0.028400 0.000000 1.799940 
# 
# From -- ./inp_files/280387.got.cif
#   From: 2010.05.17/outbox.cif.g08.bks.cpg/sg12_141_cif.got.tgz:280387.got - 2010.06.03 13:09:07.
