data_PCOD9178312
_publ_section_title
;
Structure prediction by ZEFSAII (Michael W. Deem and Ramdas Pophale) SiO2 
 PCOD9178312
Probable space group: C 2/M
;
_chemical_formula_sum "Si O2"
_cell_formula_units_Z 60
_cell_length_a 17.492295
_cell_length_b 13.877290
_cell_length_c 17.033380
_cell_angle_alpha 90.000000
_cell_angle_beta 124.461398
_cell_angle_gamma 90.000000
_cell_volume 3409.156665
_symmetry_space_group_name_H-M "C 2/M"
_symmetry_group_IT_number 12
_symmetry_cell_setting 'monoclinic'
loop_
_space_group_symop_operation_xyz
x,y,z
-x,y,-z
-x,-y,-z
x,-y,z
1/2+x,1/2+y,z
1/2-x,1/2+y,-z
1/2-x,1/2-y,-z
1/2+x,1/2-y,z
loop_
_atom_site_type_symbol
_atom_site_label
_atom_site_fract_x
_atom_site_fract_y
_atom_site_fract_z
Si Si1 0.704999 0.734598 0.097498
Si Si2 0.493067 0.777287 0.590032
Si Si3 0.000000 0.231478 0.000000
Si Si4 0.028030 0.108108 0.170856
Si Si5 0.398533 0.383890 0.623599
Si Si6 0.685028 0.115983 0.711128
Si Si7 0.187678 0.890720 0.930085
Si Si8 0.194280 0.613908 0.528764
O O1 0.600396 0.777291 0.042276
O O2 0.741021 0.674487 0.193351
O O3 0.771072 0.822585 0.112753
O O4 0.707056 0.660061 0.025264
O O5 0.500000 0.769064 0.500000
O O6 0.473568 0.673376 0.616549
O O7 0.584078 0.836015 0.669740
O O8 0.398413 0.834574 0.553762
O O9 0.023109 0.167436 0.089117
O O10 0.087308 0.145849 0.277448
O O11 0.923002 0.104689 0.141257
O O12 0.060513 0.000000 0.171005
O O13 0.410471 0.500000 0.626301
O O14 0.291117 0.360620 0.542889
O O15 0.701821 0.129584 0.627551
O O16 0.685870 0.000000 0.726849
O O17 0.223776 0.000000 0.949609
O O18 0.181640 0.500000 0.511361
#
# Coordination Sequence:
#
# PCOD9178312 Si02
#       8
#     8   8   4   8   8   8   8   8
#     4  10  19  31  49  72  96 126 160 197 240 285
#     4  10  20  33  49  70  97 129 161 198 242 286
#     4  10  19  30  47  74 102 122 152 200 246 286
#     4   9  17  29  47  71  96 124 156 197 245 284
#     4  10  19  31  49  72  98 129 164 197 235 288
#     4  10  19  32  51  73  95 120 157 201 243 289
#     4   9  18  32  48  68  98 131 162 194 233 283
#     4   9  18  32  50  72  96 123 157 201 251 291
#
# _framework density 17.59966
#
# number of rings (size 3 to 8) (size 9 to 14) (size 15 to 20)
#    0.000    2.400    0.000    3.000    0.000    4.533 
#    0.000    0.333    0.000    0.800    0.000    5.600 
#    0.000    0.000    0.000    0.000    0.000    0.000 
#
# Total GULP energy -167100.242930 kJ/mol
# GULP energy per Si atom -5570.008098 kJ/mol
# Density = 1.755960 g / cm^3
# Si number density = 17.599660 Si / 1000 Ang^3
#
#
#
# Elastic Constant Matrix: (Units=GPa)
#
#
# Indices 1 2 3 4 5 6 
#
# 1 61.6861 25.5044 3.8996 0.0000 17.0812 0.0000
# 2 25.5044 61.4750 6.1575 0.0000 9.7883 0.0000
# 3 3.8996 6.1575 47.0681 0.0000 17.1857 0.0000
# 4 0.0000 0.0000 0.0000 16.9073 0.0000 0.3865
# 5 17.0812 9.7883 17.1857 0.0000 17.7630 0.0000
# 6 0.0000 0.0000 0.0000 0.3865 0.0000 57.4396
#
#
#
# Elastic Compliance Matrix: (Units=1/GPa)
#
#
# Indices 1 2 3 4 5 6 
#
# 1 0.027673 -0.007310 0.010683 0.000000 -0.032919 0.000000
# 2 -0.007310 0.019877 -0.000869 0.000000 -0.003084 0.000000
# 3 0.010683 -0.000869 0.037187 0.000000 -0.045773 0.000000
# 4 0.000000 0.000000 0.000000 0.059155 0.000000 -0.000398
# 5 -0.032919 -0.003084 -0.045773 0.000000 0.133937 0.000000
# 6 0.000000 0.000000 0.000000 -0.000398 0.000000 0.017412
#
#
# Mechanical properties :
#
#
# Convention : Reuss Voigt Hill
#
# Bulk Modulus (GPa) = 11.14238 26.81690 18.97964
# Shear Modulus (GPa) = 15.61777 27.39983 21.50880
#
# Velocity S-wave (km/s) = 2.98214 3.94996 3.49967
# Velocity P-wave (km/s) = 4.26642 6.00609 5.20939
#
# Compressibility (1/GPa) = 0.08974740
#
# Stress axis : x y z
#
# Youngs Moduli (GPa) = 36.13587 50.30855 26.89099
#
# Poissons Ratio (x) = 0.36773 -0.28728
# Poissons Ratio (y) = 0.26414 0.02336
# Poissons Ratio (z) = -0.38604 0.04371
#
# Static dielectric constant tensor:
#      x y z
#    x 1.632640 0.000000 0.017420 
#    y 0.000000 1.588370 0.000000 
#    z 0.017420 0.000000 1.599100 
# 
# From -- ./inp_files/277621.got.cif
#   From: 2010.05.17/outbox.cif.g08.bks.cpg/sg12_139_cif.got.tgz:277621.got - 2010.06.03 13:09:07.
