data_PCOD9178328
_publ_section_title
;
Structure prediction by ZEFSAII (Michael W. Deem and Ramdas Pophale) SiO2 
 PCOD9178328
Probable space group: C 2/M
;
_chemical_formula_sum "Si O2"
_cell_formula_units_Z 40
_cell_length_a 13.203386
_cell_length_b 34.479675
_cell_length_c 5.060918
_cell_angle_alpha 90.000000
_cell_angle_beta 94.991082
_cell_angle_gamma 90.000000
_cell_volume 2295.239023
_symmetry_space_group_name_H-M "C 2/M"
_symmetry_group_IT_number 12
_symmetry_cell_setting 'monoclinic'
loop_
_space_group_symop_operation_xyz
x,y,z
-x,y,-z
-x,-y,-z
x,-y,z
1/2+x,1/2+y,z
1/2-x,1/2+y,-z
1/2-x,1/2-y,-z
1/2+x,1/2-y,z
loop_
_atom_site_type_symbol
_atom_site_label
_atom_site_fract_x
_atom_site_fract_y
_atom_site_fract_z
Si Si1 0.376857 0.456227 0.478648
Si Si2 0.717022 0.676672 0.054294
Si Si3 0.122599 0.093096 0.021717
Si Si4 0.433248 0.205240 0.247261
Si Si5 0.615678 0.710707 0.527258
O O1 0.500000 0.458110 0.500000
O O2 0.339590 0.500000 0.424330
O O3 0.350011 0.439067 0.755609
O O4 0.347454 0.425069 0.251606
O O5 0.675267 0.633719 0.093064
O O6 0.835890 0.680925 0.136625
O O7 0.660153 0.705671 0.245494
O O8 0.686050 0.688344 0.750909
O O9 0.000000 0.098877 0.000000
O O10 0.500000 0.187130 0.500000
O O11 0.393443 0.245462 0.368576
O O12 0.500000 0.213258 0.000000
O O13 0.500000 0.694840 0.500000
#
# Coordination Sequence:
#
# PCOD9178328 Si02
#       5
#     8   8   8   8   8
#     4   9  17  30  47  68 101 138 163 187 230 297
#     4  12  22  35  54  76 105 135 170 218 265 298
#     4  10  19  30  47  75 103 130 163 199 244 299
#     4  11  23  39  54  72  98 136 184 222 255 301
#     4  11  21  35  53  76 102 135 171 210 261 314
#
# _framework density 17.427378999999998
#
# number of rings (size 3 to 8) (size 9 to 14) (size 15 to 20)
#    0.000    1.400    0.000    8.400    0.000    4.000 
#    0.000    0.000    0.000    0.000    0.000    0.000 
#    0.000   16.000    0.000    0.000    0.000    0.000 
#
# Total GULP energy -111708.885610 kJ/mol
# GULP energy per Si atom -5585.444280 kJ/mol
# Density = 1.738771 g / cm^3
# Si number density = 17.427379 Si / 1000 Ang^3
#
#
#
# Elastic Constant Matrix: (Units=GPa)
#
#
# Indices 1 2 3 4 5 6 
#
# 1 49.2655 27.0208 14.4632 0.0000 16.6199 0.0000
# 2 27.0208 76.2441 12.9271 0.0000 11.2081 0.0000
# 3 14.4632 12.9271 80.6309 0.0000 11.5070 0.0000
# 4 0.0000 0.0000 0.0000 -5.1181 0.0000 4.4330
# 5 16.6199 11.2081 11.5070 0.0000 31.4591 0.0000
# 6 0.0000 0.0000 0.0000 4.4330 0.0000 3.3002
#
#
#
# Elastic Compliance Matrix: (Units=1/GPa)
#
#
# Indices 1 2 3 4 5 6 
#
# 1 0.029519 -0.008343 -0.002275 0.000000 -0.011791 0.000000
# 2 -0.008343 0.016397 -0.000979 0.000000 -0.001076 0.000000
# 3 -0.002275 -0.000979 0.013448 0.000000 -0.003368 0.000000
# 4 0.000000 0.000000 0.000000 -0.090312 0.000000 0.121311
# 5 -0.011791 -0.001076 -0.003368 0.000000 0.039632 0.000000
# 6 0.000000 0.000000 0.000000 0.121311 0.000000 0.140060
#
#
# Mechanical properties :
#
#
# Convention : Reuss Voigt Hill
#
# Bulk Modulus (GPa) = 27.64614 34.99587 31.32100
# Shear Modulus (GPa) = 27.17486 16.04352 21.60919
#
# Velocity S-wave (km/s) = 3.95311 3.03742 3.52512
# Velocity P-wave (km/s) = 6.06087 5.69436 5.88047
#
# Compressibility (1/GPa) = 0.03617142
#
# Stress axis : x y z
#
# Youngs Moduli (GPa) = 33.87602 60.98852 74.36122
#
# Poissons Ratio (x) = 0.50881 0.16916
# Poissons Ratio (y) = 0.28262 0.07278
# Poissons Ratio (z) = 0.07706 0.05969
#
# Static dielectric constant tensor:
#      x y z
#    x 1.596500 0.000000 0.005700 
#    y 0.000000 1.576790 0.000000 
#    z 0.005700 0.000000 1.605440 
# 
# From -- ./inp_files/8531.got.cif
#   From: 2010.05.17/outbox.cif.g08.bks.cpg/sg12_5_cif.got.tgz:8531.got - 2010.06.03 13:09:07.
