data_PCOD9178463
_publ_section_title
;
Structure prediction by ZEFSAII (Michael W. Deem and Ramdas Pophale) SiO2 
 PCOD9178463
Probable space group: C 2/M
;
_chemical_formula_sum "Si O2"
_cell_formula_units_Z 42
_cell_length_a 23.655054
_cell_length_b 9.016089
_cell_length_c 19.753937
_cell_angle_alpha 90.000000
_cell_angle_beta 156.887986
_cell_angle_gamma 90.000000
_cell_volume 1653.745327
_symmetry_space_group_name_H-M "C 2/M"
_symmetry_group_IT_number 12
_symmetry_cell_setting 'monoclinic'
loop_
_space_group_symop_operation_xyz
x,y,z
-x,y,-z
-x,-y,-z
x,-y,z
1/2+x,1/2+y,z
1/2-x,1/2+y,-z
1/2-x,1/2-y,-z
1/2+x,1/2-y,z
loop_
_atom_site_type_symbol
_atom_site_label
_atom_site_fract_x
_atom_site_fract_y
_atom_site_fract_z
Si Si1 0.854288 0.334255 0.409556
Si Si2 0.851747 0.669486 0.179683
Si Si3 0.778610 0.339375 0.850648
Si Si4 0.518934 0.667018 0.251765
Si Si5 0.691964 0.835323 0.337229
Si Si6 0.000000 0.500000 0.000000
O O1 0.835356 0.500000 0.361287
O O2 0.836950 0.216352 0.331448
O O3 0.730096 0.291380 0.326208
O O4 0.003105 0.328264 0.613920
O O5 0.834547 0.500000 0.137871
O O6 0.729305 0.723973 0.096747
O O7 0.895194 0.777869 0.166319
O O8 0.736965 0.500000 0.834202
O O9 0.918159 0.371301 0.958268
O O10 0.497161 0.500000 0.201587
O O11 0.564374 0.789243 0.246407
O O12 0.664589 0.655956 0.458603
O O13 0.671073 0.000000 0.280329
#
# Coordination Sequence:
#
# PCOD9178463 Si02
#       6
#     8   8   8   8   8   2
#     4  10  19  30  48  77 108 134 161 199 249 306
#     4  10  19  30  48  77 108 134 161 199 249 306
#     4  10  20  36  52  68  97 125 171 208 257 296
#     4   9  16  26  41  66 104 143 169 192 229 288
#     4   9  16  26  41  66 104 143 169 192 229 288
#     4   8  24  40  52  68  92 124 178 222 260 286
#
# _framework density 25.396898
#
# number of rings (size 3 to 8) (size 9 to 14) (size 15 to 20)
#    0.571    1.905    0.000    3.429    0.000    9.143 
#    0.000    1.905    0.000    0.000    0.000    1.333 
#    0.000    0.000    0.000    0.000    0.000    0.000 
#
# Total GULP energy -117289.904590 kJ/mol
# GULP energy per Si atom -5585.233552 kJ/mol
# Density = 2.533909 g / cm^3
# Si number density = 25.396898 Si / 1000 Ang^3
#
#
#
# Elastic Constant Matrix: (Units=GPa)
#
#
# Indices 1 2 3 4 5 6 
#
# 1 130.7333 47.3887 17.6663 0.0000 32.8949 0.0000
# 2 47.3887 137.7767 7.7150 0.0000 14.3377 0.0000
# 3 17.6663 7.7150 92.0149 0.0000 28.3433 0.0000
# 4 0.0000 0.0000 0.0000 33.0193 0.0000 -6.3704
# 5 32.8949 14.3377 28.3433 0.0000 52.8152 0.0000
# 6 0.0000 0.0000 0.0000 -6.3704 0.0000 47.6029
#
#
#
# Elastic Compliance Matrix: (Units=1/GPa)
#
#
# Indices 1 2 3 4 5 6 
#
# 1 0.010081 -0.002896 -0.000001 0.000000 -0.005492 0.000000
# 2 -0.002896 0.008301 -0.000002 0.000000 -0.000449 0.000000
# 3 -0.000001 -0.000002 0.013020 0.000000 -0.006986 0.000000
# 4 0.000000 0.000000 0.000000 0.031088 0.000000 0.004160
# 5 -0.005492 -0.000449 -0.006986 0.000000 0.026226 0.000000
# 6 0.000000 0.000000 0.000000 0.004160 0.000000 0.021564
#
#
# Mechanical properties :
#
#
# Convention : Reuss Voigt Hill
#
# Bulk Modulus (GPa) = 39.05494 56.22943 47.64219
# Shear Modulus (GPa) = 40.12481 45.87113 42.99797
#
# Velocity S-wave (km/s) = 3.97912 4.25452 4.11912
# Velocity P-wave (km/s) = 6.04338 6.80609 6.43604
#
# Compressibility (1/GPa) = 0.02560496
#
# Stress axis : x y z
#
# Youngs Moduli (GPa) = 99.19795 120.46824 76.80445
#
# Poissons Ratio (x) = 0.34885 0.00007
# Poissons Ratio (y) = 0.28725 0.00013
# Poissons Ratio (z) = 0.00010 0.00021
#
# Static dielectric constant tensor:
#      x y z
#    x 1.827320 0.000000 -0.006910 
#    y 0.000000 1.874250 0.000000 
#    z -0.006910 0.000000 2.132130 
# 
# From -- ./inp_files/171508.got.cif
#   From: 2010.05.17/outbox.cif.g08.bks.cpg/sg12_86_cif.got.tgz:171508.got - 2010.06.03 13:09:07.
