data_PCOD9178277
_publ_section_title
;
Structure prediction by ZEFSAII (Michael W. Deem and Ramdas Pophale) SiO2 
 PCOD9178277
Probable space group: C 2/M
;
_chemical_formula_sum "Si O2"
_cell_formula_units_Z 64
_cell_length_a 21.095452
_cell_length_b 13.190758
_cell_length_c 26.546024
_cell_angle_alpha 90.000000
_cell_angle_beta 29.696583
_cell_angle_gamma 90.000000
_cell_volume 3659.486003
_symmetry_space_group_name_H-M "C 2/M"
_symmetry_group_IT_number 12
_symmetry_cell_setting 'monoclinic'
loop_
_space_group_symop_operation_xyz
x,y,z
-x,y,-z
-x,-y,-z
x,-y,z
1/2+x,1/2+y,z
1/2-x,1/2+y,-z
1/2-x,1/2-y,-z
1/2+x,1/2-y,z
loop_
_atom_site_type_symbol
_atom_site_label
_atom_site_fract_x
_atom_site_fract_y
_atom_site_fract_z
Si Si1 0.295314 0.321766 0.662939
Si Si2 0.543161 0.280492 0.026433
Si Si3 0.587808 0.382603 0.312505
Si Si4 0.031447 0.378008 0.726892
Si Si5 0.822778 0.122383 0.532746
Si Si6 0.502720 0.116748 0.859341
Si Si7 0.312524 0.814023 0.803220
Si Si8 0.781976 0.885199 0.236935
O O1 0.369643 0.368663 0.658745
O O2 0.352240 0.338330 0.568611
O O3 0.156572 0.375406 0.758324
O O4 0.271836 0.202823 0.689984
O O5 0.551563 0.189158 0.060190
O O6 0.429470 0.354579 0.123258
O O7 0.500000 0.245807 0.000000
O O8 0.681727 0.330004 0.924229
O O9 0.601816 0.500000 0.288256
O O10 0.438128 0.351042 0.415665
O O11 0.671444 0.304319 0.222763
O O12 0.035665 0.500000 0.725453
O O13 0.178881 0.343272 0.618619
O O14 0.980002 0.346298 0.817721
O O15 0.935362 0.345207 0.749985
O O16 0.822354 0.000000 0.535786
O O17 0.462495 0.000000 0.892480
O O18 0.293928 0.872409 0.763386
O O19 0.772602 0.000000 0.261754
#
# Coordination Sequence:
#
# PCOD9178277 Si02
#       8
#     8   8   8   8   8   8   8   8
#     4   9  16  28  49  74  96 119 151 191 237 281
#     4   9  19  31  46  72  96 121 154 188 234 283
#     4  10  19  30  47  72  98 124 155 191 235 283
#     4   9  18  32  49  67  87 118 160 198 230 269
#     4   9  17  30  50  73  95 121 154 193 235 281
#     4   9  17  30  48  70  96 122 150 189 234 281
#     4  10  20  31  47  68  93 126 160 195 230 270
#     4   9  18  32  49  70  95 122 156 196 234 275
#
# _framework density 17.488793999999999
#
# number of rings (size 3 to 8) (size 9 to 14) (size 15 to 20)
#    0.000    2.750    0.000    3.375    0.000    5.500 
#    0.000    0.000    0.000   13.500    0.000    0.000 
#    0.000    0.000    0.000    0.000    0.000    0.000 
#
# Total GULP energy -178290.747313 kJ/mol
# GULP energy per Si atom -5571.585854 kJ/mol
# Density = 1.744899 g / cm^3
# Si number density = 17.488794 Si / 1000 Ang^3
#
#
#
# Elastic Constant Matrix: (Units=GPa)
#
#
# Indices 1 2 3 4 5 6 
#
# 1 56.6398 -4.0392 6.5430 0.0004 -19.0871 -0.0001
# 2 -4.0392 45.8808 -4.6022 0.0010 3.0534 -0.0002
# 3 6.5430 -4.6022 26.5557 0.0004 -4.4522 -0.0003
# 4 0.0004 0.0010 0.0004 11.3908 -0.0002 -2.9202
# 5 -19.0871 3.0534 -4.4522 -0.0002 14.6472 0.0000
# 6 -0.0001 -0.0002 -0.0003 -2.9202 0.0000 12.2695
#
#
#
# Elastic Compliance Matrix: (Units=1/GPa)
#
#
# Indices 1 2 3 4 5 6 
#
# 1 0.031501 -0.000034 -0.000931 0.000000 0.040774 0.000000
# 2 -0.000034 0.022367 0.003262 -0.000002 -0.003715 0.000000
# 3 -0.000931 0.003262 0.040182 -0.000001 0.010320 0.000001
# 4 0.000000 -0.000002 -0.000001 0.093495 0.000001 0.022252
# 5 0.040774 -0.003715 0.010320 0.000001 0.125318 0.000001
# 6 0.000000 0.000000 0.000001 0.022252 0.000001 0.086799
#
#
# Mechanical properties :
#
#
# Convention : Reuss Voigt Hill
#
# Bulk Modulus (GPa) = 10.13754 13.87549 12.00651
# Shear Modulus (GPa) = 11.68362 16.40646 14.04504
#
# Velocity S-wave (km/s) = 2.58750 3.06619 2.83695
# Velocity P-wave (km/s) = 3.83875 4.52620 4.19658
#
# Compressibility (1/GPa) = 0.09864324
#
# Stress axis : x y z
#
# Youngs Moduli (GPa) = 31.74493 44.70855 24.88698
#
# Poissons Ratio (x) = 0.00151 0.02318
# Poissons Ratio (y) = 0.00107 -0.08118
# Poissons Ratio (z) = 0.02957 -0.14583
#
# Static dielectric constant tensor:
#      x y z
#    x 1.598350 0.000000 -0.006970 
#    y 0.000000 1.580960 0.000000 
#    z -0.006970 0.000000 1.615960 
# 
# From -- ./inp_files/321268.got.cif
#   From: 2010.05.17/outbox.cif.g08.bks.cpg/sg12_161_cif.got.tgz:321268.got - 2010.06.03 13:09:07.
