data_PCOD9178844
_publ_section_title
;
Structure prediction by ZEFSAII (Michael W. Deem and Ramdas Pophale) SiO2 
 PCOD9178844
Probable space group: C 2/M
;
_chemical_formula_sum "Si O2"
_cell_formula_units_Z 40
_cell_length_a 28.640496
_cell_length_b 9.290838
_cell_length_c 17.896170
_cell_angle_alpha 90.000000
_cell_angle_beta 158.083262
_cell_angle_gamma 90.000000
_cell_volume 1777.483574
_symmetry_space_group_name_H-M "C 2/M"
_symmetry_group_IT_number 12
_symmetry_cell_setting 'monoclinic'
loop_
_space_group_symop_operation_xyz
x,y,z
-x,y,-z
-x,-y,-z
x,-y,z
1/2+x,1/2+y,z
1/2-x,1/2+y,-z
1/2-x,1/2-y,-z
1/2+x,1/2-y,z
loop_
_atom_site_type_symbol
_atom_site_label
_atom_site_fract_x
_atom_site_fract_y
_atom_site_fract_z
Si Si1 0.981639 0.165819 0.673409
Si Si2 0.341093 0.838718 0.582675
Si Si3 0.222821 0.835945 0.144856
Si Si4 0.635423 0.174243 0.786281
Si Si5 0.425484 0.161047 0.960381
O O1 0.018746 0.257345 0.655931
O O2 0.874510 0.245826 0.560282
O O3 0.953895 0.000000 0.614427
O O4 0.102255 0.164208 0.909141
O O5 0.250000 0.750000 0.500000
O O6 0.468111 0.852303 0.818664
O O7 0.295156 0.000000 0.497617
O O8 0.336528 0.792360 0.258821
O O9 0.244058 0.000000 0.200108
O O10 0.183829 0.742947 0.158188
O O11 0.637669 0.000000 0.797494
O O12 0.750000 0.250000 0.000000
O O13 0.384668 0.000000 0.876306
O O14 0.500000 0.227727 0.000000
#
# Coordination Sequence:
#
# PCOD9178844 Si02
#       5
#     8   8   8   8   8
#     4   9  16  26  40  60  86 114 146 181 220 265
#     4  10  19  31  47  66  91 120 150 185 222 263
#     4   8  15  25  38  59  86 114 143 178 218 261
#     4   9  15  23  36  57  85 114 144 178 220 266
#     4   9  18  31  46  65  89 118 151 185 220 259
#
# _framework density 22.503723000000001
#
# number of rings (size 3 to 8) (size 9 to 14) (size 15 to 20)
#    0.000    3.000    0.000    3.000    0.000    6.800 
#    0.000    0.000    0.000    0.000    0.000    1.400 
#    0.000   11.200    0.000    0.000    0.000    0.000 
#
# Total GULP energy -111619.520368 kJ/mol
# GULP energy per Si atom -5580.976018 kJ/mol
# Density = 2.245250 g / cm^3
# Si number density = 22.503723 Si / 1000 Ang^3
#
#
#
# Elastic Constant Matrix: (Units=GPa)
#
#
# Indices 1 2 3 4 5 6 
#
# 1 225.1268 120.4622 51.9202 0.0000 68.1801 0.0000
# 2 120.4622 149.5981 31.8184 0.0000 44.6421 0.0000
# 3 51.9202 31.8184 42.9807 0.0000 5.0135 0.0000
# 4 0.0000 0.0000 0.0000 6.3625 0.0000 13.4787
# 5 68.1801 44.6421 5.0135 0.0000 63.1160 0.0000
# 6 0.0000 0.0000 0.0000 13.4787 0.0000 36.8841
#
#
#
# Elastic Compliance Matrix: (Units=1/GPa)
#
#
# Indices 1 2 3 4 5 6 
#
# 1 0.011983 -0.004994 -0.009771 0.000000 -0.008636 0.000000
# 2 -0.004994 0.012157 -0.002618 0.000000 -0.002996 0.000000
# 3 -0.009771 -0.002618 0.035893 0.000000 0.009555 0.000000
# 4 0.000000 0.000000 0.000000 0.695929 0.000000 -0.254315
# 5 -0.008636 -0.002996 0.009555 0.000000 0.026533 0.000000
# 6 0.000000 0.000000 0.000000 -0.254315 0.000000 0.120047
#
#
# Mechanical properties :
#
#
# Convention : Reuss Voigt Hill
#
# Bulk Modulus (GPa) = 39.57649 91.78968 65.68309
# Shear Modulus (GPa) = 5.28693 35.50617 20.39655
#
# Velocity S-wave (km/s) = 1.53442 3.97645 3.01385
# Velocity P-wave (km/s) = 4.55676 7.87147 6.43134
#
# Compressibility (1/GPa) = 0.02526753
#
# Stress axis : x y z
#
# Youngs Moduli (GPa) = 83.45152 82.26038 27.86074
#
# Poissons Ratio (x) = 0.41079 0.27223
# Poissons Ratio (y) = 0.41674 0.07293
# Poissons Ratio (z) = 0.81541 0.21532
#
# Static dielectric constant tensor:
#      x y z
#    x 1.822910 0.000000 -0.000150 
#    y 0.000000 1.796400 0.000000 
#    z -0.000150 0.000000 2.184640 
# 
# From -- ./inp_files/171387.got.cif
#   From: 2010.05.17/outbox.cif.g08.bks.cpg/sg12_86_cif.got.tgz:171387.got - 2010.06.03 13:09:07.
