data_PCOD9178091
_publ_section_title
;
Structure prediction by ZEFSAII (Michael W. Deem and Ramdas Pophale) SiO2 
 PCOD9178091
Probable space group: C 2/M
;
_chemical_formula_sum "Si O2"
_cell_formula_units_Z 64
_cell_length_a 16.660845
_cell_length_b 7.350601
_cell_length_c 20.688604
_cell_angle_alpha 90.000000
_cell_angle_beta 104.997806
_cell_angle_gamma 90.000000
_cell_volume 2447.368095
_symmetry_space_group_name_H-M "C 2/M"
_symmetry_group_IT_number 12
_symmetry_cell_setting 'monoclinic'
loop_
_space_group_symop_operation_xyz
x,y,z
-x,y,-z
-x,-y,-z
x,-y,z
1/2+x,1/2+y,z
1/2-x,1/2+y,-z
1/2-x,1/2-y,-z
1/2+x,1/2-y,z
loop_
_atom_site_type_symbol
_atom_site_label
_atom_site_fract_x
_atom_site_fract_y
_atom_site_fract_z
Si Si1 0.396558 0.721776 0.211239
Si Si2 0.891101 0.779132 0.413912
Si Si3 0.319871 0.283145 0.961134
Si Si4 0.763008 0.215148 0.287554
Si Si5 0.031179 0.780243 0.336321
Si Si6 0.155588 0.782844 0.460008
Si Si7 0.632483 0.282241 0.163182
Si Si8 0.051016 0.222007 0.912990
O O1 0.395640 0.500000 0.211912
O O2 0.323202 0.785333 0.242622
O O3 0.484002 0.780916 0.261973
O O4 0.392172 0.776706 0.136206
O O5 0.804456 0.716171 0.362262
O O6 0.895786 0.714874 0.488233
O O7 0.964589 0.737035 0.379538
O O8 0.891178 0.000000 0.417752
O O9 0.325824 0.500000 0.956668
O O10 0.311701 0.214708 0.886052
O O11 0.250000 0.250000 0.000000
O O12 0.405651 0.217860 0.012217
O O13 0.671093 0.241728 0.241136
O O14 0.774731 0.000000 0.293236
O O15 0.118175 0.712987 0.384446
O O16 0.036418 0.000000 0.330389
O O17 0.250000 0.750000 0.500000
O O18 0.145288 0.000000 0.454649
O O19 0.629051 0.500000 0.161959
O O20 0.540731 0.217677 0.125597
O O21 0.048547 0.000000 0.915320
#
# Coordination Sequence:
#
# PCOD9178091 Si02
#       8
#     8   8   8   8   8   8   8   8
#     4   8  14  26  47  72  91 114 157 201 228 263
#     4   8  15  29  49  70  91 121 162 199 228 268
#     4  10  20  34  52  72  94 124 161 197 232 272
#     4   9  17  31  51  72  94 122 157 195 234 276
#     4   8  14  26  46  69  89 116 159 201 228 261
#     4  10  19  30  46  69  97 125 154 193 238 280
#     4  10  20  32  48  72 100 126 154 190 232 280
#     4   9  17  30  47  67  95 128 155 184 229 282
#
# _framework density 26.150538999999998
#
# number of rings (size 3 to 8) (size 9 to 14) (size 15 to 20)
#    0.000    3.000    0.000    3.000    0.000    5.500 
#    0.000    2.500    0.000    6.750    0.000    0.000 
#    0.000    0.000    0.000    0.000    0.000    0.000 
#
# Total GULP energy -178731.002439 kJ/mol
# GULP energy per Si atom -5585.343826 kJ/mol
# Density = 2.609102 g / cm^3
# Si number density = 26.150539 Si / 1000 Ang^3
#
#
#
# Elastic Constant Matrix: (Units=GPa)
#
#
# Indices 1 2 3 4 5 6 
#
# 1 52.9399 -12.7792 -0.3705 0.0000 19.9550 0.0000
# 2 -12.7792 97.2295 1.1060 0.0000 -1.3258 0.0000
# 3 -0.3705 1.1060 146.1288 0.0000 26.2357 0.0000
# 4 0.0000 0.0000 0.0000 3.4711 0.0000 8.4485
# 5 19.9550 -1.3258 26.2357 0.0000 44.9241 0.0000
# 6 0.0000 0.0000 0.0000 8.4485 0.0000 3.8805
#
#
#
# Elastic Compliance Matrix: (Units=1/GPa)
#
#
# Indices 1 2 3 4 5 6 
#
# 1 0.024106 0.002981 0.002173 0.000000 -0.011889 0.000000
# 2 0.002981 0.010661 0.000121 0.000000 -0.001080 0.000000
# 3 0.002173 0.000121 0.007843 0.000000 -0.005542 0.000000
# 4 0.000000 0.000000 0.000000 -0.067012 0.000000 0.145897
# 5 -0.011889 -0.001080 -0.005542 0.000000 0.030745 0.000000
# 6 0.000000 0.000000 0.000000 0.145897 0.000000 -0.059943
#
#
# Mechanical properties :
#
#
# Convention : Reuss Voigt Hill
#
# Bulk Modulus (GPa) = 18.81128 30.24565 24.52846
# Shear Modulus (GPa) = -107.68570 31.01125 -38.33723
#
# Velocity S-wave (km/s) = -6.42406 3.44739 -3.83302
# Velocity P-wave (km/s) = 6.91489 5.23804 3.19207
#
# Compressibility (1/GPa) = 0.05315960
#
# Stress axis : x y z
#
# Youngs Moduli (GPa) = 41.48430 93.80246 127.50456
#
# Poissons Ratio (x) = -0.27967 -0.27707
# Poissons Ratio (y) = -0.12368 -0.01541
# Poissons Ratio (z) = -0.09015 -0.01133
#
# Static dielectric constant tensor:
#      x y z
#    x 2.134270 0.000000 0.026200 
#    y 0.000000 2.033130 0.000000 
#    z 0.026200 0.000000 2.100250 
# 
# From -- ./inp_files/309932.got.cif
#   From: 2010.05.17/outbox.cif.g08.bks.cpg/sg12_155_cif.got.tgz:309932.got - 2010.06.03 13:09:07.
