data_PCOD9178980
_publ_section_title
;
Structure prediction by ZEFSAII (Michael W. Deem and Ramdas Pophale) SiO2 
 PCOD9178980
Probable space group: C 2/M
;
_chemical_formula_sum "Si O2"
_cell_formula_units_Z 56
_cell_length_a 19.277642
_cell_length_b 28.095332
_cell_length_c 5.228989
_cell_angle_alpha 90.000000
_cell_angle_beta 103.280222
_cell_angle_gamma 90.000000
_cell_volume 2756.347000
_symmetry_space_group_name_H-M "C 2/M"
_symmetry_group_IT_number 12
_symmetry_cell_setting 'monoclinic'
loop_
_space_group_symop_operation_xyz
x,y,z
-x,y,-z
-x,-y,-z
x,-y,z
1/2+x,1/2+y,z
1/2-x,1/2+y,-z
1/2-x,1/2-y,-z
1/2+x,1/2-y,z
loop_
_atom_site_type_symbol
_atom_site_label
_atom_site_fract_x
_atom_site_fract_y
_atom_site_fract_z
Si Si1 0.654752 0.947757 0.972706
Si Si2 0.525049 0.367175 0.771431
Si Si3 0.567603 0.931195 0.397619
Si Si4 0.186867 0.340348 0.035612
Si Si5 0.402730 0.175114 0.549649
Si Si6 0.655992 0.306087 0.874381
Si Si7 0.419226 0.725651 0.690013
O O1 0.590842 0.947200 0.133374
O O2 0.694813 0.897963 0.056306
O O3 0.689116 0.000000 0.030332
O O4 0.629258 0.942462 0.656730
O O5 0.500000 0.393082 0.500000
O O6 0.607393 0.353770 0.841143
O O7 0.477559 0.317008 0.731855
O O8 0.500000 0.393237 0.000000
O O9 0.500000 0.949409 0.500000
O O10 0.558105 0.874392 0.364691
O O11 0.160569 0.324691 0.293213
O O12 0.261413 0.316200 0.030121
O O13 0.129903 0.327941 0.763532
O O14 0.447757 0.221781 0.659508
O O15 0.636119 0.283423 0.586314
O O16 0.622579 0.276697 0.079399
#
# Coordination Sequence:
#
# PCOD9178980 Si02
#       7
#     8   8   8   8   8   8   8
#     4  10  21  37  54  72  96 123 155 200 249 299
#     4   8  16  29  43  64  88 115 156 193 223 259
#     4  10  21  35  52  75  98 125 161 201 243 281
#     4  10  21  35  49  70  95 123 157 196 242 282
#     4  10  21  34  47  67  99 130 159 194 231 274
#     4  10  19  31  48  68  94 123 162 201 229 273
#     4  10  19  31  48  68  94 131 165 194 229 271
#
# _framework density 20.316745000000001
#
# number of rings (size 3 to 8) (size 9 to 14) (size 15 to 20)
#    0.000    2.286    0.000    2.571    0.000    6.857 
#    0.000    7.143    0.000    0.000    0.000    0.000 
#    0.000   10.286    0.000    0.000    0.000   15.714 
#
# Total GULP energy -156076.515617 kJ/mol
# GULP energy per Si atom -5574.161272 kJ/mol
# Density = 2.027050 g / cm^3
# Si number density = 20.316745 Si / 1000 Ang^3
#
#
#
# Elastic Constant Matrix: (Units=GPa)
#
#
# Indices 1 2 3 4 5 6 
#
# 1 49.7269 13.1229 1.0694 0.0000 -13.5714 0.0000
# 2 13.1229 44.4062 1.8315 0.0000 -0.9810 0.0000
# 3 1.0694 1.8315 121.6741 0.0000 -25.6717 0.0000
# 4 0.0000 0.0000 0.0000 3.7477 0.0000 -0.2080
# 5 -13.5714 -0.9810 -25.6717 0.0000 24.1597 0.0000
# 6 0.0000 0.0000 0.0000 -0.2080 0.0000 -8.6639
#
#
#
# Elastic Compliance Matrix: (Units=1/GPa)
#
#
# Indices 1 2 3 4 5 6 
#
# 1 0.027331 -0.007815 0.003931 0.000000 0.019213 0.000000
# 2 -0.007815 0.024777 -0.001312 0.000000 -0.004778 0.000000
# 3 0.003931 -0.001312 0.011161 0.000000 0.014014 0.000000
# 4 0.000000 0.000000 0.000000 0.266475 0.000000 -0.006396
# 5 0.019213 -0.004778 0.014014 0.000000 0.066881 0.000000
# 6 0.000000 0.000000 0.000000 -0.006396 0.000000 -0.115268
#
#
# Mechanical properties :
#
#
# Convention : Reuss Voigt Hill
#
# Bulk Modulus (GPa) = 18.91176 27.53942 23.22559
# Shear Modulus (GPa) = 16.16164 17.16759 16.66461
#
# Velocity S-wave (km/s) = 2.82349 2.91004 2.86709
# Velocity P-wave (km/s) = 4.46745 4.98754 4.73464
#
# Compressibility (1/GPa) = 0.05287715
#
# Stress axis : x y z
#
# Youngs Moduli (GPa) = 36.58847 40.35951 89.60022
#
# Poissons Ratio (x) = 0.31539 -0.35222
# Poissons Ratio (y) = 0.28592 0.11759
# Poissons Ratio (z) = -0.14383 0.05297
#
# Static dielectric constant tensor:
#      x y z
#    x 1.708110 0.000000 -0.022640 
#    y 0.000000 1.762390 0.000000 
#    z -0.022640 0.000000 1.783760 
# 
# From -- ./inp_files/21684.got.cif
#   From: 2010.05.17/outbox.cif.g08.bks.cpg/sg12_11_cif.got.tgz:21684.got - 2010.06.03 13:09:07.
