data_PCOD9178800
_publ_section_title
;
Structure prediction by ZEFSAII (Michael W. Deem and Ramdas Pophale) SiO2 
 PCOD9178800
Probable space group: C 2/M
;
_chemical_formula_sum "Si O2"
_cell_formula_units_Z 56
_cell_length_a 21.713486
_cell_length_b 28.200148
_cell_length_c 17.889045
_cell_angle_alpha 90.000000
_cell_angle_beta 162.242252
_cell_angle_gamma 90.000000
_cell_volume 3340.858585
_symmetry_space_group_name_H-M "C 2/M"
_symmetry_group_IT_number 12
_symmetry_cell_setting 'monoclinic'
loop_
_space_group_symop_operation_xyz
x,y,z
-x,y,-z
-x,-y,-z
x,-y,z
1/2+x,1/2+y,z
1/2-x,1/2+y,-z
1/2-x,1/2-y,-z
1/2+x,1/2-y,z
loop_
_atom_site_type_symbol
_atom_site_label
_atom_site_fract_x
_atom_site_fract_y
_atom_site_fract_z
Si Si1 0.730630 0.811009 0.404388
Si Si2 0.463465 0.556237 0.372063
Si Si3 0.941852 0.787334 0.846656
Si Si4 0.684492 0.704177 0.975268
Si Si5 0.415898 0.849118 0.607582
Si Si6 0.015174 0.444938 0.795196
Si Si7 0.358656 0.905470 0.767716
O O1 0.687993 0.758032 0.329528
O O2 0.614458 0.823326 0.347004
O O3 0.635774 0.849320 0.238965
O O4 0.972171 0.815604 0.695926
O O5 0.500000 0.571251 0.500000
O O6 0.501182 0.500000 0.413681
O O7 0.629819 0.583085 0.519042
O O8 0.247624 0.564539 0.085976
O O9 0.791803 0.832725 0.671433
O O10 0.118662 0.788980 0.987036
O O11 0.000000 0.780334 0.000000
O O12 0.750000 0.750000 0.000000
O O13 0.879361 0.670179 0.193460
O O14 0.437502 0.905127 0.648284
O O15 0.990644 0.500000 0.744987
O O16 0.911231 0.434182 0.754271
O O17 0.500000 0.920003 0.000000
#
# Coordination Sequence:
#
# PCOD9178800 Si02
#       7
#     8   8   8   8   8   8   8
#     4  10  20  34  51  78 112 144 182 218 255 317
#     4  10  19  31  46  69 101 138 184 229 261 305
#     4  11  22  36  55  84 114 137 179 230 268 317
#     4  11  18  36  60  76 104 149 181 215 268 323
#     4  10  20  37  57  77 107 148 180 218 270 321
#     4  10  21  35  54  76 102 139 185 226 266 323
#     4  11  20  31  48  73 109 148 177 214 268 310
#
# _framework density 16.762157999999999
#
# number of rings (size 3 to 8) (size 9 to 14) (size 15 to 20)
#    0.000    1.571    4.286    2.571    0.000    1.143 
#    0.000    0.000    0.000    0.429    0.000    1.000 
#    0.000    0.000    0.000    0.000    0.000    0.000 
#
# Total GULP energy -155921.261005 kJ/mol
# GULP energy per Si atom -5568.616464 kJ/mol
# Density = 1.672401 g / cm^3
# Si number density = 16.762158 Si / 1000 Ang^3
#
#
#
# Elastic Constant Matrix: (Units=GPa)
#
#
# Indices 1 2 3 4 5 6 
#
# 1 78.5685 31.5584 27.1866 -0.0001 13.4992 -0.0002
# 2 31.5584 144.0150 -32.0948 0.0000 -25.4579 0.0002
# 3 27.1866 -32.0948 100.3270 -0.0003 43.8217 -0.0004
# 4 -0.0001 0.0000 -0.0003 26.4635 0.0001 1.0789
# 5 13.4992 -25.4579 43.8217 0.0001 40.6748 -0.0003
# 6 -0.0002 0.0002 -0.0004 1.0789 -0.0003 10.6857
#
#
#
# Elastic Compliance Matrix: (Units=1/GPa)
#
#
# Indices 1 2 3 4 5 6 
#
# 1 0.017290 -0.005569 -0.004605 0.000000 -0.004262 0.000000
# 2 -0.005569 0.009626 0.002171 0.000000 0.005534 0.000000
# 3 -0.004605 0.002171 0.020114 0.000000 -0.018783 0.000000
# 4 0.000000 0.000000 0.000000 0.037944 0.000000 -0.003831
# 5 -0.004262 0.005534 -0.018783 0.000000 0.049699 0.000001
# 6 0.000000 0.000000 0.000000 -0.003831 0.000001 0.093970
#
#
# Mechanical properties :
#
#
# Convention : Reuss Voigt Hill
#
# Bulk Modulus (GPa) = 32.23106 41.80123 37.01614
# Shear Modulus (GPa) = 19.60864 35.31549 27.46207
#
# Velocity S-wave (km/s) = 3.42397 4.59503 4.05203
# Velocity P-wave (km/s) = 5.90776 7.29002 6.63498
#
# Compressibility (1/GPa) = 0.03102597
#
# Stress axis : x y z
#
# Youngs Moduli (GPa) = 57.83618 103.88457 49.71657
#
# Poissons Ratio (x) = 0.57849 0.22894
# Poissons Ratio (y) = 0.32206 -0.10795
# Poissons Ratio (z) = 0.26633 -0.22557
#
# Static dielectric constant tensor:
#      x y z
#    x 1.556120 0.000000 0.000330 
#    y 0.000000 1.586970 0.000000 
#    z 0.000330 0.000000 1.560160 
# 
# From -- ./inp_files/13140.got.cif
#   From: 2010.05.17/outbox.cif.g08.bks.cpg/sg12_7_cif.got.tgz:13140.got - 2010.06.03 13:09:07.
