data_PCOD9178018
_publ_section_title
;
Structure prediction by ZEFSAII (Michael W. Deem and Ramdas Pophale) SiO2 
 PCOD9178018
Probable space group: C 2/M
;
_chemical_formula_sum "Si O2"
_cell_formula_units_Z 64
_cell_length_a 36.295885
_cell_length_b 13.603287
_cell_length_c 7.629162
_cell_angle_alpha 90.000000
_cell_angle_beta 98.712786
_cell_angle_gamma 90.000000
_cell_volume 3723.378910
_symmetry_space_group_name_H-M "C 2/M"
_symmetry_group_IT_number 12
_symmetry_cell_setting 'monoclinic'
loop_
_space_group_symop_operation_xyz
x,y,z
-x,y,-z
-x,-y,-z
x,-y,z
1/2+x,1/2+y,z
1/2-x,1/2+y,-z
1/2-x,1/2-y,-z
1/2+x,1/2-y,z
loop_
_atom_site_type_symbol
_atom_site_label
_atom_site_fract_x
_atom_site_fract_y
_atom_site_fract_z
Si Si1 0.959156 0.380129 0.411525
Si Si2 0.588153 0.881628 0.939016
Si Si3 0.334174 0.203981 0.076597
Si Si4 0.802322 0.117469 0.205447
Si Si5 0.898815 0.381140 0.652079
Si Si6 0.741778 0.882651 0.875041
Si Si7 0.236164 0.881471 0.477654
Si Si8 0.182212 0.619192 0.316413
O O1 0.959499 0.500000 0.415953
O O2 0.946702 0.352215 0.206228
O O3 0.927378 0.346322 0.525161
O O4 0.000000 0.346966 0.500000
O O5 0.625588 0.843735 0.871787
O O6 0.589969 0.000000 0.943087
O O7 0.589082 0.849092 0.142596
O O8 0.333193 0.317751 0.130895
O O9 0.299748 0.158356 0.159243
O O10 0.323455 0.175972 0.869617
O O11 0.793813 0.148798 0.398832
O O12 0.808700 0.000000 0.201328
O O13 0.764328 0.139194 0.068269
O O14 0.900898 0.500000 0.651939
O O15 0.854946 0.357874 0.598237
O O16 0.765857 0.849718 0.724932
O O17 0.738340 0.000000 0.864580
O O18 0.278117 0.857623 0.570284
O O19 0.233863 0.000000 0.477204
O O20 0.181957 0.500000 0.280781
#
# Coordination Sequence:
#
# PCOD9178018 Si02
#       8
#     8   8   8   8   8   8   8   8
#     4   9  17  28  43  64  91 122 147 164 195 250
#     4   9  18  30  44  65  90 112 144 182 210 249
#     4  11  19  30  47  65  83 115 151 186 225 262
#     4  10  21  36  44  57  87 115 148 193 231 266
#     4   8  15  26  39  58  87 118 144 172 206 239
#     4  10  19  30  46  64  83 111 145 183 227 265
#     4   9  18  30  44  62  85 114 145 183 228 265
#     4   9  16  28  44  63  90 114 141 185 223 254
#
# _framework density 17.188687999999999
#
# number of rings (size 3 to 8) (size 9 to 14) (size 15 to 20)
#    0.000    2.625    1.250    2.250    1.750    1.000 
#    0.000    2.500    0.000    0.000    0.000    0.000 
#    0.000    0.500    0.000    5.500    0.000    2.500 
#
# Total GULP energy -178399.599880 kJ/mol
# GULP energy per Si atom -5574.987496 kJ/mol
# Density = 1.714957 g / cm^3
# Si number density = 17.188688 Si / 1000 Ang^3
#
#
#
# Elastic Constant Matrix: (Units=GPa)
#
#
# Indices 1 2 3 4 5 6 
#
# 1 29.4469 -1.6222 1.3286 0.0000 2.7235 0.0000
# 2 -1.6222 32.0071 1.6974 0.0000 -3.7267 0.0000
# 3 1.3286 1.6974 45.1529 0.0000 -7.5944 0.0000
# 4 0.0000 0.0000 0.0000 11.0567 0.0000 -3.6944
# 5 2.7235 -3.7267 -7.5944 0.0000 25.0104 0.0000
# 6 0.0000 0.0000 0.0000 -3.6944 0.0000 12.0985
#
#
#
# Elastic Compliance Matrix: (Units=1/GPa)
#
#
# Indices 1 2 3 4 5 6 
#
# 1 0.034492 0.001366 -0.001753 0.000000 -0.004085 0.000000
# 2 0.001366 0.031856 -0.000489 0.000000 0.004450 0.000000
# 3 -0.001753 -0.000489 0.023434 0.000000 0.007234 0.000000
# 4 0.000000 0.000000 0.000000 0.100720 0.000000 0.030756
# 5 -0.004085 0.004450 0.007234 0.000000 0.043288 0.000000
# 6 0.000000 0.000000 0.000000 0.030756 0.000000 0.092047
#
#
# Mechanical properties :
#
#
# Convention : Reuss Voigt Hill
#
# Bulk Modulus (GPa) = 11.36012 12.15716 11.75864
# Shear Modulus (GPa) = 14.00825 16.64664 15.32745
#
# Velocity S-wave (km/s) = 2.85786 3.11539 2.98940
# Velocity P-wave (km/s) = 4.18489 4.47538 4.33257
#
# Compressibility (1/GPa) = 0.08802724
#
# Stress axis : x y z
#
# Youngs Moduli (GPa) = 28.99261 31.39099 42.67373
#
# Poissons Ratio (x) = -0.04286 0.07482
# Poissons Ratio (y) = -0.03959 0.02088
# Poissons Ratio (z) = 0.05083 0.01536
#
# Static dielectric constant tensor:
#      x y z
#    x 1.574520 0.000000 -0.004210 
#    y 0.000000 1.625480 0.000000 
#    z -0.004210 0.000000 1.642200 
# 
# From -- ./inp_files/111198.got.cif
#   From: 2010.05.17/outbox.cif.g08.bks.cpg/sg12_56_cif.got.tgz:111198.got - 2010.06.03 13:09:07.
