data_PCOD9178884
_publ_section_title
;
Structure prediction by ZEFSAII (Michael W. Deem and Ramdas Pophale) SiO2 
 PCOD9178884
Probable space group: C 2/M
;
_chemical_formula_sum "Si O2"
_cell_formula_units_Z 56
_cell_length_a 14.786529
_cell_length_b 7.507011
_cell_length_c 31.927599
_cell_angle_alpha 90.000000
_cell_angle_beta 49.607241
_cell_angle_gamma 90.000000
_cell_volume 2699.218313
_symmetry_space_group_name_H-M "C 2/M"
_symmetry_group_IT_number 12
_symmetry_cell_setting 'monoclinic'
loop_
_space_group_symop_operation_xyz
x,y,z
-x,y,-z
-x,-y,-z
x,-y,z
1/2+x,1/2+y,z
1/2-x,1/2+y,-z
1/2-x,1/2-y,-z
1/2+x,1/2-y,z
loop_
_atom_site_type_symbol
_atom_site_label
_atom_site_fract_x
_atom_site_fract_y
_atom_site_fract_z
Si Si1 0.404386 0.784787 0.062472
Si Si2 0.313815 0.717626 0.568721
Si Si3 0.833431 0.284050 0.765059
Si Si4 0.457584 0.715353 0.446529
Si Si5 0.055252 0.706592 0.646428
Si Si6 0.635950 0.211076 0.149116
Si Si7 0.565904 0.789911 0.851732
O O1 0.269056 0.736770 0.092093
O O2 0.431231 0.717535 0.101559
O O3 0.409502 0.000000 0.061943
O O4 0.500000 0.721822 0.000000
O O5 0.311512 0.500000 0.568836
O O6 0.354924 0.772964 0.509745
O O7 0.418251 0.768391 0.569038
O O8 0.183698 0.784109 0.619633
O O9 0.831510 0.500000 0.765651
O O10 0.861584 0.219893 0.803887
O O11 0.699461 0.229062 0.794308
O O12 0.936733 0.219026 0.703142
O O13 0.454785 0.500000 0.445445
O O14 0.449326 0.784989 0.402332
O O15 0.058469 0.500000 0.658556
O O16 0.534382 0.284717 0.149083
O O17 0.614154 0.000000 0.159499
O O18 0.540894 0.000000 0.863452
#
# Coordination Sequence:
#
# PCOD9178884 Si02
#       7
#     8   8   8   8   8   8   8
#     4   9  18  32  49  73 104 130 153 189 237 281
#     4   8  16  31  49  68  93 123 153 187 232 284
#     4   9  19  33  47  66  93 123 156 194 236 279
#     4   9  17  31  50  70  91 120 157 191 227 280
#     4  10  19  31  47  68  94 122 151 190 240 283
#     4   9  18  33  51  70  93 125 163 197 229 270
#     4   9  18  33  52  71  93 124 161 197 231 272
#
# _framework density 20.746746000000002
#
# number of rings (size 3 to 8) (size 9 to 14) (size 15 to 20)
#    0.000    3.000    0.000    1.286    0.000    3.143 
#    0.000    5.000    0.000    0.000    0.000    0.000 
#    0.000    0.000    0.000    0.000    0.000    0.000 
#
# Total GULP energy -156190.893708 kJ/mol
# GULP energy per Si atom -5578.246204 kJ/mol
# Density = 2.069953 g / cm^3
# Si number density = 20.746746 Si / 1000 Ang^3
#
#
#
# Elastic Constant Matrix: (Units=GPa)
#
#
# Indices 1 2 3 4 5 6 
#
# 1 139.2953 -3.5514 45.0470 0.0005 -24.5504 -0.0070
# 2 -3.5514 49.9341 -12.5866 0.0022 5.1345 -0.0104
# 3 45.0470 -12.5866 78.2068 0.0010 -27.1496 -0.0089
# 4 0.0005 0.0022 0.0010 16.7631 0.0000 2.0089
# 5 -24.5504 5.1345 -27.1496 0.0000 16.8294 -0.0031
# 6 -0.0070 -0.0104 -0.0089 2.0089 -0.0031 148.5048
#
#
#
# Elastic Compliance Matrix: (Units=1/GPa)
#
#
# Indices 1 2 3 4 5 6 
#
# 1 0.009787 -0.000945 -0.001666 0.000000 0.011878 0.000001
# 2 -0.000945 0.020999 0.002776 -0.000003 -0.003307 0.000002
# 3 -0.001666 0.002776 0.029673 -0.000002 0.044592 0.000003
# 4 0.000000 -0.000003 -0.000002 0.059752 -0.000003 -0.000808
# 5 0.011878 -0.003307 0.044592 -0.000003 0.149694 0.000006
# 6 0.000001 0.000002 0.000003 -0.000808 0.000006 0.006745
#
#
# Mechanical properties :
#
#
# Convention : Reuss Voigt Hill
#
# Bulk Modulus (GPa) = 16.45048 36.13936 26.29492
# Shear Modulus (GPa) = 16.85868 52.32128 34.58998
#
# Velocity S-wave (km/s) = 2.85370 5.02730 4.08763
# Velocity P-wave (km/s) = 4.33642 7.15231 5.91439
#
# Compressibility (1/GPa) = 0.06078850
#
# Stress axis : x y z
#
# Youngs Moduli (GPa) = 102.17496 47.62148 33.70031
#
# Poissons Ratio (x) = 0.04501 0.05615
# Poissons Ratio (y) = 0.09658 -0.09355
# Poissons Ratio (z) = 0.17023 -0.13219
#
# Static dielectric constant tensor:
#      x y z
#    x 1.733990 0.000000 -0.005140 
#    y 0.000000 1.794310 0.000000 
#    z -0.005140 0.000000 1.726670 
# 
# From -- ./inp_files/304292.got.cif
#   From: 2010.05.17/outbox.cif.g08.bks.cpg/sg12_153_cif.got.tgz:304292.got - 2010.06.03 13:09:07.
