data_PCOD9178538
_publ_section_title
;
Structure prediction by ZEFSAII (Michael W. Deem and Ramdas Pophale) SiO2 
 PCOD9178538
Probable space group: C 2/M
;
_chemical_formula_sum "Si O2"
_cell_formula_units_Z 64
_cell_length_a 32.517899
_cell_length_b 10.834887
_cell_length_c 9.968423
_cell_angle_alpha 90.000000
_cell_angle_beta 77.507194
_cell_angle_gamma 90.000000
_cell_volume 3428.995547
_symmetry_space_group_name_H-M "C 2/M"
_symmetry_group_IT_number 12
_symmetry_cell_setting 'monoclinic'
loop_
_space_group_symop_operation_xyz
x,y,z
-x,y,-z
-x,-y,-z
x,-y,z
1/2+x,1/2+y,z
1/2-x,1/2+y,-z
1/2-x,1/2-y,-z
1/2+x,1/2-y,z
loop_
_atom_site_type_symbol
_atom_site_label
_atom_site_fract_x
_atom_site_fract_y
_atom_site_fract_z
Si Si1 0.443814 0.649031 0.821021
Si Si2 0.853185 0.641663 0.557525
Si Si3 0.294105 0.740324 0.139999
Si Si4 0.706140 0.860774 0.147085
Si Si5 0.724512 0.136195 0.581622
Si Si6 0.613009 0.648913 0.897849
Si Si7 0.579798 0.355482 0.467467
Si Si8 0.464064 0.645258 0.228873
O O1 0.445633 0.500000 0.830942
O O2 0.406049 0.688592 0.944573
O O3 0.435748 0.674104 0.671070
O O4 0.489676 0.697244 0.834365
O O5 0.870101 0.500000 0.558158
O O6 0.825340 0.669360 0.709879
O O7 0.821000 0.640643 0.456313
O O8 0.886004 0.752192 0.520699
O O9 0.253997 0.649462 0.167264
O O10 0.280221 0.844433 0.255954
O O11 0.298635 0.779533 0.982025
O O12 0.339453 0.692625 0.155249
O O13 0.697571 0.000000 0.111511
O O14 0.750000 0.250000 0.500000
O O15 0.742926 0.000000 0.539546
O O16 0.614474 0.500000 0.891396
O O17 0.577443 0.693335 0.817458
O O18 0.594790 0.500000 0.458971
O O19 0.544062 0.348137 0.606385
O O20 0.465657 0.500000 0.190588
#
# Coordination Sequence:
#
# PCOD9178538 Si02
#       8
#     8   8   8   8   8   8   8   8
#     4   9  17  30  49  76 110 142 175 219 276 334
#     4  10  21  38  55  77 111 151 183 219 276 329
#     4  11  21  35  55  80 106 139 188 233 269 324
#     4  10  21  37  54  74 107 147 183 224 278 329
#     4  11  23  39  58  81 109 145 188 229 276 328
#     4  10  19  30  49  77 108 142 181 226 276 325
#     4  10  19  32  53  82 108 139 182 228 270 316
#     4   9  17  30  49  75 108 142 175 219 279 336
#
# _framework density 18.664358
#
# number of rings (size 3 to 8) (size 9 to 14) (size 15 to 20)
#    0.000    2.000    1.250    3.000    0.000    4.000 
#    0.000    0.625    0.000    1.500    0.000    0.000 
#    0.000   10.000    0.000    0.000    0.000    0.000 
#
# Total GULP energy -178300.879692 kJ/mol
# GULP energy per Si atom -5571.902490 kJ/mol
# Density = 1.862188 g / cm^3
# Si number density = 18.664358 Si / 1000 Ang^3
#
#
#
# Elastic Constant Matrix: (Units=GPa)
#
#
# Indices 1 2 3 4 5 6 
#
# 1 71.2800 29.2171 -6.5525 0.0000 -3.0129 0.0000
# 2 29.2171 61.2561 6.2769 0.0000 -4.1498 0.0000
# 3 -6.5525 6.2769 56.7839 0.0000 8.2908 0.0000
# 4 0.0000 0.0000 0.0000 15.6221 0.0000 0.6715
# 5 -3.0129 -4.1498 8.2908 0.0000 23.3800 0.0000
# 6 0.0000 0.0000 0.0000 0.6715 0.0000 19.1824
#
#
#
# Elastic Compliance Matrix: (Units=1/GPa)
#
#
# Indices 1 2 3 4 5 6 
#
# 1 0.017949 -0.008905 0.003110 0.000000 -0.000370 0.000000
# 2 -0.008905 0.021252 -0.003965 0.000000 0.004031 0.000000
# 3 0.003110 -0.003965 0.019460 0.000000 -0.007204 0.000000
# 4 0.000000 0.000000 0.000000 0.064108 0.000000 -0.002244
# 5 -0.000370 0.004031 -0.007204 0.000000 0.045994 0.000000
# 6 0.000000 0.000000 0.000000 -0.002244 0.000000 0.052210
#
#
# Mechanical properties :
#
#
# Convention : Reuss Voigt Hill
#
# Bulk Modulus (GPa) = 25.54960 27.46699 26.50830
# Shear Modulus (GPa) = 19.72072 22.32879 21.02476
#
# Velocity S-wave (km/s) = 3.25406 3.46256 3.35993
# Velocity P-wave (km/s) = 5.27610 5.54382 5.41162
#
# Compressibility (1/GPa) = 0.03913955
#
# Stress axis : x y z
#
# Youngs Moduli (GPa) = 55.71189 47.05512 51.38855
#
# Poissons Ratio (x) = 0.41903 -0.15980
# Poissons Ratio (y) = 0.49612 0.20377
# Poissons Ratio (z) = -0.17325 0.18659
#
# Static dielectric constant tensor:
#      x y z
#    x 1.651280 0.000000 0.006060 
#    y 0.000000 1.635680 0.000000 
#    z 0.006060 0.000000 1.679360 
# 
# From -- ./inp_files/110499.got.cif
#   From: 2010.05.17/outbox.cif.g08.bks.cpg/sg12_56_cif.got.tgz:110499.got - 2010.06.03 13:09:07.
