data_PCOD9178453
_publ_section_title
;
Structure prediction by ZEFSAII (Michael W. Deem and Ramdas Pophale) SiO2 
 PCOD9178453
Probable space group: C 2/M
;
_chemical_formula_sum "Si O2"
_cell_formula_units_Z 56
_cell_length_a 26.322634
_cell_length_b 7.511730
_cell_length_c 13.668201
_cell_angle_alpha 90.000000
_cell_angle_beta 69.075511
_cell_angle_gamma 90.000000
_cell_volume 2524.362303
_symmetry_space_group_name_H-M "C 2/M"
_symmetry_group_IT_number 12
_symmetry_cell_setting 'monoclinic'
loop_
_space_group_symop_operation_xyz
x,y,z
-x,y,-z
-x,-y,-z
x,-y,z
1/2+x,1/2+y,z
1/2-x,1/2+y,-z
1/2-x,1/2-y,-z
1/2+x,1/2-y,z
loop_
_atom_site_type_symbol
_atom_site_label
_atom_site_fract_x
_atom_site_fract_y
_atom_site_fract_z
Si Si1 0.944970 0.209837 0.689160
Si Si2 0.546540 0.208351 0.898404
Si Si3 0.269471 0.794436 0.734014
Si Si4 0.160345 0.784202 0.125870
Si Si5 0.836465 0.216482 0.097734
Si Si6 0.938040 0.295900 0.327185
Si Si7 0.372020 0.215815 0.551099
O O1 0.900933 0.269279 0.800832
O O2 0.915482 0.239943 0.605996
O O3 0.003407 0.296772 0.660372
O O4 0.953655 0.000000 0.695475
O O5 0.604234 0.223213 0.911378
O O6 0.552997 0.287429 0.785457
O O7 0.531925 0.000000 0.894050
O O8 0.500000 0.286864 0.000000
O O9 0.299952 0.788195 0.818099
O O10 0.210225 0.717139 0.796478
O O11 0.313238 0.716712 0.628053
O O12 0.261523 0.000000 0.711106
O O13 0.162690 0.000000 0.129740
O O14 0.174383 0.727694 0.006733
O O15 0.835489 0.000000 0.099009
O O16 0.920366 0.500000 0.322871
O O17 0.894465 0.216748 0.432417
O O18 0.369520 0.000000 0.549720
#
# Coordination Sequence:
#
# PCOD9178453 Si02
#       7
#     8   8   8   8   8   8   8
#     4  10  19  30  48  76 105 129 158 199 244 289
#     4  10  22  38  54  73  96 125 165 207 242 284
#     4   9  18  32  51  75 100 128 163 199 236 286
#     4   9  18  31  48  74 105 132 158 194 243 293
#     4  10  20  34  52  74 100 130 163 199 243 290
#     4  10  20  34  51  70  95 130 168 202 241 289
#     4   9  18  33  51  71  99 132 162 196 240 289
#
# _framework density 22.183821999999999
#
# number of rings (size 3 to 8) (size 9 to 14) (size 15 to 20)
#    0.000    2.429    0.000    2.143    0.000    4.857 
#    0.000    0.714    0.000    0.000    0.000    0.000 
#    0.000    0.000    0.000    0.000    0.000    0.000 
#
# Total GULP energy -156353.187875 kJ/mol
# GULP energy per Si atom -5584.042424 kJ/mol
# Density = 2.213333 g / cm^3
# Si number density = 22.183822 Si / 1000 Ang^3
#
#
#
# Elastic Constant Matrix: (Units=GPa)
#
#
# Indices 1 2 3 4 5 6 
#
# 1 77.0822 -10.8623 49.4318 0.0000 -35.7815 0.0000
# 2 -10.8623 62.1941 5.2133 0.0000 -1.3840 0.0000
# 3 49.4318 5.2133 172.5246 0.0000 -36.5057 0.0000
# 4 0.0000 0.0000 0.0000 5.9594 0.0000 -11.9349
# 5 -35.7815 -1.3840 -36.5057 0.0000 27.9966 0.0000
# 6 0.0000 0.0000 0.0000 -11.9349 0.0000 89.5117
#
#
#
# Elastic Compliance Matrix: (Units=1/GPa)
#
#
# Indices 1 2 3 4 5 6 
#
# 1 0.034859 0.007141 -0.000969 0.000000 0.043642 0.000000
# 2 0.007141 0.017583 -0.000638 0.000000 0.009163 0.000000
# 3 -0.000969 -0.000638 0.008044 0.000000 0.009218 0.000000
# 4 0.000000 0.000000 0.000000 0.228935 0.000000 0.030525
# 5 0.043642 0.009163 0.009218 0.000000 0.103969 0.000000
# 6 0.000000 0.000000 0.000000 0.030525 0.000000 0.015242
#
#
# Mechanical properties :
#
#
# Convention : Reuss Voigt Hill
#
# Bulk Modulus (GPa) = 13.97571 44.37405 29.17488
# Shear Modulus (GPa) = 11.86473 42.56140 27.21306
#
# Velocity S-wave (km/s) = 2.31516 4.38491 3.50624
# Velocity P-wave (km/s) = 3.66882 6.75891 5.43798
#
# Compressibility (1/GPa) = 0.07155269
#
# Stress axis : x y z
#
# Youngs Moduli (GPa) = 28.68659 56.87230 124.31866
#
# Poissons Ratio (x) = -0.40611 0.12049
# Poissons Ratio (y) = -0.20484 0.07936
# Poissons Ratio (z) = 0.02780 0.03631
#
# Static dielectric constant tensor:
#      x y z
#    x 1.766740 0.000000 -0.040820 
#    y 0.000000 1.834850 0.000000 
#    z -0.040820 0.000000 1.847910 
# 
# From -- ./inp_files/180721.got.cif
#   From: 2010.05.17/outbox.cif.g08.bks.cpg/sg12_91_cif.got.tgz:180721.got - 2010.06.03 13:09:07.
