data_PCOD9178503
_publ_section_title
;
Structure prediction by ZEFSAII (Michael W. Deem and Ramdas Pophale) SiO2 
 PCOD9178503
Probable space group: C 2/M
;
_chemical_formula_sum "Si O2"
_cell_formula_units_Z 64
_cell_length_a 20.703039
_cell_length_b 7.380516
_cell_length_c 33.864327
_cell_angle_alpha 90.000000
_cell_angle_beta 145.931680
_cell_angle_gamma 90.000000
_cell_volume 2898.622737
_symmetry_space_group_name_H-M "C 2/M"
_symmetry_group_IT_number 12
_symmetry_cell_setting 'monoclinic'
loop_
_space_group_symop_operation_xyz
x,y,z
-x,y,-z
-x,-y,-z
x,-y,z
1/2+x,1/2+y,z
1/2-x,1/2+y,-z
1/2-x,1/2-y,-z
1/2+x,1/2-y,z
loop_
_atom_site_type_symbol
_atom_site_label
_atom_site_fract_x
_atom_site_fract_y
_atom_site_fract_z
Si Si1 0.462149 0.279142 0.792598
Si Si2 0.066196 0.778756 0.311943
Si Si3 0.131663 0.278387 0.059890
Si Si4 0.020129 0.278541 0.555563
Si Si5 0.280037 0.716124 0.060564
Si Si6 0.320097 0.715336 0.219101
Si Si7 0.266823 0.782945 0.283441
Si Si8 0.782048 0.715852 0.471287
O O1 0.465581 0.500000 0.796219
O O2 0.429714 0.229410 0.731678
O O3 0.590937 0.214124 0.866425
O O4 0.360845 0.216748 0.770189
O O5 0.178609 0.713771 0.391820
O O6 0.945832 0.715654 0.269877
O O7 0.066316 0.000000 0.313890
O O8 0.129294 0.500000 0.058810
O O9 0.188346 0.219262 0.046927
O O10 0.217591 0.218771 0.138608
O O11 0.000000 0.219209 0.000000
O O12 0.024333 0.500000 0.557509
O O13 0.136130 0.217277 0.636484
O O14 0.000000 0.223542 0.500000
O O15 0.908372 0.217792 0.523560
O O16 0.284162 0.500000 0.068307
O O17 0.250000 0.750000 0.000000
O O18 0.323671 0.500000 0.214348
O O19 0.298196 0.745305 0.254121
O O20 0.264766 0.000000 0.286690
O O21 0.786242 0.500000 0.467217
O O22 0.750000 0.750000 0.500000
#
# Coordination Sequence:
#
# PCOD9178503 Si02
#       8
#     8   8   8   8   8   8   8   8
#     4   9  17  32  52  73  97 129 168 203 237 285
#     4   9  16  30  52  73  92 126 172 207 234 281
#     4   9  18  33  53  75  98 130 168 202 237 286
#     4   9  17  31  50  73  98 129 170 208 241 287
#     4  10  20  35  55  77 102 129 163 204 245 291
#     4  10  19  33  53  74  99 130 168 206 241 291
#     4  10  20  32  50  75 103 131 161 204 253 292
#     4  10  19  30  49  74  99 126 161 204 247 290
#
# _framework density 22.079453000000001
#
# number of rings (size 3 to 8) (size 9 to 14) (size 15 to 20)
#    0.000    2.500    1.250    1.500    1.750    3.000 
#    0.000    0.625    0.000    6.000    0.000    0.000 
#    0.000    0.000    0.000    0.000    0.000    0.000 
#
# Total GULP energy -178798.308182 kJ/mol
# GULP energy per Si atom -5587.447131 kJ/mol
# Density = 2.202920 g / cm^3
# Si number density = 22.079453 Si / 1000 Ang^3
#
#
#
# Elastic Constant Matrix: (Units=GPa)
#
#
# Indices 1 2 3 4 5 6 
#
# 1 131.8374 -4.8044 31.9011 0.0005 9.0869 -0.0006
# 2 -4.8044 76.9079 1.7433 0.0004 8.1255 -0.0014
# 3 31.9011 1.7433 118.6689 0.0006 4.3685 -0.0005
# 4 0.0005 0.0004 0.0006 -8.5140 0.0000 -15.9151
# 5 9.0869 8.1255 4.3685 0.0000 45.1504 0.0000
# 6 -0.0006 -0.0014 -0.0005 -15.9151 0.0000 15.9036
#
#
#
# Elastic Compliance Matrix: (Units=1/GPa)
#
#
# Indices 1 2 3 4 5 6 
#
# 1 0.008246 0.000731 -0.002169 0.000000 -0.001581 0.000000
# 2 0.000731 0.013321 -0.000300 -0.000001 -0.002515 0.000001
# 3 -0.002169 -0.000300 0.009028 0.000000 -0.000383 0.000000
# 4 0.000000 -0.000001 0.000000 -0.040915 0.000000 -0.040945
# 5 -0.001581 -0.002515 -0.000383 0.000000 0.022956 0.000000
# 6 0.000000 0.000001 0.000000 -0.040945 0.000000 0.021904
#
#
# Mechanical properties :
#
#
# Convention : Reuss Voigt Hill
#
# Bulk Modulus (GPa) = 36.87340 42.78826 39.83083
# Shear Modulus (GPa) = 106.25923 30.41294 68.33609
#
# Velocity S-wave (km/s) = 6.94481 3.71540 5.56932
# Velocity P-wave (km/s) = 9.00243 6.15036 7.70943
#
# Compressibility (1/GPa) = 0.02711982
#
# Stress axis : x y z
#
# Youngs Moduli (GPa) = 121.27652 75.07052 110.76119
#
# Poissons Ratio (x) = -0.05490 0.24026
# Poissons Ratio (y) = -0.08869 0.03319
# Poissons Ratio (z) = 0.26307 0.02250
#
# Static dielectric constant tensor:
#      x y z
#    x 1.768860 0.000000 0.025190 
#    y 0.000000 1.857910 0.000000 
#    z 0.025190 0.000000 1.769020 
# 
# From -- ./inp_files/378371.got.cif
#   From: 2010.05.17/outbox.cif.g08.bks.cpg/sg12_190_cif.got.tgz:378371.got - 2010.06.03 13:09:07.
