data_PCOD9178140
_publ_section_title
;
Structure prediction by ZEFSAII (Michael W. Deem and Ramdas Pophale) SiO2 
 PCOD9178140
Probable space group: C 2/M
;
_chemical_formula_sum "Si O2"
_cell_formula_units_Z 56
_cell_length_a 20.193525
_cell_length_b 7.418999
_cell_length_c 22.161311
_cell_angle_alpha 90.000000
_cell_angle_beta 39.551277
_cell_angle_gamma 90.000000
_cell_volume 2114.143641
_symmetry_space_group_name_H-M "C 2/M"
_symmetry_group_IT_number 12
_symmetry_cell_setting 'monoclinic'
loop_
_space_group_symop_operation_xyz
x,y,z
-x,y,-z
-x,-y,-z
x,-y,z
1/2+x,1/2+y,z
1/2-x,1/2+y,-z
1/2-x,1/2-y,-z
1/2+x,1/2-y,z
loop_
_atom_site_type_symbol
_atom_site_label
_atom_site_fract_x
_atom_site_fract_y
_atom_site_fract_z
Si Si1 0.986537 0.793304 0.375709
Si Si2 0.340773 0.280357 0.577408
Si Si3 0.627984 0.782743 0.659101
Si Si4 0.224237 0.707530 0.768510
Si Si5 0.303773 0.203404 0.837315
Si Si6 0.499815 0.779153 0.931462
Si Si7 0.910015 0.719008 0.876387
O O1 0.939866 0.716425 0.470120
O O2 0.891850 0.790856 0.394002
O O3 0.081913 0.700241 0.274888
O O4 0.021989 0.000000 0.360279
O O5 0.352031 0.500000 0.567338
O O6 0.234746 0.229765 0.616397
O O7 0.318601 0.221017 0.661736
O O8 0.523519 0.732992 0.769513
O O9 0.629067 0.000000 0.654903
O O10 0.217376 0.500000 0.755173
O O11 0.236311 0.710189 0.831964
O O12 0.112884 0.784250 0.829643
O O13 0.325092 0.287205 0.888050
O O14 0.267685 0.000000 0.869031
O O15 0.413451 0.723833 0.943646
O O16 0.497521 0.000000 0.933781
O O17 0.500000 0.718283 0.000000
O O18 0.903052 0.500000 0.879427
#
# Coordination Sequence:
#
# PCOD9178140 Si02
#       7
#     8   8   8   8   8   8   8
#     4  10  19  30  46  72 101 133 177 219 250 286
#     4   9  17  29  48  71 100 138 174 209 253 303
#     4   9  15  28  48  70 100 137 172 203 252 308
#     4  10  19  34  55  77 103 133 170 214 254 297
#     4  10  21  36  52  70 102 144 176 203 251 310
#     4   9  16  29  55  86 104 121 163 215 253 295
#     4   8  14  28  50  72  98 134 168 199 244 305
#
# _framework density 26.488264999999998
#
# number of rings (size 3 to 8) (size 9 to 14) (size 15 to 20)
#    0.000    2.714    1.429    2.143    0.000    0.571 
#    0.000    6.429    0.000    0.429    0.000    0.000 
#    0.000    0.000    0.000    0.000    0.000    0.000 
#
# Total GULP energy -156486.497572 kJ/mol
# GULP energy per Si atom -5588.803485 kJ/mol
# Density = 2.642798 g / cm^3
# Si number density = 26.488265 Si / 1000 Ang^3
#
#
#
# Elastic Constant Matrix: (Units=GPa)
#
#
# Indices 1 2 3 4 5 6 
#
# 1 137.5512 -8.2411 50.9838 -0.0006 19.2010 0.0010
# 2 -8.2411 90.3533 11.0026 -0.0014 -3.5934 0.0032
# 3 50.9838 11.0026 110.5920 -0.0004 26.4510 0.0011
# 4 -0.0006 -0.0014 -0.0004 6.4097 0.0001 1.6674
# 5 19.2010 -3.5934 26.4510 0.0001 51.6938 -0.0003
# 6 0.0010 0.0032 0.0011 1.6674 -0.0003 14.7351
#
#
#
# Elastic Compliance Matrix: (Units=1/GPa)
#
#
# Indices 1 2 3 4 5 6 
#
# 1 0.008990 0.001256 -0.003978 0.000001 -0.001216 -0.000001
# 2 0.001256 0.011487 -0.002052 0.000003 0.001382 -0.000003
# 3 -0.003978 -0.002052 0.012262 0.000000 -0.004939 0.000000
# 4 0.000001 0.000003 0.000000 0.160746 -0.000001 -0.018189
# 5 -0.001216 0.001382 -0.004939 -0.000001 0.022420 0.000001
# 6 -0.000001 -0.000003 0.000000 -0.018189 0.000001 0.069924
#
#
# Mechanical properties :
#
#
# Convention : Reuss Voigt Hill
#
# Bulk Modulus (GPa) = 43.12396 49.55412 46.33904
# Shear Modulus (GPa) = 16.49583 33.55113 25.02348
#
# Velocity S-wave (km/s) = 2.49822 3.56285 3.07693
# Velocity P-wave (km/s) = 4.96359 5.97275 5.49140
#
# Compressibility (1/GPa) = 0.02318897
#
# Stress axis : x y z
#
# Youngs Moduli (GPa) = 111.23927 87.05391 81.55378
#
# Poissons Ratio (x) = -0.10934 0.32445
# Poissons Ratio (y) = -0.13972 0.16739
# Poissons Ratio (z) = 0.44255 0.17868
#
# Static dielectric constant tensor:
#      x y z
#    x 2.082650 0.000000 0.006970 
#    y 0.000000 1.988970 0.000000 
#    z 0.006970 0.000000 2.126590 
# 
# From -- ./inp_files/319663.got.cif
#   From: 2010.05.17/outbox.cif.g08.bks.cpg/sg12_160_cif.got.tgz:319663.got - 2010.06.03 13:09:07.
