data_PCOD9178886
_publ_section_title
;
Structure prediction by ZEFSAII (Michael W. Deem and Ramdas Pophale) SiO2 
 PCOD9178886
Probable space group: C 2/M
;
_chemical_formula_sum "Si O2"
_cell_formula_units_Z 64
_cell_length_a 21.687307
_cell_length_b 9.894570
_cell_length_c 21.722121
_cell_angle_alpha 90.000000
_cell_angle_beta 53.400586
_cell_angle_gamma 90.000000
_cell_volume 3742.181929
_symmetry_space_group_name_H-M "C 2/M"
_symmetry_group_IT_number 12
_symmetry_cell_setting 'monoclinic'
loop_
_space_group_symop_operation_xyz
x,y,z
-x,y,-z
-x,-y,-z
x,-y,z
1/2+x,1/2+y,z
1/2-x,1/2+y,-z
1/2-x,1/2-y,-z
1/2+x,1/2-y,z
loop_
_atom_site_type_symbol
_atom_site_label
_atom_site_fract_x
_atom_site_fract_y
_atom_site_fract_z
Si Si1 0.655161 0.153920 0.918548
Si Si2 0.678677 0.147800 0.292567
Si Si3 0.372191 0.155305 0.926372
Si Si4 0.828039 0.779378 0.828766
Si Si5 0.952463 0.159640 0.587986
Si Si6 0.500325 0.349604 0.303945
Si Si7 0.639581 0.659261 0.812974
Si Si8 0.953276 0.342648 0.226819
O O1 0.748170 0.148703 0.860947
O O2 0.626860 0.259786 0.884520
O O3 0.625787 0.000000 0.926273
O O4 0.634545 0.202399 0.999511
O O5 0.669559 0.160807 0.223798
O O6 0.626126 0.259978 0.355033
O O7 0.768620 0.162812 0.252544
O O8 0.652380 0.000000 0.327873
O O9 0.327299 0.234553 0.900051
O O10 0.460900 0.157207 0.852849
O O11 0.344891 0.000000 0.942412
O O12 0.909109 0.851985 0.768785
O O13 0.000000 0.203182 0.500000
O O14 0.000173 0.177170 0.622877
O O15 0.936185 0.000000 0.591965
O O16 0.468757 0.500000 0.309870
O O17 0.461439 0.231971 0.287599
O O18 0.616885 0.500000 0.828560
O O19 0.597941 0.746993 0.785697
O O20 0.928297 0.500000 0.245014
#
# Coordination Sequence:
#
# PCOD9178886 Si02
#       8
#     8   8   8   8   8   8   8   8
#     4  10  19  31  47  68  94 125 162 202 248 297
#     4   9  18  31  50  74  98 126 160 198 237 280
#     4   9  18  30  45  67  95 126 159 202 251 296
#     4   9  16  28  47  70  96 126 160 197 241 290
#     4   9  18  32  52  80 111 136 154 179 223 278
#     4   9  17  30  49  73 100 127 157 192 230 276
#     4  10  21  36  51  68  92 124 164 207 248 284
#     4  10  20  34  51  69  91 124 166 206 244 284
#
# _framework density 17.102322000000001
#
# number of rings (size 3 to 8) (size 9 to 14) (size 15 to 20)
#    0.000    2.625    0.000    1.875    0.000    7.750 
#    0.000    6.250    0.000    0.750    0.000    0.000 
#    0.000    0.000    0.000    0.000    0.000    0.000 
#
# Total GULP energy -178220.214383 kJ/mol
# GULP energy per Si atom -5569.381699 kJ/mol
# Density = 1.706340 g / cm^3
# Si number density = 17.102322 Si / 1000 Ang^3
#
#
#
# Elastic Constant Matrix: (Units=GPa)
#
#
# Indices 1 2 3 4 5 6 
#
# 1 50.7266 44.5739 7.2899 0.0000 18.2848 0.0001
# 2 44.5739 104.6403 30.8509 0.0000 18.3730 0.0001
# 3 7.2899 30.8509 81.3362 0.0000 23.8321 0.0000
# 4 0.0000 0.0000 0.0000 17.5574 0.0000 -1.1648
# 5 18.2848 18.3730 23.8321 0.0000 16.4779 0.0000
# 6 0.0001 0.0001 0.0000 -1.1648 0.0000 14.3368
#
#
#
# Elastic Compliance Matrix: (Units=1/GPa)
#
#
# Indices 1 2 3 4 5 6 
#
# 1 0.068597 -0.021239 0.029975 0.000000 -0.095791 0.000000
# 2 -0.021239 0.018514 -0.010370 0.000000 0.017923 0.000000
# 3 0.029975 -0.010370 0.034534 0.000000 -0.071646 0.000000
# 4 0.000000 0.000000 0.000000 0.057265 0.000000 0.004652
# 5 -0.095791 0.017923 -0.071646 0.000000 0.250620 0.000001
# 6 0.000000 0.000000 0.000000 0.004652 0.000001 0.070128
#
#
# Mechanical properties :
#
#
# Convention : Reuss Voigt Hill
#
# Bulk Modulus (GPa) = 8.44756 44.68138 26.56447
# Shear Modulus (GPa) = 9.21853 19.94032 14.57942
#
# Velocity S-wave (km/s) = 2.32420 3.41829 2.92290
# Velocity P-wave (km/s) = 3.48607 6.46237 5.19206
#
# Compressibility (1/GPa) = 0.11837736
#
# Stress axis : x y z
#
# Youngs Moduli (GPa) = 14.57791 54.01261 28.95658
#
# Poissons Ratio (x) = 1.14716 -0.86798
# Poissons Ratio (y) = 0.30962 0.30029
# Poissons Ratio (z) = -0.43697 0.56014
#
# Static dielectric constant tensor:
#      x y z
#    x 1.581270 0.000000 0.008520 
#    y 0.000000 1.600860 0.000000 
#    z 0.008520 0.000000 1.567060 
# 
# From -- ./inp_files/319780.got.cif
#   From: 2010.05.17/outbox.cif.g08.bks.cpg/sg12_160_cif.got.tgz:319780.got - 2010.06.03 13:09:07.
