data_PCOD9178501
_publ_section_title
;
Structure prediction by ZEFSAII (Michael W. Deem and Ramdas Pophale) SiO2 
 PCOD9178501
Probable space group: C 2/M
;
_chemical_formula_sum "Si O2"
_cell_formula_units_Z 64
_cell_length_a 21.679580
_cell_length_b 8.951259
_cell_length_c 19.836101
_cell_angle_alpha 90.000000
_cell_angle_beta 124.818607
_cell_angle_gamma 90.000000
_cell_volume 3160.205461
_symmetry_space_group_name_H-M "C 2/M"
_symmetry_group_IT_number 12
_symmetry_cell_setting 'monoclinic'
loop_
_space_group_symop_operation_xyz
x,y,z
-x,y,-z
-x,-y,-z
x,-y,z
1/2+x,1/2+y,z
1/2-x,1/2+y,-z
1/2-x,1/2-y,-z
1/2+x,1/2-y,z
loop_
_atom_site_type_symbol
_atom_site_label
_atom_site_fract_x
_atom_site_fract_y
_atom_site_fract_z
Si Si1 0.493407 0.822073 0.848139
Si Si2 0.832785 0.179497 0.549297
Si Si3 0.203769 0.677788 0.887158
Si Si4 0.050087 0.675128 0.733026
Si Si5 0.649452 0.321162 0.290196
Si Si6 0.811958 0.822556 0.387496
Si Si7 0.138457 0.823462 0.981562
Si Si8 0.960828 0.822852 0.408777
O O1 0.522179 0.783247 0.790164
O O2 0.411034 0.750369 0.798034
O O3 0.558950 0.759632 0.937471
O O4 0.489578 0.000000 0.851894
O O5 0.750000 0.250000 0.500000
O O6 0.868628 0.227818 0.643000
O O7 0.853703 0.214574 0.485001
O O8 0.830070 0.000000 0.551656
O O9 0.200276 0.500000 0.903721
O O10 0.140333 0.699868 0.791635
O O11 0.174850 0.774165 0.932546
O O12 0.290749 0.711539 0.925314
O O13 0.035626 0.500000 0.715628
O O14 0.016166 0.759846 0.648750
O O15 0.645000 0.500000 0.283261
O O16 0.734690 0.266738 0.331566
O O17 0.872516 0.797863 0.367254
O O18 0.794242 0.000000 0.379180
O O19 0.124595 0.000000 0.973995
O O20 0.000000 0.759780 0.500000
O O21 0.975397 0.000000 0.416282
#
# Coordination Sequence:
#
# PCOD9178501 Si02
#       8
#     8   8   8   8   8   8   8   8
#     4  10  20  32  46  70 105 136 159 194 246 297
#     4   8  15  27  44  64  86 112 147 191 236 281
#     4   8  15  28  45  66  97 130 160 195 241 290
#     4   9  19  34  49  69  98 132 166 200 241 288
#     4  10  19  30  49  74  94 121 161 202 241 291
#     4   9  18  34  50  66  92 126 159 199 250 292
#     4   9  15  25  44  70  97 128 161 195 234 287
#     4  10  22  36  52  71  95 129 168 208 246 282
#
# _framework density 20.251847000000001
#
# number of rings (size 3 to 8) (size 9 to 14) (size 15 to 20)
#    0.000    2.875    0.000    1.875    1.750    4.250 
#    0.000    0.000    0.000    0.000    0.000    0.875 
#    0.000    7.000    0.000    0.000    0.000    0.000 
#
# Total GULP energy -178186.462179 kJ/mol
# GULP energy per Si atom -5568.326943 kJ/mol
# Density = 2.020575 g / cm^3
# Si number density = 20.251847 Si / 1000 Ang^3
#
#
#
# Elastic Constant Matrix: (Units=GPa)
#
#
# Indices 1 2 3 4 5 6 
#
# 1 12.1024 15.5102 1.1509 0.0000 11.9899 0.0000
# 2 15.5102 10.6418 19.6203 0.0000 15.3327 0.0000
# 3 1.1509 19.6203 42.5599 0.0000 33.7483 0.0000
# 4 0.0000 0.0000 0.0000 23.9924 0.0000 3.1658
# 5 11.9899 15.3327 33.7483 0.0000 36.2203 0.0000
# 6 0.0000 0.0000 0.0000 3.1658 0.0000 6.3559
#
#
#
# Elastic Compliance Matrix: (Units=1/GPa)
#
#
# Indices 1 2 3 4 5 6 
#
# 1 -0.006807 0.065199 -0.037425 0.000000 0.009524 0.000000
# 2 0.065199 0.003852 0.056931 0.000000 -0.076259 0.000000
# 3 -0.037425 0.056931 0.028907 0.000000 -0.038645 0.000000
# 4 0.000000 0.000000 0.000000 0.044612 0.000000 -0.022221
# 5 0.009524 -0.076259 -0.038645 0.000000 0.092746 0.000000
# 6 0.000000 0.000000 0.000000 -0.022221 0.000000 0.168403
#
#
# Mechanical properties :
#
#
# Convention : Reuss Voigt Hill
#
# Bulk Modulus (GPa) = 5.11867 15.31855 10.21861
# Shear Modulus (GPa) = 21.98528 15.24854 18.61691
#
# Velocity S-wave (km/s) = 3.29841 2.74696 3.03524
# Velocity P-wave (km/s) = 4.12783 4.20018 4.16416
#
# Compressibility (1/GPa) = 0.19536331
#
# Stress axis : x y z
#
# Youngs Moduli (GPa) = -146.91799 259.57560 34.59365
#
# Poissons Ratio (x) = -16.92410 1.29468
# Poissons Ratio (y) = 9.57892 -1.96946
# Poissons Ratio (z) = -5.49845 -14.77800
#
# Static dielectric constant tensor:
#      x y z
#    x 1.752320 0.000000 0.023280 
#    y 0.000000 1.681090 0.000000 
#    z 0.023280 0.000000 1.768610 
# 
# From -- ./inp_files/324216.got.cif
#   From: 2010.05.17/outbox.cif.g08.bks.cpg/sg12_163_cif.got.tgz:324216.got - 2010.06.03 13:09:07.
