data_PCOD9178093
_publ_section_title
;
Structure prediction by ZEFSAII (Michael W. Deem and Ramdas Pophale) SiO2 
 PCOD9178093
Probable space group: C 2/M
;
_chemical_formula_sum "Si O2"
_cell_formula_units_Z 64
_cell_length_a 25.418367
_cell_length_b 7.547257
_cell_length_c 16.244457
_cell_angle_alpha 90.000000
_cell_angle_beta 89.917967
_cell_angle_gamma 90.000000
_cell_volume 3116.316352
_symmetry_space_group_name_H-M "C 2/M"
_symmetry_group_IT_number 12
_symmetry_cell_setting 'monoclinic'
loop_
_space_group_symop_operation_xyz
x,y,z
-x,y,-z
-x,-y,-z
x,-y,z
1/2+x,1/2+y,z
1/2-x,1/2+y,-z
1/2-x,1/2-y,-z
1/2+x,1/2-y,z
loop_
_atom_site_type_symbol
_atom_site_label
_atom_site_fract_x
_atom_site_fract_y
_atom_site_fract_z
Si Si1 0.542709 0.293936 0.686625
Si Si2 0.422909 0.210547 0.957096
Si Si3 0.345788 0.288254 0.371067
Si Si4 0.968082 0.284791 0.124756
Si Si5 0.759553 0.787255 0.703009
Si Si6 0.073505 0.216208 0.334935
Si Si7 0.668825 0.284412 0.447286
Si Si8 0.148044 0.212270 0.186374
O O1 0.541397 0.500000 0.661107
O O2 0.596609 0.216499 0.650977
O O3 0.544676 0.285459 0.785512
O O4 0.486063 0.217401 0.661027
O O5 0.473786 0.274881 0.905266
O O6 0.370854 0.245112 0.905011
O O7 0.429453 0.000000 0.961528
O O8 0.429162 0.272482 0.051004
O O9 0.350592 0.500000 0.378846
O O10 0.301457 0.257151 0.302751
O O11 0.326026 0.219781 0.459737
O O12 0.967916 0.500000 0.130539
O O13 0.788288 0.722040 0.619190
O O14 0.795757 0.724474 0.778875
O O15 0.762880 0.000000 0.702554
O O16 0.111727 0.262664 0.410108
O O17 0.103692 0.275600 0.251805
O O18 0.071795 0.000000 0.331565
O O19 0.671894 0.500000 0.447514
O O20 0.148349 0.000000 0.192126
#
# Coordination Sequence:
#
# PCOD9178093 Si02
#       8
#     8   8   8   8   8   8   8   8
#     4  10  19  30  46  69  97 127 159 192 227 275
#     4   9  17  29  47  72  98 122 151 186 229 278
#     4  10  20  31  46  70  95 123 162 200 232 270
#     4   9  18  31  46  68  99 129 152 180 225 284
#     4   9  18  32  50  69  92 124 160 196 236 279
#     4   8  14  26  44  67  95 122 150 188 233 275
#     4   8  15  29  48  69  93 120 155 200 239 272
#     4   9  16  28  48  72  95 120 153 193 234 276
#
# _framework density 20.537065999999999
#
# number of rings (size 3 to 8) (size 9 to 14) (size 15 to 20)
#    0.000    3.000    1.250    2.625    0.000    2.000 
#    0.000    3.750    0.000    2.250    0.000    1.750 
#    0.000    0.000    0.000    0.000    0.000    0.000 
#
# Total GULP energy -178403.309328 kJ/mol
# GULP energy per Si atom -5575.103416 kJ/mol
# Density = 2.049032 g / cm^3
# Si number density = 20.537066 Si / 1000 Ang^3
#
#
#
# Elastic Constant Matrix: (Units=GPa)
#
#
# Indices 1 2 3 4 5 6 
#
# 1 101.9553 -2.2993 15.0470 0.0000 28.6992 0.0000
# 2 -2.2993 47.1990 -9.4599 0.0000 -2.6149 0.0000
# 3 15.0470 -9.4599 36.3499 0.0000 27.1614 0.0000
# 4 0.0000 0.0000 0.0000 -764.4730 0.0000 -5.3654
# 5 28.6992 -2.6149 27.1614 0.0000 29.8415 0.0000
# 6 0.0000 0.0000 0.0000 -5.3654 0.0000 11.9273
#
#
#
# Elastic Compliance Matrix: (Units=1/GPa)
#
#
# Indices 1 2 3 4 5 6 
#
# 1 0.015922 0.002436 0.016647 0.000000 -0.030251 0.000000
# 2 0.002436 0.023814 0.016820 0.000000 -0.015566 0.000000
# 3 0.016647 0.016820 0.112096 0.000000 -0.116565 0.000000
# 4 0.000000 0.000000 0.000000 -0.001304 0.000000 -0.000587
# 5 -0.030251 -0.015566 -0.116565 0.000000 0.167336 0.000000
# 6 0.000000 0.000000 0.000000 -0.000587 0.000000 0.083578
#
#
# Mechanical properties :
#
#
# Convention : Reuss Voigt Hill
#
# Bulk Modulus (GPa) = 4.47148 21.34220 12.90684
# Shear Modulus (GPa) = 12.37071 -132.39309 -60.01119
#
# Velocity S-wave (km/s) = 2.45696 -8.03775 -5.41150
# Velocity P-wave (km/s) = 3.19858 8.70206 5.72254
#
# Compressibility (1/GPa) = 0.22363981
#
# Stress axis : x y z
#
# Youngs Moduli (GPa) = 62.80791 41.99145 8.92090
#
# Poissons Ratio (x) = -0.10230 -0.14851
# Poissons Ratio (y) = -0.15302 -0.15005
# Poissons Ratio (z) = -1.04559 -0.70630
#
# Static dielectric constant tensor:
#      x y z
#    x 1.754840 0.000000 0.032360 
#    y 0.000000 1.797700 0.000000 
#    z 0.032360 0.000000 1.732240 
# 
# From -- ./inp_files/287501.got.cif
#   From: 2010.05.17/outbox.cif.g08.bks.cpg/sg12_144_cif.got.tgz:287501.got - 2010.06.03 13:09:07.
