data_PCOD9178479
_publ_section_title
;
Structure prediction by ZEFSAII (Michael W. Deem and Ramdas Pophale) SiO2 
 PCOD9178479
Probable space group: C 2/M
;
_chemical_formula_sum "Si O2"
_cell_formula_units_Z 48
_cell_length_a 26.652312
_cell_length_b 16.030685
_cell_length_c 23.294921
_cell_angle_alpha 90.000000
_cell_angle_beta 165.078887
_cell_angle_gamma 90.000000
_cell_volume 2562.752607
_symmetry_space_group_name_H-M "C 2/M"
_symmetry_group_IT_number 12
_symmetry_cell_setting 'monoclinic'
loop_
_space_group_symop_operation_xyz
x,y,z
-x,y,-z
-x,-y,-z
x,-y,z
1/2+x,1/2+y,z
1/2-x,1/2+y,-z
1/2-x,1/2-y,-z
1/2+x,1/2-y,z
loop_
_atom_site_type_symbol
_atom_site_label
_atom_site_fract_x
_atom_site_fract_y
_atom_site_fract_z
Si Si1 0.739898 0.594959 0.904826
Si Si2 0.475671 0.304260 0.695846
Si Si3 0.157070 0.769076 0.020507
Si Si4 0.322176 0.087681 0.573307
Si Si5 0.512774 0.096738 0.582665
Si Si6 0.241991 0.168529 0.372398
O O1 0.702003 0.500000 0.841425
O O2 0.582346 0.625658 0.776686
O O3 0.764896 0.673509 0.888655
O O4 0.947297 0.591054 0.166543
O O5 0.598323 0.279618 0.887915
O O6 0.273852 0.338949 0.497539
O O7 0.412329 0.229802 0.584295
O O8 0.966589 0.786997 0.849491
O O9 0.314290 0.840437 0.208226
O O10 0.248011 0.096242 0.426805
O O11 0.254813 0.000000 0.523787
O O12 0.500000 0.097739 0.500000
O O13 0.314855 0.132030 0.393039
O O14 0.545408 0.000000 0.637133
#
# Coordination Sequence:
#
# PCOD9178479 Si02
#       6
#     8   8   8   8   8   8
#     4  11  20  31  52  84 121 156 188 226 283 353
#     4  11  19  33  53  87 121 157 191 234 291 364
#     4  11  21  38  60  86 120 158 194 243 297 355
#     4  10  19  30  48  83 123 154 187 229 285 354
#     4  11  26  44  62  86 115 154 208 255 289 338
#     4  11  20  36  60  83 120 157 192 240 295 356
#
# _framework density 18.729862000000001
#
# number of rings (size 3 to 8) (size 9 to 14) (size 15 to 20)
#    0.000    1.167    5.000    3.500    0.000    6.000 
#    0.000    1.667    0.000    0.500    0.000    1.167 
#    0.000    0.000    0.000    0.000    0.000    0.000 
#
# Total GULP energy -133784.484743 kJ/mol
# GULP energy per Si atom -5574.353531 kJ/mol
# Density = 1.868723 g / cm^3
# Si number density = 18.729862 Si / 1000 Ang^3
#
#
#
# Elastic Constant Matrix: (Units=GPa)
#
#
# Indices 1 2 3 4 5 6 
#
# 1 93.8159 41.8576 24.6161 0.0389 22.3500 0.0166
# 2 41.8576 164.7718 36.7477 0.0369 12.0271 0.0154
# 3 24.6161 36.7477 49.1441 0.0631 22.9863 0.0263
# 4 0.0389 0.0369 0.0631 20.1346 0.0475 4.2865
# 5 22.3500 12.0271 22.9863 0.0475 22.1177 0.0269
# 6 0.0166 0.0154 0.0263 4.2865 0.0269 27.2551
#
#
#
# Elastic Compliance Matrix: (Units=1/GPa)
#
#
# Indices 1 2 3 4 5 6 
#
# 1 0.015340 -0.003225 0.002253 0.000006 -0.016089 0.000005
# 2 -0.003225 0.008088 -0.007588 0.000000 0.006747 -0.000002
# 3 0.002253 -0.007588 0.046758 -0.000028 -0.046745 0.000008
# 4 0.000006 0.000000 -0.000028 0.051387 -0.000077 -0.008082
# 5 -0.016089 0.006747 -0.046745 -0.000077 0.106383 -0.000042
# 6 0.000005 -0.000002 0.000008 -0.008082 -0.000042 0.037961
#
#
# Mechanical properties :
#
#
# Convention : Reuss Voigt Hill
#
# Bulk Modulus (GPa) = 18.84463 57.13050 37.98757
# Shear Modulus (GPa) = 16.62645 27.53548 22.08097
#
# Velocity S-wave (km/s) = 2.98266 3.83840 3.43726
# Velocity P-wave (km/s) = 4.68453 7.08611 6.00657
#
# Compressibility (1/GPa) = 0.05306551
#
# Stress axis : x y z
#
# Youngs Moduli (GPa) = 65.19022 123.63795 21.38665
#
# Poissons Ratio (x) = 0.39872 -0.04819
# Poissons Ratio (y) = 0.21023 0.16229
# Poissons Ratio (z) = -0.14688 0.93821
#
# Static dielectric constant tensor:
#      x y z
#    x 1.639980 -0.000010 0.029190 
#    y -0.000010 1.708930 -0.000010 
#    z 0.029190 -0.000010 1.644470 
# 
# From -- ./inp_files/325710.got.cif
#   From: 2010.05.17/outbox.cif.g08.bks.cpg/sg12_163_cif.got.tgz:325710.got - 2010.06.03 13:09:07.
