data_PCOD9178781
_publ_section_title
;
Structure prediction by ZEFSAII (Michael W. Deem and Ramdas Pophale) SiO2 
 PCOD9178781
Probable space group: C 2/M
;
_chemical_formula_sum "Si O2"
_cell_formula_units_Z 64
_cell_length_a 31.414215
_cell_length_b 7.333125
_cell_length_c 12.238815
_cell_angle_alpha 90.000000
_cell_angle_beta 92.623461
_cell_angle_gamma 90.000000
_cell_volume 2816.431883
_symmetry_space_group_name_H-M "C 2/M"
_symmetry_group_IT_number 12
_symmetry_cell_setting 'monoclinic'
loop_
_space_group_symop_operation_xyz
x,y,z
-x,y,-z
-x,-y,-z
x,-y,z
1/2+x,1/2+y,z
1/2-x,1/2+y,-z
1/2-x,1/2-y,-z
1/2+x,1/2-y,z
loop_
_atom_site_type_symbol
_atom_site_label
_atom_site_fract_x
_atom_site_fract_y
_atom_site_fract_z
Si Si1 0.365661 0.222939 0.984261
Si Si2 0.209430 0.282935 0.419087
Si Si3 0.040232 0.722651 0.080199
Si Si4 0.212083 0.717381 0.174809
Si Si5 0.192696 0.717476 0.828191
Si Si6 0.439246 0.221712 0.437522
Si Si7 0.974826 0.278125 0.671327
Si Si8 0.345779 0.222742 0.396913
O O1 0.413722 0.280313 0.962127
O O2 0.329638 0.283090 0.893319
O O3 0.366681 0.000000 0.984266
O O4 0.344626 0.282013 0.096145
O O5 0.204832 0.500000 0.406941
O O6 0.250000 0.250000 0.500000
O O7 0.213433 0.208265 0.298263
O O8 0.170270 0.215775 0.487062
O O9 0.040038 0.500000 0.080250
O O10 0.035431 0.781090 0.206684
O O11 0.000000 0.778362 0.000000
O O12 0.207265 0.500000 0.177739
O O13 0.258932 0.747175 0.130012
O O14 0.188712 0.500000 0.825000
O O15 0.184383 0.785968 0.704696
O O16 0.478479 0.278189 0.366173
O O17 0.445215 0.277017 0.565103
O O18 0.394134 0.278564 0.385388
O O19 0.440379 0.000000 0.438557
O O20 0.973787 0.500000 0.674293
O O21 0.344407 0.000000 0.397410
#
# Coordination Sequence:
#
# PCOD9178781 Si02
#       8
#     8   8   8   8   8   8   8   8
#     4   9  19  31  44  64  89 124 161 191 231 280
#     4  10  19  31  46  66  91 121 153 186 228 272
#     4   9  17  26  38  57  85 119 151 184 226 277
#     4  10  20  33  49  68  94 125 158 197 234 275
#     4  10  19  32  49  68  94 125 160 197 232 274
#     4   8  14  23  36  55  79 113 151 182 217 270
#     4   8  14  23  35  53  80 113 148 184 222 267
#     4   9  17  26  41  61  85 119 153 184 224 273
#
# _framework density 22.723787000000002
#
# number of rings (size 3 to 8) (size 9 to 14) (size 15 to 20)
#    0.000    2.875    1.250    1.125    3.500    0.000 
#    0.000    0.000    0.000    0.000    0.000    0.000 
#    0.000    2.000    0.000    9.750    0.000   10.375 
#
# Total GULP energy -178595.713683 kJ/mol
# GULP energy per Si atom -5581.116053 kJ/mol
# Density = 2.267207 g / cm^3
# Si number density = 22.723787 Si / 1000 Ang^3
#
#
#
# Elastic Constant Matrix: (Units=GPa)
#
#
# Indices 1 2 3 4 5 6 
#
# 1 167.5772 -2.3585 66.9201 0.0000 -9.3589 0.0000
# 2 -2.3585 88.2296 5.3060 0.0000 -2.3778 0.0000
# 3 66.9201 5.3060 139.5520 0.0000 -18.1347 0.0000
# 4 0.0000 0.0000 0.0000 -5.4502 0.0000 4.4529
# 5 -9.3589 -2.3778 -18.1347 0.0000 26.5119 0.0000
# 6 0.0000 0.0000 0.0000 4.4529 0.0000 5.5169
#
#
#
# Elastic Compliance Matrix: (Units=1/GPa)
#
#
# Indices 1 2 3 4 5 6 
#
# 1 0.007397 0.000416 -0.003533 0.000000 0.000232 0.000000
# 2 0.000416 0.011399 -0.000528 0.000000 0.000808 0.000000
# 3 -0.003533 -0.000528 0.009562 0.000000 0.005246 0.000000
# 4 0.000000 0.000000 0.000000 -0.110567 0.000000 0.089242
# 5 0.000232 0.000808 0.005246 0.000000 0.041462 0.000000
# 6 0.000000 0.000000 0.000000 0.089242 0.000000 0.109230
#
#
# Mechanical properties :
#
#
# Convention : Reuss Voigt Hill
#
# Bulk Modulus (GPa) = 47.46418 59.45488 53.45953
# Shear Modulus (GPa) = 60.39109 27.01514 43.70311
#
# Velocity S-wave (km/s) = 5.16080 3.45171 4.39022
# Velocity P-wave (km/s) = 7.51296 6.48897 7.01966
#
# Compressibility (1/GPa) = 0.02106852
#
# Stress axis : x y z
#
# Youngs Moduli (GPa) = 135.18981 87.72906 104.58416
#
# Poissons Ratio (x) = -0.03653 0.36948
# Poissons Ratio (y) = -0.05630 0.05523
# Poissons Ratio (z) = 0.47760 0.04633
#
# Static dielectric constant tensor:
#      x y z
#    x 1.813240 0.000000 -0.003060 
#    y 0.000000 1.780870 0.000000 
#    z -0.003060 0.000000 1.835280 
# 
# From -- ./inp_files/182067.got.cif
#   From: 2010.05.17/outbox.cif.g08.bks.cpg/sg12_92_cif.got.tgz:182067.got - 2010.06.03 13:09:07.
