data_PCOD9178383
_publ_section_title
;
Structure prediction by ZEFSAII (Michael W. Deem and Ramdas Pophale) SiO2 
 PCOD9178383
Probable space group: C 2/M
;
_chemical_formula_sum "Si O2"
_cell_formula_units_Z 56
_cell_length_a 19.954743
_cell_length_b 8.742405
_cell_length_c 19.533299
_cell_angle_alpha 90.000000
_cell_angle_beta 121.396690
_cell_angle_gamma 90.000000
_cell_volume 2908.689374
_symmetry_space_group_name_H-M "C 2/M"
_symmetry_group_IT_number 12
_symmetry_cell_setting 'monoclinic'
loop_
_space_group_symop_operation_xyz
x,y,z
-x,y,-z
-x,-y,-z
x,-y,z
1/2+x,1/2+y,z
1/2-x,1/2+y,-z
1/2-x,1/2-y,-z
1/2+x,1/2-y,z
loop_
_atom_site_type_symbol
_atom_site_label
_atom_site_fract_x
_atom_site_fract_y
_atom_site_fract_z
Si Si1 0.668621 0.681998 0.928967
Si Si2 0.139812 0.169748 0.476933
Si Si3 0.769358 0.170883 0.619034
Si Si4 0.081004 0.321419 0.244659
Si Si5 0.027616 0.680605 0.940548
Si Si6 0.425149 0.813979 0.244954
Si Si7 0.513251 0.178736 0.582932
O O1 0.673844 0.500000 0.927287
O O2 0.599965 0.731115 0.945226
O O3 0.641364 0.748313 0.840462
O O4 0.750000 0.750000 0.000000
O O5 0.190372 0.164413 0.434630
O O6 0.195804 0.218124 0.569291
O O7 0.073528 0.296780 0.432664
O O8 0.105901 0.000000 0.468715
O O9 0.839001 0.230271 0.703461
O O10 0.743163 0.000000 0.623710
O O11 0.096032 0.500000 0.268306
O O12 0.045143 0.308382 0.150190
O O13 0.008938 0.269186 0.255059
O O14 0.049296 0.500000 0.956143
O O15 0.000000 0.733838 0.000000
O O16 0.428566 0.763376 0.326404
O O17 0.421440 0.000000 0.240795
O O18 0.500000 0.247339 0.500000
O O19 0.532051 0.000000 0.584065
#
# Coordination Sequence:
#
# PCOD9178383 Si02
#       7
#     8   8   8   8   8   8   8
#     4  11  22  37  60  87 115 147 190 237 284 339
#     4  10  20  32  48  71 101 134 170 213 260 307
#     4  10  19  30  48  73 100 131 170 215 257 303
#     4   9  16  29  52  78 104 137 173 216 265 318
#     4   9  19  37  59  84 115 148 181 223 281 341
#     4   9  18  34  55  79 108 141 182 227 274 328
#     4  10  20  35  55  77 105 142 181 223 270 320
#
# _framework density 19.252659000000001
#
# number of rings (size 3 to 8) (size 9 to 14) (size 15 to 20)
#    0.000    2.286    1.429    3.000    0.000    4.571 
#    0.000    1.429    0.000    0.000    0.000    0.000 
#    0.000    0.000    0.000    0.000    0.000    0.000 
#
# Total GULP energy -156033.308372 kJ/mol
# GULP energy per Si atom -5572.618156 kJ/mol
# Density = 1.920884 g / cm^3
# Si number density = 19.252659 Si / 1000 Ang^3
#
#
#
# Elastic Constant Matrix: (Units=GPa)
#
#
# Indices 1 2 3 4 5 6 
#
# 1 19.6001 12.1665 43.7092 0.0000 -5.7560 0.0000
# 2 12.1665 31.2469 32.0140 0.0000 -5.0622 0.0000
# 3 43.7092 32.0140 148.8104 0.0000 -6.5811 0.0000
# 4 0.0000 0.0000 0.0000 22.3751 0.0000 4.1709
# 5 -5.7560 -5.0622 -6.5811 0.0000 32.2787 0.0000
# 6 0.0000 0.0000 0.0000 4.1709 0.0000 17.3600
#
#
#
# Elastic Compliance Matrix: (Units=1/GPa)
#
#
# Indices 1 2 3 4 5 6 
#
# 1 0.164513 -0.015991 -0.044092 0.000000 0.017839 0.000000
# 2 -0.015991 0.043319 -0.004488 0.000000 0.003027 0.000000
# 3 -0.044092 -0.004488 0.020442 0.000000 -0.004399 0.000000
# 4 0.000000 0.000000 0.000000 0.046788 0.000000 -0.011241
# 5 0.017839 0.003027 -0.004399 0.000000 0.033739 0.000000
# 6 0.000000 0.000000 0.000000 -0.011241 0.000000 0.060304
#
#
# Mechanical properties :
#
#
# Convention : Reuss Voigt Hill
#
# Bulk Modulus (GPa) = 10.08779 41.71522 25.90151
# Shear Modulus (GPa) = 9.41102 21.85395 15.63249
#
# Velocity S-wave (km/s) = 2.21332 3.37280 2.85259
# Velocity P-wave (km/s) = 3.43260 6.07305 4.93279
#
# Compressibility (1/GPa) = 0.09912977
#
# Stress axis : x y z
#
# Youngs Moduli (GPa) = 6.07855 23.08478 48.91889
#
# Poissons Ratio (x) = 0.36915 2.15695
# Poissons Ratio (y) = 0.09720 0.21957
# Poissons Ratio (z) = 0.26802 0.10361
#
# Static dielectric constant tensor:
#      x y z
#    x 1.692400 0.000000 -0.029460 
#    y 0.000000 1.676240 0.000000 
#    z -0.029460 0.000000 1.689800 
# 
# From -- ./inp_files/320254.got.cif
#   From: 2010.05.17/outbox.cif.g08.bks.cpg/sg12_161_cif.got.tgz:320254.got - 2010.06.03 13:09:07.
