data_PCOD9178903
_publ_section_title
;
Structure prediction by ZEFSAII (Michael W. Deem and Ramdas Pophale) SiO2 
 PCOD9178903
Probable space group: C 2/M
;
_chemical_formula_sum "Si O2"
_cell_formula_units_Z 64
_cell_length_a 15.442454
_cell_length_b 17.086718
_cell_length_c 14.251358
_cell_angle_alpha 90.000000
_cell_angle_beta 96.444392
_cell_angle_gamma 90.000000
_cell_volume 3736.614682
_symmetry_space_group_name_H-M "C 2/M"
_symmetry_group_IT_number 12
_symmetry_cell_setting 'monoclinic'
loop_
_space_group_symop_operation_xyz
x,y,z
-x,y,-z
-x,-y,-z
x,-y,z
1/2+x,1/2+y,z
1/2-x,1/2+y,-z
1/2-x,1/2-y,-z
1/2+x,1/2-y,z
loop_
_atom_site_type_symbol
_atom_site_label
_atom_site_fract_x
_atom_site_fract_y
_atom_site_fract_z
Si Si1 0.856137 0.858189 0.179289
Si Si2 0.689648 0.910703 0.056750
Si Si3 0.299092 0.590954 0.764686
Si Si4 0.151892 0.325762 0.857942
Si Si5 0.466141 0.823933 0.888610
Si Si6 0.034824 0.860431 0.109961
Si Si7 0.101091 0.094832 0.408154
Si Si8 0.602794 0.594666 0.617929
O O1 0.784366 0.905524 0.113665
O O2 0.846635 0.768190 0.145737
O O3 0.846580 0.867880 0.289364
O O4 0.953783 0.885011 0.164927
O O5 0.620171 0.875588 0.122447
O O6 0.667077 0.000000 0.029977
O O7 0.684420 0.858107 0.962494
O O8 0.275416 0.500000 0.751439
O O9 0.216156 0.638977 0.789115
O O10 0.376525 0.597245 0.851162
O O11 0.341231 0.621104 0.672524
O O12 0.049584 0.348188 0.837282
O O13 0.447495 0.732195 0.871914
O O14 0.500000 0.830641 0.000000
O O15 0.000000 0.870908 0.000000
O O16 0.131642 0.117317 0.516333
O O17 0.999544 0.117310 0.386464
O O18 0.101381 0.000000 0.405507
O O19 0.607947 0.500000 0.626407
#
# Coordination Sequence:
#
# PCOD9178903 Si02
#       8
#     8   8   8   8   8   8   8   8
#     4  11  20  32  51  75 102 132 165 202 249 297
#     4  11  21  33  51  73  98 132 176 215 239 274
#     4  11  20  31  48  73 101 132 164 196 247 306
#     4  10  21  34  48  69 102 138 165 202 246 295
#     4   8  18  35  50  64  88 131 177 209 240 273
#     4  10  19  31  47  69 102 135 161 194 243 303
#     4   8  16  30  50  74 101 129 156 198 249 296
#     4   9  16  31  52  75 100 126 163 203 243 292
#
# _framework density 17.127803
#
# number of rings (size 3 to 8) (size 9 to 14) (size 15 to 20)
#    0.000    2.250    1.250    4.125    0.000    3.500 
#    0.000    0.625    0.000    0.000    0.000    0.000 
#    0.000    4.000    0.000    0.250    0.000    0.000 
#
# Total GULP energy -178417.311796 kJ/mol
# GULP energy per Si atom -5575.540994 kJ/mol
# Density = 1.708882 g / cm^3
# Si number density = 17.127803 Si / 1000 Ang^3
#
#
#
# Elastic Constant Matrix: (Units=GPa)
#
#
# Indices 1 2 3 4 5 6 
#
# 1 58.7701 19.8549 9.6317 0.0000 -24.7908 0.0000
# 2 19.8549 37.5298 13.6542 0.0000 -0.7141 0.0000
# 3 9.6317 13.6542 87.7065 0.0000 -11.6757 0.0000
# 4 0.0000 0.0000 0.0000 54.4584 0.0000 -29.0236
# 5 -24.7908 -0.7141 -11.6757 0.0000 25.0267 0.0000
# 6 0.0000 0.0000 0.0000 -29.0236 0.0000 12.5945
#
#
#
# Elastic Compliance Matrix: (Units=1/GPa)
#
#
# Indices 1 2 3 4 5 6 
#
# 1 0.042636 -0.023470 0.004803 0.000000 0.043805 0.000000
# 2 -0.023470 0.041207 -0.007225 0.000000 -0.025444 0.000000
# 3 0.004803 -0.007225 0.013440 0.000000 0.010822 0.000000
# 4 0.000000 0.000000 0.000000 -0.080480 0.000000 -0.185464
# 5 0.043805 -0.025444 0.010822 0.000000 0.087672 0.000000
# 6 0.000000 0.000000 0.000000 -0.185464 0.000000 -0.347995
#
#
# Mechanical properties :
#
#
# Convention : Reuss Voigt Hill
#
# Bulk Modulus (GPa) = 21.97889 30.03200 26.00544
# Shear Modulus (GPa) = -28.31703 27.80694 -0.25504
#
# Velocity S-wave (km/s) = -4.07046 4.03364 -0.38630
# Velocity P-wave (km/s) = 3.03833 6.26624 3.87520
#
# Compressibility (1/GPa) = 0.04549821
#
# Stress axis : x y z
#
# Youngs Moduli (GPa) = 23.45460 24.26794 74.40725
#
# Poissons Ratio (x) = 0.56957 -0.35738
# Poissons Ratio (y) = 0.55048 0.53757
# Poissons Ratio (z) = -0.11265 0.17533
#
# Static dielectric constant tensor:
#      x y z
#    x 1.602700 0.000000 -0.026160 
#    y 0.000000 1.584080 0.000000 
#    z -0.026160 0.000000 1.592650 
# 
# From -- ./inp_files/215964.got.cif
#   From: 2010.05.17/outbox.cif.g08.bks.cpg/sg12_108_cif.got.tgz:215964.got - 2010.06.03 13:09:07.
