data_PCOD9178823
_publ_section_title
;
Structure prediction by ZEFSAII (Michael W. Deem and Ramdas Pophale) SiO2 
 PCOD9178823
Probable space group: C 2/M
;
_chemical_formula_sum "Si O2"
_cell_formula_units_Z 56
_cell_length_a 16.040193
_cell_length_b 7.329281
_cell_length_c 18.567673
_cell_angle_alpha 90.000000
_cell_angle_beta 65.379653
_cell_angle_gamma 90.000000
_cell_volume 1984.424005
_symmetry_space_group_name_H-M "C 2/M"
_symmetry_group_IT_number 12
_symmetry_cell_setting 'monoclinic'
loop_
_space_group_symop_operation_xyz
x,y,z
-x,y,-z
-x,-y,-z
x,-y,z
1/2+x,1/2+y,z
1/2-x,1/2+y,-z
1/2-x,1/2-y,-z
1/2+x,1/2-y,z
loop_
_atom_site_type_symbol
_atom_site_label
_atom_site_fract_x
_atom_site_fract_y
_atom_site_fract_z
Si Si1 0.227825 0.724476 0.691773
Si Si2 0.773328 0.787494 0.872715
Si Si3 0.595235 0.292545 0.442788
Si Si4 0.047544 0.219480 0.259872
Si Si5 0.888463 0.277700 0.977232
Si Si6 0.432236 0.210890 0.156914
Si Si7 0.379596 0.787924 0.411517
O O1 0.228293 0.500000 0.693482
O O2 0.331305 0.783497 0.639160
O O3 0.167049 0.783523 0.782083
O O4 0.173383 0.782780 0.639430
O O5 0.848426 0.713358 0.789625
O O6 0.830686 0.777269 0.927250
O O7 0.761644 0.000000 0.858687
O O8 0.672969 0.716477 0.932579
O O9 0.500000 0.201096 0.500000
O O10 0.574969 0.500000 0.426318
O O11 0.642850 0.301643 0.504572
O O12 0.988805 0.286758 0.212291
O O13 0.987126 0.269675 0.350668
O O14 0.050206 0.000000 0.255451
O O15 0.890433 0.500000 0.978245
O O16 0.992077 0.212893 0.925395
O O17 0.419939 0.000000 0.140753
O O18 0.358811 0.000000 0.426399
#
# Coordination Sequence:
#
# PCOD9178823 Si02
#       7
#     8   8   8   8   8   8   8
#     4   8  15  28  45  65  86 110 141 172 204 244
#     4   8  13  19  28  46  73 104 134 163 196 235
#     4  10  20  33  48  65  86 110 136 169 210 254
#     4   9  15  23  36  55  80 107 137 171 204 240
#     4   8  12  18  29  46  71 104 136 162 194 235
#     4   8  13  22  36  54  78 107 138 170 201 238
#     4  10  19  31  47  64  84 110 141 175 207 245
#
# _framework density 28.219774999999998
#
# number of rings (size 3 to 8) (size 9 to 14) (size 15 to 20)
#    0.000    3.286    0.000    2.143    0.000    0.857 
#    0.000    2.857    0.000    0.000    0.000    0.000 
#    0.000    1.143    0.000   14.571    0.000    8.286 
#
# Total GULP energy -156603.073302 kJ/mol
# GULP energy per Si atom -5592.966904 kJ/mol
# Density = 2.815555 g / cm^3
# Si number density = 28.219775 Si / 1000 Ang^3
#
#
#
# Elastic Constant Matrix: (Units=GPa)
#
#
# Indices 1 2 3 4 5 6 
#
# 1 134.4066 3.4024 94.0392 0.0000 -47.4985 0.0000
# 2 3.4024 129.3194 -2.1493 0.0000 1.3615 0.0002
# 3 94.0392 -2.1493 289.0082 0.0000 -46.2581 0.0000
# 4 0.0000 0.0000 0.0000 6.1267 0.0000 -5.1236
# 5 -47.4985 1.3615 -46.2581 0.0000 88.2229 0.0000
# 6 0.0000 0.0002 0.0000 -5.1236 0.0000 -11.2116
#
#
#
# Elastic Compliance Matrix: (Units=1/GPa)
#
#
# Indices 1 2 3 4 5 6 
#
# 1 0.011035 -0.000385 -0.002884 0.000000 0.004435 0.000000
# 2 -0.000385 0.007748 0.000143 0.000000 -0.000252 0.000000
# 3 -0.002884 0.000143 0.004531 0.000000 0.000821 0.000000
# 4 0.000000 0.000000 0.000000 0.118090 0.000000 -0.053966
# 5 0.004435 -0.000252 0.000821 0.000000 0.014157 0.000000
# 6 0.000000 0.000000 0.000000 -0.053966 0.000000 -0.064531
#
#
# Mechanical properties :
#
#
# Convention : Reuss Voigt Hill
#
# Bulk Modulus (GPa) = 58.61134 82.59098 70.60116
# Shear Modulus (GPa) = 48.55849 47.12372 47.84110
#
# Velocity S-wave (km/s) = 4.15266 4.09085 4.12187
# Velocity P-wave (km/s) = 6.61872 7.18638 6.90838
#
# Compressibility (1/GPa) = 0.01706154
#
# Stress axis : x y z
#
# Youngs Moduli (GPa) = 90.62361 129.06652 220.70981
#
# Poissons Ratio (x) = 0.04968 0.63642
# Poissons Ratio (y) = 0.03488 -0.03146
# Poissons Ratio (z) = 0.26132 -0.01840
#
# Static dielectric constant tensor:
#      x y z
#    x 2.303020 0.000000 -0.011450 
#    y 0.000000 2.045230 0.000000 
#    z -0.011450 0.000000 2.156420 
# 
# From -- ./inp_files/345453.got.cif
#   From: 2010.05.17/outbox.cif.g08.bks.cpg/sg12_173_cif.got.tgz:345453.got - 2010.06.03 13:09:07.
