data_PCOD9178835
_publ_section_title
;
Structure prediction by ZEFSAII (Michael W. Deem and Ramdas Pophale) SiO2 
 PCOD9178835
Probable space group: C 2/M
;
_chemical_formula_sum "Si O2"
_cell_formula_units_Z 64
_cell_length_a 13.782108
_cell_length_b 9.393410
_cell_length_c 21.498845
_cell_angle_alpha 90.000000
_cell_angle_beta 91.822951
_cell_angle_gamma 90.000000
_cell_volume 2781.853167
_symmetry_space_group_name_H-M "C 2/M"
_symmetry_group_IT_number 12
_symmetry_cell_setting 'monoclinic'
loop_
_space_group_symop_operation_xyz
x,y,z
-x,y,-z
-x,-y,-z
x,-y,z
1/2+x,1/2+y,z
1/2-x,1/2+y,-z
1/2-x,1/2-y,-z
1/2+x,1/2-y,z
loop_
_atom_site_type_symbol
_atom_site_label
_atom_site_fract_x
_atom_site_fract_y
_atom_site_fract_z
Si Si1 0.722372 0.661887 0.821699
Si Si2 0.865282 0.169457 0.555138
Si Si3 0.019820 0.839816 0.070563
Si Si4 0.457478 0.837984 0.808095
Si Si5 0.832778 0.167913 0.418511
Si Si6 0.571380 0.338584 0.312744
Si Si7 0.748734 0.341529 0.061601
Si Si8 0.307073 0.163149 0.298617
O O1 0.688035 0.500000 0.822622
O O2 0.839863 0.657814 0.815311
O O3 0.704398 0.748125 0.883892
O O4 0.679738 0.748840 0.763633
O O5 0.892455 0.189205 0.483523
O O6 0.775283 0.275260 0.565700
O O7 0.938896 0.192470 0.613787
O O8 0.836197 0.000000 0.559493
O O9 0.000649 0.748763 0.132190
O O10 0.135812 0.856283 0.075630
O O11 0.976167 0.000000 0.071537
O O12 0.000000 0.780525 0.000000
O O13 0.469052 0.765081 0.740808
O O14 0.492805 0.000000 0.809383
O O15 0.855101 0.257841 0.357757
O O16 0.831670 0.000000 0.404104
O O17 0.537395 0.500000 0.300129
O O18 0.689445 0.337697 0.306839
O O19 0.790673 0.500000 0.055550
O O20 0.750000 0.250000 0.000000
O O21 0.337638 0.000000 0.294698
#
# Coordination Sequence:
#
# PCOD9178835 Si02
#       8
#     8   8   8   8   8   8   8   8
#     4   9  16  26  39  55  74  97 128 164 201 241
#     4   8  14  21  27  37  55  81 114 152 193 234
#     4   9  18  32  48  64  83 110 142 173 207 249
#     4   9  16  24  36  55  75  95 123 162 204 242
#     4   9  14  19  27  39  56  80 113 153 194 234
#     4   8  13  21  31  42  60  88 120 154 192 235
#     4  10  19  31  47  66  88 112 139 173 211 252
#     4   9  15  22  31  44  63  88 119 155 196 238
#
# _framework density 23.006246000000001
#
# number of rings (size 3 to 8) (size 9 to 14) (size 15 to 20)
#    0.000    3.125    0.000    2.625    0.000    7.250 
#    0.000    0.000    0.000    0.000    0.000    0.000 
#    0.000    0.000    0.000    0.000    0.000    1.250 
#
# Total GULP energy -178736.362703 kJ/mol
# GULP energy per Si atom -5585.511334 kJ/mol
# Density = 2.295388 g / cm^3
# Si number density = 23.006246 Si / 1000 Ang^3
#
#
#
# Elastic Constant Matrix: (Units=GPa)
#
#
# Indices 1 2 3 4 5 6 
#
# 1 70.9122 20.1313 18.5956 0.0000 13.8836 0.0000
# 2 20.1313 201.0579 154.4424 0.0000 10.9931 0.0000
# 3 18.5956 154.4424 264.8396 0.0000 5.1395 0.0000
# 4 0.0000 0.0000 0.0000 33.2218 0.0000 4.7514
# 5 13.8836 10.9931 5.1395 0.0000 25.7838 0.0000
# 6 0.0000 0.0000 0.0000 4.7514 0.0000 -2.4950
#
#
#
# Elastic Compliance Matrix: (Units=1/GPa)
#
#
# Indices 1 2 3 4 5 6 
#
# 1 0.016064 -0.000752 -0.000530 0.000000 -0.008224 0.000000
# 2 -0.000752 0.009251 -0.005294 0.000000 -0.002484 0.000000
# 3 -0.000530 -0.005294 0.006878 0.000000 0.001172 0.000000
# 4 0.000000 0.000000 0.000000 0.023657 0.000000 0.045052
# 5 -0.008224 -0.002484 0.001172 0.000000 0.044038 0.000000
# 6 0.000000 0.000000 0.000000 0.045052 0.000000 -0.315002
#
#
# Mechanical properties :
#
#
# Convention : Reuss Voigt Hill
#
# Bulk Modulus (GPa) = 52.51553 102.57204 77.54378
# Shear Modulus (GPa) = -25.56044 34.21146 4.32551
#
# Velocity S-wave (km/s) = -3.33682 3.86041 1.37267
# Velocity P-wave (km/s) = 2.83380 8.03440 6.02420
#
# Compressibility (1/GPa) = 0.01904199
#
# Stress axis : x y z
#
# Youngs Moduli (GPa) = 62.24925 108.09216 145.40040
#
# Poissons Ratio (x) = 0.08125 0.07706
# Poissons Ratio (y) = 0.04679 0.76975
# Poissons Ratio (z) = 0.03299 0.57224
#
# Static dielectric constant tensor:
#      x y z
#    x 1.969670 0.000000 -0.091270 
#    y 0.000000 1.800640 0.000000 
#    z -0.091270 0.000000 1.820810 
# 
# From -- ./inp_files/319260.got.cif
#   From: 2010.05.17/outbox.cif.g08.bks.cpg/sg12_160_cif.got.tgz:319260.got - 2010.06.03 13:09:07.
