data_PCOD9178497
_publ_section_title
;
Structure prediction by ZEFSAII (Michael W. Deem and Ramdas Pophale) SiO2 
 PCOD9178497
Probable space group: C 2/M
;
_chemical_formula_sum "Si O2"
_cell_formula_units_Z 56
_cell_length_a 30.188728
_cell_length_b 9.212396
_cell_length_c 19.452061
_cell_angle_alpha 90.000000
_cell_angle_beta 36.628481
_cell_angle_gamma 90.000000
_cell_volume 3227.629389
_symmetry_space_group_name_H-M "C 2/M"
_symmetry_group_IT_number 12
_symmetry_cell_setting 'monoclinic'
loop_
_space_group_symop_operation_xyz
x,y,z
-x,y,-z
-x,-y,-z
x,-y,z
1/2+x,1/2+y,z
1/2-x,1/2+y,-z
1/2-x,1/2-y,-z
1/2+x,1/2-y,z
loop_
_atom_site_type_symbol
_atom_site_label
_atom_site_fract_x
_atom_site_fract_y
_atom_site_fract_z
Si Si1 0.733562 0.334718 0.235102
Si Si2 0.402964 0.671948 0.351758
Si Si3 0.090772 0.666952 0.944141
Si Si4 0.932320 0.827887 0.889856
Si Si5 0.304206 0.168640 0.586768
Si Si6 0.283452 0.175298 0.025356
Si Si7 0.130814 0.170998 0.761471
O O1 0.706912 0.500000 0.274690
O O2 0.820980 0.334304 0.146927
O O3 0.692601 0.235332 0.340976
O O4 0.733890 0.291160 0.154889
O O5 0.387221 0.500000 0.375174
O O6 0.491376 0.692448 0.246317
O O7 0.356738 0.751272 0.467534
O O8 0.381127 0.720142 0.301793
O O9 0.065221 0.500000 0.978132
O O10 0.087329 0.737095 0.873018
O O11 0.056532 0.764781 0.047093
O O12 0.916033 0.000000 0.914468
O O13 0.864315 0.741994 0.940699
O O14 0.218470 0.183091 0.669047
O O15 0.322535 0.000000 0.565593
O O16 0.287584 0.000000 0.014425
O O17 0.250000 0.250000 0.000000
O O18 0.110158 0.000000 0.792420
#
# Coordination Sequence:
#
# PCOD9178497 Si02
#       7
#     8   8   8   8   8   8   8
#     4   8  16  31  50  72  99 129 160 194 240 294
#     4  10  21  34  48  67  98 139 175 209 252 298
#     4   9  17  30  48  70  97 130 166 210 257 297
#     4  10  20  34  51  72 100 135 169 202 247 303
#     4  10  19  30  49  73  97 130 173 216 251 284
#     4  10  20  35  58  85 107 128 155 196 246 298
#     4   9  18  32  48  69  96 131 176 218 254 295
#
# _framework density 17.350194999999999
#
# number of rings (size 3 to 8) (size 9 to 14) (size 15 to 20)
#    0.000    2.571    0.000    3.000    0.000    6.857 
#    0.000    2.857    0.000    0.857    0.000    6.000 
#    0.000    0.000    0.000    0.000    0.000    0.000 
#
# Total GULP energy -156218.177125 kJ/mol
# GULP energy per Si atom -5579.220612 kJ/mol
# Density = 1.731070 g / cm^3
# Si number density = 17.350195 Si / 1000 Ang^3
#
#
#
# Elastic Constant Matrix: (Units=GPa)
#
#
# Indices 1 2 3 4 5 6 
#
# 1 94.6465 49.7855 46.3302 0.0003 31.1482 -0.0001
# 2 49.7855 92.5901 68.9744 0.0086 15.9615 -0.0045
# 3 46.3302 68.9744 95.5126 0.0072 25.7649 -0.0053
# 4 0.0003 0.0086 0.0072 32.7069 0.0000 7.2381
# 5 31.1482 15.9615 25.7649 0.0000 21.7036 0.0000
# 6 -0.0001 -0.0045 -0.0053 7.2381 0.0000 21.6810
#
#
#
# Elastic Compliance Matrix: (Units=1/GPa)
#
#
# Indices 1 2 3 4 5 6 
#
# 1 0.025349 -0.011786 0.005430 0.000002 -0.034157 -0.000002
# 2 -0.011786 0.029118 -0.020737 -0.000003 0.020119 0.000002
# 3 0.005430 -0.020737 0.030598 -0.000002 -0.028865 0.000004
# 4 0.000002 -0.000003 -0.000002 0.033014 0.000002 -0.011022
# 5 -0.034157 0.020119 -0.028865 0.000002 0.114567 -0.000004
# 6 -0.000002 0.000002 0.000004 -0.011022 -0.000004 0.049803
#
#
# Mechanical properties :
#
#
# Convention : Reuss Voigt Hill
#
# Bulk Modulus (GPa) = 32.38727 68.10325 50.24526
# Shear Modulus (GPa) = 14.41225 23.06225 18.73725
#
# Velocity S-wave (km/s) = 2.88526 3.64980 3.28982
# Velocity P-wave (km/s) = 5.45957 7.55637 6.59188
#
# Compressibility (1/GPa) = 0.03087633
#
# Stress axis : x y z
#
# Youngs Moduli (GPa) = 39.44971 34.34360 32.68205
#
# Poissons Ratio (x) = 0.40479 -0.17745
# Poissons Ratio (y) = 0.46497 0.67773
# Poissons Ratio (z) = -0.21420 0.71219
#
# Static dielectric constant tensor:
#      x y z
#    x 1.597790 0.000000 -0.006040 
#    y 0.000000 1.581810 0.000000 
#    z -0.006040 0.000000 1.576270 
# 
# From -- ./inp_files/280931.got.cif
#   From: 2010.05.17/outbox.cif.g08.bks.cpg/sg12_141_cif.got.tgz:280931.got - 2010.06.03 13:09:07.
