data_PCOD9178521
_publ_section_title
;
Structure prediction by ZEFSAII (Michael W. Deem and Ramdas Pophale) SiO2 
 PCOD9178521
Probable space group: C 2/M
;
_chemical_formula_sum "Si O2"
_cell_formula_units_Z 64
_cell_length_a 26.851724
_cell_length_b 7.473668
_cell_length_c 13.720178
_cell_angle_alpha 90.000000
_cell_angle_beta 82.272645
_cell_angle_gamma 90.000000
_cell_volume 2728.374167
_symmetry_space_group_name_H-M "C 2/M"
_symmetry_group_IT_number 12
_symmetry_cell_setting 'monoclinic'
loop_
_space_group_symop_operation_xyz
x,y,z
-x,y,-z
-x,-y,-z
x,-y,z
1/2+x,1/2+y,z
1/2-x,1/2+y,-z
1/2-x,1/2-y,-z
1/2+x,1/2-y,z
loop_
_atom_site_type_symbol
_atom_site_label
_atom_site_fract_x
_atom_site_fract_y
_atom_site_fract_z
Si Si1 0.710444 0.712787 0.716247
Si Si2 0.452719 0.707070 0.069568
Si Si3 0.361456 0.214651 0.857523
Si Si4 0.840869 0.786098 0.074515
Si Si5 0.981650 0.281596 0.401437
Si Si6 0.677151 0.219221 0.345585
Si Si7 0.471699 0.214950 0.799860
Si Si8 0.131594 0.715382 0.564767
O O1 0.716517 0.500000 0.726149
O O2 0.693395 0.782313 0.827613
O O3 0.764795 0.778788 0.667974
O O4 0.669256 0.740942 0.643084
O O5 0.449204 0.500000 0.039995
O O6 0.397669 0.786592 0.075754
O O7 0.476373 0.714952 0.169853
O O8 0.500000 0.792113 0.000000
O O9 0.343792 0.276170 0.755329
O O10 0.419131 0.278890 0.858361
O O11 0.362911 0.000000 0.852006
O O12 0.329437 0.256554 0.963055
O O13 0.842813 0.000000 0.086797
O O14 0.980261 0.500000 0.401768
O O15 0.924817 0.221457 0.397785
O O16 0.000000 0.219284 0.500000
O O17 0.024107 0.233104 0.312945
O O18 0.649874 0.277613 0.452560
O O19 0.674582 0.000000 0.346542
O O20 0.472441 0.000000 0.808275
O O21 0.130168 0.500000 0.559764
#
# Coordination Sequence:
#
# PCOD9178521 Si02
#       8
#     8   8   8   8   8   8   8   8
#     4  10  21  37  56  76 104 138 172 214 261 308
#     4  10  19  32  49  68  97 135 168 199 243 300
#     4  10  20  34  53  76 104 137 173 213 255 304
#     4  10  21  36  52  74 104 139 175 210 255 307
#     4   9  17  30  50  77 107 136 164 199 248 303
#     4   9  19  36  56  78 103 135 171 211 264 312
#     4  10  19  30  49  77 103 129 167 211 248 289
#     4  10  19  34  58  82 105 133 171 215 255 304
#
# _framework density 23.457191000000002
#
# number of rings (size 3 to 8) (size 9 to 14) (size 15 to 20)
#    0.000    2.250    1.250    1.875    0.000    4.750 
#    0.000    1.250    0.000    3.000    0.000    0.000 
#    0.000    0.000    0.000    0.000    0.000    0.000 
#
# Total GULP energy -178584.994214 kJ/mol
# GULP energy per Si atom -5580.781069 kJ/mol
# Density = 2.340380 g / cm^3
# Si number density = 23.457191 Si / 1000 Ang^3
#
#
#
# Elastic Constant Matrix: (Units=GPa)
#
#
# Indices 1 2 3 4 5 6 
#
# 1 64.6784 -0.3467 16.7468 0.0000 -5.3718 0.0000
# 2 -0.3467 67.9674 -0.0715 0.0000 -6.9124 0.0000
# 3 16.7468 -0.0715 149.3544 0.0000 -10.4132 0.0000
# 4 0.0000 0.0000 0.0000 113.9211 0.0000 2.1060
# 5 -5.3718 -6.9124 -10.4132 0.0000 38.2244 0.0000
# 6 0.0000 0.0000 0.0000 2.1060 0.0000 11.5740
#
#
#
# Elastic Compliance Matrix: (Units=1/GPa)
#
#
# Indices 1 2 3 4 5 6 
#
# 1 0.016049 0.000268 -0.001670 0.000000 0.001849 0.000000
# 2 0.000268 0.014999 0.000172 0.000000 0.002797 0.000000
# 3 -0.001670 0.000172 0.007002 0.000000 0.001704 0.000000
# 4 0.000000 0.000000 0.000000 0.008808 0.000000 -0.001603
# 5 0.001849 0.002797 0.001704 0.000000 0.027391 0.000000
# 6 0.000000 0.000000 0.000000 -0.001603 0.000000 0.086692
#
#
# Mechanical properties :
#
#
# Convention : Reuss Voigt Hill
#
# Bulk Modulus (GPa) = 28.09875 34.96194 31.53035
# Shear Modulus (GPa) = 28.52848 50.45533 39.49191
#
# Velocity S-wave (km/s) = 3.49118 4.64287 4.10759
# Velocity P-wave (km/s) = 5.31562 6.60898 5.99727
#
# Compressibility (1/GPa) = 0.03558877
#
# Stress axis : x y z
#
# Youngs Moduli (GPa) = 62.31064 66.67140 142.82317
#
# Poissons Ratio (x) = -0.01788 0.23858
# Poissons Ratio (y) = -0.01671 -0.02458
# Poissons Ratio (z) = 0.10409 -0.01148
#
# Static dielectric constant tensor:
#      x y z
#    x 1.881140 0.000000 0.023710 
#    y 0.000000 1.906170 0.000000 
#    z 0.023710 0.000000 1.969890 
# 
# From -- ./inp_files/174592.got.cif
#   From: 2010.05.17/outbox.cif.g08.bks.cpg/sg12_88_cif.got.tgz:174592.got - 2010.06.03 13:09:07.
