data_PCOD9178392
_publ_section_title
;
Structure prediction by ZEFSAII (Michael W. Deem and Ramdas Pophale) SiO2 
 PCOD9178392
Probable space group: C 2/M
;
_chemical_formula_sum "Si O2"
_cell_formula_units_Z 64
_cell_length_a 31.007518
_cell_length_b 8.782445
_cell_length_c 31.819990
_cell_angle_alpha 90.000000
_cell_angle_beta 151.565649
_cell_angle_gamma 90.000000
_cell_volume 4125.984999
_symmetry_space_group_name_H-M "C 2/M"
_symmetry_group_IT_number 12
_symmetry_cell_setting 'monoclinic'
loop_
_space_group_symop_operation_xyz
x,y,z
-x,y,-z
-x,-y,-z
x,-y,z
1/2+x,1/2+y,z
1/2-x,1/2+y,-z
1/2-x,1/2-y,-z
1/2+x,1/2-y,z
loop_
_atom_site_type_symbol
_atom_site_label
_atom_site_fract_x
_atom_site_fract_y
_atom_site_fract_z
Si Si1 0.375493 0.817799 0.749449
Si Si2 0.773356 0.682356 0.920161
Si Si3 0.228395 0.818310 0.414262
Si Si4 0.428734 0.185043 0.118594
Si Si5 0.877410 0.183348 0.933226
Si Si6 0.086037 0.183299 0.129493
Si Si7 0.091770 0.316254 0.802057
Si Si8 0.610841 0.816782 0.388896
O O1 0.298301 0.755218 0.652644
O O2 0.472919 0.765493 0.813881
O O3 0.370542 0.758091 0.792590
O O4 0.374487 0.000000 0.748090
O O5 0.772510 0.500000 0.919533
O O6 0.805903 0.741924 0.902937
O O7 0.676489 0.744600 0.851145
O O8 0.849138 0.734779 0.019091
O O9 0.326783 0.777700 0.517707
O O10 0.157003 0.759428 0.387931
O O11 0.222686 0.000000 0.406276
O O12 0.411085 0.232587 0.151389
O O13 0.429887 0.000000 0.119525
O O14 0.871221 0.226521 0.878847
O O15 0.870812 0.000000 0.930038
O O16 0.979329 0.225344 0.035452
O O17 0.090300 0.000000 0.136540
O O18 0.100127 0.500000 0.808301
O O19 0.994339 0.275335 0.698876
O O20 0.615868 0.000000 0.387095
#
# Coordination Sequence:
#
# PCOD9178392 Si02
#       8
#     8   8   8   8   8   8   8   8
#     4  11  19  31  49  71  99 132 162 193 240 291
#     4  11  21  32  46  70  98 127 167 205 235 276
#     4  10  19  30  48  73  97 123 159 202 244 287
#     4   9  18  31  45  64  95 131 164 195 228 274
#     4   9  18  33  50  69  95 127 159 197 244 286
#     4   9  18  32  50  72  96 122 160 202 238 284
#     4  10  19  34  50  64  91 133 170 199 237 280
#     4   9  18  33  50  68  94 127 162 201 244 288
#
# _framework density 15.511447
#
# number of rings (size 3 to 8) (size 9 to 14) (size 15 to 20)
#    0.000    2.250    2.500    2.250    0.000    1.500 
#    0.000    1.875    0.000    0.000    0.000    0.875 
#    0.000    7.000    0.000    0.000    0.000    0.000 
#
# Total GULP energy -178490.605710 kJ/mol
# GULP energy per Si atom -5577.831428 kJ/mol
# Density = 1.547614 g / cm^3
# Si number density = 15.511447 Si / 1000 Ang^3
#
#
#
# Elastic Constant Matrix: (Units=GPa)
#
#
# Indices 1 2 3 4 5 6 
#
# 1 117.3005 32.6859 74.2884 0.0000 -12.1558 0.0000
# 2 32.6859 24.0550 36.7983 -0.0001 -7.4663 -0.0002
# 3 74.2884 36.7983 116.6559 0.0000 -16.7818 0.0000
# 4 0.0000 -0.0001 0.0000 20.3025 0.0000 -2.6531
# 5 -12.1558 -7.4663 -16.7818 0.0000 26.7817 0.0000
# 6 0.0000 -0.0002 0.0000 -2.6531 0.0000 24.4292
#
#
#
# Elastic Compliance Matrix: (Units=1/GPa)
#
#
# Indices 1 2 3 4 5 6 
#
# 1 0.015844 -0.011794 -0.006383 0.000000 -0.000096 0.000000
# 2 -0.011794 0.090388 -0.019945 0.000000 0.007348 0.000001
# 3 -0.006383 -0.019945 0.019467 0.000000 0.003741 0.000000
# 4 0.000000 0.000000 0.000000 0.049964 0.000000 0.005426
# 5 -0.000096 0.007348 0.003741 0.000000 0.041688 0.000000
# 6 0.000000 0.000001 0.000000 0.005426 0.000000 0.041524
#
#
# Mechanical properties :
#
#
# Convention : Reuss Voigt Hill
#
# Bulk Modulus (GPa) = 20.22039 60.61740 40.41889
# Shear Modulus (GPa) = 14.22054 21.91860 18.06957
#
# Velocity S-wave (km/s) = 3.03112 3.76315 3.41679
# Velocity P-wave (km/s) = 5.03133 7.61877 6.45600
#
# Compressibility (1/GPa) = 0.04945504
#
# Stress axis : x y z
#
# Youngs Moduli (GPa) = 63.11434 11.06339 51.36942
#
# Poissons Ratio (x) = 0.13048 0.32791
# Poissons Ratio (y) = 0.74437 1.02455
# Poissons Ratio (z) = 0.40289 0.22066
#
# Static dielectric constant tensor:
#      x y z
#    x 1.492840 0.000000 -0.011000 
#    y 0.000000 1.520190 0.000000 
#    z -0.011000 0.000000 1.519440 
# 
# From -- ./inp_files/384619.got.cif
#   From: 2010.05.17/outbox.cif.g08.bks.cpg/sg12_193_cif.got.tgz:384619.got - 2010.06.03 13:09:07.
