data_PCOD9178203
_publ_section_title
;
Structure prediction by ZEFSAII (Michael W. Deem and Ramdas Pophale) SiO2 
 PCOD9178203
Probable space group: C 2/M
;
_chemical_formula_sum "Si O2"
_cell_formula_units_Z 64
_cell_length_a 24.688591
_cell_length_b 7.670761
_cell_length_c 19.034260
_cell_angle_alpha 90.000000
_cell_angle_beta 118.402564
_cell_angle_gamma 90.000000
_cell_volume 3170.804365
_symmetry_space_group_name_H-M "C 2/M"
_symmetry_group_IT_number 12
_symmetry_cell_setting 'monoclinic'
loop_
_space_group_symop_operation_xyz
x,y,z
-x,y,-z
-x,-y,-z
x,-y,z
1/2+x,1/2+y,z
1/2-x,1/2+y,-z
1/2-x,1/2-y,-z
1/2+x,1/2-y,z
loop_
_atom_site_type_symbol
_atom_site_label
_atom_site_fract_x
_atom_site_fract_y
_atom_site_fract_z
Si Si1 0.037621 0.214028 0.591058
Si Si2 0.525642 0.300133 0.937724
Si Si3 0.493780 0.296521 0.273835
Si Si4 0.087542 0.697059 0.222835
Si Si5 0.639979 0.204175 0.849410
Si Si6 0.829840 0.201137 0.288671
Si Si7 0.834979 0.700767 0.984661
Si Si8 0.696240 0.784348 0.189391
O O1 0.007949 0.268639 0.647112
O O2 0.108588 0.275820 0.638495
O O3 0.000000 0.271886 0.500000
O O4 0.038286 0.000000 0.590419
O O5 0.532611 0.500000 0.915064
O O6 0.473100 0.203687 0.862650
O O7 0.500000 0.310534 0.000000
O O8 0.591194 0.208756 0.979077
O O9 0.479226 0.500000 0.267285
O O10 0.559388 0.275424 0.276649
O O11 0.434808 0.217102 0.196398
O O12 0.105957 0.500000 0.250173
O O13 0.141638 0.774547 0.207679
O O14 0.659912 0.291959 0.789270
O O15 0.655393 0.000000 0.854227
O O16 0.671375 0.275854 0.940120
O O17 0.762167 0.274524 0.259166
O O18 0.827115 0.000000 0.308924
O O19 0.814406 0.500000 0.975207
O O20 0.810096 0.776355 0.895873
O O21 0.693740 0.000000 0.185025
#
# Coordination Sequence:
#
# PCOD9178203 Si02
#       8
#     8   8   8   8   8   8   8   8
#     4   8  15  30  55  82 100 119 152 195 246 299
#     4  11  21  30  43  67  96 126 171 221 254 278
#     4  10  19  31  50  76 103 126 157 206 250 289
#     4  11  20  31  49  69  96 134 170 204 246 295
#     4  10  19  30  47  70  96 129 166 206 250 294
#     4   9  18  34  53  71  96 128 164 207 244 289
#     4  10  19  31  46  64  92 132 174 209 245 288
#     4   9  19  33  48  67  93 134 178 205 239 288
#
# _framework density 20.184152000000001
#
# number of rings (size 3 to 8) (size 9 to 14) (size 15 to 20)
#    0.000    2.250    2.500    2.250    0.000    1.500 
#    0.000    1.875    0.000   10.125    0.000    0.000 
#    0.000    0.000    0.000    0.000    0.000    0.625 
#
# Total GULP energy -178387.609547 kJ/mol
# GULP energy per Si atom -5574.612798 kJ/mol
# Density = 2.013821 g / cm^3
# Si number density = 20.184152 Si / 1000 Ang^3
#
#
#
# Elastic Constant Matrix: (Units=GPa)
#
#
# Indices 1 2 3 4 5 6 
#
# 1 72.0817 -6.5667 56.8010 0.0000 16.9268 0.0000
# 2 -6.5667 45.4750 0.5724 0.0000 -1.6540 0.0000
# 3 56.8010 0.5724 132.5483 0.0000 6.2231 0.0000
# 4 0.0000 0.0000 0.0000 8.8628 0.0000 -7.2502
# 5 16.9268 -1.6540 6.2231 0.0000 22.5260 0.0000
# 6 0.0000 0.0000 0.0000 -7.2502 0.0000 18.3515
#
#
#
# Elastic Compliance Matrix: (Units=1/GPa)
#
#
# Indices 1 2 3 4 5 6 
#
# 1 0.026406 0.003339 -0.010547 0.000000 -0.016684 0.000000
# 2 0.003339 0.022475 -0.001507 0.000000 -0.000442 0.000000
# 3 -0.010547 -0.001507 0.011858 0.000000 0.004539 0.000000
# 4 0.000000 0.000000 0.000000 0.166711 0.000000 0.065863
# 5 -0.016684 -0.000442 0.004539 0.000000 0.055643 0.000000
# 6 0.000000 0.000000 0.000000 0.065863 0.000000 0.080512
#
#
# Mechanical properties :
#
#
# Convention : Reuss Voigt Hill
#
# Bulk Modulus (GPa) = 23.09007 39.07983 31.08495
# Shear Modulus (GPa) = 12.64311 23.23462 17.93886
#
# Velocity S-wave (km/s) = 2.50549 3.39651 2.98444
# Velocity P-wave (km/s) = 4.45359 5.89792 5.22589
#
# Compressibility (1/GPa) = 0.04330866
#
# Stress axis : x y z
#
# Youngs Moduli (GPa) = 37.86981 44.49360 84.33454
#
# Poissons Ratio (x) = -0.14857 0.88948
# Poissons Ratio (y) = -0.12645 0.12711
# Poissons Ratio (z) = 0.39941 0.06706
#
# Static dielectric constant tensor:
#      x y z
#    x 1.762880 0.000000 -0.022680 
#    y 0.000000 1.790490 0.000000 
#    z -0.022680 0.000000 1.709310 
# 
# From -- ./inp_files/323738.got.cif
#   From: 2010.05.17/outbox.cif.g08.bks.cpg/sg12_162_cif.got.tgz:323738.got - 2010.06.03 13:09:07.
