data_PCOD9178523
_publ_section_title
;
Structure prediction by ZEFSAII (Michael W. Deem and Ramdas Pophale) SiO2 
 PCOD9178523
Probable space group: C 2/M
;
_chemical_formula_sum "Si O2"
_cell_formula_units_Z 28
_cell_length_a 15.746045
_cell_length_b 13.507022
_cell_length_c 6.878643
_cell_angle_alpha 90.000000
_cell_angle_beta 132.774372
_cell_angle_gamma 90.000000
_cell_volume 1073.865438
_symmetry_space_group_name_H-M "C 2/M"
_symmetry_group_IT_number 12
_symmetry_cell_setting 'monoclinic'
loop_
_space_group_symop_operation_xyz
x,y,z
-x,y,-z
-x,-y,-z
x,-y,z
1/2+x,1/2+y,z
1/2-x,1/2+y,-z
1/2-x,1/2-y,-z
1/2+x,1/2-y,z
loop_
_atom_site_type_symbol
_atom_site_label
_atom_site_fract_x
_atom_site_fract_y
_atom_site_fract_z
Si Si1 0.134677 0.146520 0.549450
Si Si2 0.386224 0.164824 0.944741
Si Si3 0.500000 0.171565 0.500000
Si Si4 0.894640 0.104908 0.041442
O O1 0.131221 0.108722 0.765971
O O2 0.087488 0.258826 0.509758
O O3 0.035077 0.102734 0.260553
O O4 0.263340 0.128948 0.677248
O O5 0.417676 0.125193 0.209849
O O6 0.365258 0.284616 0.924077
O O7 0.500000 0.142958 0.000000
O O8 0.846227 0.000000 0.895264
#
# Coordination Sequence:
#
# PCOD9178523 Si02
#       4
#     8   8   4   8
#     4   8  15  30  48  71  99 131 167 202 244 296
#     4  10  19  30  49  77 104 130 163 205 252 300
#     4   8  16  28  45  68  95 126 162 202 238 280
#     4   9  17  30  52  77  98 128 170 212 249 289
#
# _framework density 26.07403
#
# number of rings (size 3 to 8) (size 9 to 14) (size 15 to 20)
#    0.000    4.000    0.000    5.143    0.000    5.143 
#    0.000    0.000    0.000    3.429    0.000   83.000 
#    0.000    0.000    0.000    0.000    0.000    0.000 
#
# Total GULP energy -78115.457986 kJ/mol
# GULP energy per Si atom -5579.675570 kJ/mol
# Density = 2.601468 g / cm^3
# Si number density = 26.074030 Si / 1000 Ang^3
#
#
#
# Elastic Constant Matrix: (Units=GPa)
#
#
# Indices 1 2 3 4 5 6 
#
# 1 79.8645 -1.0872 43.9034 0.0000 23.1602 0.0000
# 2 -1.0872 63.1951 6.6559 0.0000 -1.4939 0.0000
# 3 43.9034 6.6559 117.6051 0.0000 27.1158 0.0000
# 4 0.0000 0.0000 0.0000 -5.0108 0.0000 3.3237
# 5 23.1602 -1.4939 27.1158 0.0000 55.5356 0.0000
# 6 0.0000 0.0000 0.0000 3.3237 0.0000 -6.4585
#
#
#
# Elastic Compliance Matrix: (Units=1/GPa)
#
#
# Indices 1 2 3 4 5 6 
#
# 1 0.016694 0.000739 -0.005266 0.000000 -0.004371 0.000000
# 2 0.000739 0.015999 -0.001363 0.000000 0.000788 0.000000
# 3 -0.005266 -0.001363 0.011323 0.000000 -0.003369 0.000000
# 4 0.000000 0.000000 0.000000 -0.303006 0.000000 -0.155936
# 5 -0.004371 0.000788 -0.003369 0.000000 0.021495 0.000000
# 6 0.000000 0.000000 0.000000 -0.155936 0.000000 -0.235084
#
#
# Mechanical properties :
#
#
# Convention : Reuss Voigt Hill
#
# Bulk Modulus (GPa) = 31.02242 39.95654 35.48948
# Shear Modulus (GPa) = -11.10977 22.89279 5.89151
#
# Velocity S-wave (km/s) = -2.06642 2.96631 1.50480
# Velocity P-wave (km/s) = 2.49603 5.20476 4.08165
#
# Compressibility (1/GPa) = 0.03223475
#
# Stress axis : x y z
#
# Youngs Moduli (GPa) = 59.90337 62.50442 88.31744
#
# Poissons Ratio (x) = -0.04616 0.46508
# Poissons Ratio (y) = -0.04424 0.12036
# Poissons Ratio (z) = 0.31545 0.08518
#
# Static dielectric constant tensor:
#      x y z
#    x 2.141750 0.000000 -0.065710 
#    y 0.000000 2.101160 0.000000 
#    z -0.065710 0.000000 2.057200 
# 
# From -- ./inp_files/73464.got.cif
#   From: 2010.05.17/outbox.cif.g08.bks.cpg/sg12_37_cif.got.tgz:73464.got - 2010.06.03 13:09:07.
