data_PCOD9178795
_publ_section_title
;
Structure prediction by ZEFSAII (Michael W. Deem and Ramdas Pophale) SiO2 
 PCOD9178795
Probable space group: C 2/M
;
_chemical_formula_sum "Si O2"
_cell_formula_units_Z 56
_cell_length_a 24.911805
_cell_length_b 7.345640
_cell_length_c 14.051688
_cell_angle_alpha 90.000000
_cell_angle_beta 55.734963
_cell_angle_gamma 90.000000
_cell_volume 2125.082145
_symmetry_space_group_name_H-M "C 2/M"
_symmetry_group_IT_number 12
_symmetry_cell_setting 'monoclinic'
loop_
_space_group_symop_operation_xyz
x,y,z
-x,y,-z
-x,-y,-z
x,-y,z
1/2+x,1/2+y,z
1/2-x,1/2+y,-z
1/2-x,1/2-y,-z
1/2+x,1/2-y,z
loop_
_atom_site_type_symbol
_atom_site_label
_atom_site_fract_x
_atom_site_fract_y
_atom_site_fract_z
Si Si1 0.177784 0.698449 0.096590
Si Si2 0.368861 0.211263 0.568571
Si Si3 0.774467 0.279354 0.275304
Si Si4 0.153396 0.720811 0.619696
Si Si5 0.605004 0.204973 0.967783
Si Si6 0.441153 0.775753 0.671986
Si Si7 0.989563 0.720959 0.203633
O O1 0.183092 0.500000 0.134981
O O2 0.127058 0.794731 0.214972
O O3 0.250000 0.750000 0.000000
O O4 0.359343 0.811213 0.966029
O O5 0.296719 0.219998 0.686500
O O6 0.355381 0.292687 0.478161
O O7 0.428042 0.280172 0.575231
O O8 0.385312 0.000000 0.536151
O O9 0.774508 0.500000 0.268982
O O10 0.788617 0.218852 0.369680
O O11 0.837389 0.214616 0.153681
O O12 0.157902 0.500000 0.611194
O O13 0.084994 0.765744 0.738357
O O14 0.536956 0.287405 0.071984
O O15 0.591502 0.000000 0.942696
O O16 0.490763 0.723681 0.707304
O O17 0.445087 0.000000 0.665488
O O18 0.996171 0.500000 0.196475
#
# Coordination Sequence:
#
# PCOD9178795 Si02
#       7
#     8   8   8   8   8   8   8
#     4   9  15  24  38  59  84 112 142 174 212 259
#     4  10  19  31  46  68  93 119 150 184 220 264
#     4  10  19  31  46  68  93 119 150 184 220 264
#     4   9  18  29  44  66  92 118 150 187 222 262
#     4   8  15  26  42  63  89 115 142 178 223 266
#     4   8  15  26  42  63  89 115 142 178 223 266
#     4   8  14  27  44  67  94 116 141 185 234 265
#
# _framework density 26.351924
#
# number of rings (size 3 to 8) (size 9 to 14) (size 15 to 20)
#    0.000    3.143    0.000    3.000    0.000    1.143 
#    0.000    5.714    0.000    0.000    0.000   14.000 
#    0.000    0.000    0.000    0.000    0.000    0.000 
#
# Total GULP energy -156128.716873 kJ/mol
# GULP energy per Si atom -5576.025603 kJ/mol
# Density = 2.629195 g / cm^3
# Si number density = 26.351924 Si / 1000 Ang^3
#
#
#
# Elastic Constant Matrix: (Units=GPa)
#
#
# Indices 1 2 3 4 5 6 
#
# 1 163.1856 -3.5565 29.4573 -0.0001 2.4560 0.0003
# 2 -3.5565 95.5038 -5.0411 -0.0003 1.3599 0.0014
# 3 29.4573 -5.0411 82.9045 0.0000 6.8141 0.0000
# 4 -0.0001 -0.0003 0.0000 -6.2194 0.0000 -6.1258
# 5 2.4560 1.3599 6.8141 0.0000 43.0426 -0.0001
# 6 0.0003 0.0014 0.0000 -6.1258 -0.0001 0.7138
#
#
#
# Elastic Compliance Matrix: (Units=1/GPa)
#
#
# Indices 1 2 3 4 5 6 
#
# 1 0.006549 0.000122 -0.002319 0.000000 -0.000010 0.000000
# 2 0.000122 0.010515 0.000632 0.000002 -0.000439 -0.000003
# 3 -0.002319 0.000632 0.013085 0.000000 -0.001959 0.000000
# 4 0.000000 0.000002 0.000000 -0.017010 0.000000 -0.145973
# 5 -0.000010 -0.000439 -0.001959 0.000000 0.023557 0.000000
# 6 0.000000 -0.000003 0.000000 -0.145973 0.000000 0.148203
#
#
# Mechanical properties :
#
#
# Convention : Reuss Voigt Hill
#
# Bulk Modulus (GPa) = 37.00977 42.59038 39.80007
# Shear Modulus (GPa) = 25.37589 28.88969 27.13279
#
# Velocity S-wave (km/s) = 3.10653 3.31464 3.21227
# Velocity P-wave (km/s) = 5.19060 5.55395 5.37534
#
# Compressibility (1/GPa) = 0.02701990
#
# Stress axis : x y z
#
# Youngs Moduli (GPa) = 152.68613 95.10277 76.42060
#
# Poissons Ratio (x) = -0.01157 0.17721
# Poissons Ratio (y) = -0.01857 -0.04832
# Poissons Ratio (z) = 0.35406 -0.06013
#
# Static dielectric constant tensor:
#      x y z
#    x 2.051160 0.000000 -0.097220 
#    y 0.000000 4.162550 0.000000 
#    z -0.097220 0.000000 2.331030 
# 
# From -- ./inp_files/238429.got.cif
#   From: 2010.05.17/outbox.cif.g08.bks.cpg/sg12_120_cif.got.tgz:238429.got - 2010.06.03 13:09:07.
