data_PCOD9178406
_publ_section_title
;
Structure prediction by ZEFSAII (Michael W. Deem and Ramdas Pophale) SiO2 
 PCOD9178406
Probable space group: C 2/M
;
_chemical_formula_sum "Si O2"
_cell_formula_units_Z 64
_cell_length_a 30.118266
_cell_length_b 8.725836
_cell_length_c 16.179299
_cell_angle_alpha 90.000000
_cell_angle_beta 62.084638
_cell_angle_gamma 90.000000
_cell_volume 3757.267767
_symmetry_space_group_name_H-M "C 2/M"
_symmetry_group_IT_number 12
_symmetry_cell_setting 'monoclinic'
loop_
_space_group_symop_operation_xyz
x,y,z
-x,y,-z
-x,-y,-z
x,-y,z
1/2+x,1/2+y,z
1/2-x,1/2+y,-z
1/2-x,1/2-y,-z
1/2+x,1/2-y,z
loop_
_atom_site_type_symbol
_atom_site_label
_atom_site_fract_x
_atom_site_fract_y
_atom_site_fract_z
Si Si1 0.654665 0.684986 0.064933
Si Si2 0.713883 0.315898 0.849485
Si Si3 0.321052 0.316978 0.769352
Si Si4 0.439630 0.816400 0.944066
Si Si5 0.078615 0.314822 0.392890
Si Si6 0.522046 0.186336 0.608357
Si Si7 0.045764 0.314892 0.772330
Si Si8 0.112240 0.183369 0.850235
O O1 0.649251 0.500000 0.067142
O O2 0.671783 0.731966 0.140984
O O3 0.601909 0.759497 0.085135
O O4 0.694150 0.727633 0.958554
O O5 0.718407 0.500000 0.843425
O O6 0.767465 0.243040 0.785567
O O7 0.668799 0.270734 0.826982
O O8 0.321606 0.500000 0.766670
O O9 0.368142 0.253288 0.677658
O O10 0.494857 0.771506 0.865524
O O11 0.437871 0.000000 0.951615
O O12 0.423649 0.746242 0.045611
O O13 0.081498 0.500000 0.388304
O O14 0.058436 0.269217 0.501185
O O15 0.034585 0.266708 0.367141
O O16 0.539577 0.237623 0.683100
O O17 0.521352 0.000000 0.610132
O O18 0.048989 0.500000 0.770130
O O19 0.092496 0.247191 0.781144
O O20 0.110007 0.000000 0.853066
#
# Coordination Sequence:
#
# PCOD9178406 Si02
#       8
#     8   8   8   8   8   8   8   8
#     4   9  19  33  47  69 102 133 161 197 240 287
#     4   9  19  35  50  65  91 129 170 204 235 281
#     4  11  21  31  48  75 102 127 159 200 246 291
#     4  10  19  30  48  74 101 130 164 200 237 282
#     4   9  17  33  55  75  99 131 162 193 235 288
#     4   8  16  32  54  77  99 127 163 198 234 283
#     4  10  19  31  49  74 100 126 163 205 240 281
#     4  10  21  35  49  68  97 132 167 202 242 287
#
# _framework density 17.033653000000001
#
# number of rings (size 3 to 8) (size 9 to 14) (size 15 to 20)
#    0.000    2.500    0.000    4.125    0.000    7.000 
#    0.000    2.500    0.000    0.750    0.000    0.000 
#    0.000    0.000    0.000    0.000    0.000    0.000 
#
# Total GULP energy -178548.681777 kJ/mol
# GULP energy per Si atom -5579.646306 kJ/mol
# Density = 1.699488 g / cm^3
# Si number density = 17.033653 Si / 1000 Ang^3
#
#
#
# Elastic Constant Matrix: (Units=GPa)
#
#
# Indices 1 2 3 4 5 6 
#
# 1 142.1219 33.9434 94.7653 0.0000 -0.3878 0.0000
# 2 33.9434 16.9740 27.0015 0.0000 -2.1352 0.0000
# 3 94.7653 27.0015 89.7038 0.0000 -0.6908 0.0000
# 4 0.0000 0.0000 0.0000 18.1150 0.0000 1.0284
# 5 -0.3878 -2.1352 -0.6908 0.0000 32.2415 0.0000
# 6 0.0000 0.0000 0.0000 1.0284 0.0000 28.4819
#
#
#
# Elastic Compliance Matrix: (Units=1/GPa)
#
#
# Indices 1 2 3 4 5 6 
#
# 1 0.025895 -0.016130 -0.022510 0.000000 -0.001239 0.000000
# 2 -0.016130 0.124581 -0.020401 0.000000 0.007619 0.000000
# 3 -0.022510 -0.020401 0.041063 0.000000 -0.000742 0.000000
# 4 0.000000 0.000000 0.000000 0.055316 0.000000 -0.001997
# 5 -0.001239 0.007619 -0.000742 0.000000 0.031490 0.000000
# 6 0.000000 0.000000 0.000000 -0.001997 0.000000 0.035182
#
#
# Mechanical properties :
#
#
# Convention : Reuss Voigt Hill
#
# Bulk Modulus (GPa) = 13.61349 62.24665 37.93007
# Shear Modulus (GPa) = 10.96266 21.97364 16.46815
#
# Velocity S-wave (km/s) = 2.53966 3.59557 3.11272
# Velocity P-wave (km/s) = 4.07545 7.33895 5.93589
#
# Compressibility (1/GPa) = 0.07345653
#
# Stress axis : x y z
#
# Youngs Moduli (GPa) = 38.61795 8.02693 24.35287
#
# Poissons Ratio (x) = 0.12948 0.54818
# Poissons Ratio (y) = 0.62292 0.49681
# Poissons Ratio (z) = 0.86929 0.16375
#
# Static dielectric constant tensor:
#      x y z
#    x 1.573120 0.000000 0.013980 
#    y 0.000000 1.571500 0.000000 
#    z 0.013980 0.000000 1.566100 
# 
# From -- ./inp_files/248963.got.cif
#   From: 2010.05.17/outbox.cif.g08.bks.cpg/sg12_125_cif.got.tgz:248963.got - 2010.06.03 13:09:07.
