data_PCOD9178486
_publ_section_title
;
Structure prediction by ZEFSAII (Michael W. Deem and Ramdas Pophale) SiO2 
 PCOD9178486
Probable space group: C 2/M
;
_chemical_formula_sum "Si O2"
_cell_formula_units_Z 56
_cell_length_a 8.996785
_cell_length_b 28.234278
_cell_length_c 18.262248
_cell_angle_alpha 90.000000
_cell_angle_beta 35.086498
_cell_angle_gamma 90.000000
_cell_volume 2666.517387
_symmetry_space_group_name_H-M "C 2/M"
_symmetry_group_IT_number 12
_symmetry_cell_setting 'monoclinic'
loop_
_space_group_symop_operation_xyz
x,y,z
-x,y,-z
-x,-y,-z
x,-y,z
1/2+x,1/2+y,z
1/2-x,1/2+y,-z
1/2-x,1/2-y,-z
1/2+x,1/2-y,z
loop_
_atom_site_type_symbol
_atom_site_label
_atom_site_fract_x
_atom_site_fract_y
_atom_site_fract_z
Si Si1 0.940651 0.352580 0.940881
Si Si2 0.690381 0.053264 0.792397
Si Si3 0.028291 0.212367 0.114476
Si Si4 0.767891 0.417468 0.375359
Si Si5 0.320880 0.316469 0.662292
Si Si6 0.700010 0.943279 0.482398
Si Si7 0.014057 0.241538 0.705271
O O1 0.032481 0.406572 0.897736
O O2 0.107665 0.324759 0.812640
O O3 0.644622 0.338321 0.044793
O O4 0.000000 0.336619 0.000000
O O5 0.593824 0.056570 0.746779
O O6 0.000159 0.065272 0.662734
O O7 0.664091 0.000000 0.830897
O O8 0.000595 0.212623 0.213344
O O9 0.752819 0.228525 0.194853
O O10 0.250000 0.250000 0.000000
O O11 0.500000 0.444538 0.500000
O O12 0.683738 0.367232 0.374481
O O13 0.881983 0.416202 0.410130
O O14 0.542651 0.292168 0.622812
O O15 0.230885 0.279900 0.636868
O O16 0.500000 0.930133 0.500000
O O17 0.678495 0.000000 0.503745
#
# Coordination Sequence:
#
# PCOD9178486 Si02
#       7
#     8   8   8   8   8   8   8
#     4  11  19  30  49  76 107 141 174 217 258 302
#     4   9  19  34  54  80 106 138 175 209 259 322
#     4  11  17  29  50  72 101 133 174 224 258 288
#     4   9  18  35  55  77 104 133 171 215 261 320
#     4  10  20  32  49  77 101 137 180 217 262 307
#     4   9  17  34  61  85 103 127 167 222 271 310
#     4  10  19  30  49  71 101 134 179 220 256 302
#
# _framework density 21.001176000000001
#
# number of rings (size 3 to 8) (size 9 to 14) (size 15 to 20)
#    0.000    2.143    4.286    0.857    0.000    2.000 
#    2.571    2.143    0.000    0.000    0.000    3.000 
#    0.000    0.000    0.000    0.000    0.000    0.000 
#
# Total GULP energy -155916.272329 kJ/mol
# GULP energy per Si atom -5568.438297 kJ/mol
# Density = 2.095338 g / cm^3
# Si number density = 21.001176 Si / 1000 Ang^3
#
#
#
# Elastic Constant Matrix: (Units=GPa)
#
#
# Indices 1 2 3 4 5 6 
#
# 1 121.1320 27.8737 25.6002 0.0000 21.9117 0.0000
# 2 27.8737 104.3454 21.1469 0.0000 -1.9128 0.0000
# 3 25.6002 21.1469 60.5735 0.0000 11.0764 0.0000
# 4 0.0000 0.0000 0.0000 13.3696 0.0000 -2.2414
# 5 21.9117 -1.9128 11.0764 0.0000 24.4045 0.0000
# 6 0.0000 0.0000 0.0000 -2.2414 0.0000 23.1658
#
#
#
# Elastic Compliance Matrix: (Units=1/GPa)
#
#
# Indices 1 2 3 4 5 6 
#
# 1 0.010951 -0.002683 -0.002023 0.000000 -0.009124 0.000000
# 2 -0.002683 0.011132 -0.003656 0.000000 0.004940 0.000000
# 3 -0.002023 -0.003656 0.020022 0.000000 -0.007557 0.000000
# 4 0.000000 0.000000 0.000000 0.076030 0.000000 0.007356
# 5 -0.009124 0.004940 -0.007557 0.000000 0.052986 0.000000
# 6 0.000000 0.000000 0.000000 0.007356 0.000000 0.043879
#
#
# Mechanical properties :
#
#
# Convention : Reuss Voigt Hill
#
# Bulk Modulus (GPa) = 39.39880 48.36583 43.88232
# Shear Modulus (GPa) = 20.81753 26.28332 23.55042
#
# Velocity S-wave (km/s) = 3.15184 3.54152 3.35234
# Velocity P-wave (km/s) = 5.66096 6.30897 5.99373
#
# Compressibility (1/GPa) = 0.02538148
#
# Stress axis : x y z
#
# Youngs Moduli (GPa) = 91.31744 89.83436 49.94464
#
# Poissons Ratio (x) = 0.24098 0.10105
# Poissons Ratio (y) = 0.24496 0.18259
# Poissons Ratio (z) = 0.18475 0.32842
#
# Static dielectric constant tensor:
#      x y z
#    x 1.831550 0.000000 0.010320 
#    y 0.000000 1.834770 0.000000 
#    z 0.010320 0.000000 1.789350 
# 
# From -- ./inp_files/199927.got.cif
#   From: 2010.05.17/outbox.cif.g08.bks.cpg/sg12_100_cif.got.tgz:199927.got - 2010.06.03 13:09:07.
