data_PCOD9178609
_publ_section_title
;
Structure prediction by ZEFSAII (Michael W. Deem and Ramdas Pophale) SiO2 
 PCOD9178609
Probable space group: C 2/M
;
_chemical_formula_sum "Si O2"
_cell_formula_units_Z 64
_cell_length_a 23.450593
_cell_length_b 9.047463
_cell_length_c 21.534774
_cell_angle_alpha 90.000000
_cell_angle_beta 52.705280
_cell_angle_gamma 90.000000
_cell_volume 3634.771840
_symmetry_space_group_name_H-M "C 2/M"
_symmetry_group_IT_number 12
_symmetry_cell_setting 'monoclinic'
loop_
_space_group_symop_operation_xyz
x,y,z
-x,y,-z
-x,-y,-z
x,-y,z
1/2+x,1/2+y,z
1/2-x,1/2+y,-z
1/2-x,1/2-y,-z
1/2+x,1/2-y,z
loop_
_atom_site_type_symbol
_atom_site_label
_atom_site_fract_x
_atom_site_fract_y
_atom_site_fract_z
Si Si1 0.861941 0.175173 0.428198
Si Si2 0.359460 0.823579 0.869048
Si Si3 0.762025 0.323974 0.591090
Si Si4 0.487593 0.825600 0.278033
Si Si5 0.271018 0.322546 0.133499
Si Si6 0.950437 0.675751 0.158081
Si Si7 0.593884 0.323419 0.033566
Si Si8 0.285410 0.177157 0.250952
O O1 0.829001 0.258591 0.508987
O O2 0.807345 0.206665 0.406885
O O3 0.939316 0.232666 0.356393
O O4 0.861616 0.000000 0.438993
O O5 0.427703 0.794210 0.779450
O O6 0.286319 0.786635 0.882358
O O7 0.373164 0.737651 0.923676
O O8 0.360663 0.000000 0.881818
O O9 0.768352 0.500000 0.593799
O O10 0.750162 0.247101 0.664762
O O11 0.462263 0.796232 0.223849
O O12 0.476574 0.000000 0.297196
O O13 0.268552 0.500000 0.144464
O O14 0.253555 0.240009 0.208470
O O15 0.350184 0.281502 0.056988
O O16 0.958197 0.500000 0.143342
O O17 0.869832 0.720137 0.195217
O O18 0.014423 0.757385 0.080403
O O19 0.589979 0.500000 0.038952
O O20 0.281205 0.000000 0.256688
#
# Coordination Sequence:
#
# PCOD9178609 Si02
#       8
#     8   8   8   8   8   8   8   8
#     4  10  19  30  50  80 109 136 168 208 253 303
#     4   9  19  36  56  76 103 138 175 217 264 313
#     4  10  20  33  51  76 108 142 170 205 253 308
#     4   9  16  30  52  76 103 135 170 211 257 307
#     4  10  22  38  53  74 104 140 178 216 264 315
#     4   9  19  34  51  73 105 141 173 210 261 317
#     4  10  20  33  54  80 104 131 172 226 268 305
#     4  11  22  36  54  75 104 141 179 216 255 310
#
# _framework density 17.607707999999999
#
# number of rings (size 3 to 8) (size 9 to 14) (size 15 to 20)
#    0.000    2.250    1.250    2.625    0.000    6.000 
#    0.000    2.500    0.000    0.750    0.000    5.250 
#    0.000    0.000    0.000    0.000    0.000    0.000 
#
# Total GULP energy -178606.656240 kJ/mol
# GULP energy per Si atom -5581.458007 kJ/mol
# Density = 1.756763 g / cm^3
# Si number density = 17.607708 Si / 1000 Ang^3
#
#
#
# Elastic Constant Matrix: (Units=GPa)
#
#
# Indices 1 2 3 4 5 6 
#
# 1 7.5838 2.5215 4.8023 -0.0001 2.1671 0.0000
# 2 2.5215 28.7327 37.3104 0.0011 5.1489 -0.0006
# 3 4.8023 37.3104 99.5873 -0.0002 3.8570 0.0001
# 4 -0.0001 0.0011 -0.0002 30.7336 -0.0002 -2.9992
# 5 2.1671 5.1489 3.8570 -0.0002 21.3238 0.0001
# 6 0.0000 -0.0006 0.0001 -2.9992 0.0001 21.4201
#
#
#
# Elastic Compliance Matrix: (Units=1/GPa)
#
#
# Indices 1 2 3 4 5 6 
#
# 1 0.139725 -0.003722 -0.004862 0.000000 -0.012422 0.000000
# 2 -0.003722 0.070989 -0.025949 -0.000003 -0.012069 0.000002
# 3 -0.004862 -0.025949 0.019875 0.000001 0.003165 -0.000001
# 4 0.000000 -0.000003 0.000001 0.032988 0.000001 0.004619
# 5 -0.012422 -0.012069 0.003165 0.000001 0.050500 0.000000
# 6 0.000000 0.000002 -0.000001 0.004619 0.000000 0.047332
#
#
# Mechanical properties :
#
#
# Convention : Reuss Voigt Hill
#
# Bulk Modulus (GPa) = 6.19110 25.01916 15.60513
# Shear Modulus (GPa) = 10.32382 20.78014 15.55198
#
# Velocity S-wave (km/s) = 2.42404 3.43909 2.97517
# Velocity P-wave (km/s) = 3.37022 5.47812 4.54798
#
# Compressibility (1/GPa) = 0.16152229
#
# Stress axis : x y z
#
# Youngs Moduli (GPa) = 7.15690 14.08677 50.31419
#
# Poissons Ratio (x) = 0.05243 0.24464
# Poissons Ratio (y) = 0.02664 1.30560
# Poissons Ratio (z) = 0.03480 0.36554
#
# Static dielectric constant tensor:
#      x y z
#    x 1.592000 0.000000 -0.016470 
#    y 0.000000 1.582800 0.000000 
#    z -0.016470 0.000000 1.585930 
# 
# From -- ./inp_files/295635.got.cif
#   From: 2010.05.17/outbox.cif.g08.bks.cpg/sg12_148_cif.got.tgz:295635.got - 2010.06.03 13:09:07.
