data_PCOD9178045
_publ_section_title
;
Structure prediction by ZEFSAII (Michael W. Deem and Ramdas Pophale) SiO2 
 PCOD9178045
Probable space group: C 2/M
;
_chemical_formula_sum "Si O2"
_cell_formula_units_Z 64
_cell_length_a 14.839744
_cell_length_b 17.548871
_cell_length_c 13.785714
_cell_angle_alpha 90.000000
_cell_angle_beta 70.298601
_cell_angle_gamma 90.000000
_cell_volume 3379.930693
_symmetry_space_group_name_H-M "C 2/M"
_symmetry_group_IT_number 12
_symmetry_cell_setting 'monoclinic'
loop_
_space_group_symop_operation_xyz
x,y,z
-x,y,-z
-x,-y,-z
x,-y,z
1/2+x,1/2+y,z
1/2-x,1/2+y,-z
1/2-x,1/2-y,-z
1/2+x,1/2-y,z
loop_
_atom_site_type_symbol
_atom_site_label
_atom_site_fract_x
_atom_site_fract_y
_atom_site_fract_z
Si Si1 0.401316 0.861002 0.419196
Si Si2 0.089970 0.911515 0.265964
Si Si3 0.616251 0.088350 0.366085
Si Si4 0.061706 0.809987 0.577175
Si Si5 0.237717 0.593344 0.918335
Si Si6 0.290334 0.585862 0.578824
Si Si7 0.867622 0.593380 0.848936
Si Si8 0.943899 0.413063 0.123681
O O1 0.362485 0.865862 0.544390
O O2 0.502048 0.904658 0.388115
O O3 0.417967 0.773255 0.389925
O O4 0.322208 0.897815 0.379634
O O5 0.156296 0.884805 0.153018
O O6 0.160081 0.909548 0.334387
O O7 0.000520 0.860033 0.326431
O O8 0.061922 0.000000 0.262231
O O9 0.661566 0.116237 0.248776
O O10 0.640297 0.000000 0.374468
O O11 0.156173 0.854667 0.509880
O O12 0.000000 0.800645 0.500000
O O13 0.234315 0.500000 0.915893
O O14 0.157806 0.621292 0.869938
O O15 0.202739 0.615646 0.038256
O O16 0.306650 0.500000 0.536601
O O17 0.872110 0.500000 0.847503
O O18 0.975541 0.621229 0.835251
O O19 0.926180 0.500000 0.163152
O O20 0.000000 0.417888 0.000000
#
# Coordination Sequence:
#
# PCOD9178045 Si02
#       8
#     8   8   8   8   8   8   8   8
#     4  11  20  33  47  69  97 130 165 201 236 290
#     4   9  18  30  50  76 102 126 157 200 243 287
#     4  10  19  30  46  67  97 131 162 202 242 279
#     4  10  19  35  50  68  97 133 163 195 244 292
#     4   8  13  23  39  66  96 122 154 195 240 287
#     4  10  20  32  51  75  98 123 161 205 244 288
#     4   8  14  23  39  62  93 128 158 193 243 287
#     4   7  10  17  31  55  89 121 146 180 228 279
#
# _framework density 18.935300000000002
#
# number of rings (size 3 to 8) (size 9 to 14) (size 15 to 20)
#    0.000    2.875    1.250    3.750    1.750    1.500 
#    0.000    0.000    0.000    0.750    0.000    0.875 
#    3.750    5.000    0.000    0.000    0.000    0.000 
#
# Total GULP energy -178331.965123 kJ/mol
# GULP energy per Si atom -5572.873910 kJ/mol
# Density = 1.889220 g / cm^3
# Si number density = 18.935300 Si / 1000 Ang^3
#
#
#
# Elastic Constant Matrix: (Units=GPa)
#
#
# Indices 1 2 3 4 5 6 
#
# 1 26.0146 8.0508 2.2860 0.0000 -0.9256 0.0000
# 2 8.0508 45.5469 12.8681 0.0000 -3.2483 0.0000
# 3 2.2860 12.8681 91.3065 0.0000 0.2870 0.0000
# 4 0.0000 0.0000 0.0000 -15.4663 0.0000 -11.1079
# 5 -0.9256 -3.2483 0.2870 0.0000 21.8545 0.0000
# 6 0.0000 0.0000 0.0000 -11.1079 0.0000 -0.1262
#
#
#
# Elastic Compliance Matrix: (Units=1/GPa)
#
#
# Indices 1 2 3 4 5 6 
#
# 1 0.040674 -0.007138 -0.000014 0.000000 0.000662 0.000000
# 2 -0.007138 0.024380 -0.003268 0.000000 0.003364 0.000000
# 3 -0.000014 -0.003268 0.011415 0.000000 -0.000636 0.000000
# 4 0.000000 0.000000 0.000000 0.001039 0.000000 -0.091473
# 5 0.000662 0.003364 -0.000636 0.000000 0.046294 0.000000
# 6 0.000000 0.000000 0.000000 -0.091473 0.000000 0.127364
#
#
# Mechanical properties :
#
#
# Convention : Reuss Voigt Hill
#
# Bulk Modulus (GPa) = 17.97648 23.25310 20.61479
# Shear Modulus (GPa) = 17.20874 10.56326 13.88600
#
# Velocity S-wave (km/s) = 3.01793 2.36447 2.71096
# Velocity P-wave (km/s) = 4.65383 4.44536 4.55079
#
# Compressibility (1/GPa) = 0.05562825
#
# Stress axis : x y z
#
# Youngs Moduli (GPa) = 24.58583 41.01670 87.60375
#
# Poissons Ratio (x) = 0.29279 0.00126
# Poissons Ratio (y) = 0.17550 0.28628
# Poissons Ratio (z) = 0.00035 0.13404
#
# Static dielectric constant tensor:
#      x y z
#    x 1.662050 0.000000 0.004410 
#    y 0.000000 1.627410 0.000000 
#    z 0.004410 0.000000 1.720120 
# 
# From -- ./inp_files/216344.got.cif
#   From: 2010.05.17/outbox.cif.g08.bks.cpg/sg12_109_cif.got.tgz:216344.got - 2010.06.03 13:09:07.
