data_PCOD9178669
_publ_section_title
;
Structure prediction by ZEFSAII (Michael W. Deem and Ramdas Pophale) SiO2 
 PCOD9178669
Probable space group: C 2/M
;
_chemical_formula_sum "Si O2"
_cell_formula_units_Z 56
_cell_length_a 28.205499
_cell_length_b 19.593937
_cell_length_c 14.208680
_cell_angle_alpha 90.000000
_cell_angle_beta 26.334807
_cell_angle_gamma 90.000000
_cell_volume 3483.502747
_symmetry_space_group_name_H-M "C 2/M"
_symmetry_group_IT_number 12
_symmetry_cell_setting 'monoclinic'
loop_
_space_group_symop_operation_xyz
x,y,z
-x,y,-z
-x,-y,-z
x,-y,z
1/2+x,1/2+y,z
1/2-x,1/2+y,-z
1/2-x,1/2-y,-z
1/2+x,1/2-y,z
loop_
_atom_site_type_symbol
_atom_site_label
_atom_site_fract_x
_atom_site_fract_y
_atom_site_fract_z
Si Si1 0.392005 0.218239 0.328716
Si Si2 0.736547 0.350535 0.455805
Si Si3 0.371926 0.822492 0.042548
Si Si4 0.121438 0.923294 0.817614
Si Si5 0.662729 0.920903 0.275139
Si Si6 0.920606 0.420582 0.782650
Si Si7 0.771269 0.824726 0.224846
O O1 0.363492 0.298512 0.377425
O O2 0.327321 0.187855 0.355667
O O3 0.514220 0.196114 0.112610
O O4 0.334458 0.189329 0.524475
O O5 0.695483 0.411273 0.594073
O O6 0.792740 0.360962 0.255971
O O7 0.392101 0.868771 0.915864
O O8 0.319888 0.748751 0.113801
O O9 0.152786 0.867399 0.839591
O O10 0.137951 0.000000 0.825011
O O11 0.000000 0.916002 0.000000
O O12 0.544913 0.914292 0.531385
O O13 0.646629 0.907525 0.192986
O O14 0.740925 0.869837 0.189314
O O15 0.695526 0.000000 0.228587
O O16 0.903984 0.500000 0.839782
#
# Coordination Sequence:
#
# PCOD9178669 Si02
#       7
#     8   8   8   8   8   8   8
#     4   9  17  31  45  67 101 132 163 198 246 298
#     4   9  19  30  47  69  96 136 167 200 244 294
#     4  11  19  30  50  76 103 128 164 209 257 300
#     4  10  20  34  50  72 101 134 173 209 241 289
#     4   9  17  34  53  71  97 132 170 205 251 304
#     4   9  19  33  52  72  98 133 165 207 257 306
#     4  10  19  30  52  75  98 131 169 211 246 297
#
# _framework density 16.075773000000002
#
# number of rings (size 3 to 8) (size 9 to 14) (size 15 to 20)
#    0.000    2.429    1.429    3.429    0.000    1.143 
#    0.000    0.000    0.000    2.571    0.000    0.000 
#    0.000   14.857    0.000    0.000    0.000    0.000 
#
# Total GULP energy -156024.902842 kJ/mol
# GULP energy per Si atom -5572.317959 kJ/mol
# Density = 1.603918 g / cm^3
# Si number density = 16.075773 Si / 1000 Ang^3
#
#
#
# Elastic Constant Matrix: (Units=GPa)
#
#
# Indices 1 2 3 4 5 6 
#
# 1 75.0795 48.2780 27.9512 0.0000 7.6392 0.0000
# 2 48.2780 75.4473 33.6035 0.0000 10.2873 0.0000
# 3 27.9512 33.6035 66.5134 0.0000 8.4764 0.0000
# 4 0.0000 0.0000 0.0000 23.3769 0.0000 6.8924
# 5 7.6392 10.2873 8.4764 0.0000 22.5926 0.0000
# 6 0.0000 0.0000 0.0000 6.8924 0.0000 22.0701
#
#
#
# Elastic Compliance Matrix: (Units=1/GPa)
#
#
# Indices 1 2 3 4 5 6 
#
# 1 0.023060 -0.013407 -0.002837 0.000000 -0.000628 0.000000
# 2 -0.013407 0.025402 -0.006620 0.000000 -0.004550 0.000000
# 3 -0.002837 -0.006620 0.020022 0.000000 -0.003538 0.000000
# 4 0.000000 0.000000 0.000000 0.047116 0.000000 -0.014714
# 5 -0.000628 -0.004550 -0.003538 0.000000 0.047874 0.000000
# 6 0.000000 0.000000 0.000000 -0.014714 0.000000 0.049905
#
#
# Mechanical properties :
#
#
# Convention : Reuss Voigt Hill
#
# Bulk Modulus (GPa) = 43.94276 48.52285 46.23281
# Shear Modulus (GPa) = 18.74822 20.75508 19.75165
#
# Velocity S-wave (km/s) = 3.41873 3.59706 3.50903
# Velocity P-wave (km/s) = 6.55574 6.89210 6.72603
#
# Compressibility (1/GPa) = 0.02275688
#
# Stress axis : x y z
#
# Youngs Moduli (GPa) = 43.36459 39.36742 49.94461
#
# Poissons Ratio (x) = 0.52778 0.14172
# Poissons Ratio (y) = 0.58137 0.33061
# Poissons Ratio (z) = 0.12304 0.26060
#
# Static dielectric constant tensor:
#      x y z
#    x 1.530130 0.000000 0.000490 
#    y 0.000000 1.537240 0.000000 
#    z 0.000490 0.000000 1.529830 
# 
# From -- ./inp_files/177891.got.cif
#   From: 2010.05.17/outbox.cif.g08.bks.cpg/sg12_89_cif.got.tgz:177891.got - 2010.06.03 13:09:07.
