data_PCOD9178542
_publ_section_title
;
Structure prediction by ZEFSAII (Michael W. Deem and Ramdas Pophale) SiO2 
 PCOD9178542
Probable space group: C 2/M
;
_chemical_formula_sum "Si O2"
_cell_formula_units_Z 64
_cell_length_a 29.553773
_cell_length_b 7.545767
_cell_length_c 14.641118
_cell_angle_alpha 90.000000
_cell_angle_beta 94.438609
_cell_angle_gamma 90.000000
_cell_volume 3255.263016
_symmetry_space_group_name_H-M "C 2/M"
_symmetry_group_IT_number 12
_symmetry_cell_setting 'monoclinic'
loop_
_space_group_symop_operation_xyz
x,y,z
-x,y,-z
-x,-y,-z
x,-y,z
1/2+x,1/2+y,z
1/2-x,1/2+y,-z
1/2-x,1/2-y,-z
1/2+x,1/2-y,z
loop_
_atom_site_type_symbol
_atom_site_label
_atom_site_fract_x
_atom_site_fract_y
_atom_site_fract_z
Si Si1 0.081756 0.788735 0.678615
Si Si2 0.230153 0.796493 0.671888
Si Si3 0.697725 0.788067 0.014634
Si Si4 0.986230 0.706480 0.596088
Si Si5 0.652611 0.715509 0.533464
Si Si6 0.393450 0.793479 0.660417
Si Si7 0.339311 0.209798 0.180333
Si Si8 0.680073 0.218868 0.216922
O O1 0.112331 0.728287 0.596734
O O2 0.110747 0.739979 0.771960
O O3 0.031216 0.716167 0.663937
O O4 0.078916 0.000000 0.672805
O O5 0.200089 0.720116 0.584447
O O6 0.195916 0.794173 0.753375
O O7 0.277190 0.719073 0.715168
O O8 0.239555 0.000000 0.648424
O O9 0.685757 0.721338 0.113550
O O10 0.691835 0.000000 0.017481
O O11 0.750000 0.750000 0.000000
O O12 0.669018 0.722993 0.923222
O O13 0.974984 0.500000 0.576476
O O14 0.941485 0.785508 0.635796
O O15 0.000000 0.786336 0.500000
O O16 0.653292 0.500000 0.533320
O O17 0.640058 0.780007 0.431610
O O18 0.366186 0.721007 0.742456
O O19 0.401664 0.000000 0.682669
O O20 0.329769 0.000000 0.180673
O O21 0.681494 0.000000 0.217455
#
# Coordination Sequence:
#
# PCOD9178542 Si02
#       8
#     8   8   8   8   8   8   8   8
#     4  10  20  33  52  75 100 133 167 203 253 305
#     4   9  17  31  49  69  99 138 170 200 242 295
#     4  10  19  32  53  77 101 131 167 208 249 294
#     4  10  19  32  51  76 103 129 165 215 257 289
#     4   9  18  30  45  69  99 131 166 204 243 291
#     4  10  20  33  50  71  98 137 171 202 252 299
#     4  10  19  30  49  78 104 126 161 210 255 291
#     4   9  18  33  51  71 100 136 172 204 243 302
#
# _framework density 19.660471000000001
#
# number of rings (size 3 to 8) (size 9 to 14) (size 15 to 20)
#    0.000    2.375    2.500    1.500    0.000    3.750 
#    0.000    1.250    0.000    0.750    0.000    5.250 
#    0.000    0.000    0.000    0.000    0.000    0.000 
#
# Total GULP energy -178564.363381 kJ/mol
# GULP energy per Si atom -5580.136356 kJ/mol
# Density = 1.961572 g / cm^3
# Si number density = 19.660471 Si / 1000 Ang^3
#
#
#
# Elastic Constant Matrix: (Units=GPa)
#
#
# Indices 1 2 3 4 5 6 
#
# 1 118.6687 -8.8755 68.8005 0.0000 -7.4555 0.0000
# 2 -8.8755 48.5828 -10.1321 0.0000 -4.9380 0.0000
# 3 68.8005 -10.1321 108.3163 0.0000 -10.3951 0.0000
# 4 0.0000 0.0000 0.0000 6.1813 0.0000 2.3390
# 5 -7.4555 -4.9380 -10.3951 0.0000 26.7322 0.0000
# 6 0.0000 0.0000 0.0000 2.3390 0.0000 6.7199
#
#
#
# Elastic Compliance Matrix: (Units=1/GPa)
#
#
# Indices 1 2 3 4 5 6 
#
# 1 0.013371 0.000761 -0.008362 0.000000 0.000618 0.000000
# 2 0.000761 0.021652 0.002021 0.000000 0.004998 0.000000
# 3 -0.008362 0.002021 0.015109 0.000000 0.003916 0.000000
# 4 0.000000 0.000000 0.000000 0.186319 0.000000 -0.064852
# 5 0.000618 0.004998 0.003916 0.000000 0.040027 0.000000
# 6 0.000000 0.000000 0.000000 -0.064852 0.000000 0.171386
#
#
# Mechanical properties :
#
#
# Convention : Reuss Voigt Hill
#
# Bulk Modulus (GPa) = 25.65901 41.68375 33.67138
# Shear Modulus (GPa) = 10.59292 22.97832 16.78562
#
# Velocity S-wave (km/s) = 2.32371 3.42242 2.92511
# Velocity P-wave (km/s) = 4.50321 6.07166 5.34528
#
# Compressibility (1/GPa) = 0.03897266
#
# Stress axis : x y z
#
# Youngs Moduli (GPa) = 74.78952 46.18488 66.18661
#
# Poissons Ratio (x) = -0.03517 0.55348
# Poissons Ratio (y) = -0.05695 -0.13379
# Poissons Ratio (z) = 0.62542 -0.09336
#
# Static dielectric constant tensor:
#      x y z
#    x 1.696500 0.000000 0.001220 
#    y 0.000000 1.767780 0.000000 
#    z 0.001220 0.000000 1.691240 
# 
# From -- ./inp_files/243990.got.cif
#   From: 2010.05.17/outbox.cif.g08.bks.cpg/sg12_122_cif.got.tgz:243990.got - 2010.06.03 13:09:07.
