data_PCOD9178008
_publ_section_title
;
Structure prediction by ZEFSAII (Michael W. Deem and Ramdas Pophale) SiO2 
 PCOD9178008
Probable space group: C 2/M
;
_chemical_formula_sum "Si O2"
_cell_formula_units_Z 60
_cell_length_a 28.450300
_cell_length_b 8.185524
_cell_length_c 17.746978
_cell_angle_alpha 90.000000
_cell_angle_beta 128.514247
_cell_angle_gamma 90.000000
_cell_volume 3233.822632
_symmetry_space_group_name_H-M "C 2/M"
_symmetry_group_IT_number 12
_symmetry_cell_setting 'monoclinic'
loop_
_space_group_symop_operation_xyz
x,y,z
-x,y,-z
-x,-y,-z
x,-y,z
1/2+x,1/2+y,z
1/2-x,1/2+y,-z
1/2-x,1/2-y,-z
1/2+x,1/2-y,z
loop_
_atom_site_type_symbol
_atom_site_label
_atom_site_fract_x
_atom_site_fract_y
_atom_site_fract_z
Si Si1 0.658666 0.301768 0.372298
Si Si2 0.599326 0.812395 0.890484
Si Si3 0.299831 0.695752 0.110709
Si Si4 0.121630 0.189083 0.073812
Si Si5 0.719525 0.695821 0.584095
Si Si6 0.754574 0.801802 0.228939
Si Si7 0.525909 0.685375 0.199081
Si Si8 0.500000 0.747835 0.000000
O O1 0.659634 0.500000 0.370152
O O2 0.675128 0.246056 0.473677
O O3 0.713173 0.240534 0.375160
O O4 0.592670 0.249143 0.280205
O O5 0.636432 0.761476 0.854552
O O6 0.527949 0.785644 0.817101
O O7 0.613204 0.000000 0.922078
O O8 0.621934 0.705677 0.983787
O O9 0.301247 0.500000 0.112642
O O10 0.281945 0.752762 0.176567
O O11 0.250000 0.750000 0.000000
O O12 0.186669 0.237499 0.167244
O O13 0.107238 0.000000 0.080133
O O14 0.068192 0.306076 0.050504
O O15 0.714780 0.500000 0.579796
O O16 0.710863 0.752529 0.661101
O O17 0.752534 0.000000 0.225717
O O18 0.522860 0.500000 0.225302
O O19 0.512580 0.677477 0.096224
#
# Coordination Sequence:
#
# PCOD9178008 Si02
#       8
#     8   8   8   8   8   8   8   4
#     4   9  18  33  54  77 105 141 178 212 252 307
#     4  11  22  35  50  72 102 134 173 211 256 313
#     4  11  21  35  54  75 102 136 172 214 263 314
#     4  11  20  32  50  71 101 137 172 207 249 304
#     4   9  18  33  52  78 108 137 171 215 261 305
#     4  10  21  34  51  75 104 132 167 214 262 308
#     4  10  19  33  51  72 101 138 176 212 253 305
#     4  10  19  30  45  70 101 132 167 206 245 294
#
# _framework density 18.553892999999999
#
# number of rings (size 3 to 8) (size 9 to 14) (size 15 to 20)
#    0.000    1.867    1.333    4.800    0.000    2.667 
#    0.000    9.667    0.000    0.800    0.000    5.600 
#    0.000    0.000    0.000    0.000    0.000    0.000 
#
# Total GULP energy -167163.746986 kJ/mol
# GULP energy per Si atom -5572.124900 kJ/mol
# Density = 1.851166 g / cm^3
# Si number density = 18.553893 Si / 1000 Ang^3
#
#
#
# Elastic Constant Matrix: (Units=GPa)
#
#
# Indices 1 2 3 4 5 6 
#
# 1 109.9758 12.7130 56.5939 0.0000 -10.1840 0.0000
# 2 12.7130 32.8533 5.6985 0.0000 -3.0290 0.0000
# 3 56.5939 5.6985 113.1901 0.0000 -6.2918 0.0000
# 4 0.0000 0.0000 0.0000 13.2364 0.0000 4.8765
# 5 -10.1840 -3.0290 -6.2918 0.0000 32.6163 0.0000
# 6 0.0000 0.0000 0.0000 4.8765 0.0000 16.7773
#
#
#
# Elastic Compliance Matrix: (Units=1/GPa)
#
#
# Indices 1 2 3 4 5 6 
#
# 1 0.012906 -0.003700 -0.006127 0.000000 0.002504 0.000000
# 2 -0.003700 0.031984 0.000345 0.000000 0.001881 0.000000
# 3 -0.006127 0.000345 0.011904 0.000000 0.000415 0.000000
# 4 0.000000 0.000000 0.000000 0.084610 0.000000 -0.024593
# 5 0.002504 0.001881 0.000415 0.000000 0.031696 0.000000
# 6 0.000000 0.000000 0.000000 -0.024593 0.000000 0.066753
#
#
# Mechanical properties :
#
#
# Convention : Reuss Voigt Hill
#
# Bulk Modulus (GPa) = 26.43580 45.11444 35.77512
# Shear Modulus (GPa) = 18.42116 24.59358 21.50737
#
# Velocity S-wave (km/s) = 3.15436 3.64472 3.40837
# Velocity P-wave (km/s) = 5.24840 6.48692 5.90025
#
# Compressibility (1/GPa) = 0.03782749
#
# Stress axis : x y z
#
# Youngs Moduli (GPa) = 77.48567 31.26564 84.00563
#
# Poissons Ratio (x) = 0.11569 0.51472
# Poissons Ratio (y) = 0.28672 -0.02894
# Poissons Ratio (z) = 0.47477 -0.01077
#
# Static dielectric constant tensor:
#      x y z
#    x 1.643200 0.000000 -0.007080 
#    y 0.000000 1.667480 0.000000 
#    z -0.007080 0.000000 1.652450 
# 
# From -- ./inp_files/291915.got.cif
#   From: 2010.05.17/outbox.cif.g08.bks.cpg/sg12_146_cif.got.tgz:291915.got - 2010.06.03 13:09:07.
