data_PCOD9178651
_publ_section_title
;
Structure prediction by ZEFSAII (Michael W. Deem and Ramdas Pophale) SiO2 
 PCOD9178651
Probable space group: C 2/M
;
_chemical_formula_sum "Si O2"
_cell_formula_units_Z 48
_cell_length_a 29.626785
_cell_length_b 7.728637
_cell_length_c 19.455193
_cell_angle_alpha 90.000000
_cell_angle_beta 153.433910
_cell_angle_gamma 90.000000
_cell_volume 1992.295366
_symmetry_space_group_name_H-M "C 2/M"
_symmetry_group_IT_number 12
_symmetry_cell_setting 'monoclinic'
loop_
_space_group_symop_operation_xyz
x,y,z
-x,y,-z
-x,-y,-z
x,-y,z
1/2+x,1/2+y,z
1/2-x,1/2+y,-z
1/2-x,1/2-y,-z
1/2+x,1/2-y,z
loop_
_atom_site_type_symbol
_atom_site_label
_atom_site_fract_x
_atom_site_fract_y
_atom_site_fract_z
Si Si1 0.961017 0.298648 0.754518
Si Si2 0.636652 0.201203 0.807406
Si Si3 0.683178 0.787129 0.566246
Si Si4 0.428608 0.201329 0.460379
Si Si5 0.181360 0.192859 0.018174
Si Si6 0.905072 0.201267 0.829499
O O1 0.935502 0.500000 0.725863
O O2 0.898256 0.231784 0.602805
O O3 0.926709 0.211047 0.778107
O O4 0.082726 0.283940 0.913234
O O5 0.517618 0.195642 0.638393
O O6 0.660071 0.306058 0.907253
O O7 0.663673 0.000000 0.854736
O O8 0.702101 0.259478 0.829006
O O9 0.661207 0.729537 0.615082
O O10 0.794421 0.727871 0.695787
O O11 0.679003 0.000000 0.562889
O O12 0.500000 0.287443 0.500000
O O13 0.408090 0.000000 0.410400
O O14 0.182427 0.000000 0.049013
O O15 0.899361 0.000000 0.842788
O O16 0.000000 0.279474 0.000000
#
# Coordination Sequence:
#
# PCOD9178651 Si02
#       6
#     8   8   8   8   8   8
#     4  11  21  36  59  83 112 149 191 233 277 338
#     4   9  17  31  49  75 109 144 181 222 269 323
#     4   9  18  34  56  82 112 148 187 233 280 328
#     4   9  16  28  51  80 108 141 182 221 264 324
#     4  10  19  30  51  80 108 141 181 226 275 322
#     4  10  22  39  59  84 114 143 182 238 292 339
#
# _framework density 24.092814000000001
#
# number of rings (size 3 to 8) (size 9 to 14) (size 15 to 20)
#    0.000    2.333    1.667    1.500    0.000    2.333 
#    0.000    5.833    0.000    0.500    0.000    0.000 
#    0.000    0.000    0.000    0.000    0.000    0.000 
#
# Total GULP energy -133686.193796 kJ/mol
# GULP energy per Si atom -5570.258075 kJ/mol
# Density = 2.403798 g / cm^3
# Si number density = 24.092814 Si / 1000 Ang^3
#
#
#
# Elastic Constant Matrix: (Units=GPa)
#
#
# Indices 1 2 3 4 5 6 
#
# 1 156.9232 -6.4751 35.9870 0.0000 31.3623 0.0000
# 2 -6.4751 29.1645 8.1458 0.0000 0.0178 0.0000
# 3 35.9870 8.1458 74.8226 0.0000 31.6005 0.0000
# 4 0.0000 0.0000 0.0000 -3.5110 0.0000 3.1054
# 5 31.3623 0.0178 31.6005 0.0000 42.3331 0.0000
# 6 0.0000 0.0000 0.0000 3.1054 0.0000 17.5450
#
#
#
# Elastic Compliance Matrix: (Units=1/GPa)
#
#
# Indices 1 2 3 4 5 6 
#
# 1 0.007811 0.002378 -0.002295 0.000000 -0.004075 0.000000
# 2 0.002378 0.036600 -0.006393 0.000000 0.002996 0.000000
# 3 -0.002295 -0.006393 0.021097 0.000000 -0.014045 0.000000
# 4 0.000000 0.000000 0.000000 -0.246269 0.000000 0.043588
# 5 -0.004075 0.002996 -0.014045 0.000000 0.037124 0.000000
# 6 0.000000 0.000000 0.000000 0.043588 0.000000 0.049282
#
#
# Mechanical properties :
#
#
# Convention : Reuss Voigt Hill
#
# Bulk Modulus (GPa) = 18.90823 37.35842 28.13333
# Shear Modulus (GPa) = -77.99651 26.15693 -25.91979
#
# Velocity S-wave (km/s) = -5.69593 3.29853 -3.28354
# Velocity P-wave (km/s) = 5.94921 5.48149 1.63497
#
# Compressibility (1/GPa) = 0.05288702
#
# Stress axis : x y z
#
# Youngs Moduli (GPa) = 128.01908 27.32238 47.40121
#
# Poissons Ratio (x) = -0.06496 0.10878
# Poissons Ratio (y) = -0.30439 0.30305
# Poissons Ratio (z) = 0.29378 0.17468
#
# Static dielectric constant tensor:
#      x y z
#    x 1.969170 0.000000 -0.046050 
#    y 0.000000 1.060380 0.000000 
#    z -0.046050 0.000000 2.074090 
# 
# From -- ./inp_files/327322.got.cif
#   From: 2010.05.17/outbox.cif.g08.bks.cpg/sg12_164_cif.got.tgz:327322.got - 2010.06.03 13:09:07.
