data_PCOD9178419
_publ_section_title
;
Structure prediction by ZEFSAII (Michael W. Deem and Ramdas Pophale) SiO2 
 PCOD9178419
Probable space group: C 2/M
;
_chemical_formula_sum "Si O2"
_cell_formula_units_Z 56
_cell_length_a 20.015961
_cell_length_b 8.887182
_cell_length_c 23.807284
_cell_angle_alpha 90.000000
_cell_angle_beta 51.309647
_cell_angle_gamma 90.000000
_cell_volume 3305.545410
_symmetry_space_group_name_H-M "C 2/M"
_symmetry_group_IT_number 12
_symmetry_cell_setting 'monoclinic'
loop_
_space_group_symop_operation_xyz
x,y,z
-x,y,-z
-x,-y,-z
x,-y,z
1/2+x,1/2+y,z
1/2-x,1/2+y,-z
1/2-x,1/2-y,-z
1/2+x,1/2-y,z
loop_
_atom_site_type_symbol
_atom_site_label
_atom_site_fract_x
_atom_site_fract_y
_atom_site_fract_z
Si Si1 0.578815 0.673171 0.003059
Si Si2 0.997915 0.183429 0.437179
Si Si3 0.039625 0.320155 0.846752
Si Si4 0.341705 0.318890 0.439802
Si Si5 0.383121 0.683042 0.724909
Si Si6 0.308632 0.181548 0.147234
Si Si7 0.461757 0.681531 0.275383
O O1 0.598082 0.500000 0.005807
O O2 0.656236 0.751146 0.929387
O O3 0.500000 0.677089 0.000000
O O4 0.542490 0.757201 0.076543
O O5 0.076447 0.231675 0.355930
O O6 0.000000 0.237040 0.500000
O O7 0.910919 0.225999 0.450767
O O8 0.999935 0.000000 0.437213
O O9 0.035675 0.500000 0.847161
O O10 0.123576 0.277426 0.839433
O O11 0.044398 0.254202 0.782114
O O12 0.335963 0.500000 0.443748
O O13 0.250000 0.250000 0.500000
O O14 0.383742 0.276114 0.357915
O O15 0.381621 0.500000 0.724691
O O16 0.286899 0.733501 0.787549
O O17 0.451124 0.725104 0.737467
O O18 0.309067 0.000000 0.142706
O O19 0.461883 0.500000 0.270169
#
# Coordination Sequence:
#
# PCOD9178419 Si02
#       7
#     8   8   8   8   8   8   8
#     4   9  17  30  48  69  95 126 156 187 229 280
#     4   8  14  26  46  70  93 119 155 195 231 272
#     4  10  19  30  48  74  98 120 152 195 237 274
#     4   9  18  31  48  70  95 124 156 192 233 276
#     4   8  15  29  47  66  91 124 156 189 233 277
#     4   9  17  30  49  72  95 118 152 199 240 272
#     4   9  18  33  49  66  94 129 159 187 227 281
#
# _framework density 16.941227999999999
#
# number of rings (size 3 to 8) (size 9 to 14) (size 15 to 20)
#    0.000    3.143    0.000    2.571    0.000    4.000 
#    0.000    4.286    0.000    1.286    0.000    0.000 
#    0.000    0.000    0.000    0.000    0.000    0.000 
#
# Total GULP energy -155973.024348 kJ/mol
# GULP energy per Si atom -5570.465155 kJ/mol
# Density = 1.690267 g / cm^3
# Si number density = 16.941228 Si / 1000 Ang^3
#
#
#
# Elastic Constant Matrix: (Units=GPa)
#
#
# Indices 1 2 3 4 5 6 
#
# 1 78.6037 29.6724 109.4038 0.0000 -2.7052 0.0003
# 2 29.6724 21.9625 46.8939 0.0001 3.4264 0.0006
# 3 109.4038 46.8939 204.8635 0.0000 -3.5459 0.0000
# 4 0.0000 0.0001 0.0000 28.8393 0.0000 1.4843
# 5 -2.7052 3.4264 -3.5459 0.0000 36.1244 0.0000
# 6 0.0003 0.0006 0.0000 1.4843 0.0000 15.2039
#
#
#
# Elastic Compliance Matrix: (Units=1/GPa)
#
#
# Indices 1 2 3 4 5 6 
#
# 1 0.055310 -0.024355 -0.023892 0.000000 0.004107 0.000000
# 2 -0.024355 0.103918 -0.011002 0.000000 -0.012760 -0.000004
# 3 -0.023892 -0.011002 0.020180 0.000000 0.001235 0.000001
# 4 0.000000 0.000000 0.000000 0.034850 0.000000 -0.003402
# 5 0.004107 -0.012760 0.001235 0.000000 0.029321 0.000000
# 6 0.000000 -0.000004 0.000001 -0.003402 0.000000 0.066105
#
#
# Mechanical properties :
#
#
# Convention : Reuss Voigt Hill
#
# Bulk Modulus (GPa) = 16.41708 75.26330 45.84019
# Shear Modulus (GPa) = 11.14863 23.99751 17.57307
#
# Velocity S-wave (km/s) = 2.56808 3.76775 3.22420
# Velocity P-wave (km/s) = 4.30175 7.96558 6.40139
#
# Compressibility (1/GPa) = 0.06091216
#
# Stress axis : x y z
#
# Youngs Moduli (GPa) = 18.07976 9.62294 49.55431
#
# Poissons Ratio (x) = 0.23437 1.18393
# Poissons Ratio (y) = 0.44033 0.54518
# Poissons Ratio (z) = 0.43195 0.10587
#
# Static dielectric constant tensor:
#      x y z
#    x 1.560420 0.000000 -0.004210 
#    y 0.000000 1.570640 0.000000 
#    z -0.004210 0.000000 1.565080 
# 
# From -- ./inp_files/319653.got.cif
#   From: 2010.05.17/outbox.cif.g08.bks.cpg/sg12_160_cif.got.tgz:319653.got - 2010.06.03 13:09:07.
