data_PCOD9178024
_publ_section_title
;
Structure prediction by ZEFSAII (Michael W. Deem and Ramdas Pophale) SiO2 
 PCOD9178024
Probable space group: C 2/M
;
_chemical_formula_sum "Si O2"
_cell_formula_units_Z 40
_cell_length_a 14.290251
_cell_length_b 8.971382
_cell_length_c 16.718490
_cell_angle_alpha 90.000000
_cell_angle_beta 56.205747
_cell_angle_gamma 90.000000
_cell_volume 1781.223113
_symmetry_space_group_name_H-M "C 2/M"
_symmetry_group_IT_number 12
_symmetry_cell_setting 'monoclinic'
loop_
_space_group_symop_operation_xyz
x,y,z
-x,y,-z
-x,-y,-z
x,-y,z
1/2+x,1/2+y,z
1/2-x,1/2+y,-z
1/2-x,1/2-y,-z
1/2+x,1/2-y,z
loop_
_atom_site_type_symbol
_atom_site_label
_atom_site_fract_x
_atom_site_fract_y
_atom_site_fract_z
Si Si1 0.061902 0.178913 0.789113
Si Si2 0.753454 0.820068 0.812001
Si Si3 0.611104 0.673546 0.005509
Si Si4 0.916217 0.831553 0.605934
Si Si5 0.196727 0.666528 0.599259
O O1 0.155567 0.249541 0.803110
O O2 0.096671 0.241593 0.687022
O O3 0.069808 0.000000 0.786629
O O4 0.941629 0.219676 0.884225
O O5 0.711070 0.767879 0.919155
O O6 0.870346 0.771068 0.713071
O O7 0.752580 0.000000 0.809503
O O8 0.644146 0.500000 0.992565
O O9 0.500000 0.681689 0.000000
O O10 0.799448 0.843804 0.612939
O O11 0.000000 0.758915 0.500000
O O12 0.961874 0.000000 0.599305
O O13 0.159773 0.500000 0.596179
O O14 0.250000 0.750000 0.500000
#
# Coordination Sequence:
#
# PCOD9178024 Si02
#       5
#     8   8   8   8   8
#     4   9  16  26  39  56  82 113 142 173 211 255
#     4   9  15  22  37  60  83 109 140 176 215 252
#     4   8  14  23  35  53  80 112 138 167 212 259
#     4   8  15  28  44  63  87 115 147 177 207 250
#     4  10  19  30  46  66  88 115 144 178 216 253
#
# _framework density 22.456478000000001
#
# number of rings (size 3 to 8) (size 9 to 14) (size 15 to 20)
#    0.000    3.200    0.000    4.200    0.000    4.400 
#    0.000    0.000    0.000   21.600    0.000    1.400 
#    0.000    0.000    0.000    0.000    0.000    0.000 
#
# Total GULP energy -111413.623498 kJ/mol
# GULP energy per Si atom -5570.681175 kJ/mol
# Density = 2.240537 g / cm^3
# Si number density = 22.456478 Si / 1000 Ang^3
#
#
#
# Elastic Constant Matrix: (Units=GPa)
#
#
# Indices 1 2 3 4 5 6 
#
# 1 57.0323 13.2750 17.6538 0.0000 -21.7350 0.0000
# 2 13.2750 70.5579 86.5771 0.0000 -2.4323 0.0000
# 3 17.6538 86.5771 311.5345 0.0000 -13.4418 0.0000
# 4 0.0000 0.0000 0.0000 42.0056 0.0000 4.9721
# 5 -21.7350 -2.4323 -13.4418 0.0000 22.3213 0.0000
# 6 0.0000 0.0000 0.0000 4.9721 0.0000 -2.2576
#
#
#
# Elastic Compliance Matrix: (Units=1/GPa)
#
#
# Indices 1 2 3 4 5 6 
#
# 1 0.029583 -0.006135 0.001276 0.000000 0.028905 0.000000
# 2 -0.006135 0.022815 -0.006307 0.000000 -0.007285 0.000000
# 3 0.001276 -0.006307 0.005045 0.000000 0.003593 0.000000
# 4 0.000000 0.000000 0.000000 0.018884 0.000000 0.041589
# 5 0.028905 -0.007285 0.003593 0.000000 0.074316 0.000000
# 6 0.000000 0.000000 0.000000 0.041589 0.000000 -0.351356
#
#
# Mechanical properties :
#
#
# Convention : Reuss Voigt Hill
#
# Bulk Modulus (GPa) = 28.48116 74.90404 51.69260
# Shear Modulus (GPa) = -29.99809 33.85513 1.92852
#
# Velocity S-wave (km/s) = -3.65887 3.88698 0.92771
# Velocity P-wave (km/s) = 2.26703 7.31932 4.92103
#
# Compressibility (1/GPa) = 0.03511092
#
# Stress axis : x y z
#
# Youngs Moduli (GPa) = 33.80347 43.83118 198.19895
#
# Poissons Ratio (x) = 0.26889 -0.25283
# Poissons Ratio (y) = 0.20737 1.25006
# Poissons Ratio (z) = -0.04312 0.27645
#
# Static dielectric constant tensor:
#      x y z
#    x 1.789450 0.000000 -0.014680 
#    y 0.000000 1.778830 0.000000 
#    z -0.014680 0.000000 1.868630 
# 
# From -- ./inp_files/186032.got.cif
#   From: 2010.05.17/outbox.cif.g08.bks.cpg/sg12_94_cif.got.tgz:186032.got - 2010.06.03 13:09:07.
