data_PCOD9178547
_publ_section_title
;
Structure prediction by ZEFSAII (Michael W. Deem and Ramdas Pophale) SiO2 
 PCOD9178547
Probable space group: C 2/M
;
_chemical_formula_sum "Si O2"
_cell_formula_units_Z 64
_cell_length_a 29.338107
_cell_length_b 7.599819
_cell_length_c 14.743889
_cell_angle_alpha 90.000000
_cell_angle_beta 92.391718
_cell_angle_gamma 90.000000
_cell_volume 3284.497225
_symmetry_space_group_name_H-M "C 2/M"
_symmetry_group_IT_number 12
_symmetry_cell_setting 'monoclinic'
loop_
_space_group_symop_operation_xyz
x,y,z
-x,y,-z
-x,-y,-z
x,-y,z
1/2+x,1/2+y,z
1/2-x,1/2+y,-z
1/2-x,1/2-y,-z
1/2+x,1/2-y,z
loop_
_atom_site_type_symbol
_atom_site_label
_atom_site_fract_x
_atom_site_fract_y
_atom_site_fract_z
Si Si1 0.508759 0.211652 0.398443
Si Si2 0.197391 0.211369 0.017683
Si Si3 0.158755 0.212787 0.827820
Si Si4 0.179128 0.789115 0.218167
Si Si5 0.588927 0.708617 0.677765
Si Si6 0.268068 0.208568 0.321461
Si Si7 0.839138 0.295899 0.468423
Si Si8 0.891283 0.288329 0.645209
O O1 0.500000 0.277343 0.500000
O O2 0.464264 0.254998 0.336419
O O3 0.557285 0.276578 0.365704
O O4 0.511385 0.000000 0.403343
O O5 0.168041 0.278160 0.929872
O O6 0.192034 0.000000 0.019727
O O7 0.250000 0.250000 0.000000
O O8 0.184821 0.279270 0.116442
O O9 0.112480 0.268186 0.773252
O O10 0.199292 0.268870 0.763392
O O11 0.159459 0.000000 0.830834
O O12 0.219205 0.718328 0.287588
O O13 0.131051 0.752687 0.260634
O O14 0.185475 0.000000 0.214499
O O15 0.596147 0.500000 0.670266
O O16 0.618138 0.790823 0.597959
O O17 0.296093 0.282707 0.409973
O O18 0.263072 0.000000 0.337522
O O19 0.828039 0.500000 0.485178
O O20 0.857755 0.217000 0.563281
O O21 0.892573 0.500000 0.634973
#
# Coordination Sequence:
#
# PCOD9178547 Si02
#       8
#     8   8   8   8   8   8   8   8
#     4  10  19  35  55  74  98 131 170 209 251 300
#     4  10  19  33  53  76 102 134 169 208 251 295
#     4   9  18  31  49  75 105 131 162 206 250 297
#     4  10  21  34  48  73 105 134 167 210 254 292
#     4  10  19  30  49  79 105 127 161 207 256 298
#     4   9  17  30  49  72 100 134 171 203 239 292
#     4   9  17  32  50  69  99 138 172 201 238 294
#     4  10  21  35  51  71  97 135 174 204 247 303
#
# _framework density 19.485478000000001
#
# number of rings (size 3 to 8) (size 9 to 14) (size 15 to 20)
#    0.000    2.375    2.500    0.375    0.000    3.250 
#    0.000    0.000    0.000    0.750    0.000    5.250 
#    0.000    0.000    0.000    0.000    0.000    0.000 
#
# Total GULP energy -178549.759248 kJ/mol
# GULP energy per Si atom -5579.679976 kJ/mol
# Density = 1.944113 g / cm^3
# Si number density = 19.485478 Si / 1000 Ang^3
#
#
#
# Elastic Constant Matrix: (Units=GPa)
#
#
# Indices 1 2 3 4 5 6 
#
# 1 118.6192 -6.3829 69.9324 0.0000 2.8862 0.0000
# 2 -6.3829 42.2712 -3.3655 0.0000 2.5594 0.0000
# 3 69.9324 -3.3655 114.8073 0.0000 3.0649 0.0000
# 4 0.0000 0.0000 0.0000 15.2202 0.0000 9.0368
# 5 2.8862 2.5594 3.0649 0.0000 25.8461 0.0000
# 6 0.0000 0.0000 0.0000 9.0368 0.0000 137.7584
#
#
#
# Elastic Compliance Matrix: (Units=1/GPa)
#
#
# Indices 1 2 3 4 5 6 
#
# 1 0.013243 0.001403 -0.008008 0.000000 -0.000668 0.000000
# 2 0.001403 0.024015 -0.000083 0.000000 -0.002525 0.000000
# 3 -0.008008 -0.000083 0.013605 0.000000 -0.000711 0.000000
# 4 0.000000 0.000000 0.000000 0.068365 0.000000 -0.004485
# 5 -0.000668 -0.002525 -0.000711 0.000000 0.039099 0.000000
# 6 0.000000 0.000000 0.000000 -0.004485 0.000000 0.007553
#
#
# Mechanical properties :
#
#
# Convention : Reuss Voigt Hill
#
# Bulk Modulus (GPa) = 26.67654 44.00730 35.34192
# Shear Modulus (GPa) = 26.07539 50.13254 38.10396
#
# Velocity S-wave (km/s) = 3.66210 5.07780 4.42691
# Velocity P-wave (km/s) = 5.62152 7.55065 6.65635
#
# Compressibility (1/GPa) = 0.03748613
#
# Stress axis : x y z
#
# Youngs Moduli (GPa) = 75.51102 41.64094 73.50475
#
# Poissons Ratio (x) = -0.05841 0.58861
# Poissons Ratio (y) = -0.10591 0.00610
# Poissons Ratio (z) = 0.60468 0.00346
#
# Static dielectric constant tensor:
#      x y z
#    x 1.686650 0.000000 0.034050 
#    y 0.000000 1.746870 0.000000 
#    z 0.034050 0.000000 1.692450 
# 
# From -- ./inp_files/243971.got.cif
#   From: 2010.05.17/outbox.cif.g08.bks.cpg/sg12_122_cif.got.tgz:243971.got - 2010.06.03 13:09:07.
