data_PCOD9178942
_publ_section_title
;
Structure prediction by ZEFSAII (Michael W. Deem and Ramdas Pophale) SiO2 
 PCOD9178942
Probable space group: C 2/M
;
_chemical_formula_sum "Si O2"
_cell_formula_units_Z 64
_cell_length_a 30.343742
_cell_length_b 8.831068
_cell_length_c 26.746121
_cell_angle_alpha 90.000000
_cell_angle_beta 148.490704
_cell_angle_gamma 90.000000
_cell_volume 3745.788363
_symmetry_space_group_name_H-M "C 2/M"
_symmetry_group_IT_number 12
_symmetry_cell_setting 'monoclinic'
loop_
_space_group_symop_operation_xyz
x,y,z
-x,y,-z
-x,-y,-z
x,-y,z
1/2+x,1/2+y,z
1/2-x,1/2+y,-z
1/2-x,1/2-y,-z
1/2+x,1/2-y,z
loop_
_atom_site_type_symbol
_atom_site_label
_atom_site_fract_x
_atom_site_fract_y
_atom_site_fract_z
Si Si1 0.160359 0.182503 0.733626
Si Si2 0.207499 0.181734 0.338493
Si Si3 0.369829 0.180631 0.561973
Si Si4 0.533513 0.318389 0.434033
Si Si5 0.772873 0.318814 0.099958
Si Si6 0.065558 0.818486 0.274641
Si Si7 0.195262 0.818039 0.656425
Si Si8 0.118721 0.318706 0.890765
O O1 0.204033 0.257208 0.823434
O O2 0.196567 0.232505 0.715086
O O3 0.060438 0.216840 0.639044
O O4 0.168677 0.000000 0.745150
O O5 0.282162 0.222039 0.449908
O O6 0.119286 0.227952 0.277843
O O7 0.233404 0.252605 0.310847
O O8 0.208606 0.000000 0.334812
O O9 0.442086 0.233044 0.593173
O O10 0.383675 0.262993 0.627562
O O11 0.372698 0.000000 0.571723
O O12 0.538796 0.500000 0.430671
O O13 0.604995 0.278089 0.543891
O O14 0.764977 0.500000 0.092896
O O15 0.846172 0.278607 0.130649
O O16 0.687544 0.246605 0.995713
O O17 0.972922 0.748635 0.187996
O O18 0.060176 0.000000 0.270207
O O19 0.200480 0.000000 0.661018
O O20 0.116091 0.500000 0.891751
#
# Coordination Sequence:
#
# PCOD9178942 Si02
#       8
#     8   8   8   8   8   8   8   8
#     4  10  19  31  50  75 102 133 169 207 247 293
#     4   9  20  35  49  69 100 136 171 209 249 290
#     4  10  19  31  47  71 103 135 170 208 245 289
#     4   9  17  30  48  71 102 137 170 205 246 292
#     4  10  21  36  54  77 104 132 161 196 244 300
#     4  11  21  33  51  74 100 132 169 205 248 299
#     4   9  18  32  50  72  99 134 174 211 246 287
#     4  10  21  37  56  78 103 129 160 200 246 296
#
# _framework density 17.085856
#
# number of rings (size 3 to 8) (size 9 to 14) (size 15 to 20)
#    0.000    2.250    0.000    3.000    0.000    7.500 
#    0.000    0.000    0.000    4.500    0.000    5.250 
#    0.000    0.000    0.000    0.000    0.000    0.000 
#
# Total GULP energy -178622.992320 kJ/mol
# GULP energy per Si atom -5581.968510 kJ/mol
# Density = 1.704697 g / cm^3
# Si number density = 17.085856 Si / 1000 Ang^3
#
#
#
# Elastic Constant Matrix: (Units=GPa)
#
#
# Indices 1 2 3 4 5 6 
#
# 1 147.7347 42.4032 68.4351 0.0000 -6.8893 0.0000
# 2 42.4032 31.3035 27.2694 0.0000 -0.9590 0.0000
# 3 68.4351 27.2694 63.5963 0.0000 -9.0900 0.0000
# 4 0.0000 0.0000 0.0000 27.2283 0.0000 -1.3662
# 5 -6.8893 -0.9590 -9.0900 0.0000 28.3608 0.0000
# 6 0.0000 0.0000 0.0000 -1.3662 0.0000 28.6368
#
#
#
# Elastic Compliance Matrix: (Units=1/GPa)
#
#
# Indices 1 2 3 4 5 6 
#
# 1 0.015299 -0.010107 -0.012206 0.000000 -0.000538 0.000000
# 2 -0.010107 0.058513 -0.014967 0.000000 -0.005274 0.000000
# 3 -0.012206 -0.014967 0.036450 0.000000 0.008212 0.000000
# 4 0.000000 0.000000 0.000000 0.036815 0.000000 0.001756
# 5 -0.000538 -0.005274 0.008212 0.000000 0.037583 0.000000
# 6 0.000000 0.000000 0.000000 0.001756 0.000000 0.035004
#
#
# Mechanical properties :
#
#
# Convention : Reuss Voigt Hill
#
# Bulk Modulus (GPa) = 28.01000 57.65000 42.83000
# Shear Modulus (GPa) = 16.33312 23.81362 20.07337
#
# Velocity S-wave (km/s) = 3.09519 3.73736 3.43133
# Velocity P-wave (km/s) = 5.40397 7.24144 6.38910
#
# Compressibility (1/GPa) = 0.03570154
#
# Stress axis : x y z
#
# Youngs Moduli (GPa) = 65.36354 17.09010 27.43447
#
# Poissons Ratio (x) = 0.17273 0.33487
# Poissons Ratio (y) = 0.66065 0.41062
# Poissons Ratio (z) = 0.79783 0.25579
#
# Static dielectric constant tensor:
#      x y z
#    x 1.578220 0.000000 0.003650 
#    y 0.000000 1.570850 0.000000 
#    z 0.003650 0.000000 1.555950 
# 
# From -- ./inp_files/353444.got.cif
#   From: 2010.05.17/outbox.cif.g08.bks.cpg/sg12_177_cif.got.tgz:353444.got - 2010.06.03 13:09:07.
