data_PCOD9178825
_publ_section_title
;
Structure prediction by ZEFSAII (Michael W. Deem and Ramdas Pophale) SiO2 
 PCOD9178825
Probable space group: C 2/M
;
_chemical_formula_sum "Si O2"
_cell_formula_units_Z 56
_cell_length_a 14.001992
_cell_length_b 9.448968
_cell_length_c 19.690428
_cell_angle_alpha 90.000000
_cell_angle_beta 73.155586
_cell_angle_gamma 90.000000
_cell_volume 2493.357084
_symmetry_space_group_name_H-M "C 2/M"
_symmetry_group_IT_number 12
_symmetry_cell_setting 'monoclinic'
loop_
_space_group_symop_operation_xyz
x,y,z
-x,y,-z
-x,-y,-z
x,-y,z
1/2+x,1/2+y,z
1/2-x,1/2+y,-z
1/2-x,1/2-y,-z
1/2+x,1/2-y,z
loop_
_atom_site_type_symbol
_atom_site_label
_atom_site_fract_x
_atom_site_fract_y
_atom_site_fract_z
Si Si1 0.385444 0.672067 0.009383
Si Si2 0.014904 0.159758 0.419861
Si Si3 0.816634 0.339368 0.298137
Si Si4 0.944851 0.337911 0.717383
Si Si5 0.284384 0.657489 0.430171
Si Si6 0.409715 0.335686 0.856726
Si Si7 0.850052 0.163364 0.162866
O O1 0.382385 0.500000 0.008679
O O2 0.361428 0.717856 0.937731
O O3 0.500000 0.714006 0.000000
O O4 0.331240 0.714614 0.089978
O O5 0.066153 0.253659 0.351141
O O6 0.902937 0.144213 0.414656
O O7 0.000000 0.217408 0.500000
O O8 0.058007 0.000000 0.417438
O O9 0.781212 0.500000 0.304924
O O10 0.935603 0.341839 0.290975
O O11 0.766787 0.245287 0.366178
O O12 0.805504 0.263653 0.228707
O O13 0.911133 0.500000 0.718193
O O14 0.898233 0.259191 0.792343
O O15 0.240317 0.500000 0.438535
O O16 0.250000 0.750000 0.500000
O O17 0.381164 0.500000 0.850108
O O18 0.529549 0.337737 0.848636
O O19 0.818145 0.000000 0.176606
#
# Coordination Sequence:
#
# PCOD9178825 Si02
#       7
#     8   8   8   8   8   8   8
#     4   7  10  16  27  43  62  88 125 164 197 232
#     4   9  18  32  48  64  82 108 142 175 207 247
#     4   9  16  25  36  52  75 102 133 166 201 244
#     4   9  16  24  35  53  76 101 130 166 206 245
#     4  10  19  31  47  65  85 109 138 173 211 250
#     4   8  12  19  31  45  64  94 130 164 197 237
#     4   8  12  19  31  46  65  92 128 166 201 237
#
# _framework density 22.459681
#
# number of rings (size 3 to 8) (size 9 to 14) (size 15 to 20)
#    0.000    3.429    0.000    3.000    0.000    4.286 
#    0.000    0.714    0.000    4.286    0.000    0.000 
#    0.000    0.000    0.000    1.286    0.000   15.714 
#
# Total GULP energy -156284.494934 kJ/mol
# GULP energy per Si atom -5581.589105 kJ/mol
# Density = 2.240856 g / cm^3
# Si number density = 22.459681 Si / 1000 Ang^3
#
#
#
# Elastic Constant Matrix: (Units=GPa)
#
#
# Indices 1 2 3 4 5 6 
#
# 1 65.3250 5.0959 20.8659 0.0000 16.1745 0.0000
# 2 5.0959 150.3927 138.8820 0.0000 -0.9699 0.0000
# 3 20.8659 138.8820 278.2542 0.0000 -4.2502 0.0000
# 4 0.0000 0.0000 0.0000 17.0197 0.0000 0.6901
# 5 16.1745 -0.9699 -4.2502 0.0000 21.7761 0.0000
# 6 0.0000 0.0000 0.0000 0.6901 0.0000 -4.7155
#
#
#
# Elastic Compliance Matrix: (Units=1/GPa)
#
#
# Indices 1 2 3 4 5 6 
#
# 1 0.019702 0.001506 -0.002459 0.000000 -0.015046 0.000000
# 2 0.001506 0.012459 -0.006359 0.000000 -0.001805 0.000000
# 3 -0.002459 -0.006359 0.006997 0.000000 0.002909 0.000000
# 4 0.000000 0.000000 0.000000 0.058409 0.000000 0.008548
# 5 -0.015046 -0.001805 0.002909 0.000000 0.057585 0.000000
# 6 0.000000 0.000000 0.000000 0.008548 0.000000 -0.210815
#
#
# Mechanical properties :
#
#
# Convention : Reuss Voigt Hill
#
# Bulk Modulus (GPa) = 40.76083 91.51774 66.13928
# Shear Modulus (GPa) = -152.14901 28.75792 -61.69555
#
# Velocity S-wave (km/s) = -8.23955 3.58218 -5.24682
# Velocity P-wave (km/s) = 8.50485 7.61219 2.68208
#
# Compressibility (1/GPa) = 0.02453336
#
# Stress axis : x y z
#
# Youngs Moduli (GPa) = 50.75756 80.26418 142.92758
#
# Poissons Ratio (x) = -0.12089 0.35146
# Poissons Ratio (y) = -0.07645 0.90887
# Poissons Ratio (z) = 0.12481 0.51040
#
# Static dielectric constant tensor:
#      x y z
#    x 2.015210 0.000000 0.009350 
#    y 0.000000 1.804760 0.000000 
#    z 0.009350 0.000000 1.842290 
# 
# From -- ./inp_files/287027.got.cif
#   From: 2010.05.17/outbox.cif.g08.bks.cpg/sg12_144_cif.got.tgz:287027.got - 2010.06.03 13:09:07.
