data_PCOD9178181
_publ_section_title
;
Structure prediction by ZEFSAII (Michael W. Deem and Ramdas Pophale) SiO2 
 PCOD9178181
Probable space group: C 2/M
;
_chemical_formula_sum "Si O2"
_cell_formula_units_Z 48
_cell_length_a 24.699879
_cell_length_b 8.765246
_cell_length_c 13.804049
_cell_angle_alpha 90.000000
_cell_angle_beta 72.434636
_cell_angle_gamma 90.000000
_cell_volume 2849.235869
_symmetry_space_group_name_H-M "C 2/M"
_symmetry_group_IT_number 12
_symmetry_cell_setting 'monoclinic'
loop_
_space_group_symop_operation_xyz
x,y,z
-x,y,-z
-x,-y,-z
x,-y,z
1/2+x,1/2+y,z
1/2-x,1/2+y,-z
1/2-x,1/2-y,-z
1/2+x,1/2-y,z
loop_
_atom_site_type_symbol
_atom_site_label
_atom_site_fract_x
_atom_site_fract_y
_atom_site_fract_z
Si Si1 0.386613 0.682253 0.856085
Si Si2 0.796050 0.185063 0.761257
Si Si3 0.686138 0.823933 0.937942
Si Si4 0.767373 0.181855 0.387604
Si Si5 0.504087 0.684781 0.884034
Si Si6 0.122793 0.676862 0.766524
O O1 0.390826 0.500000 0.847150
O O2 0.356503 0.733865 0.772868
O O3 0.448336 0.739275 0.855800
O O4 0.343394 0.723298 0.965450
O O5 0.748007 0.225239 0.867323
O O6 0.775478 0.257689 0.672475
O O7 0.794246 0.000000 0.752125
O O8 0.647662 0.818500 0.862283
O O9 0.689226 0.000000 0.969334
O O10 0.750000 0.250000 0.500000
O O11 0.830260 0.238685 0.323500
O O12 0.766163 0.000000 0.390671
O O13 0.505493 0.500000 0.882118
O O14 0.561238 0.747614 0.805368
O O15 0.500000 0.730876 0.000000
O O16 0.119251 0.500000 0.739204
#
# Coordination Sequence:
#
# PCOD9178181 Si02
#       6
#     8   8   8   8   8   8
#     4  10  19  30  47  70 105 147 180 214 254 301
#     4   9  19  34  49  73 105 137 174 215 262 313
#     4   9  17  28  44  68 101 137 177 219 256 302
#     4  11  22  38  61  83 103 129 165 216 272 321
#     4  10  19  31  48  74 109 148 188 220 251 301
#     4  10  20  34  52  77 107 140 179 220 261 307
#
# _framework density 16.846622
#
# number of rings (size 3 to 8) (size 9 to 14) (size 15 to 20)
#    0.000    2.167    1.667    3.500    0.000    4.333 
#    0.000    0.000    0.000    1.000    0.000    7.000 
#    0.000    0.000    0.000    0.000    0.000    0.000 
#
# Total GULP energy -133849.190217 kJ/mol
# GULP energy per Si atom -5577.049592 kJ/mol
# Density = 1.680828 g / cm^3
# Si number density = 16.846622 Si / 1000 Ang^3
#
#
#
# Elastic Constant Matrix: (Units=GPa)
#
#
# Indices 1 2 3 4 5 6 
#
# 1 166.3779 46.3312 68.2342 0.0000 4.0478 0.0000
# 2 46.3312 40.7743 35.0775 0.0000 -0.9517 0.0000
# 3 68.2342 35.0775 96.4455 0.0000 -3.9010 0.0000
# 4 0.0000 0.0000 0.0000 26.5831 0.0000 -4.0514
# 5 4.0478 -0.9517 -3.9010 0.0000 6.3882 0.0000
# 6 0.0000 0.0000 0.0000 -4.0514 0.0000 18.6224
#
#
#
# Elastic Compliance Matrix: (Units=1/GPa)
#
#
# Indices 1 2 3 4 5 6 
#
# 1 0.010538 -0.007910 -0.005020 0.000000 -0.010921 0.000000
# 2 -0.007910 0.041675 -0.009338 0.000000 0.005519 0.000000
# 3 -0.005020 -0.009338 0.017829 0.000000 0.012677 0.000000
# 4 0.000000 0.000000 0.000000 0.038908 0.000000 0.008465
# 5 -0.010921 0.005519 0.012677 0.000000 0.172024 0.000000
# 6 0.000000 0.000000 0.000000 0.008465 0.000000 0.055540
#
#
# Mechanical properties :
#
#
# Convention : Reuss Voigt Hill
#
# Bulk Modulus (GPa) = 39.20637 66.98706 53.09671
# Shear Modulus (GPa) = 12.83526 20.58240 16.70883
#
# Velocity S-wave (km/s) = 2.76323 3.49915 3.15274
# Velocity P-wave (km/s) = 5.78823 7.49497 6.69620
#
# Compressibility (1/GPa) = 0.02550606
#
# Stress axis : x y z
#
# Youngs Moduli (GPa) = 94.89810 23.99503 56.08745
#
# Poissons Ratio (x) = 0.18980 0.28157
# Poissons Ratio (y) = 0.75063 0.52375
# Poissons Ratio (z) = 0.47640 0.22407
#
# Static dielectric constant tensor:
#      x y z
#    x 1.606000 0.000000 0.016190 
#    y 0.000000 1.572730 0.000000 
#    z 0.016190 0.000000 1.532430 
# 
# From -- ./inp_files/172111.got.cif
#   From: 2010.05.17/outbox.cif.g08.bks.cpg/sg12_87_cif.got.tgz:172111.got - 2010.06.03 13:09:07.
