data_PCOD9178051
_publ_section_title
;
Structure prediction by ZEFSAII (Michael W. Deem and Ramdas Pophale) SiO2 
 PCOD9178051
Probable space group: C 2/M
;
_chemical_formula_sum "Si O2"
_cell_formula_units_Z 64
_cell_length_a 13.897736
_cell_length_b 9.400977
_cell_length_c 23.429880
_cell_angle_alpha 90.000000
_cell_angle_beta 113.804524
_cell_angle_gamma 90.000000
_cell_volume 2800.747369
_symmetry_space_group_name_H-M "C 2/M"
_symmetry_group_IT_number 12
_symmetry_cell_setting 'monoclinic'
loop_
_space_group_symop_operation_xyz
x,y,z
-x,y,-z
-x,-y,-z
x,-y,z
1/2+x,1/2+y,z
1/2-x,1/2+y,-z
1/2-x,1/2-y,-z
1/2+x,1/2-y,z
loop_
_atom_site_type_symbol
_atom_site_label
_atom_site_fract_x
_atom_site_fract_y
_atom_site_fract_z
Si Si1 0.647626 0.665641 0.044206
Si Si2 0.555508 0.833443 0.789797
Si Si3 0.588392 0.839377 0.453754
Si Si4 0.014210 0.160876 0.671589
Si Si5 0.306575 0.665496 0.821864
Si Si6 0.200168 0.838164 0.568760
Si Si7 0.101768 0.334574 0.924551
Si Si8 0.261142 0.160991 0.704798
O O1 0.618185 0.500000 0.037719
O O2 0.640604 0.722432 0.107319
O O3 0.772504 0.668762 0.058885
O O4 0.589840 0.747306 0.979695
O O5 0.335473 0.500000 0.821097
O O6 0.496808 0.748178 0.725819
O O7 0.680649 0.830837 0.804658
O O8 0.549014 0.778802 0.853477
O O9 0.524505 0.744143 0.393585
O O10 0.703141 0.851394 0.451467
O O11 0.613219 0.760818 0.519162
O O12 0.546470 0.000000 0.448797
O O13 0.140065 0.151664 0.695997
O O14 0.971380 0.000000 0.663347
O O15 0.027661 0.500000 0.782527
O O16 0.320843 0.753857 0.767854
O O17 0.249431 0.776549 0.638638
O O18 0.160385 0.000000 0.570723
O O19 0.072527 0.500000 0.925380
O O20 0.301194 0.000000 0.708847
#
# Coordination Sequence:
#
# PCOD9178051 Si02
#       8
#     8   8   8   8   8   8   8   8
#     4   8  13  20  30  47  74 108 143 177 214 255
#     4   8  14  25  38  54  81 114 147 182 219 258
#     4  10  20  34  52  70  89 116 147 180 219 262
#     4  10  19  30  46  68  93 119 147 181 221 264
#     4   8  14  24  37  55  82 114 145 180 220 259
#     4   9  19  36  53  68  89 116 147 182 219 260
#     4   8  13  20  31  48  72 106 145 181 214 250
#     4   9  18  31  47  67  90 118 149 182 221 261
#
# _framework density 22.851044999999999
#
# number of rings (size 3 to 8) (size 9 to 14) (size 15 to 20)
#    0.000    3.250    0.000    2.250    0.000    3.000 
#    0.000    7.500    0.000    0.000    0.000    0.000 
#    0.000    1.000    0.000   11.250    0.000   16.375 
#
# Total GULP energy -178734.740896 kJ/mol
# GULP energy per Si atom -5585.460653 kJ/mol
# Density = 2.279903 g / cm^3
# Si number density = 22.851045 Si / 1000 Ang^3
#
#
#
# Elastic Constant Matrix: (Units=GPa)
#
#
# Indices 1 2 3 4 5 6 
#
# 1 55.4630 -5.4680 23.6534 0.0000 5.7649 0.0000
# 2 -5.4680 102.7471 112.5289 0.0000 0.3395 0.0000
# 3 23.6534 112.5289 264.9209 0.0000 -9.3330 0.0000
# 4 0.0000 0.0000 0.0000 42.9684 0.0000 -6.0511
# 5 5.7649 0.3395 -9.3330 0.0000 42.7925 0.0000
# 6 0.0000 0.0000 0.0000 -6.0511 0.0000 -3.3439
#
#
#
# Elastic Compliance Matrix: (Units=1/GPa)
#
#
# Indices 1 2 3 4 5 6 
#
# 1 0.021043 0.006247 -0.004670 0.000000 -0.003903 0.000000
# 2 0.006247 0.020199 -0.009244 0.000000 -0.003018 0.000000
# 3 -0.004670 -0.009244 0.008206 0.000000 0.002492 0.000000
# 4 0.000000 0.000000 0.000000 0.018547 0.000000 -0.033562
# 5 -0.003903 -0.003018 0.002492 0.000000 0.024462 0.000000
# 6 0.000000 0.000000 0.000000 -0.033562 0.000000 -0.238320
#
#
# Mechanical properties :
#
#
# Convention : Reuss Voigt Hill
#
# Bulk Modulus (GPa) = 29.31243 76.06217 52.68730
# Shear Modulus (GPa) = -41.96114 35.97783 -2.99166
#
# Velocity S-wave (km/s) = -4.28984 3.97224 -1.14544
# Velocity P-wave (km/s) = 3.41783 7.37540 4.62142
#
# Compressibility (1/GPa) = 0.03411522
#
# Stress axis : x y z
#
# Youngs Moduli (GPa) = 47.52106 49.50706 121.86217
#
# Poissons Ratio (x) = -0.30929 0.56910
# Poissons Ratio (y) = -0.29688 1.12649
# Poissons Ratio (z) = 0.22192 0.45764
#
# Static dielectric constant tensor:
#      x y z
#    x 1.931690 0.000000 -0.001160 
#    y 0.000000 1.806670 0.000000 
#    z -0.001160 0.000000 1.839730 
# 
# From -- ./inp_files/345617.got.cif
#   From: 2010.05.17/outbox.cif.g08.bks.cpg/sg12_173_cif.got.tgz:345617.got - 2010.06.03 13:09:07.
