data_PCOD9178939
_publ_section_title
;
Structure prediction by ZEFSAII (Michael W. Deem and Ramdas Pophale) SiO2 
 PCOD9178939
Probable space group: C 2/M
;
_chemical_formula_sum "Si O2"
_cell_formula_units_Z 56
_cell_length_a 30.869385
_cell_length_b 7.682488
_cell_length_c 13.186208
_cell_angle_alpha 90.000000
_cell_angle_beta 105.691577
_cell_angle_gamma 90.000000
_cell_volume 3010.613324
_symmetry_space_group_name_H-M "C 2/M"
_symmetry_group_IT_number 12
_symmetry_cell_setting 'monoclinic'
loop_
_space_group_symop_operation_xyz
x,y,z
-x,y,-z
-x,-y,-z
x,-y,z
1/2+x,1/2+y,z
1/2-x,1/2+y,-z
1/2-x,1/2-y,-z
1/2+x,1/2-y,z
loop_
_atom_site_type_symbol
_atom_site_label
_atom_site_fract_x
_atom_site_fract_y
_atom_site_fract_z
Si Si1 0.447168 0.290068 0.577732
Si Si2 0.859953 0.707518 0.200168
Si Si3 0.204508 0.291004 0.249365
Si Si4 0.352629 0.207121 0.600239
Si Si5 0.692941 0.789924 0.634974
Si Si6 0.701620 0.209685 0.018227
Si Si7 0.548052 0.290558 0.650775
O O1 0.447513 0.500000 0.576051
O O2 0.405638 0.234792 0.619909
O O3 0.497164 0.231461 0.641446
O O4 0.440221 0.229828 0.456538
O O5 0.853000 0.500000 0.195551
O O6 0.834370 0.776573 0.284190
O O7 0.912695 0.738790 0.248390
O O8 0.836532 0.775388 0.083447
O O9 0.199338 0.500000 0.240305
O O10 0.169448 0.223097 0.310837
O O11 0.254924 0.254575 0.319397
O O12 0.198965 0.222202 0.131411
O O13 0.328140 0.277023 0.483396
O O14 0.344654 0.000000 0.595638
O O15 0.688892 0.000000 0.631780
O O16 0.697983 0.000000 0.021300
O O17 0.750000 0.250000 0.000000
O O18 0.547079 0.500000 0.646838
#
# Coordination Sequence:
#
# PCOD9178939 Si02
#       7
#     8   8   8   8   8   8   8
#     4   9  18  32  50  73 100 127 156 194 240 290
#     4  10  19  31  49  73 100 126 157 200 244 281
#     4  10  21  34  49  69  96 132 169 198 231 282
#     4  10  20  33  48  71 101 130 160 196 238 287
#     4  10  19  31  47  71 102 129 157 197 240 283
#     4  10  20  34  50  69  95 128 165 203 237 275
#     4   9  18  32  50  74 100 125 157 196 240 290
#
# _framework density 18.600860000000001
#
# number of rings (size 3 to 8) (size 9 to 14) (size 15 to 20)
#    0.000    2.286    2.857    1.286    0.000    2.857 
#    0.000    1.429    0.000    0.857    0.000    6.000 
#    0.000    0.000    0.000    0.000    0.000    0.000 
#
# Total GULP energy -156238.723918 kJ/mol
# GULP energy per Si atom -5579.954426 kJ/mol
# Density = 1.855852 g / cm^3
# Si number density = 18.600860 Si / 1000 Ang^3
#
#
#
# Elastic Constant Matrix: (Units=GPa)
#
#
# Indices 1 2 3 4 5 6 
#
# 1 150.7448 -7.0319 104.8878 0.0000 2.3532 0.0000
# 2 -7.0319 29.1356 8.9466 0.0000 -6.2195 0.0000
# 3 104.8878 8.9466 138.1198 0.0000 -2.0510 0.0000
# 4 0.0000 0.0000 0.0000 8.6661 0.0000 6.2231
# 5 2.3532 -6.2195 -2.0510 0.0000 32.4405 0.0000
# 6 0.0000 0.0000 0.0000 6.2231 0.0000 24.1791
#
#
#
# Elastic Compliance Matrix: (Units=1/GPa)
#
#
# Indices 1 2 3 4 5 6 
#
# 1 0.015535 0.007419 -0.012285 0.000000 -0.000481 0.000000
# 2 0.007419 0.040022 -0.008128 0.000000 0.006621 0.000000
# 3 -0.012285 -0.008128 0.017102 0.000000 0.000414 0.000000
# 4 0.000000 0.000000 0.000000 0.141555 0.000000 -0.036433
# 5 -0.000481 0.006621 0.000414 0.000000 0.032156 0.000000
# 6 0.000000 0.000000 0.000000 -0.036433 0.000000 0.050735
#
#
# Mechanical properties :
#
#
# Convention : Reuss Voigt Hill
#
# Bulk Modulus (GPa) = 21.42658 59.06725 40.24692
# Shear Modulus (GPa) = 14.76448 27.13698 20.95073
#
# Velocity S-wave (km/s) = 2.82042 3.82371 3.35973
# Velocity P-wave (km/s) = 4.70643 7.16369 6.06090
#
# Compressibility (1/GPa) = 0.04667100
#
# Stress axis : x y z
#
# Youngs Moduli (GPa) = 64.36954 24.98624 58.47255
#
# Poissons Ratio (x) = -0.18537 0.71834
# Poissons Ratio (y) = -0.47756 0.47527
# Poissons Ratio (z) = 0.79079 0.20309
#
# Static dielectric constant tensor:
#      x y z
#    x 1.627220 0.000000 -0.004440 
#    y 0.000000 1.689950 0.000000 
#    z -0.004440 0.000000 1.654610 
# 
# From -- ./inp_files/181056.got.cif
#   From: 2010.05.17/outbox.cif.g08.bks.cpg/sg12_91_cif.got.tgz:181056.got - 2010.06.03 13:09:07.
