data_PCOD9178117
_publ_section_title
;
Structure prediction by ZEFSAII (Michael W. Deem and Ramdas Pophale) SiO2 
 PCOD9178117
Probable space group: C 2/M
;
_chemical_formula_sum "Si O2"
_cell_formula_units_Z 56
_cell_length_a 31.574012
_cell_length_b 7.371674
_cell_length_c 10.722831
_cell_angle_alpha 90.000000
_cell_angle_beta 117.214507
_cell_angle_gamma 90.000000
_cell_volume 2219.493830
_symmetry_space_group_name_H-M "C 2/M"
_symmetry_group_IT_number 12
_symmetry_cell_setting 'monoclinic'
loop_
_space_group_symop_operation_xyz
x,y,z
-x,y,-z
-x,-y,-z
x,-y,z
1/2+x,1/2+y,z
1/2-x,1/2+y,-z
1/2-x,1/2-y,-z
1/2+x,1/2-y,z
loop_
_atom_site_type_symbol
_atom_site_label
_atom_site_fract_x
_atom_site_fract_y
_atom_site_fract_z
Si Si1 0.843129 0.782865 0.204988
Si Si2 0.301044 0.692410 0.521348
Si Si3 0.855838 0.220594 0.946072
Si Si4 0.996042 0.220359 0.639834
Si Si5 0.253228 0.785652 0.214127
Si Si6 0.111045 0.777175 0.476101
Si Si7 0.541439 0.278434 0.959395
O O1 0.861922 0.720391 0.097730
O O2 0.787029 0.736934 0.139416
O O3 0.872501 0.715848 0.363841
O O4 0.847530 0.000000 0.210385
O O5 0.310638 0.500000 0.596181
O O6 0.250000 0.750000 0.500000
O O7 0.286750 0.683839 0.357167
O O8 0.351417 0.790031 0.577403
O O9 0.903711 0.275799 0.938462
O O10 0.854328 0.000000 0.941319
O O11 0.801246 0.277943 0.843178
O O12 0.943229 0.269842 0.614439
O O13 0.000000 0.281172 0.500000
O O14 0.029600 0.275954 0.800075
O O15 0.000183 0.000000 0.639302
O O16 0.253600 0.000000 0.242114
O O17 0.113732 0.000000 0.476635
O O18 0.540713 0.500000 0.961129
O O19 0.500000 0.219972 0.000000
#
# Coordination Sequence:
#
# PCOD9178117 Si02
#       7
#     8   8   8   8   8   8   8
#     4   9  16  29  47  68  98 128 158 197 243 294
#     4  10  20  34  50  69  97 129 162 200 243 293
#     4   9  17  28  43  64  94 132 162 194 244 294
#     4   9  15  24  41  64  90 122 159 197 244 304
#     4  10  19  30  46  70  99 127 159 197 241 294
#     4   8  15  26  42  65  92 122 152 193 246 290
#     4   9  17  27  39  60  93 128 161 201 252 307
#
# _framework density 25.230979999999999
#
# number of rings (size 3 to 8) (size 9 to 14) (size 15 to 20)
#    0.000    2.857    0.000    3.000    0.000    4.571 
#    0.000    5.000    0.000    0.000    0.000    0.000 
#    0.000   76.571    0.000    0.000    0.000    0.000 
#
# Total GULP energy -156016.685468 kJ/mol
# GULP energy per Si atom -5572.024481 kJ/mol
# Density = 2.517355 g / cm^3
# Si number density = 25.230980 Si / 1000 Ang^3
#
#
#
# Elastic Constant Matrix: (Units=GPa)
#
#
# Indices 1 2 3 4 5 6 
#
# 1 192.4830 -8.8722 27.7158 0.0000 18.5568 0.0000
# 2 -8.8722 79.8544 -11.7031 0.0000 -1.9203 0.0000
# 3 27.7158 -11.7031 75.2947 0.0000 17.9230 0.0000
# 4 0.0000 0.0000 0.0000 -4.9712 0.0000 3.6784
# 5 18.5568 -1.9203 17.9230 0.0000 40.8863 0.0000
# 6 0.0000 0.0000 0.0000 3.6784 0.0000 7.6840
#
#
#
# Elastic Compliance Matrix: (Units=1/GPa)
#
#
# Indices 1 2 3 4 5 6 
#
# 1 0.005616 0.000349 -0.001574 0.000000 -0.001842 0.000000
# 2 0.000349 0.012840 0.001967 0.000000 -0.000417 0.000000
# 3 -0.001574 0.001967 0.015602 0.000000 -0.006033 0.000000
# 4 0.000000 0.000000 0.000000 -0.148542 0.000000 0.071108
# 5 -0.001842 -0.000417 -0.006033 0.000000 0.027919 0.000000
# 6 0.000000 0.000000 0.000000 0.071108 0.000000 0.096100
#
#
# Mechanical properties :
#
#
# Convention : Reuss Voigt Hill
#
# Bulk Modulus (GPa) = 28.13733 40.21258 34.17496
# Shear Modulus (GPa) = 251.26435 31.41926 141.34181
#
# Velocity S-wave (km/s) = 9.99009 3.53266 7.49271
# Velocity P-wave (km/s) = 12.01021 5.71069 9.40365
#
# Compressibility (1/GPa) = 0.03553997
#
# Stress axis : x y z
#
# Youngs Moduli (GPa) = 178.07403 77.88320 64.09308
#
# Poissons Ratio (x) = -0.02717 0.10091
# Poissons Ratio (y) = -0.06213 -0.12605
# Poissons Ratio (z) = 0.28035 -0.15317
#
# Static dielectric constant tensor:
#      x y z
#    x 2.128740 0.000000 -0.077280 
#    y 0.000000 2.010980 0.000000 
#    z -0.077280 0.000000 2.016240 
# 
# From -- ./inp_files/187755.got.cif
#   From: 2010.05.17/outbox.cif.g08.bks.cpg/sg12_94_cif.got.tgz:187755.got - 2010.06.03 13:09:07.
