data_PCOD9178175
_publ_section_title
;
Structure prediction by ZEFSAII (Michael W. Deem and Ramdas Pophale) SiO2 
 PCOD9178175
Probable space group: C 2/M
;
_chemical_formula_sum "Si O2"
_cell_formula_units_Z 64
_cell_length_a 22.164822
_cell_length_b 9.678293
_cell_length_c 15.446603
_cell_angle_alpha 90.000000
_cell_angle_beta 115.972658
_cell_angle_gamma 90.000000
_cell_volume 2978.908791
_symmetry_space_group_name_H-M "C 2/M"
_symmetry_group_IT_number 12
_symmetry_cell_setting 'monoclinic'
loop_
_space_group_symop_operation_xyz
x,y,z
-x,y,-z
-x,-y,-z
x,-y,z
1/2+x,1/2+y,z
1/2-x,1/2+y,-z
1/2-x,1/2-y,-z
1/2+x,1/2-y,z
loop_
_atom_site_type_symbol
_atom_site_label
_atom_site_fract_x
_atom_site_fract_y
_atom_site_fract_z
Si Si1 0.713908 0.656116 0.548647
Si Si2 0.126854 0.657816 0.604920
Si Si3 0.758401 0.659403 0.172520
Si Si4 0.827512 0.655988 0.766682
Si Si5 0.064839 0.155594 0.263315
Si Si6 0.047201 0.155614 0.954151
Si Si7 0.864863 0.658566 0.101100
Si Si8 0.980718 0.342202 0.323241
O O1 0.700490 0.500000 0.509924
O O2 0.750000 0.750000 0.500000
O O3 0.649738 0.735458 0.546750
O O4 0.766203 0.645950 0.660661
O O5 0.123551 0.500000 0.569926
O O6 0.184808 0.658549 0.715714
O O7 0.058432 0.690179 0.612892
O O8 0.735510 0.500000 0.149782
O O9 0.701684 0.762866 0.169413
O O10 0.797834 0.701477 0.110373
O O11 0.851242 0.500000 0.800521
O O12 0.882059 0.749481 0.752856
O O13 0.002162 0.144291 0.158670
O O14 0.036882 0.234949 0.329419
O O15 0.089478 0.000000 0.294894
O O16 0.109037 0.244340 0.958674
O O17 0.067059 0.000000 0.994181
O O18 0.000000 0.216934 0.000000
O O19 0.857065 0.500000 0.067487
O O20 0.923405 0.658467 0.211889
O O21 0.006261 0.500000 0.343382
#
# Coordination Sequence:
#
# PCOD9178175 Si02
#       8
#     8   8   8   8   8   8   8   8
#     4  10  20  32  48  70  95 123 153 187 227 270
#     4   8  14  26  45  67  91 119 149 184 227 270
#     4   8  14  26  44  66  91 117 148 187 228 270
#     4  10  20  32  47  69  95 122 153 189 228 270
#     4  10  19  30  47  69  93 124 156 188 229 272
#     4   9  18  31  46  67  95 124 154 189 229 272
#     4   8  14  25  43  67  91 116 149 188 228 269
#     4   8  14  26  44  66  92 119 148 186 228 269
#
# _framework density 21.484378
#
# number of rings (size 3 to 8) (size 9 to 14) (size 15 to 20)
#    0.000    3.125    0.000    2.625    0.000    3.250 
#    0.000    5.000    0.000    1.500    0.000    5.250 
#    0.000    0.000    0.000    0.000    0.000    0.000 
#
# Total GULP energy -178625.329986 kJ/mol
# GULP energy per Si atom -5582.041562 kJ/mol
# Density = 2.143548 g / cm^3
# Si number density = 21.484378 Si / 1000 Ang^3
#
#
#
# Elastic Constant Matrix: (Units=GPa)
#
#
# Indices 1 2 3 4 5 6 
#
# 1 146.4534 128.0020 30.7064 0.0000 -54.6453 0.0000
# 2 128.0020 187.7559 33.5768 0.0000 -57.4749 0.0000
# 3 30.7064 33.5768 66.5989 0.0000 -5.5091 0.0000
# 4 0.0000 0.0000 0.0000 5.4650 0.0000 -25.5629
# 5 -54.6453 -57.4749 -5.5091 0.0000 48.4247 0.0000
# 6 0.0000 0.0000 0.0000 -25.5629 0.0000 19.2898
#
#
#
# Elastic Compliance Matrix: (Units=1/GPa)
#
#
# Indices 1 2 3 4 5 6 
#
# 1 0.020123 -0.009854 -0.003432 0.000000 0.010623 0.000000
# 2 -0.009854 0.014045 -0.002098 0.000000 0.005312 0.000000
# 3 -0.003432 -0.002098 0.017292 0.000000 -0.004396 0.000000
# 4 0.000000 0.000000 0.000000 -0.035197 0.000000 -0.046644
# 5 0.010623 0.005312 -0.004396 0.000000 0.038443 0.000000
# 6 0.000000 0.000000 0.000000 -0.046644 0.000000 -0.009972
#
#
# Mechanical properties :
#
#
# Convention : Reuss Voigt Hill
#
# Bulk Modulus (GPa) = 48.32576 87.26428 67.79502
# Shear Modulus (GPa) = 60.68051 28.53741 44.60896
#
# Velocity S-wave (km/s) = 5.32028 3.64852 4.56164
# Velocity P-wave (km/s) = 7.76419 7.64557 7.70511
#
# Compressibility (1/GPa) = 0.02069290
#
# Stress axis : x y z
#
# Youngs Moduli (GPa) = 49.69334 71.19975 57.83082
#
# Poissons Ratio (x) = 0.70157 0.19846
# Poissons Ratio (y) = 0.48966 0.12136
# Poissons Ratio (z) = 0.17053 0.14941
#
# Static dielectric constant tensor:
#      x y z
#    x 1.774130 0.000000 0.050530 
#    y 0.000000 1.773420 0.000000 
#    z 0.050530 0.000000 1.840640 
# 
# From -- ./inp_files/287721.got.cif
#   From: 2010.05.17/outbox.cif.g08.bks.cpg/sg12_144_cif.got.tgz:287721.got - 2010.06.03 13:09:07.
