data_PCOD9178555
_publ_section_title
;
Structure prediction by ZEFSAII (Michael W. Deem and Ramdas Pophale) SiO2 
 PCOD9178555
Probable space group: C 2/M
;
_chemical_formula_sum "Si O2"
_cell_formula_units_Z 64
_cell_length_a 19.955204
_cell_length_b 18.377813
_cell_length_c 11.571588
_cell_angle_alpha 90.000000
_cell_angle_beta 125.565908
_cell_angle_gamma 90.000000
_cell_volume 3452.011384
_symmetry_space_group_name_H-M "C 2/M"
_symmetry_group_IT_number 12
_symmetry_cell_setting 'monoclinic'
loop_
_space_group_symop_operation_xyz
x,y,z
-x,y,-z
-x,-y,-z
x,-y,z
1/2+x,1/2+y,z
1/2-x,1/2+y,-z
1/2-x,1/2-y,-z
1/2+x,1/2-y,z
loop_
_atom_site_type_symbol
_atom_site_label
_atom_site_fract_x
_atom_site_fract_y
_atom_site_fract_z
Si Si1 0.589063 0.722202 0.321925
Si Si2 0.348653 0.918117 0.103608
Si Si3 0.140789 0.803421 0.126862
Si Si4 0.555278 0.664130 0.659419
Si Si5 0.475391 0.175304 0.091889
Si Si6 0.097510 0.580961 0.578945
Si Si7 0.333178 0.413820 0.052288
Si Si8 0.673631 0.765873 0.624786
O O1 0.610329 0.678166 0.226613
O O2 0.509323 0.697534 0.314456
O O3 0.558012 0.798831 0.238557
O O4 0.661257 0.726184 0.488878
O O5 0.417838 0.869351 0.117428
O O6 0.363123 0.921778 0.254610
O O7 0.352932 0.000000 0.060732
O O8 0.257082 0.888369 0.996657
O O9 0.232880 0.771124 0.237245
O O10 0.078279 0.744756 0.007394
O O11 0.145010 0.870265 0.042298
O O12 0.500000 0.633335 0.500000
O O13 0.606291 0.606404 0.783346
O O14 0.615235 0.724774 0.660400
O O15 0.500000 0.133880 0.000000
O O16 0.109031 0.500000 0.536492
O O17 0.138152 0.652777 0.566926
O O18 0.000000 0.591894 0.500000
O O19 0.329802 0.500000 0.027446
#
# Coordination Sequence:
#
# PCOD9178555 Si02
#       8
#     8   8   8   8   8   8   8   8
#     4  10  21  36  53  84 116 143 189 236 283 345
#     4  10  20  34  52  81 113 143 189 236 276 336
#     4  11  22  35  57  82 116 149 190 241 288 337
#     4  10  21  37  60  84 110 148 192 242 290 350
#     4  10  20  34  55  78 110 149 187 229 285 339
#     4  10  19  30  49  80 114 147 185 232 281 332
#     4  11  23  38  59  85 113 150 197 245 290 343
#     4  11  20  34  59  84 114 150 191 235 291 344
#
# _framework density 18.539915000000001
#
# number of rings (size 3 to 8) (size 9 to 14) (size 15 to 20)
#    0.000    1.625    2.500    3.750    0.000    1.500 
#    0.000    1.250    0.000    1.500    0.000    0.000 
#    0.000    0.000    0.000    0.000    0.000    0.000 
#
# Total GULP energy -178388.741568 kJ/mol
# GULP energy per Si atom -5574.648174 kJ/mol
# Density = 1.849772 g / cm^3
# Si number density = 18.539915 Si / 1000 Ang^3
#
#
#
# Elastic Constant Matrix: (Units=GPa)
#
#
# Indices 1 2 3 4 5 6 
#
# 1 53.2905 9.4529 18.6341 0.0000 -4.2623 0.0000
# 2 9.4529 34.8357 4.8442 0.0000 -8.0914 0.0000
# 3 18.6341 4.8442 103.8241 0.0000 5.9591 0.0000
# 4 0.0000 0.0000 0.0000 19.6520 0.0000 7.5583
# 5 -4.2623 -8.0914 5.9591 0.0000 30.2966 0.0000
# 6 0.0000 0.0000 0.0000 7.5583 0.0000 17.5943
#
#
#
# Elastic Compliance Matrix: (Units=1/GPa)
#
#
# Indices 1 2 3 4 5 6 
#
# 1 0.021080 -0.004634 -0.003708 0.000000 0.002457 0.000000
# 2 -0.004634 0.032006 -0.001128 0.000000 0.008118 0.000000
# 3 -0.003708 -0.001128 0.010516 0.000000 -0.002891 0.000000
# 4 0.000000 0.000000 0.000000 0.060957 0.000000 -0.026187
# 5 0.002457 0.008118 -0.002891 0.000000 0.036089 0.000000
# 6 0.000000 0.000000 0.000000 -0.026187 0.000000 0.068086
#
#
# Mechanical properties :
#
#
# Convention : Reuss Voigt Hill
#
# Bulk Modulus (GPa) = 22.39008 28.64587 25.51797
# Shear Modulus (GPa) = 19.04313 24.10983 21.57648
#
# Velocity S-wave (km/s) = 3.20838 3.61006 3.41513
# Velocity P-wave (km/s) = 5.08211 5.73246 5.41706
#
# Compressibility (1/GPa) = 0.04466264
#
# Stress axis : x y z
#
# Youngs Moduli (GPa) = 47.43769 31.24418 95.09512
#
# Poissons Ratio (x) = 0.14478 0.35264
# Poissons Ratio (y) = 0.21982 0.10723
# Poissons Ratio (z) = 0.17591 0.03523
#
# Static dielectric constant tensor:
#      x y z
#    x 1.668590 0.000000 0.005620 
#    y 0.000000 1.647570 0.000000 
#    z 0.005620 0.000000 1.672770 
# 
# From -- ./inp_files/168813.got.cif
#   From: 2010.05.17/outbox.cif.g08.bks.cpg/sg12_85_cif.got.tgz:168813.got - 2010.06.03 13:09:07.
