data_PCOD9178734
_publ_section_title
;
Structure prediction by ZEFSAII (Michael W. Deem and Ramdas Pophale) SiO2 
 PCOD9178734
Probable space group: C 2/M
;
_chemical_formula_sum "Si O2"
_cell_formula_units_Z 64
_cell_length_a 25.310314
_cell_length_b 7.362144
_cell_length_c 21.713427
_cell_angle_alpha 90.000000
_cell_angle_beta 51.452410
_cell_angle_gamma 90.000000
_cell_volume 3164.371066
_symmetry_space_group_name_H-M "C 2/M"
_symmetry_group_IT_number 12
_symmetry_cell_setting 'monoclinic'
loop_
_space_group_symop_operation_xyz
x,y,z
-x,y,-z
-x,-y,-z
x,-y,z
1/2+x,1/2+y,z
1/2-x,1/2+y,-z
1/2-x,1/2-y,-z
1/2+x,1/2-y,z
loop_
_atom_site_type_symbol
_atom_site_label
_atom_site_fract_x
_atom_site_fract_y
_atom_site_fract_z
Si Si1 0.827039 0.219197 0.121326
Si Si2 0.676207 0.220697 0.236967
Si Si3 0.956370 0.278436 0.472034
Si Si4 0.666093 0.719087 0.741521
Si Si5 0.466577 0.777607 0.706990
Si Si6 0.522678 0.211395 0.795514
Si Si7 0.465521 0.210864 0.963852
Si Si8 0.683079 0.220876 0.374667
O O1 0.750767 0.278973 0.161789
O O2 0.842604 0.277098 0.180618
O O3 0.827711 0.000000 0.120750
O O4 0.885740 0.281205 0.033474
O O5 0.611106 0.279098 0.246277
O O6 0.668695 0.273035 0.314177
O O7 0.676584 0.000000 0.236052
O O8 0.956968 0.500000 0.471523
O O9 0.879026 0.219822 0.538173
O O10 0.000000 0.223328 0.500000
O O11 0.990601 0.219612 0.383762
O O12 0.666040 0.500000 0.741987
O O13 0.603011 0.778656 0.746971
O O14 0.740562 0.779351 0.666039
O O15 0.497750 0.713522 0.748630
O O16 0.467727 0.000000 0.705297
O O17 0.489584 0.291179 0.881675
O O18 0.502525 0.000000 0.808512
O O19 0.487282 0.000000 0.946445
O O20 0.500000 0.292397 0.000000
O O21 0.683505 0.000000 0.375357
#
# Coordination Sequence:
#
# PCOD9178734 Si02
#       8
#     8   8   8   8   8   8   8   8
#     4   9  17  28  47  71  89 109 145 191 229 263
#     4   8  13  24  41  64  91 114 139 179 230 269
#     4   9  13  20  39  67  94 116 142 181 224 262
#     4   9  17  29  45  66  92 120 146 180 226 266
#     4   9  16  26  42  64  92 122 147 178 223 268
#     4  10  20  32  45  64  91 122 153 183 219 265
#     4  10  19  31  45  62  88 121 154 187 220 257
#     4   8  13  22  39  65  93 115 141 180 225 266
#
# _framework density 20.225187999999999
#
# number of rings (size 3 to 8) (size 9 to 14) (size 15 to 20)
#    0.000    3.000    2.500    1.500    0.000    0.750 
#    0.000    1.250    0.000    0.750    0.000    0.000 
#    0.000    1.000    0.000    0.000    0.000    0.000 
#
# Total GULP energy -178514.021308 kJ/mol
# GULP energy per Si atom -5578.563166 kJ/mol
# Density = 2.017915 g / cm^3
# Si number density = 20.225188 Si / 1000 Ang^3
#
#
#
# Elastic Constant Matrix: (Units=GPa)
#
#
# Indices 1 2 3 4 5 6 
#
# 1 177.3521 -2.5431 108.1658 -0.0115 -3.4708 0.0022
# 2 -2.5431 71.3017 2.7713 -0.0344 6.8560 -0.0433
# 3 108.1658 2.7713 148.6611 -0.0277 -7.3507 0.0024
# 4 -0.0115 -0.0344 -0.0277 16.7816 0.0148 -14.8381
# 5 -3.4708 6.8560 -7.3507 0.0148 31.8796 -0.0046
# 6 0.0022 -0.0433 0.0024 -14.8381 -0.0046 8.8744
#
#
#
# Elastic Compliance Matrix: (Units=1/GPa)
#
#
# Indices 1 2 3 4 5 6 
#
# 1 0.010185 0.000727 -0.007462 0.000002 -0.000768 0.000006
# 2 0.000727 0.014399 -0.000958 -0.000192 -0.003238 -0.000253
# 3 -0.007462 -0.000958 0.012284 -0.000014 0.002226 -0.000029
# 4 0.000002 -0.000192 -0.000014 -0.124566 0.000066 -0.208276
# 5 -0.000768 -0.003238 0.002226 0.000066 0.032494 0.000111
# 6 0.000006 -0.000253 -0.000029 -0.208276 0.000111 -0.235556
#
#
# Mechanical properties :
#
#
# Convention : Reuss Voigt Hill
#
# Bulk Modulus (GPa) = 46.54846 68.23367 57.39107
# Shear Modulus (GPa) = -18.64192 30.76852 6.06330
#
# Velocity S-wave (km/s) = -3.03927 3.90461 1.73332
# Velocity P-wave (km/s) = 3.27854 7.35787 5.69592
#
# Compressibility (1/GPa) = 0.02148299
#
# Stress axis : x y z
#
# Youngs Moduli (GPa) = 98.18351 69.44835 81.40614
#
# Poissons Ratio (x) = -0.05050 0.60746
# Poissons Ratio (y) = -0.07140 0.07796
# Poissons Ratio (z) = 0.73266 0.06651
#
# Static dielectric constant tensor:
#      x y z
#    x 1.698390 -0.000010 -0.016950 
#    y -0.000010 1.778900 0.000000 
#    z -0.016950 0.000000 1.702560 
# 
# From -- ./inp_files/324756.got.cif
#   From: 2010.05.17/outbox.cif.g08.bks.cpg/sg12_163_cif.got.tgz:324756.got - 2010.06.03 13:09:07.
