data_PCOD9178500
_publ_section_title
;
Structure prediction by ZEFSAII (Michael W. Deem and Ramdas Pophale) SiO2 
 PCOD9178500
Probable space group: C 2/M
;
_chemical_formula_sum "Si O2"
_cell_formula_units_Z 64
_cell_length_a 18.438293
_cell_length_b 31.701806
_cell_length_c 12.759800
_cell_angle_alpha 90.000000
_cell_angle_beta 148.986681
_cell_angle_gamma 90.000000
_cell_volume 3842.871782
_symmetry_space_group_name_H-M "C 2/M"
_symmetry_group_IT_number 12
_symmetry_cell_setting 'monoclinic'
loop_
_space_group_symop_operation_xyz
x,y,z
-x,y,-z
-x,-y,-z
x,-y,z
1/2+x,1/2+y,z
1/2-x,1/2+y,-z
1/2-x,1/2-y,-z
1/2+x,1/2-y,z
loop_
_atom_site_type_symbol
_atom_site_label
_atom_site_fract_x
_atom_site_fract_y
_atom_site_fract_z
Si Si1 0.296202 0.603399 0.912222
Si Si2 0.307279 0.902094 0.456668
Si Si3 0.546012 0.547696 0.179381
Si Si4 0.559869 0.047203 0.693106
Si Si5 0.838081 0.774273 0.267499
Si Si6 0.348146 0.756527 0.773839
Si Si7 0.318544 0.187781 0.122417
Si Si8 0.632201 0.189389 0.411331
O O1 0.248949 0.605944 0.731775
O O2 0.212721 0.565997 0.866665
O O3 0.243219 0.646143 0.900076
O O4 0.455202 0.586565 0.112409
O O5 0.206745 0.937564 0.380475
O O6 0.462192 0.921249 0.636266
O O7 0.309394 0.858017 0.519422
O O8 0.524214 0.500000 0.194386
O O9 0.500000 0.545472 0.000000
O O10 0.500000 0.046015 0.500000
O O11 0.556640 0.000000 0.731072
O O12 0.733769 0.780818 0.235578
O O13 0.820226 0.725782 0.208067
O O14 0.000000 0.781819 0.500000
O O15 0.783797 0.800495 0.100698
O O16 0.377904 0.787381 0.712875
O O17 0.242513 0.718978 0.610267
O O18 0.500000 0.740299 0.000000
O O19 0.479239 0.186109 0.278002
#
# Coordination Sequence:
#
# PCOD9178500 Si02
#       8
#     8   8   8   8   8   8   8   8
#     4  10  19  30  51  73 105 139 175 215 255 306
#     4  10  19  30  49  74 105 141 172 216 257 303
#     4   9  18  32  46  70 108 145 173 206 258 318
#     4   9  16  26  44  70  99 136 170 200 253 316
#     4  11  23  38  57  76 107 145 177 223 273 315
#     4  11  23  38  55  76 108 146 179 221 272 316
#     4  11  22  36  56  81 105 140 184 224 264 315
#     4  11  22  36  56  79 108 139 185 224 262 316
#
# _framework density 16.654211
#
# number of rings (size 3 to 8) (size 9 to 14) (size 15 to 20)
#    0.000    1.750    3.750    1.500    0.000    6.500 
#    0.000    0.000    0.000    0.000    0.000    0.000 
#    0.000   20.000    0.000    0.000    0.000    0.000 
#
# Total GULP energy -178345.992673 kJ/mol
# GULP energy per Si atom -5573.312271 kJ/mol
# Density = 1.661631 g / cm^3
# Si number density = 16.654211 Si / 1000 Ang^3
#
#
#
# Elastic Constant Matrix: (Units=GPa)
#
#
# Indices 1 2 3 4 5 6 
#
# 1 66.0921 21.5071 24.3519 0.0000 11.9069 0.0000
# 2 21.5071 94.0809 14.5060 0.0000 -1.6794 0.0000
# 3 24.3519 14.5060 74.4093 0.0000 7.5502 0.0000
# 4 0.0000 0.0000 0.0000 9.4484 0.0000 6.7373
# 5 11.9069 -1.6794 7.5502 0.0000 18.9164 0.0000
# 6 0.0000 0.0000 0.0000 6.7373 0.0000 28.0957
#
#
#
# Elastic Compliance Matrix: (Units=1/GPa)
#
#
# Indices 1 2 3 4 5 6 
#
# 1 0.020208 -0.004099 -0.004676 0.000000 -0.011217 0.000000
# 2 -0.004099 0.011856 -0.001395 0.000000 0.004189 0.000000
# 3 -0.004676 -0.001395 0.015587 0.000000 -0.003402 0.000000
# 4 0.000000 0.000000 0.000000 0.127668 0.000000 -0.030615
# 5 -0.011217 0.004189 -0.003402 0.000000 0.061654 0.000000
# 6 0.000000 0.000000 0.000000 -0.030615 0.000000 0.042934
#
#
# Mechanical properties :
#
#
# Convention : Reuss Voigt Hill
#
# Bulk Modulus (GPa) = 36.61566 39.47913 38.04739
# Shear Modulus (GPa) = 16.16286 22.90660 19.53473
#
# Velocity S-wave (km/s) = 3.11866 3.71269 3.42857
# Velocity P-wave (km/s) = 5.91622 6.49118 6.21036
#
# Compressibility (1/GPa) = 0.02731072
#
# Stress axis : x y z
#
# Youngs Moduli (GPa) = 49.48517 84.34534 64.15744
#
# Poissons Ratio (x) = 0.34572 0.30001
# Poissons Ratio (y) = 0.20283 0.08950
# Poissons Ratio (z) = 0.23140 0.11766
#
# Static dielectric constant tensor:
#      x y z
#    x 1.570170 0.000000 0.011130 
#    y 0.000000 1.555940 0.000000 
#    z 0.011130 0.000000 1.557170 
# 
# From -- ./inp_files/161255.got.cif
#   From: 2010.05.17/outbox.cif.g08.bks.cpg/sg12_81_cif.got.tgz:161255.got - 2010.06.03 13:09:07.
