data_PCOD9178507
_publ_section_title
;
Structure prediction by ZEFSAII (Michael W. Deem and Ramdas Pophale) SiO2 
 PCOD9178507
Probable space group: C 2/M
;
_chemical_formula_sum "Si O2"
_cell_formula_units_Z 56
_cell_length_a 16.387886
_cell_length_b 22.863541
_cell_length_c 12.311234
_cell_angle_alpha 90.000000
_cell_angle_beta 45.769893
_cell_angle_gamma 90.000000
_cell_volume 3305.300741
_symmetry_space_group_name_H-M "C 2/M"
_symmetry_group_IT_number 12
_symmetry_cell_setting 'monoclinic'
loop_
_space_group_symop_operation_xyz
x,y,z
-x,y,-z
-x,-y,-z
x,-y,z
1/2+x,1/2+y,z
1/2-x,1/2+y,-z
1/2-x,1/2-y,-z
1/2+x,1/2-y,z
loop_
_atom_site_type_symbol
_atom_site_label
_atom_site_fract_x
_atom_site_fract_y
_atom_site_fract_z
Si Si1 0.235333 0.813075 0.381000
Si Si2 0.581977 0.742979 0.084170
Si Si3 0.660016 0.129001 0.359539
Si Si4 0.525077 0.129332 0.857442
Si Si5 0.645338 0.685353 0.697447
Si Si6 0.168367 0.249955 0.245356
Si Si7 0.973392 0.431132 0.685365
O O1 0.340570 0.857624 0.278744
O O2 0.292161 0.748554 0.345423
O O3 0.158856 0.826737 0.556453
O O4 0.171833 0.804168 0.325407
O O5 0.536021 0.807321 0.096492
O O6 0.484076 0.696514 0.148377
O O7 0.601962 0.740776 0.195227
O O8 0.701637 0.735595 0.912557
O O9 0.782834 0.138975 0.299634
O O10 0.624863 0.193232 0.349309
O O11 0.640813 0.087976 0.272820
O O12 0.574606 0.103666 0.529409
O O13 0.478141 0.089724 0.804398
O O14 0.500000 0.105589 0.000000
O O15 0.990879 0.500000 0.658506
#
# Coordination Sequence:
#
# PCOD9178507 Si02
#       7
#     8   8   8   8   8   8   8
#     4   9  17  28  44  72 101 140 174 199 253 321
#     4  10  20  31  46  78 114 147 173 205 253 334
#     4  10  19  33  53  73 104 137 171 224 267 315
#     4  11  19  34  53  71 110 144 172 220 266 316
#     4   9  18  28  46  71 104 140 171 204 259 321
#     4  10  19  30  49  75 111 148 175 201 264 326
#     4  11  23  37  54  78 102 138 187 232 276 312
#
# _framework density 16.942482999999999
#
# number of rings (size 3 to 8) (size 9 to 14) (size 15 to 20)
#    0.000    2.000    4.286    0.857    2.000    0.857 
#    0.000    0.000    0.000    0.000    0.000    8.000 
#    0.000    1.143    0.000    0.000    0.000    0.000 
#
# Total GULP energy -156111.025167 kJ/mol
# GULP energy per Si atom -5575.393756 kJ/mol
# Density = 1.690392 g / cm^3
# Si number density = 16.942483 Si / 1000 Ang^3
#
#
#
# Elastic Constant Matrix: (Units=GPa)
#
#
# Indices 1 2 3 4 5 6 
#
# 1 110.5571 37.4877 51.1375 0.0000 22.6700 0.0000
# 2 37.4877 53.4322 28.6779 0.0000 -3.6683 0.0000
# 3 51.1375 28.6779 69.0620 0.0000 14.8831 0.0000
# 4 0.0000 0.0000 0.0000 5.3027 0.0000 -1.6387
# 5 22.6700 -3.6683 14.8831 0.0000 38.3185 0.0000
# 6 0.0000 0.0000 0.0000 -1.6387 0.0000 8.4909
#
#
#
# Elastic Compliance Matrix: (Units=1/GPa)
#
#
# Indices 1 2 3 4 5 6 
#
# 1 0.016950 -0.008536 -0.007278 0.000000 -0.008018 0.000000
# 2 -0.008536 0.030098 -0.008607 0.000000 0.011275 0.000000
# 3 -0.007278 -0.008607 0.024766 0.000000 -0.006137 0.000000
# 4 0.000000 0.000000 0.000000 0.200545 0.000000 0.038705
# 5 -0.008018 0.011275 -0.006137 0.000000 0.034304 0.000000
# 6 0.000000 0.000000 0.000000 0.038705 0.000000 0.125243
#
#
# Mechanical properties :
#
#
# Convention : Reuss Voigt Hill
#
# Bulk Modulus (GPa) = 43.53408 51.96194 47.74801
# Shear Modulus (GPa) = 10.23736 18.13896 14.18816
#
# Velocity S-wave (km/s) = 2.46080 3.27558 2.89698
# Velocity P-wave (km/s) = 5.81593 6.71134 6.27962
#
# Compressibility (1/GPa) = 0.02297051
#
# Stress axis : x y z
#
# Youngs Moduli (GPa) = 58.99586 33.22484 40.37854
#
# Poissons Ratio (x) = 0.28362 0.29389
# Poissons Ratio (y) = 0.50361 0.34754
# Poissons Ratio (z) = 0.42939 0.28597
#
# Static dielectric constant tensor:
#      x y z
#    x 1.634730 0.000000 0.017890 
#    y 0.000000 1.536090 0.000000 
#    z 0.017890 0.000000 1.600600 
# 
# From -- ./inp_files/160252.got.cif
#   From: 2010.05.17/outbox.cif.g08.bks.cpg/sg12_81_cif.got.tgz:160252.got - 2010.06.03 13:09:07.
