data_PCOD9178674
_publ_section_title
;
Structure prediction by ZEFSAII (Michael W. Deem and Ramdas Pophale) SiO2 
 PCOD9178674
Probable space group: C 2/M
;
_chemical_formula_sum "Si O2"
_cell_formula_units_Z 58
_cell_length_a 25.158543
_cell_length_b 7.583196
_cell_length_c 15.467814
_cell_angle_alpha 90.000000
_cell_angle_beta 80.052807
_cell_angle_gamma 90.000000
_cell_volume 2906.621996
_symmetry_space_group_name_H-M "C 2/M"
_symmetry_group_IT_number 12
_symmetry_cell_setting 'monoclinic'
loop_
_space_group_symop_operation_xyz
x,y,z
-x,y,-z
-x,-y,-z
x,-y,z
1/2+x,1/2+y,z
1/2-x,1/2+y,-z
1/2-x,1/2-y,-z
1/2+x,1/2-y,z
loop_
_atom_site_type_symbol
_atom_site_label
_atom_site_fract_x
_atom_site_fract_y
_atom_site_fract_z
Si Si1 0.287720 0.282985 0.811825
Si Si2 0.334722 0.212134 0.121968
Si Si3 0.177742 0.791742 0.574829
Si Si4 0.000000 0.500000 0.000000
Si Si5 0.790753 0.796503 0.618452
Si Si6 0.499721 0.294956 0.127890
Si Si7 0.622149 0.291289 0.080211
Si Si8 0.906577 0.289127 0.263550
O O1 0.287387 0.500000 0.811748
O O2 0.227349 0.227321 0.854494
O O3 0.299960 0.221150 0.710883
O O4 0.332367 0.221934 0.867576
O O5 0.368757 0.276803 0.194846
O O6 0.334123 0.000000 0.126907
O O7 0.359919 0.261769 0.023037
O O8 0.181744 0.720727 0.475717
O O9 0.226625 0.709414 0.616385
O O10 0.122015 0.765052 0.639852
O O11 0.189700 0.000000 0.567709
O O12 0.026415 0.657041 0.931410
O O13 0.808086 0.000000 0.618752
O O14 0.498751 0.500000 0.100829
O O15 0.561416 0.225826 0.114365
O O16 0.466111 0.279876 0.225386
O O17 0.618988 0.500000 0.095997
O O18 0.907701 0.500000 0.261765
#
# Coordination Sequence:
#
# PCOD9178674 Si02
#       8
#     8   8   8   2   8   8   8   8
#     4   9  17  35  55  76 106 145 187 224 272 335
#     4  10  20  32  53  77 105 143 185 221 267 332
#     4  10  19  30  52  83 114 140 177 234 288 341
#     4  12  22  40  60  82 112 150 190 240 296 324
#     4   9  17  33  54  78 109 147 183 223 283 347
#     4  11  24  39  57  84 113 149 197 240 282 336
#     4  10  22  36  54  76 107 146 187 234 272 321
#     4  11  21  36  57  81 110 149 185 232 289 340
#
# _framework density 19.954435
#
# number of rings (size 3 to 8) (size 9 to 14) (size 15 to 20)
#    0.000    1.931    2.069    2.276    2.897    2.759 
#    0.000    0.690    0.000    0.828    0.000    5.793 
#    0.000    0.000    0.000    0.000    0.000    0.000 
#
# Total GULP energy -161660.372337 kJ/mol
# GULP energy per Si atom -5574.495598 kJ/mol
# Density = 1.990902 g / cm^3
# Si number density = 19.954435 Si / 1000 Ang^3
#
#
#
# Elastic Constant Matrix: (Units=GPa)
#
#
# Indices 1 2 3 4 5 6 
#
# 1 102.2025 2.0485 64.8161 0.0000 -13.8925 0.0000
# 2 2.0485 70.3234 -3.3956 0.0000 0.6504 0.0000
# 3 64.8161 -3.3956 127.9883 0.0000 -26.2500 0.0000
# 4 0.0000 0.0000 0.0000 16.8016 0.0000 -6.9271
# 5 -13.8925 0.6504 -26.2500 0.0000 33.9098 0.0000
# 6 0.0000 0.0000 0.0000 -6.9271 0.0000 5.6072
#
#
#
# Elastic Compliance Matrix: (Units=1/GPa)
#
#
# Indices 1 2 3 4 5 6 
#
# 1 0.014458 -0.000776 -0.007281 0.000000 0.000302 0.000000
# 2 -0.000776 0.014280 0.000773 0.000000 0.000007 0.000000
# 3 -0.007281 0.000773 0.012964 0.000000 0.007038 0.000000
# 4 0.000000 0.000000 0.000000 0.121301 0.000000 0.149854
# 5 0.000302 0.000007 0.007038 0.000000 0.035062 0.000000
# 6 0.000000 0.000000 0.000000 0.149854 0.000000 0.363470
#
#
# Mechanical properties :
#
#
# Convention : Reuss Voigt Hill
#
# Bulk Modulus (GPa) = 36.85105 47.49468 42.17286
# Shear Modulus (GPa) = 8.54485 27.06673 17.80579
#
# Velocity S-wave (km/s) = 2.07159 3.68697 2.99042
# Velocity P-wave (km/s) = 4.92236 6.47906 5.75360
#
# Compressibility (1/GPa) = 0.02713627
#
# Stress axis : x y z
#
# Youngs Moduli (GPa) = 69.16357 70.02863 77.13481
#
# Poissons Ratio (x) = 0.05431 0.56159
# Poissons Ratio (y) = 0.05364 -0.05962
# Poissons Ratio (z) = 0.50356 -0.05413
#
# Static dielectric constant tensor:
#      x y z
#    x 1.742880 0.000000 -0.010070 
#    y 0.000000 1.760450 0.000000 
#    z -0.010070 0.000000 1.730970 
# 
# From -- ./inp_files/237582.got.cif
#   From: 2010.05.17/outbox.cif.g08.bks.cpg/sg12_119_cif.got.tgz:237582.got - 2010.06.03 13:09:07.
