data_PCOD9178030
_publ_section_title
;
Structure prediction by ZEFSAII (Michael W. Deem and Ramdas Pophale) SiO2 
 PCOD9178030
Probable space group: C 2/M
;
_chemical_formula_sum "Si O2"
_cell_formula_units_Z 64
_cell_length_a 19.513995
_cell_length_b 7.553585
_cell_length_c 21.227119
_cell_angle_alpha 90.000000
_cell_angle_beta 93.814760
_cell_angle_gamma 90.000000
_cell_volume 3121.958012
_symmetry_space_group_name_H-M "C 2/M"
_symmetry_group_IT_number 12
_symmetry_cell_setting 'monoclinic'
loop_
_space_group_symop_operation_xyz
x,y,z
-x,y,-z
-x,-y,-z
x,-y,z
1/2+x,1/2+y,z
1/2-x,1/2+y,-z
1/2-x,1/2-y,-z
1/2+x,1/2-y,z
loop_
_atom_site_type_symbol
_atom_site_label
_atom_site_fract_x
_atom_site_fract_y
_atom_site_fract_z
Si Si1 0.471650 0.284297 0.890749
Si Si2 0.578946 0.717907 0.367898
Si Si3 0.648935 0.794035 0.029745
Si Si4 0.875031 0.202505 0.109540
Si Si5 0.169353 0.787424 0.492098
Si Si6 0.548196 0.294594 0.565579
Si Si7 0.760762 0.713836 0.846933
Si Si8 0.119501 0.789804 0.232474
O O1 0.471735 0.500000 0.893546
O O2 0.428275 0.224092 0.948333
O O3 0.549377 0.218142 0.890990
O O4 0.429847 0.223403 0.826416
O O5 0.577915 0.500000 0.368511
O O6 0.633429 0.772941 0.424909
O O7 0.502676 0.778992 0.384207
O O8 0.601507 0.778748 0.300344
O O9 0.696087 0.722368 0.089354
O O10 0.664871 0.000000 0.021216
O O11 0.655308 0.702829 0.963028
O O12 0.816693 0.281016 0.150804
O O13 0.885505 0.000000 0.130984
O O14 0.250000 0.750000 0.500000
O O15 0.121102 0.718957 0.546647
O O16 0.161831 0.000000 0.492754
O O17 0.500000 0.292641 0.500000
O O18 0.560389 0.500000 0.583466
O O19 0.759358 0.500000 0.851002
O O20 0.803467 0.759204 0.787537
O O21 0.108672 0.000000 0.234211
#
# Coordination Sequence:
#
# PCOD9178030 Si02
#       8
#     8   8   8   8   8   8   8   8
#     4   9  18  31  46  64  86 112 144 183 224 264
#     4   8  14  27  48  68  86 115 155 189 212 248
#     4  10  19  30  46  67  88 113 146 181 220 268
#     4  10  19  31  46  64  88 116 144 180 228 271
#     4   9  16  27  45  70  98 122 144 178 223 262
#     4   7  11  22  42  66  88 113 147 181 210 244
#     4   9  19  33  46  63  91 121 145 177 222 269
#     4   9  17  31  50  67  83 112 154 189 216 255
#
# _framework density 20.499955
#
# number of rings (size 3 to 8) (size 9 to 14) (size 15 to 20)
#    0.000    3.125    0.000    2.625    0.000    3.000 
#    0.000    1.875    0.000    7.125    0.000    0.000 
#    0.000    0.000    0.000    0.000    0.000    0.000 
#
# Total GULP energy -178352.518633 kJ/mol
# GULP energy per Si atom -5573.516207 kJ/mol
# Density = 2.045330 g / cm^3
# Si number density = 20.499955 Si / 1000 Ang^3
#
#
#
# Elastic Constant Matrix: (Units=GPa)
#
#
# Indices 1 2 3 4 5 6 
#
# 1 145.5667 -3.9094 50.9794 0.0000 -40.5069 0.0000
# 2 -3.9094 48.7154 -2.8046 0.0000 2.0742 0.0000
# 3 50.9794 -2.8046 96.5655 0.0000 -38.7165 0.0000
# 4 0.0000 0.0000 0.0000 4.7673 0.0000 -2.1578
# 5 -40.5069 2.0742 -38.7165 0.0000 30.0683 0.0000
# 6 0.0000 0.0000 0.0000 -2.1578 0.0000 18.3696
#
#
#
# Elastic Compliance Matrix: (Units=1/GPa)
#
#
# Indices 1 2 3 4 5 6 
#
# 1 0.010996 0.000253 0.000278 0.000000 0.015154 0.000000
# 2 0.000253 0.020594 0.000065 0.000000 -0.000995 0.000000
# 3 0.000278 0.000065 0.021414 0.000000 0.027943 0.000000
# 4 0.000000 0.000000 0.000000 0.221541 0.000000 0.026023
# 5 0.015154 -0.000995 0.027943 0.000000 0.089722 0.000000
# 6 0.000000 0.000000 0.000000 0.026023 0.000000 0.057495
#
#
# Mechanical properties :
#
#
# Convention : Reuss Voigt Hill
#
# Bulk Modulus (GPa) = 18.45104 42.15314 30.30209
# Shear Modulus (GPa) = 11.39904 27.07987 19.23945
#
# Velocity S-wave (km/s) = 2.36063 3.63846 3.06684
# Velocity P-wave (km/s) = 4.05588 6.18534 5.23013
#
# Compressibility (1/GPa) = 0.05419747
#
# Stress axis : x y z
#
# Youngs Moduli (GPa) = 90.94185 48.55819 46.69779
#
# Poissons Ratio (x) = -0.01230 -0.01298
# Poissons Ratio (y) = -0.02303 -0.00305
# Poissons Ratio (z) = -0.02528 -0.00318
#
# Static dielectric constant tensor:
#      x y z
#    x 1.774470 0.000000 -0.023580 
#    y 0.000000 1.809860 0.000000 
#    z -0.023580 0.000000 1.710980 
# 
# From -- ./inp_files/319149.got.cif
#   From: 2010.05.17/outbox.cif.g08.bks.cpg/sg12_160_cif.got.tgz:319149.got - 2010.06.03 13:09:07.
