data_PCOD9178998
_publ_section_title
;
Structure prediction by ZEFSAII (Michael W. Deem and Ramdas Pophale) SiO2 
 PCOD9178998
Probable space group: C 2/M
;
_chemical_formula_sum "Si O2"
_cell_formula_units_Z 64
_cell_length_a 18.906544
_cell_length_b 7.545286
_cell_length_c 22.710039
_cell_angle_alpha 90.000000
_cell_angle_beta 102.574738
_cell_angle_gamma 90.000000
_cell_volume 3161.995666
_symmetry_space_group_name_H-M "C 2/M"
_symmetry_group_IT_number 12
_symmetry_cell_setting 'monoclinic'
loop_
_space_group_symop_operation_xyz
x,y,z
-x,y,-z
-x,-y,-z
x,-y,z
1/2+x,1/2+y,z
1/2-x,1/2+y,-z
1/2-x,1/2-y,-z
1/2+x,1/2-y,z
loop_
_atom_site_type_symbol
_atom_site_label
_atom_site_fract_x
_atom_site_fract_y
_atom_site_fract_z
Si Si1 0.036822 0.289395 0.319825
Si Si2 0.672300 0.295745 0.813030
Si Si3 0.687463 0.288227 0.942205
Si Si4 0.348909 0.213411 0.564939
Si Si5 0.188402 0.211650 0.568276
Si Si6 0.522775 0.793557 0.941621
Si Si7 0.005540 0.283084 0.811142
Si Si8 0.130272 0.214832 0.682399
O O1 0.049152 0.500000 0.319476
O O2 0.091616 0.217447 0.378558
O O3 0.042811 0.225779 0.253163
O O4 0.953930 0.260753 0.324195
O O5 0.696500 0.500000 0.813212
O O6 0.705492 0.219522 0.879323
O O7 0.586225 0.286203 0.811629
O O8 0.675349 0.218875 0.747677
O O9 0.678795 0.500000 0.935832
O O10 0.609594 0.216355 0.948944
O O11 0.750000 0.250000 0.000000
O O12 0.268974 0.280447 0.568343
O O13 0.359982 0.254943 0.498210
O O14 0.347888 0.000000 0.568613
O O15 0.158314 0.279838 0.624611
O O16 0.194153 0.000000 0.575411
O O17 0.488667 0.722728 0.874416
O O18 0.501066 0.000000 0.939530
O O19 0.500000 0.713138 0.000000
O O20 0.009172 0.500000 0.811876
O O21 0.134674 0.000000 0.684398
#
# Coordination Sequence:
#
# PCOD9178998 Si02
#       8
#     8   8   8   8   8   8   8   8
#     4   9  17  29  46  68  90 114 147 184 222 262
#     4   8  15  28  45  65  88 116 148 181 221 266
#     4  10  19  31  48  69  94 124 157 191 229 273
#     4   9  18  32  47  63  87 118 149 179 214 261
#     4   9  18  32  48  65  87 117 149 179 216 262
#     4   9  17  30  48  70  95 122 154 191 231 275
#     4   8  14  26  44  65  89 117 147 180 221 267
#     4   9  17  30  48  69  90 112 144 185 224 262
#
# _framework density 20.240380999999999
#
# number of rings (size 3 to 8) (size 9 to 14) (size 15 to 20)
#    0.000    3.125    0.000    0.375    0.000    2.250 
#    0.000    3.750    0.000    6.000    0.000    3.500 
#    0.000    0.000    0.000    0.000    0.000    0.000 
#
# Total GULP energy -178180.165804 kJ/mol
# GULP energy per Si atom -5568.130181 kJ/mol
# Density = 2.019431 g / cm^3
# Si number density = 20.240381 Si / 1000 Ang^3
#
#
#
# Elastic Constant Matrix: (Units=GPa)
#
#
# Indices 1 2 3 4 5 6 
#
# 1 31.2490 -8.6930 69.5404 0.0000 1.9538 0.0000
# 2 -8.6930 51.1643 -1.0190 0.0000 -1.7298 0.0000
# 3 69.5404 -1.0190 271.1377 0.0000 -1.0079 0.0000
# 4 0.0000 0.0000 0.0000 9.4605 0.0000 0.7065
# 5 1.9538 -1.7298 -1.0079 0.0000 35.2798 0.0000
# 6 0.0000 0.0000 0.0000 0.7065 0.0000 11.8314
#
#
#
# Elastic Compliance Matrix: (Units=1/GPa)
#
#
# Indices 1 2 3 4 5 6 
#
# 1 0.083902 0.013672 -0.021485 0.000000 -0.004590 0.000000
# 2 0.013672 0.021807 -0.003424 0.000000 0.000214 0.000000
# 3 -0.021485 -0.003424 0.009190 0.000000 0.001284 0.000000
# 4 0.000000 0.000000 0.000000 0.106176 0.000000 -0.006340
# 5 -0.004590 0.000214 0.001284 0.000000 0.028646 0.000000
# 6 0.000000 0.000000 0.000000 -0.006340 0.000000 0.084899
#
#
# Mechanical properties :
#
#
# Convention : Reuss Voigt Hill
#
# Bulk Modulus (GPa) = 10.81934 52.57865 31.69900
# Shear Modulus (GPa) = 12.88985 30.89588 21.89287
#
# Velocity S-wave (km/s) = 2.52630 3.91122 3.29240
# Velocity P-wave (km/s) = 3.72379 6.81398 5.49076
#
# Compressibility (1/GPa) = 0.09242705
#
# Stress axis : x y z
#
# Youngs Moduli (GPa) = 11.91861 45.85713 108.80958
#
# Poissons Ratio (x) = -0.62697 2.33773
# Poissons Ratio (y) = -0.16295 0.37255
# Poissons Ratio (z) = 0.25607 0.15701
#
# Static dielectric constant tensor:
#      x y z
#    x 1.664860 0.000000 -0.002880 
#    y 0.000000 1.882560 0.000000 
#    z -0.002880 0.000000 1.800670 
# 
# From -- ./inp_files/319240.got.cif
#   From: 2010.05.17/outbox.cif.g08.bks.cpg/sg12_160_cif.got.tgz:319240.got - 2010.06.03 13:09:07.
