data_PCOD9178989
_publ_section_title
;
Structure prediction by ZEFSAII (Michael W. Deem and Ramdas Pophale) SiO2 
 PCOD9178989
Probable space group: C 2/M
;
_chemical_formula_sum "Si O2"
_cell_formula_units_Z 40
_cell_length_a 28.285349
_cell_length_b 7.488039
_cell_length_c 11.858503
_cell_angle_alpha 90.000000
_cell_angle_beta 52.940875
_cell_angle_gamma 90.000000
_cell_volume 2004.333791
_symmetry_space_group_name_H-M "C 2/M"
_symmetry_group_IT_number 12
_symmetry_cell_setting 'monoclinic'
loop_
_space_group_symop_operation_xyz
x,y,z
-x,y,-z
-x,-y,-z
x,-y,z
1/2+x,1/2+y,z
1/2-x,1/2+y,-z
1/2-x,1/2-y,-z
1/2+x,1/2-y,z
loop_
_atom_site_type_symbol
_atom_site_label
_atom_site_fract_x
_atom_site_fract_y
_atom_site_fract_z
Si Si1 0.174696 0.711243 0.693780
Si Si2 0.799990 0.205396 0.592260
Si Si3 0.031154 0.782340 0.283910
Si Si4 0.408900 0.281591 0.574023
Si Si5 0.445381 0.715267 0.002209
O O1 0.183407 0.500000 0.663701
O O2 0.170766 0.791487 0.574308
O O3 0.234357 0.783026 0.668228
O O4 0.116535 0.739463 0.850518
O O5 0.847199 0.284226 0.611400
O O6 0.791070 0.000000 0.640026
O O7 0.074966 0.727400 0.321976
O O8 0.964834 0.728587 0.415999
O O9 0.031442 0.000000 0.282772
O O10 0.048551 0.720200 0.134871
O O11 0.407763 0.500000 0.573459
O O12 0.449178 0.500000 0.993200
O O13 0.500000 0.779912 0.000000
#
# Coordination Sequence:
#
# PCOD9178989 Si02
#       5
#     8   8   8   8   8
#     4  10  20  31  45  68  95 121 151 188 229 270
#     4   9  17  31  50  68  89 120 155 189 225 268
#     4   8  14  24  43  71  93 111 145 191 228 260
#     4   8  13  25  46  69  90 112 146 191 229 261
#     4  10  19  31  48  69  93 121 152 186 226 271
#
# _framework density 19.956755999999999
#
# number of rings (size 3 to 8) (size 9 to 14) (size 15 to 20)
#    0.000    3.000    0.000    3.000    0.000    4.400 
#    0.000    1.000    0.000    1.200    0.000    4.200 
#    0.000    0.000    0.000    0.000    0.000    0.000 
#
# Total GULP energy -111563.377513 kJ/mol
# GULP energy per Si atom -5578.168876 kJ/mol
# Density = 1.991133 g / cm^3
# Si number density = 19.956756 Si / 1000 Ang^3
#
#
#
# Elastic Constant Matrix: (Units=GPa)
#
#
# Indices 1 2 3 4 5 6 
#
# 1 176.8075 2.6312 75.6131 0.0000 -3.8924 0.0000
# 2 2.6312 57.1703 -6.9955 0.0000 -1.1769 0.0000
# 3 75.6131 -6.9955 131.9270 0.0000 -0.4334 0.0000
# 4 0.0000 0.0000 0.0000 6.3916 0.0000 -0.6261
# 5 -3.8924 -1.1769 -0.4334 0.0000 15.0552 0.0000
# 6 0.0000 0.0000 0.0000 -0.6261 0.0000 -0.3824
#
#
#
# Elastic Compliance Matrix: (Units=1/GPa)
#
#
# Indices 1 2 3 4 5 6 
#
# 1 0.007583 -0.000849 -0.004385 0.000000 0.001768 0.000000
# 2 -0.000849 0.017731 0.001431 0.000000 0.001208 0.000000
# 3 -0.004385 0.001431 0.010167 0.000000 -0.000729 0.000000
# 4 0.000000 0.000000 0.000000 0.134828 0.000000 -0.220769
# 5 0.001768 0.001208 -0.000729 0.000000 0.066953 0.000000
# 6 0.000000 0.000000 0.000000 -0.220769 0.000000 -2.253607
#
#
# Mechanical properties :
#
#
# Convention : Reuss Voigt Hill
#
# Bulk Modulus (GPa) = 35.87696 56.48916 46.18306
# Shear Modulus (GPa) = -2.50069 23.85662 10.67797
#
# Velocity S-wave (km/s) = -1.12061 3.46123 2.31564
# Velocity P-wave (km/s) = 4.04253 6.65888 5.50830
#
# Compressibility (1/GPa) = 0.02787304
#
# Stress axis : x y z
#
# Youngs Moduli (GPa) = 131.87719 56.39963 98.35927
#
# Poissons Ratio (x) = 0.04789 0.43133
# Poissons Ratio (y) = 0.11199 -0.14074
# Poissons Ratio (z) = 0.57832 -0.08070
#
# Static dielectric constant tensor:
#      x y z
#    x 1.718200 0.000000 -0.001190 
#    y 0.000000 1.774920 0.000000 
#    z -0.001190 0.000000 1.649300 
# 
# From -- ./inp_files/162482.got.cif
#   From: 2010.05.17/outbox.cif.g08.bks.cpg/sg12_82_cif.got.tgz:162482.got - 2010.06.03 13:09:07.
