data_PCOD9178144
_publ_section_title
;
Structure prediction by ZEFSAII (Michael W. Deem and Ramdas Pophale) SiO2 
 PCOD9178144
Probable space group: C 2/M
;
_chemical_formula_sum "Si O2"
_cell_formula_units_Z 48
_cell_length_a 26.372522
_cell_length_b 8.948221
_cell_length_c 14.483430
_cell_angle_alpha 90.000000
_cell_angle_beta 135.760051
_cell_angle_gamma 90.000000
_cell_volume 2384.550899
_symmetry_space_group_name_H-M "C 2/M"
_symmetry_group_IT_number 12
_symmetry_cell_setting 'monoclinic'
loop_
_space_group_symop_operation_xyz
x,y,z
-x,y,-z
-x,-y,-z
x,-y,z
1/2+x,1/2+y,z
1/2-x,1/2+y,-z
1/2-x,1/2-y,-z
1/2+x,1/2-y,z
loop_
_atom_site_type_symbol
_atom_site_label
_atom_site_fract_x
_atom_site_fract_y
_atom_site_fract_z
Si Si1 0.917542 0.832111 0.835428
Si Si2 0.427541 0.820548 0.462983
Si Si3 0.719169 0.677341 0.740995
Si Si4 0.386231 0.179836 0.983232
Si Si5 0.747378 0.166527 0.592310
Si Si6 0.022581 0.679231 0.268678
O O1 0.927472 0.751721 0.947861
O O2 0.831169 0.849362 0.726043
O O3 0.935853 0.741844 0.766651
O O4 0.947635 0.000000 0.865717
O O5 0.500000 0.787272 0.500000
O O6 0.355372 0.751974 0.321705
O O7 0.445171 0.769270 0.591429
O O8 0.417695 0.000000 0.452365
O O9 0.715129 0.500000 0.745779
O O10 0.800877 0.724656 0.880583
O O11 0.715763 0.728682 0.629815
O O12 0.386036 0.000000 0.968702
O O13 0.437565 0.215912 0.137433
O O14 0.750000 0.250000 0.500000
O O15 0.713684 0.000000 0.545198
O O16 0.027646 0.500000 0.274242
#
# Coordination Sequence:
#
# PCOD9178144 Si02
#       6
#     8   8   8   8   8   8
#     4  10  20  31  47  77 113 143 173 213 259 307
#     4  10  22  40  60  80 103 135 177 225 274 321
#     4  10  20  35  55  77 104 137 174 219 267 316
#     4   9  19  35  54  78 109 145 179 209 252 314
#     4  10  19  30  46  72 107 144 180 216 258 312
#     4  10  20  35  55  77 105 143 182 217 257 312
#
# _framework density 20.129576
#
# number of rings (size 3 to 8) (size 9 to 14) (size 15 to 20)
#    0.000    2.167    0.000    3.000    0.000    9.000 
#    0.000    0.833    0.000    0.000    0.000    0.000 
#    0.000    0.000    0.000    0.000    0.000    0.000 
#
# Total GULP energy -133681.106976 kJ/mol
# GULP energy per Si atom -5570.046124 kJ/mol
# Density = 2.008376 g / cm^3
# Si number density = 20.129576 Si / 1000 Ang^3
#
#
#
# Elastic Constant Matrix: (Units=GPa)
#
#
# Indices 1 2 3 4 5 6 
#
# 1 67.3562 11.8779 38.2258 0.0000 29.6276 0.0000
# 2 11.8779 27.8858 22.5383 0.0000 8.8958 0.0000
# 3 38.2258 22.5383 105.0422 0.0000 21.9628 0.0000
# 4 0.0000 0.0000 0.0000 20.2250 0.0000 11.4593
# 5 29.6276 8.8958 21.9628 0.0000 29.2510 0.0000
# 6 0.0000 0.0000 0.0000 11.4593 0.0000 21.3609
#
#
#
# Elastic Compliance Matrix: (Units=1/GPa)
#
#
# Indices 1 2 3 4 5 6 
#
# 1 0.029016 -0.000007 -0.005235 0.000000 -0.025457 0.000000
# 2 -0.000007 0.044762 -0.008015 0.000000 -0.007588 0.000000
# 3 -0.005235 -0.008015 0.013673 0.000000 -0.002526 0.000000
# 4 0.000000 0.000000 0.000000 0.071035 0.000000 -0.038108
# 5 -0.025457 -0.007588 -0.002526 0.000000 0.064176 0.000000
# 6 0.000000 0.000000 0.000000 -0.038108 0.000000 0.067258
#
#
# Mechanical properties :
#
#
# Convention : Reuss Voigt Hill
#
# Bulk Modulus (GPa) = 16.41051 38.39647 27.40349
# Shear Modulus (GPa) = 14.84787 22.67687 18.76237
#
# Velocity S-wave (km/s) = 2.71885 3.36005 3.05631
# Velocity P-wave (km/s) = 4.24574 5.84545 5.10860
#
# Compressibility (1/GPa) = 0.06093657
#
# Stress axis : x y z
#
# Youngs Moduli (GPa) = 34.46325 22.34017 73.13659
#
# Poissons Ratio (x) = 0.00016 0.38288
# Poissons Ratio (y) = 0.00025 0.58621
# Poissons Ratio (z) = 0.18042 0.17906
#
# Static dielectric constant tensor:
#      x y z
#    x 1.800530 0.000000 0.017680 
#    y 0.000000 1.713500 0.000000 
#    z 0.017680 0.000000 1.869720 
# 
# From -- ./inp_files/244865.got.cif
#   From: 2010.05.17/outbox.cif.g08.bks.cpg/sg12_123_cif.got.tgz:244865.got - 2010.06.03 13:09:07.
