data_PCOD9178403
_publ_section_title
;
Structure prediction by ZEFSAII (Michael W. Deem and Ramdas Pophale) SiO2 
 PCOD9178403
Probable space group: C 2/M
;
_chemical_formula_sum "Si O2"
_cell_formula_units_Z 56
_cell_length_a 15.905893
_cell_length_b 9.994427
_cell_length_c 17.114827
_cell_angle_alpha 90.000000
_cell_angle_beta 105.655887
_cell_angle_gamma 90.000000
_cell_volume 2619.808623
_symmetry_space_group_name_H-M "C 2/M"
_symmetry_group_IT_number 12
_symmetry_cell_setting 'monoclinic'
loop_
_space_group_symop_operation_xyz
x,y,z
-x,y,-z
-x,-y,-z
x,-y,z
1/2+x,1/2+y,z
1/2-x,1/2+y,-z
1/2-x,1/2-y,-z
1/2+x,1/2-y,z
loop_
_atom_site_type_symbol
_atom_site_label
_atom_site_fract_x
_atom_site_fract_y
_atom_site_fract_z
Si Si1 0.372105 0.652917 0.115118
Si Si2 0.830530 0.346250 0.655962
Si Si3 0.577576 0.652804 0.627828
Si Si4 0.204047 0.345001 0.183742
Si Si5 0.129354 0.151293 0.468318
Si Si6 0.035293 0.345147 0.753397
Si Si7 0.399791 0.345916 0.949639
O O1 0.407239 0.500000 0.129305
O O2 0.288711 0.662005 0.150257
O O3 0.440137 0.761343 0.163770
O O4 0.349307 0.674945 0.018930
O O5 0.810158 0.500000 0.631343
O O6 0.779698 0.306270 0.722028
O O7 0.825274 0.253578 0.578987
O O8 0.932259 0.341348 0.709127
O O9 0.599193 0.500000 0.659988
O O10 0.629650 0.680931 0.560947
O O11 0.474338 0.650927 0.579189
O O12 0.582269 0.765085 0.694850
O O13 0.174847 0.500000 0.178666
O O14 0.133274 0.251891 0.124999
O O15 0.160860 0.000000 0.463495
O O16 0.062114 0.500000 0.765454
O O17 0.388215 0.500000 0.922069
O O18 0.500000 0.326820 0.000000
#
# Coordination Sequence:
#
# PCOD9178403 Si02
#       7
#     8   8   8   8   8   8   8
#     4  10  21  36  52  71  99 133 165 199 242 291
#     4   9  18  31  47  71 101 129 161 203 247 290
#     4   8  14  26  44  68  99 130 161 200 245 292
#     4  10  21  36  53  73  99 133 167 197 239 293
#     4   8  14  25  44  70  97 128 164 200 243 292
#     4  10  19  30  48  74 100 128 164 204 246 290
#     4  10  21  36  55  79 102 125 159 203 247 288
#
# _framework density 21.375608
#
# number of rings (size 3 to 8) (size 9 to 14) (size 15 to 20)
#    0.000    2.714    0.000    2.571    0.000    3.143 
#    0.000    2.857    0.000    0.857    0.000    0.000 
#    0.000    0.000    0.000    0.000    0.000    0.000 
#
# Total GULP energy -156470.558606 kJ/mol
# GULP energy per Si atom -5588.234236 kJ/mol
# Density = 2.132696 g / cm^3
# Si number density = 21.375608 Si / 1000 Ang^3
#
#
#
# Elastic Constant Matrix: (Units=GPa)
#
#
# Indices 1 2 3 4 5 6 
#
# 1 68.3973 36.9002 28.2850 0.0000 -15.4003 0.0000
# 2 36.9002 102.5627 72.2421 0.0000 0.7864 0.0000
# 3 28.2850 72.2421 121.9126 0.0000 -16.3954 0.0000
# 4 0.0000 0.0000 0.0000 38.8963 0.0000 -2.1064
# 5 -15.4003 0.7864 -16.3954 0.0000 44.5367 0.0000
# 6 0.0000 0.0000 0.0000 -2.1064 0.0000 16.3841
#
#
#
# Elastic Compliance Matrix: (Units=1/GPa)
#
#
# Indices 1 2 3 4 5 6 
#
# 1 0.020248 -0.008155 0.001153 0.000000 0.007570 0.000000
# 2 -0.008155 0.020782 -0.011417 0.000000 -0.007390 0.000000
# 3 0.001153 -0.011417 0.015551 0.000000 0.006325 0.000000
# 4 0.000000 0.000000 0.000000 0.025890 0.000000 0.003328
# 5 0.007570 -0.007390 0.006325 0.000000 0.027530 0.000000
# 6 0.000000 0.000000 0.000000 0.003328 0.000000 0.061463
#
#
# Mechanical properties :
#
#
# Convention : Reuss Voigt Hill
#
# Bulk Modulus (GPa) = 50.65030 63.08082 56.86556
# Shear Modulus (GPa) = 23.26854 30.32643 26.79748
#
# Velocity S-wave (km/s) = 3.30291 3.77070 3.54453
# Velocity P-wave (km/s) = 6.18808 6.96651 6.58881
#
# Compressibility (1/GPa) = 0.01974322
#
# Stress axis : x y z
#
# Youngs Moduli (GPa) = 49.38856 48.11760 64.30378
#
# Poissons Ratio (x) = 0.39238 -0.07411
# Poissons Ratio (y) = 0.40274 0.73415
# Poissons Ratio (z) = -0.05692 0.54936
#
# Static dielectric constant tensor:
#      x y z
#    x 1.842210 0.000000 -0.004330 
#    y 0.000000 1.717390 0.000000 
#    z -0.004330 0.000000 1.762830 
# 
# From -- ./inp_files/280335.got.cif
#   From: 2010.05.17/outbox.cif.g08.bks.cpg/sg12_141_cif.got.tgz:280335.got - 2010.06.03 13:09:07.
