data_PCOD9178643
_publ_section_title
;
Structure prediction by ZEFSAII (Michael W. Deem and Ramdas Pophale) SiO2 
 PCOD9178643
Probable space group: C 2/M
;
_chemical_formula_sum "Si O2"
_cell_formula_units_Z 58
_cell_length_a 29.673928
_cell_length_b 7.670590
_cell_length_c 19.968981
_cell_angle_alpha 90.000000
_cell_angle_beta 141.500400
_cell_angle_gamma 90.000000
_cell_volume 2829.472437
_symmetry_space_group_name_H-M "C 2/M"
_symmetry_group_IT_number 12
_symmetry_cell_setting 'monoclinic'
loop_
_space_group_symop_operation_xyz
x,y,z
-x,y,-z
-x,-y,-z
x,-y,z
1/2+x,1/2+y,z
1/2-x,1/2+y,-z
1/2-x,1/2-y,-z
1/2+x,1/2-y,z
loop_
_atom_site_type_symbol
_atom_site_label
_atom_site_fract_x
_atom_site_fract_y
_atom_site_fract_z
Si Si1 0.286086 0.710136 0.144911
Si Si2 0.285712 0.297506 0.435586
Si Si3 0.000000 0.000000 0.000000
Si Si4 0.012600 0.701455 0.848608
Si Si5 0.863043 0.791935 0.102231
Si Si6 0.401277 0.207702 0.918255
Si Si7 0.349416 0.701545 0.647691
Si Si8 0.729709 0.710356 0.726621
O O1 0.291888 0.500000 0.153332
O O2 0.339198 0.773882 0.147904
O O3 0.298183 0.776680 0.234205
O O4 0.204585 0.749345 0.025096
O O5 0.307575 0.500000 0.457650
O O6 0.325441 0.223263 0.547216
O O7 0.199928 0.290873 0.353228
O O8 0.299475 0.220427 0.378165
O O9 0.060518 0.155860 0.085963
O O10 0.997175 0.500000 0.843061
O O11 0.935196 0.789231 0.753190
O O12 0.063157 0.720291 0.842492
O O13 0.061870 0.762229 0.967999
O O14 0.869921 0.000000 0.112969
O O15 0.413519 0.000000 0.919545
O O16 0.316135 0.236021 0.825617
O O17 0.326876 0.500000 0.623725
O O18 0.718845 0.500000 0.713888
#
# Coordination Sequence:
#
# PCOD9178643 Si02
#       8
#     8   8   2   8   8   8   8   8
#     4   9  17  32  52  77 106 140 172 212 268 325
#     4   9  19  36  56  77 100 137 178 221 270 318
#     4  12  26  36  52  70 120 152 182 216 280 320
#     4  11  22  36  54  74 108 144 178 218 267 320
#     4  10  19  30  51  79 108 136 175 218 262 321
#     4  10  23  37  52  79 109 147 186 220 266 333
#     4  10  21  35  54  78 103 133 182 228 264 313
#     4   9  17  34  56  74 105 138 174 220 269 324
#
# _framework density 20.498521
#
# number of rings (size 3 to 8) (size 9 to 14) (size 15 to 20)
#    0.000    2.207    1.379    1.448    3.862    1.103 
#    0.000    0.000    0.000    0.828    0.000    5.793 
#    0.000    0.000    0.000    0.000    0.000    0.000 
#
# Total GULP energy -161588.167550 kJ/mol
# GULP energy per Si atom -5572.005778 kJ/mol
# Density = 2.045187 g / cm^3
# Si number density = 20.498521 Si / 1000 Ang^3
#
#
#
# Elastic Constant Matrix: (Units=GPa)
#
#
# Indices 1 2 3 4 5 6 
#
# 1 93.2388 1.1172 33.3219 0.0000 -26.6001 0.0000
# 2 1.1172 43.9897 6.9826 0.0000 0.1348 0.0000
# 3 33.3219 6.9826 59.0623 0.0000 -17.3730 0.0000
# 4 0.0000 0.0000 0.0000 8.6003 0.0000 8.0687
# 5 -26.6001 0.1348 -17.3730 0.0000 37.0775 0.0000
# 6 0.0000 0.0000 0.0000 8.0687 0.0000 13.1923
#
#
#
# Elastic Compliance Matrix: (Units=1/GPa)
#
#
# Indices 1 2 3 4 5 6 
#
# 1 0.015256 0.000593 -0.006331 0.000000 0.007976 0.000000
# 2 0.000593 0.023271 -0.003463 0.000000 -0.001282 0.000000
# 3 -0.006331 -0.003463 0.022710 0.000000 0.006112 0.000000
# 4 0.000000 0.000000 0.000000 0.272832 0.000000 -0.166870
# 5 0.007976 -0.001282 0.006112 0.000000 0.035561 0.000000
# 6 0.000000 0.000000 0.000000 -0.166870 0.000000 0.177863
#
#
# Mechanical properties :
#
#
# Convention : Reuss Voigt Hill
#
# Bulk Modulus (GPa) = 23.34491 31.01489 27.17990
# Shear Modulus (GPa) = 8.61810 22.09863 15.35837
#
# Velocity S-wave (km/s) = 2.05265 3.28694 2.74020
# Velocity P-wave (km/s) = 4.12688 5.43769 4.82699
#
# Compressibility (1/GPa) = 0.04283588
#
# Stress axis : x y z
#
# Youngs Moduli (GPa) = 65.54674 42.97167 44.03282
#
# Poissons Ratio (x) = -0.02548 0.27878
# Poissons Ratio (y) = -0.03887 0.15248
# Poissons Ratio (z) = 0.41499 0.14880
#
# Static dielectric constant tensor:
#      x y z
#    x 1.787410 0.000000 -0.070950 
#    y 0.000000 1.725100 0.000000 
#    z -0.070950 0.000000 1.767850 
# 
# From -- ./inp_files/329086.got.cif
#   From: 2010.05.17/outbox.cif.g08.bks.cpg/sg12_165_cif.got.tgz:329086.got - 2010.06.03 13:09:07.
