data_PCOD9178537
_publ_section_title
;
Structure prediction by ZEFSAII (Michael W. Deem and Ramdas Pophale) SiO2 
 PCOD9178537
Probable space group: C 2/M
;
_chemical_formula_sum "Si O2"
_cell_formula_units_Z 48
_cell_length_a 10.170634
_cell_length_b 28.099823
_cell_length_c 15.722132
_cell_angle_alpha 90.000000
_cell_angle_beta 35.462585
_cell_angle_gamma 90.000000
_cell_volume 2606.869055
_symmetry_space_group_name_H-M "C 2/M"
_symmetry_group_IT_number 12
_symmetry_cell_setting 'monoclinic'
loop_
_space_group_symop_operation_xyz
x,y,z
-x,y,-z
-x,-y,-z
x,-y,z
1/2+x,1/2+y,z
1/2-x,1/2+y,-z
1/2-x,1/2-y,-z
1/2+x,1/2-y,z
loop_
_atom_site_type_symbol
_atom_site_label
_atom_site_fract_x
_atom_site_fract_y
_atom_site_fract_z
Si Si1 0.229863 0.719734 0.328742
Si Si2 0.489052 0.140882 0.342990
Si Si3 0.269059 0.053679 0.871081
Si Si4 0.824601 0.601867 0.020783
Si Si5 0.039762 0.146293 0.678003
Si Si6 0.367722 0.178300 0.222079
O O1 0.398849 0.695454 0.306825
O O2 0.343747 0.765249 0.226170
O O3 0.000000 0.735149 0.500000
O O4 0.149980 0.678609 0.306103
O O5 0.617007 0.093384 0.247813
O O6 0.277290 0.129280 0.515082
O O7 0.395303 0.165458 0.306531
O O8 0.317977 0.068495 0.942634
O O9 0.348343 0.000000 0.812280
O O10 0.000000 0.055518 0.000000
O O11 0.924931 0.652862 0.935977
O O12 0.582577 0.611389 0.191145
O O13 0.000000 0.584403 0.000000
O O14 0.858060 0.155624 0.699626
#
# Coordination Sequence:
#
# PCOD9178537 Si02
#       6
#     8   8   8   8   8   8
#     4  10  19  30  49  77 108 142 180 216 258 307
#     4  10  20  34  55  78 106 140 176 219 259 307
#     4  10  21  39  60  79 102 135 174 217 266 316
#     4   9  20  36  54  77 107 140 173 215 265 311
#     4  10  19  33  51  74 108 140 173 217 263 305
#     4  10  19  32  51  76 107 146 180 209 254 310
#
# _framework density 18.412893
#
# number of rings (size 3 to 8) (size 9 to 14) (size 15 to 20)
#    0.000    2.167    0.000    3.500    0.000    3.667 
#    0.000    8.333    0.000   19.500    0.000    0.000 
#    0.000    0.000    0.000    0.000    0.000    0.000 
#
# Total GULP energy -133972.314682 kJ/mol
# GULP energy per Si atom -5582.179778 kJ/mol
# Density = 1.837098 g / cm^3
# Si number density = 18.412893 Si / 1000 Ang^3
#
#
#
# Elastic Constant Matrix: (Units=GPa)
#
#
# Indices 1 2 3 4 5 6 
#
# 1 75.7359 35.7717 20.4688 0.0000 2.9337 0.0000
# 2 35.7717 118.1820 51.7985 0.0000 1.2952 0.0000
# 3 20.4688 51.7985 75.0960 0.0000 1.0019 0.0000
# 4 0.0000 0.0000 0.0000 11.5187 0.0000 1.1023
# 5 2.9337 1.2952 1.0019 0.0000 19.2379 0.0000
# 6 0.0000 0.0000 0.0000 1.1023 0.0000 2.6835
#
#
#
# Elastic Compliance Matrix: (Units=1/GPa)
#
#
# Indices 1 2 3 4 5 6 
#
# 1 0.015590 -0.004079 -0.001409 0.000000 -0.002029 0.000000
# 2 -0.004079 0.013198 -0.007994 0.000000 0.000150 0.000000
# 3 -0.001409 -0.007994 0.019217 0.000000 -0.000248 0.000000
# 4 0.000000 0.000000 0.000000 0.090367 0.000000 -0.037122
# 5 -0.002029 0.000150 -0.000248 0.000000 0.052293 0.000000
# 6 0.000000 0.000000 0.000000 -0.037122 0.000000 0.387902
#
#
# Mechanical properties :
#
#
# Convention : Reuss Voigt Hill
#
# Bulk Modulus (GPa) = 47.52332 53.89910 50.71121
# Shear Modulus (GPa) = 8.16267 17.41969 12.79118
#
# Velocity S-wave (km/s) = 2.10778 3.07915 2.63855
# Velocity P-wave (km/s) = 5.63822 6.47901 6.07318
#
# Compressibility (1/GPa) = 0.02104230
#
# Stress axis : x y z
#
# Youngs Moduli (GPa) = 64.14479 75.76791 52.03634
#
# Poissons Ratio (x) = 0.30907 0.07330
# Poissons Ratio (y) = 0.26166 0.41597
# Poissons Ratio (z) = 0.09035 0.60567
#
# Static dielectric constant tensor:
#      x y z
#    x 1.644770 0.000000 0.008860 
#    y 0.000000 1.605300 0.000000 
#    z 0.008860 0.000000 1.634590 
# 
# From -- ./inp_files/123883.got.cif
#   From: 2010.05.17/outbox.cif.g08.bks.cpg/sg12_62_cif.got.tgz:123883.got - 2010.06.03 13:09:07.
