data_PCOD9178409
_publ_section_title
;
Structure prediction by ZEFSAII (Michael W. Deem and Ramdas Pophale) SiO2 
 PCOD9178409
Probable space group: C 2/M
;
_chemical_formula_sum "Si O2"
_cell_formula_units_Z 64
_cell_length_a 20.599216
_cell_length_b 7.546404
_cell_length_c 23.937382
_cell_angle_alpha 90.000000
_cell_angle_beta 135.163508
_cell_angle_gamma 90.000000
_cell_volume 2623.671653
_symmetry_space_group_name_H-M "C 2/M"
_symmetry_group_IT_number 12
_symmetry_cell_setting 'monoclinic'
loop_
_space_group_symop_operation_xyz
x,y,z
-x,y,-z
-x,-y,-z
x,-y,z
1/2+x,1/2+y,z
1/2-x,1/2+y,-z
1/2-x,1/2-y,-z
1/2+x,1/2-y,z
loop_
_atom_site_type_symbol
_atom_site_label
_atom_site_fract_x
_atom_site_fract_y
_atom_site_fract_z
Si Si1 0.936684 0.707080 0.515886
Si Si2 0.270888 0.795432 0.347550
Si Si3 0.069729 0.289312 0.264868
Si Si4 0.121529 0.794679 0.911268
Si Si5 0.811488 0.791540 0.809648
Si Si6 0.784712 0.203543 0.139497
Si Si7 0.011470 0.217322 0.943011
Si Si8 0.527966 0.788443 0.683136
O O1 0.920816 0.500000 0.522188
O O2 0.840252 0.785042 0.435085
O O3 0.991836 0.782271 0.602201
O O4 0.000000 0.713288 0.500000
O O5 0.166773 0.788851 0.305919
O O6 0.262966 0.718300 0.279805
O O7 0.302688 0.000000 0.360863
O O8 0.070158 0.500000 0.255044
O O9 0.051165 0.261736 0.319134
O O10 0.979600 0.212255 0.179335
O O11 0.190672 0.716155 0.906674
O O12 0.097121 0.719694 0.957661
O O13 0.146916 0.000000 0.933190
O O14 0.787820 0.778601 0.860525
O O15 0.913082 0.721209 0.858590
O O16 0.815639 0.000000 0.800387
O O17 0.879675 0.212601 0.233067
O O18 0.761470 0.000000 0.116828
O O19 0.015051 0.000000 0.944230
O O20 0.000000 0.271172 0.000000
O O21 0.547742 0.000000 0.690402
#
# Coordination Sequence:
#
# PCOD9178409 Si02
#       8
#     8   8   8   8   8   8   8   8
#     4   9  17  30  49  69  91 126 172 217 255 296
#     4  10  19  32  52  74  96 130 174 214 253 302
#     4  10  19  30  48  74 102 132 165 209 258 300
#     4   9  17  34  55  76 103 135 173 207 247 303
#     4  10  19  33  54  78 103 132 171 215 252 301
#     4  10  20  32  52  78 105 138 171 211 255 300
#     4   9  17  32  57  83 102 128 171 216 251 292
#     4   9  18  33  50  71 100 133 173 213 253 301
#
# _framework density 24.393297
#
# number of rings (size 3 to 8) (size 9 to 14) (size 15 to 20)
#    0.000    2.500    1.250    1.500    0.000    4.000 
#    0.000    1.250    0.000    3.000    0.000    0.000 
#    0.000    0.000    0.000    0.000    0.000    0.000 
#
# Total GULP energy -178652.973496 kJ/mol
# GULP energy per Si atom -5582.905422 kJ/mol
# Density = 2.433778 g / cm^3
# Si number density = 24.393297 Si / 1000 Ang^3
#
#
#
# Elastic Constant Matrix: (Units=GPa)
#
#
# Indices 1 2 3 4 5 6 
#
# 1 133.3435 9.1979 33.0716 0.0000 -13.9936 0.0000
# 2 9.1979 65.2674 21.8410 -0.0002 -6.2788 0.0002
# 3 33.0716 21.8410 110.8822 0.0000 -15.2760 0.0000
# 4 0.0000 -0.0002 0.0000 36.2553 0.0000 -13.1381
# 5 -13.9936 -6.2788 -15.2760 0.0000 46.3213 0.0000
# 6 0.0000 0.0002 0.0000 -13.1381 0.0000 26.1092
#
#
#
# Elastic Compliance Matrix: (Units=1/GPa)
#
#
# Indices 1 2 3 4 5 6 
#
# 1 0.008237 -0.000269 -0.002164 0.000000 0.001738 0.000000
# 2 -0.000269 0.016477 -0.003005 0.000000 0.001161 0.000000
# 3 -0.002164 -0.003005 0.010591 0.000000 0.002432 0.000000
# 4 0.000000 0.000000 0.000000 0.033733 0.000000 0.016975
# 5 0.001738 0.001161 0.002432 0.000000 0.023073 0.000000
# 6 0.000000 0.000000 0.000000 0.016975 0.000000 0.046842
#
#
# Mechanical properties :
#
#
# Convention : Reuss Voigt Hill
#
# Bulk Modulus (GPa) = 40.93774 48.63491 44.78632
# Shear Modulus (GPa) = 31.65083 38.09600 34.87341
#
# Velocity S-wave (km/s) = 3.60602 3.95617 3.78515
# Velocity P-wave (km/s) = 5.84437 6.39136 6.12398
#
# Compressibility (1/GPa) = 0.02442734
#
# Stress axis : x y z
#
# Youngs Moduli (GPa) = 121.40037 60.69096 94.41928
#
# Poissons Ratio (x) = 0.01635 0.20435
# Poissons Ratio (y) = 0.03270 0.28375
# Poissons Ratio (z) = 0.26275 0.18239
#
# Static dielectric constant tensor:
#      x y z
#    x 1.944670 0.000000 -0.029270 
#    y 0.000000 1.942300 0.000000 
#    z -0.029270 0.000000 2.025390 
# 
# From -- ./inp_files/346278.got.cif
#   From: 2010.05.17/outbox.cif.g08.bks.cpg/sg12_174_cif.got.tgz:346278.got - 2010.06.03 13:09:07.
