data_PCOD9178696
_publ_section_title
;
Structure prediction by ZEFSAII (Michael W. Deem and Ramdas Pophale) SiO2 
 PCOD9178696
Probable space group: C 2/M
;
_chemical_formula_sum "Si O2"
_cell_formula_units_Z 58
_cell_length_a 19.675646
_cell_length_b 7.453497
_cell_length_c 20.867823
_cell_angle_alpha 90.000000
_cell_angle_beta 111.389858
_cell_angle_gamma 90.000000
_cell_volume 2849.522313
_symmetry_space_group_name_H-M "C 2/M"
_symmetry_group_IT_number 12
_symmetry_cell_setting 'monoclinic'
loop_
_space_group_symop_operation_xyz
x,y,z
-x,y,-z
-x,-y,-z
x,-y,z
1/2+x,1/2+y,z
1/2-x,1/2+y,-z
1/2-x,1/2-y,-z
1/2+x,1/2-y,z
loop_
_atom_site_type_symbol
_atom_site_label
_atom_site_fract_x
_atom_site_fract_y
_atom_site_fract_z
Si Si1 0.470016 0.207478 0.923948
Si Si2 0.014295 0.281005 0.798844
Si Si3 0.850564 0.281907 0.239484
Si Si4 0.188966 0.793452 0.167017
Si Si5 0.594868 0.290006 0.597978
Si Si6 0.736389 0.286340 0.569225
Si Si7 0.500000 0.000000 0.500000
Si Si8 0.359349 0.782288 0.706244
O O1 0.499809 0.282774 0.866622
O O2 0.381979 0.211014 0.890948
O O3 0.493760 0.000000 0.931677
O O4 0.500000 0.288964 0.000000
O O5 0.014550 0.500000 0.800603
O O6 0.087896 0.224352 0.789681
O O7 0.943615 0.227243 0.732843
O O8 0.847962 0.500000 0.239994
O O9 0.770497 0.217719 0.190186
O O10 0.873155 0.224746 0.318962
O O11 0.171358 0.780832 0.236401
O O12 0.190723 0.000000 0.147138
O O13 0.578416 0.500000 0.580364
O O14 0.659584 0.223671 0.572019
O O15 0.528276 0.158323 0.560272
O O16 0.734544 0.500000 0.577934
O O17 0.750000 0.250000 0.500000
O O18 0.805284 0.216930 0.633016
O O19 0.358292 0.000000 0.706533
#
# Coordination Sequence:
#
# PCOD9178696 Si02
#       8
#     8   8   8   8   8   8   2   8
#     4   9  18  35  58  83 113 151 194 238 288 348
#     4   8  16  31  55  83 108 145 195 238 284 349
#     4  10  19  35  57  85 115 154 197 244 300 355
#     4  10  19  30  54  82 111 149 188 229 286 351
#     4  11  24  42  62  88 117 160 209 257 309 375
#     4  10  22  36  56  85 115 147 195 252 304 363
#     4  12  26  44  64  82 124 168 202 254 324 386
#     4   9  17  34  55  76 104 141 188 236 284 340
#
# _framework density 20.354288
#
# number of rings (size 3 to 8) (size 9 to 14) (size 15 to 20)
#    0.000    2.345    2.069    1.448    0.966    2.483 
#    2.483    3.448    0.000    0.000    0.000    0.000 
#    0.000    0.000    0.000    0.000    0.000    0.000 
#
# Total GULP energy -161522.062027 kJ/mol
# GULP energy per Si atom -5569.726277 kJ/mol
# Density = 2.030796 g / cm^3
# Si number density = 20.354288 Si / 1000 Ang^3
#
#
#
# Elastic Constant Matrix: (Units=GPa)
#
#
# Indices 1 2 3 4 5 6 
#
# 1 83.6802 8.5507 1.1532 0.0000 2.2858 0.0000
# 2 8.5507 83.7933 12.8002 0.0000 1.2527 0.0000
# 3 1.1532 12.8002 85.6025 0.0000 12.4124 0.0000
# 4 0.0000 0.0000 0.0000 10.9443 0.0000 2.3222
# 5 2.2858 1.2527 12.4124 0.0000 19.9290 0.0000
# 6 0.0000 0.0000 0.0000 2.3222 0.0000 2.3768
#
#
#
# Elastic Compliance Matrix: (Units=1/GPa)
#
#
# Indices 1 2 3 4 5 6 
#
# 1 0.012115 -0.001250 0.000235 0.000000 -0.001457 0.000000
# 2 -0.001250 0.012345 -0.001910 0.000000 0.000557 0.000000
# 3 0.000235 -0.001910 0.013137 0.000000 -0.008089 0.000000
# 4 0.000000 0.000000 0.000000 0.115268 0.000000 -0.112619
# 5 -0.001457 0.000557 -0.008089 0.000000 0.055349 0.000000
# 6 0.000000 0.000000 0.000000 -0.112619 0.000000 0.530759
#
#
# Mechanical properties :
#
#
# Convention : Reuss Voigt Hill
#
# Bulk Modulus (GPa) = 31.49935 33.12045 32.30990
# Shear Modulus (GPa) = 6.61897 22.02149 14.32023
#
# Velocity S-wave (km/s) = 1.80525 3.29281 2.65533
# Velocity P-wave (km/s) = 4.45583 5.54654 5.03083
#
# Compressibility (1/GPa) = 0.03174668
#
# Stress axis : x y z
#
# Youngs Moduli (GPa) = 82.54509 81.00346 76.11931
#
# Poissons Ratio (x) = 0.10128 -0.01789
# Poissons Ratio (y) = 0.10321 0.14538
# Poissons Ratio (z) = -0.01941 0.15471
#
# Static dielectric constant tensor:
#      x y z
#    x 1.896190 0.000000 -0.163820 
#    y 0.000000 1.756350 0.000000 
#    z -0.163820 0.000000 1.924180 
# 
# From -- ./inp_files/314335.got.cif
#   From: 2010.05.17/outbox.cif.g08.bks.cpg/sg12_158_cif.got.tgz:314335.got - 2010.06.03 13:09:07.
