data_PCOD9178209
_publ_section_title
;
Structure prediction by ZEFSAII (Michael W. Deem and Ramdas Pophale) SiO2 
 PCOD9178209
Probable space group: C 2/M
;
_chemical_formula_sum "Si O2"
_cell_formula_units_Z 56
_cell_length_a 25.762368
_cell_length_b 7.301464
_cell_length_c 13.135017
_cell_angle_alpha 90.000000
_cell_angle_beta 83.469686
_cell_angle_gamma 90.000000
_cell_volume 2454.705563
_symmetry_space_group_name_H-M "C 2/M"
_symmetry_group_IT_number 12
_symmetry_cell_setting 'monoclinic'
loop_
_space_group_symop_operation_xyz
x,y,z
-x,y,-z
-x,-y,-z
x,-y,z
1/2+x,1/2+y,z
1/2-x,1/2+y,-z
1/2-x,1/2-y,-z
1/2+x,1/2-y,z
loop_
_atom_site_type_symbol
_atom_site_label
_atom_site_fract_x
_atom_site_fract_y
_atom_site_fract_z
Si Si1 0.443822 0.277492 0.209177
Si Si2 0.128686 0.210730 0.396919
Si Si3 0.788049 0.782543 0.085490
Si Si4 0.941096 0.223785 0.773355
Si Si5 0.354411 0.276207 0.384002
Si Si6 0.247163 0.278349 0.312775
Si Si7 0.095957 0.776481 0.995415
O O1 0.443073 0.500000 0.209257
O O2 0.498383 0.221924 0.246796
O O3 0.393324 0.219953 0.284976
O O4 0.439812 0.221504 0.092079
O O5 0.094508 0.288550 0.312231
O O6 0.125463 0.289093 0.511151
O O7 0.189811 0.213586 0.354556
O O8 0.111520 0.000000 0.410210
O O9 0.763419 0.715076 0.196103
O O10 0.794056 0.000000 0.098591
O O11 0.750000 0.750000 0.000000
O O12 0.845632 0.714729 0.045629
O O13 0.920310 0.283213 0.888661
O O14 0.939009 0.000000 0.774396
O O15 0.354075 0.500000 0.384804
O O16 0.294747 0.220959 0.375304
O O17 0.244984 0.500000 0.314337
O O18 0.095257 0.000000 0.998046
#
# Coordination Sequence:
#
# PCOD9178209 Si02
#       7
#     8   8   8   8   8   8   8
#     4   9  15  26  44  66  93 126 159 193 235 287
#     4  10  20  32  47  72 102 126 154 203 250 279
#     4  10  19  30  47  70  98 129 158 193 236 282
#     4   9  17  26  41  68  98 124 153 193 244 287
#     4   9  17  30  47  67  94 127 163 198 237 283
#     4  10  19  33  50  69  94 130 170 196 227 287
#     4   9  15  26  42  63  93 125 156 191 233 284
#
# _framework density 22.813327000000001
#
# number of rings (size 3 to 8) (size 9 to 14) (size 15 to 20)
#    0.000    2.571    1.429    1.714    0.000    4.000 
#    0.000    2.857    0.000    0.000    0.000    4.000 
#    0.000    4.571    0.000    0.000    0.000    0.000 
#
# Total GULP energy -156483.696306 kJ/mol
# GULP energy per Si atom -5588.703439 kJ/mol
# Density = 2.276140 g / cm^3
# Si number density = 22.813327 Si / 1000 Ang^3
#
#
#
# Elastic Constant Matrix: (Units=GPa)
#
#
# Indices 1 2 3 4 5 6 
#
# 1 99.8835 -9.3844 55.7459 0.0000 32.3610 0.0000
# 2 -9.3844 92.4865 -4.9303 0.0000 3.8680 0.0000
# 3 55.7459 -4.9303 128.9150 0.0000 47.3251 0.0000
# 4 0.0000 0.0000 0.0000 -5.3141 0.0000 -3.0272
# 5 32.3610 3.8680 47.3251 0.0000 36.5351 0.0000
# 6 0.0000 0.0000 0.0000 -3.0272 0.0000 3.7895
#
#
#
# Elastic Compliance Matrix: (Units=1/GPa)
#
#
# Indices 1 2 3 4 5 6 
#
# 1 0.014901 0.001772 -0.002787 0.000000 -0.009776 0.000000
# 2 0.001772 0.011246 0.001291 0.000000 -0.004433 0.000000
# 3 -0.002787 0.001291 0.015550 0.000000 -0.017810 0.000000
# 4 0.000000 0.000000 0.000000 -0.129328 0.000000 -0.103312
# 5 -0.009776 -0.004433 -0.017810 0.000000 0.059570 0.000000
# 6 0.000000 0.000000 0.000000 -0.103312 0.000000 0.181360
#
#
# Mechanical properties :
#
#
# Convention : Reuss Voigt Hill
#
# Bulk Modulus (GPa) = 23.66865 44.90527 34.28696
# Shear Modulus (GPa) = 29.97068 25.65901 27.81485
#
# Velocity S-wave (km/s) = 3.62848 3.35735 3.49555
# Velocity P-wave (km/s) = 5.28696 5.89539 5.59944
#
# Compressibility (1/GPa) = 0.04224998
#
# Stress axis : x y z
#
# Youngs Moduli (GPa) = 67.10999 88.91717 64.30970
#
# Poissons Ratio (x) = -0.15758 0.17922
# Poissons Ratio (y) = -0.11894 -0.08302
# Poissons Ratio (z) = 0.18702 -0.11479
#
# Static dielectric constant tensor:
#      x y z
#    x 1.784510 0.000000 0.003360 
#    y 0.000000 1.867100 0.000000 
#    z 0.003360 0.000000 1.801030 
# 
# From -- ./inp_files/164834.got.cif
#   From: 2010.05.17/outbox.cif.g08.bks.cpg/sg12_83_cif.got.tgz:164834.got - 2010.06.03 13:09:07.
