data_PCOD9178317
_publ_section_title
;
Structure prediction by ZEFSAII (Michael W. Deem and Ramdas Pophale) SiO2 
 PCOD9178317
Probable space group: C 2/M
;
_chemical_formula_sum "Si O2"
_cell_formula_units_Z 48
_cell_length_a 24.168864
_cell_length_b 7.565288
_cell_length_c 12.973905
_cell_angle_alpha 90.000000
_cell_angle_beta 90.082790
_cell_angle_gamma 90.000000
_cell_volume 2372.203617
_symmetry_space_group_name_H-M "C 2/M"
_symmetry_group_IT_number 12
_symmetry_cell_setting 'monoclinic'
loop_
_space_group_symop_operation_xyz
x,y,z
-x,y,-z
-x,-y,-z
x,-y,z
1/2+x,1/2+y,z
1/2-x,1/2+y,-z
1/2-x,1/2-y,-z
1/2+x,1/2-y,z
loop_
_atom_site_type_symbol
_atom_site_label
_atom_site_fract_x
_atom_site_fract_y
_atom_site_fract_z
Si Si1 0.817599 0.292088 0.914066
Si Si2 0.998362 0.784164 0.619982
Si Si3 0.186339 0.788574 0.477411
Si Si4 0.382463 0.286419 0.715422
Si Si5 0.618958 0.283264 0.677563
Si Si6 0.802778 0.204349 0.141312
O O1 0.809580 0.500000 0.932634
O O2 0.864340 0.267547 0.829146
O O3 0.759182 0.218589 0.869219
O O4 0.827601 0.211888 0.026448
O O5 0.942520 0.726070 0.676539
O O6 0.000000 0.729924 0.500000
O O7 0.055114 0.727928 0.674727
O O8 0.997330 0.000000 0.619253
O O9 0.250000 0.750000 0.500000
O O10 0.162939 0.722825 0.368317
O O11 0.148467 0.726193 0.571853
O O12 0.180448 0.000000 0.475142
O O13 0.382790 0.500000 0.714097
O O14 0.618334 0.500000 0.678792
O O15 0.655914 0.220163 0.773474
O O16 0.794813 0.000000 0.171571
#
# Coordination Sequence:
#
# PCOD9178317 Si02
#       6
#     8   8   8   8   8   8
#     4  10  20  34  52  73 101 135 166 204 253 300
#     4   9  15  28  50  76 101 129 166 207 247 287
#     4  10  19  30  47  74 105 132 159 198 248 299
#     4  10  19  31  51  77 102 130 167 206 245 295
#     4   9  16  29  50  74 100 128 163 207 251 290
#     4   9  18  33  53  75  98 129 169 209 248 294
#
# _framework density 20.234351
#
# number of rings (size 3 to 8) (size 9 to 14) (size 15 to 20)
#    0.000    2.500    1.667    1.500    0.000    2.667 
#    0.000    1.667    0.000    7.500    0.000    0.000 
#    0.000    0.000    0.000    0.000    0.000    0.000 
#
# Total GULP energy -133960.196350 kJ/mol
# GULP energy per Si atom -5581.674848 kJ/mol
# Density = 2.018830 g / cm^3
# Si number density = 20.234351 Si / 1000 Ang^3
#
#
#
# Elastic Constant Matrix: (Units=GPa)
#
#
# Indices 1 2 3 4 5 6 
#
# 1 69.4781 -4.5906 11.5479 0.0000 -18.5285 0.0000
# 2 -4.5906 45.9417 -9.0971 0.0000 4.8302 0.0000
# 3 11.5479 -9.0971 68.2060 0.0000 -13.3083 0.0000
# 4 0.0000 0.0000 0.0000 4.9375 0.0000 4.9854
# 5 -18.5285 4.8302 -13.3083 0.0000 36.5750 0.0000
# 6 0.0000 0.0000 0.0000 4.9854 0.0000 2.4335
#
#
#
# Elastic Compliance Matrix: (Units=1/GPa)
#
#
# Indices 1 2 3 4 5 6 
#
# 1 0.016759 0.000598 -0.001202 0.000000 0.007973 0.000000
# 2 0.000598 0.022517 0.002563 0.000000 -0.001738 0.000000
# 3 -0.001202 0.002563 0.016170 0.000000 0.004936 0.000000
# 4 0.000000 0.000000 0.000000 -0.189541 0.000000 0.388306
# 5 0.007973 -0.001738 0.004936 0.000000 0.033406 0.000000
# 6 0.000000 0.000000 0.000000 0.388306 0.000000 -0.384577
#
#
# Mechanical properties :
#
#
# Convention : Reuss Voigt Hill
#
# Bulk Modulus (GPa) = 16.84530 19.92737 18.38634
# Shear Modulus (GPa) = -10.65196 21.17358 5.26081
#
# Velocity S-wave (km/s) = -2.29689 3.23835 1.61418
# Velocity P-wave (km/s) = 1.14406 4.88387 3.54691
#
# Compressibility (1/GPa) = 0.05936373
#
# Stress axis : x y z
#
# Youngs Moduli (GPa) = 59.67063 44.41147 61.84316
#
# Poissons Ratio (x) = -0.02657 0.07433
# Poissons Ratio (y) = -0.03570 -0.15849
# Poissons Ratio (z) = 0.07171 -0.11382
#
# Static dielectric constant tensor:
#      x y z
#    x 1.710920 0.000000 0.016140 
#    y 0.000000 1.790910 0.000000 
#    z 0.016140 0.000000 1.692210 
# 
# From -- ./inp_files/172021.got.cif
#   From: 2010.05.17/outbox.cif.g08.bks.cpg/sg12_87_cif.got.tgz:172021.got - 2010.06.03 13:09:07.
