data_PCOD9178134
_publ_section_title
;
Structure prediction by ZEFSAII (Michael W. Deem and Ramdas Pophale) SiO2 
 PCOD9178134
Probable space group: C 2/M
;
_chemical_formula_sum "Si O2"
_cell_formula_units_Z 44
_cell_length_a 5.178189
_cell_length_b 19.412626
_cell_length_c 29.534969
_cell_angle_alpha 90.000000
_cell_angle_beta 125.898110
_cell_angle_gamma 90.000000
_cell_volume 2405.007412
_symmetry_space_group_name_H-M "C 2/M"
_symmetry_group_IT_number 12
_symmetry_cell_setting 'monoclinic'
loop_
_space_group_symop_operation_xyz
x,y,z
-x,y,-z
-x,-y,-z
x,-y,z
1/2+x,1/2+y,z
1/2-x,1/2+y,-z
1/2-x,1/2-y,-z
1/2+x,1/2-y,z
loop_
_atom_site_type_symbol
_atom_site_label
_atom_site_fract_x
_atom_site_fract_y
_atom_site_fract_z
Si Si1 0.301756 0.201745 0.742725
Si Si2 0.509933 0.220592 0.937640
Si Si3 0.189089 0.795795 0.381834
Si Si4 0.743877 0.923832 0.097508
Si Si5 0.000000 0.299326 0.500000
Si Si6 0.492202 0.922257 0.172177
O O1 0.592884 0.242902 0.749566
O O2 0.413310 0.138782 0.784920
O O3 0.065856 0.173152 0.679016
O O4 0.182189 0.262025 0.908628
O O5 0.451053 0.140955 0.940374
O O6 0.750000 0.250000 0.000000
O O7 0.487261 0.767984 0.383053
O O8 0.318605 0.835773 0.439536
O O9 0.694424 0.918935 0.146653
O O10 0.114079 0.916426 0.122827
O O11 0.632464 0.000000 0.071980
O O12 0.250000 0.250000 0.500000
O O13 0.535686 0.000000 0.195571
#
# Coordination Sequence:
#
# PCOD9178134 Si02
#       6
#     8   8   8   8   4   8
#     4  10  19  30  46  71  98 125 159 201 243 283
#     4  10  21  37  55  79 104 126 156 195 235 276
#     4   8  14  23  36  57  86 116 151 192 235 279
#     4  10  21  37  55  74  99 130 162 193 229 282
#     4   8  12  20  34  52  79 116 149 186 234 278
#     4  10  21  35  51  73 100 131 163 194 235 286
#
# _framework density 18.295162999999999
#
# number of rings (size 3 to 8) (size 9 to 14) (size 15 to 20)
#    0.000    2.545    0.000    2.182    0.000    4.364 
#    0.000    3.636    0.000    0.000    0.000    0.636 
#    0.000    0.000    0.000   48.909    0.000    1.818 
#
# Total GULP energy -122523.871709 kJ/mol
# GULP energy per Si atom -5569.266896 kJ/mol
# Density = 1.825352 g / cm^3
# Si number density = 18.295163 Si / 1000 Ang^3
#
#
#
# Elastic Constant Matrix: (Units=GPa)
#
#
# Indices 1 2 3 4 5 6 
#
# 1 99.2751 -7.3862 -12.8145 0.0000 -0.4348 0.0000
# 2 -7.3862 89.7964 42.0808 0.0000 6.6301 0.0000
# 3 -12.8145 42.0808 58.0358 0.0000 -3.8237 0.0000
# 4 0.0000 0.0000 0.0000 -1.0118 0.0000 -0.7784
# 5 -0.4348 6.6301 -3.8237 0.0000 17.0258 0.0000
# 6 0.0000 0.0000 0.0000 -0.7784 0.0000 19.8323
#
#
#
# Elastic Compliance Matrix: (Units=1/GPa)
#
#
# Indices 1 2 3 4 5 6 
#
# 1 0.010393 -0.000505 0.002731 0.000000 0.001075 0.000000
# 2 -0.000505 0.018538 -0.014240 0.000000 -0.010430 0.000000
# 3 0.002731 -0.014240 0.028958 0.000000 0.012119 0.000000
# 4 0.000000 0.000000 0.000000 -0.959372 0.000000 -0.037652
# 5 0.001075 -0.010430 0.012119 0.000000 0.065545 0.000000
# 6 0.000000 0.000000 0.000000 -0.037652 0.000000 0.048945
#
#
# Mechanical properties :
#
#
# Convention : Reuss Voigt Hill
#
# Bulk Modulus (GPa) = 29.53180 32.31863 30.92522
# Shear Modulus (GPa) = -6.65178 22.18440 7.76631
#
# Velocity S-wave (km/s) = -1.90885 3.48599 2.06258
# Velocity P-wave (km/s) = 3.36432 5.82292 4.75526
#
# Compressibility (1/GPa) = 0.03386180
#
# Stress axis : x y z
#
# Youngs Moduli (GPa) = 96.22077 53.94221 34.53290
#
# Poissons Ratio (x) = 0.02722 -0.09433
# Poissons Ratio (y) = 0.04855 0.49177
# Poissons Ratio (z) = -0.26282 0.76816
#
# Static dielectric constant tensor:
#      x y z
#    x 1.704830 0.000000 -0.003310 
#    y 0.000000 1.608710 0.000000 
#    z -0.003310 0.000000 1.659170 
# 
# From -- ./inp_files/330975.got.cif
#   From: 2010.05.17/outbox.cif.g08.bks.cpg/sg12_166_cif.got.tgz:330975.got - 2010.06.03 13:09:07.
