data_PCOD9178737
_publ_section_title
;
Structure prediction by ZEFSAII (Michael W. Deem and Ramdas Pophale) SiO2 
 PCOD9178737
Probable space group: C 2/M
;
_chemical_formula_sum "Si O2"
_cell_formula_units_Z 64
_cell_length_a 30.886471
_cell_length_b 8.626859
_cell_length_c 31.879859
_cell_angle_alpha 90.000000
_cell_angle_beta 28.705033
_cell_angle_gamma 90.000000
_cell_volume 4079.908866
_symmetry_space_group_name_H-M "C 2/M"
_symmetry_group_IT_number 12
_symmetry_cell_setting 'monoclinic'
loop_
_space_group_symop_operation_xyz
x,y,z
-x,y,-z
-x,-y,-z
x,-y,z
1/2+x,1/2+y,z
1/2-x,1/2+y,-z
1/2-x,1/2-y,-z
1/2+x,1/2-y,z
loop_
_atom_site_type_symbol
_atom_site_label
_atom_site_fract_x
_atom_site_fract_y
_atom_site_fract_z
Si Si1 0.525731 0.312818 0.575809
Si Si2 0.833579 0.685347 0.374496
Si Si3 0.981711 0.188384 0.082125
Si Si4 0.634721 0.185516 0.558252
Si Si5 0.833574 0.813062 0.703769
Si Si6 0.855030 0.812841 0.111961
Si Si7 0.686530 0.687571 0.376205
Si Si8 0.625704 0.685757 0.747278
O O1 0.525499 0.500000 0.577808
O O2 0.558191 0.248494 0.592721
O O3 0.427044 0.260337 0.645089
O O4 0.601197 0.267915 0.477287
O O5 0.829831 0.500000 0.375333
O O6 0.731125 0.748275 0.461287
O O7 0.874319 0.730239 0.385108
O O8 0.884233 0.749698 0.290993
O O9 0.907289 0.233565 0.110435
O O10 0.948947 0.239673 0.155563
O O11 0.982526 0.000000 0.081462
O O12 0.078980 0.237527 0.981923
O O13 0.638315 0.000000 0.552737
O O14 0.744613 0.754030 0.802645
O O15 0.827727 0.764604 0.659915
O O16 0.833638 0.000000 0.704018
O O17 0.850382 0.000000 0.115646
O O18 0.694169 0.500000 0.371078
O O19 0.777689 0.758805 0.317176
O O20 0.625122 0.500000 0.746399
#
# Coordination Sequence:
#
# PCOD9178737 Si02
#       8
#     8   8   8   8   8   8   8   8
#     4  10  20  33  48  65  94 132 163 194 235 275
#     4  10  20  33  48  68  96 125 151 188 242 286
#     4   8  16  29  47  68  93 122 155 193 238 281
#     4  10  20  33  49  69  92 121 160 198 228 273
#     4  10  20  32  46  68  96 128 164 197 231 275
#     4   9  16  31  49  65  90 126 159 193 235 278
#     4  10  19  31  45  64  95 132 163 190 226 274
#     4  11  19  29  48  73  96 122 158 196 230 275
#
# _framework density 15.686624999999999
#
# number of rings (size 3 to 8) (size 9 to 14) (size 15 to 20)
#    0.000    2.250    2.500    2.250    0.000    3.500 
#    0.000    2.500    0.000    2.250    0.000    0.875 
#    0.000    0.000    0.000    0.000    0.000    0.000 
#
# Total GULP energy -178465.831238 kJ/mol
# GULP energy per Si atom -5577.057226 kJ/mol
# Density = 1.565092 g / cm^3
# Si number density = 15.686625 Si / 1000 Ang^3
#
#
#
# Elastic Constant Matrix: (Units=GPa)
#
#
# Indices 1 2 3 4 5 6 
#
# 1 98.5379 21.4738 69.9612 -0.0062 12.7113 -0.0047
# 2 21.4738 14.1180 22.3798 -0.0107 3.9235 0.0021
# 3 69.9612 22.3798 129.0180 -0.0152 17.1355 0.0072
# 4 -0.0062 -0.0107 -0.0152 22.3324 0.0094 0.1241
# 5 12.7113 3.9235 17.1355 0.0094 26.1631 0.0018
# 6 -0.0047 0.0021 0.0072 0.1241 0.0018 22.7894
#
#
#
# Elastic Compliance Matrix: (Units=1/GPa)
#
#
# Indices 1 2 3 4 5 6 
#
# 1 0.019302 -0.017417 -0.007171 -0.000007 -0.002070 0.000008
# 2 -0.017417 0.113774 -0.010021 0.000044 -0.002037 -0.000011
# 3 -0.007171 -0.010021 0.013927 0.000004 -0.004135 -0.000005
# 4 -0.000007 0.000044 0.000004 0.044779 -0.000022 -0.000244
# 5 -0.002070 -0.002037 -0.004135 -0.000022 0.042241 -0.000002
# 6 0.000008 -0.000011 -0.000005 -0.000244 -0.000002 0.043881
#
#
# Mechanical properties :
#
#
# Convention : Reuss Voigt Hill
#
# Bulk Modulus (GPa) = 12.85571 52.14482 32.50026
# Shear Modulus (GPa) = 13.40307 22.78092 18.09200
#
# Velocity S-wave (km/s) = 2.92623 3.81498 3.39977
# Velocity P-wave (km/s) = 4.43060 7.26079 6.01454
#
# Compressibility (1/GPa) = 0.07778647
#
# Stress axis : x y z
#
# Youngs Moduli (GPa) = 51.80810 8.78936 71.80535
#
# Poissons Ratio (x) = 0.15308 0.51489
# Poissons Ratio (y) = 0.90233 0.71953
# Poissons Ratio (z) = 0.37150 0.08807
#
# Static dielectric constant tensor:
#      x y z
#    x 1.515280 0.000000 0.022720 
#    y 0.000000 1.535040 0.000000 
#    z 0.022720 0.000000 1.521910 
# 
# From -- ./inp_files/248261.got.cif
#   From: 2010.05.17/outbox.cif.g08.bks.cpg/sg12_125_cif.got.tgz:248261.got - 2010.06.03 13:09:07.
