data_PCOD9178399
_publ_section_title
;
Structure prediction by ZEFSAII (Michael W. Deem and Ramdas Pophale) SiO2 
 PCOD9178399
Probable space group: C 2/M
;
_chemical_formula_sum "Si O2"
_cell_formula_units_Z 56
_cell_length_a 33.141556
_cell_length_b 8.233192
_cell_length_c 19.704537
_cell_angle_alpha 90.000000
_cell_angle_beta 146.906171
_cell_angle_gamma 90.000000
_cell_volume 2935.684279
_symmetry_space_group_name_H-M "C 2/M"
_symmetry_group_IT_number 12
_symmetry_cell_setting 'monoclinic'
loop_
_space_group_symop_operation_xyz
x,y,z
-x,y,-z
-x,-y,-z
x,-y,z
1/2+x,1/2+y,z
1/2-x,1/2+y,-z
1/2-x,1/2-y,-z
1/2+x,1/2-y,z
loop_
_atom_site_type_symbol
_atom_site_label
_atom_site_fract_x
_atom_site_fract_y
_atom_site_fract_z
Si Si1 0.167167 0.805428 0.594873
Si Si2 0.416573 0.303206 0.385867
Si Si3 0.322837 0.189753 0.532641
Si Si4 0.431735 0.315687 0.945511
Si Si5 0.185445 0.304911 0.119861
Si Si6 0.339693 0.813754 0.701234
Si Si7 0.230313 0.196596 0.896332
O O1 0.114057 0.769755 0.582491
O O2 0.141734 0.723477 0.489771
O O3 0.248690 0.753133 0.735664
O O4 0.169493 0.000000 0.588251
O O5 0.500000 0.240116 0.500000
O O6 0.419594 0.500000 0.382171
O O7 0.351968 0.247756 0.243202
O O8 0.367198 0.226056 0.663994
O O9 0.248520 0.295970 0.427019
O O10 0.302621 0.000000 0.509512
O O11 0.453152 0.500000 0.991515
O O12 0.392742 0.245202 0.957729
O O13 0.369585 0.304650 0.799936
O O14 0.500000 0.235757 0.000000
O O15 0.187092 0.500000 0.121174
O O16 0.211854 0.250077 0.081804
O O17 0.858071 0.500000 0.745209
O O18 0.230225 0.000000 0.894599
O O19 0.250000 0.250000 0.000000
#
# Coordination Sequence:
#
# PCOD9178399 Si02
#       7
#     8   8   8   8   8   8   8
#     4   9  16  28  50  76  99 129 170 210 250 302
#     4   8  15  30  52  77 104 135 172 213 257 308
#     4  10  19  30  48  74 100 126 161 208 252 292
#     4  11  23  36  51  74 102 133 175 224 265 304
#     4   9  18  33  52  74 100 135 179 216 253 310
#     4  10  20  33  49  70  98 132 166 200 248 305
#     4   9  18  33  55  82 108 137 176 219 263 318
#
# _framework density 19.075621000000002
#
# number of rings (size 3 to 8) (size 9 to 14) (size 15 to 20)
#    0.000    2.571    1.429    3.000    0.000    3.429 
#    0.000    3.571    0.000    6.857    0.000    0.000 
#    0.000    0.000    0.000    0.000    0.000    0.000 
#
# Total GULP energy -155876.475108 kJ/mol
# GULP energy per Si atom -5567.016968 kJ/mol
# Density = 1.903220 g / cm^3
# Si number density = 19.075621 Si / 1000 Ang^3
#
#
#
# Elastic Constant Matrix: (Units=GPa)
#
#
# Indices 1 2 3 4 5 6 
#
# 1 142.1028 21.4179 65.3588 0.0000 -3.3877 0.0000
# 2 21.4179 20.7479 7.7681 0.0000 -3.5139 0.0000
# 3 65.3588 7.7681 50.9773 0.0000 -8.3465 0.0000
# 4 0.0000 0.0000 0.0000 16.2172 0.0000 -5.8156
# 5 -3.3877 -3.5139 -8.3465 0.0000 37.7352 0.0000
# 6 0.0000 0.0000 0.0000 -5.8156 0.0000 24.3022
#
#
#
# Elastic Compliance Matrix: (Units=1/GPa)
#
#
# Indices 1 2 3 4 5 6 
#
# 1 0.020188 -0.012376 -0.024787 0.000000 -0.004823 0.000000
# 2 -0.012376 0.059065 0.007871 0.000000 0.006130 0.000000
# 3 -0.024787 0.007871 0.051830 0.000000 0.009972 0.000000
# 4 0.000000 0.000000 0.000000 0.067451 0.000000 0.016141
# 5 -0.004823 0.006130 0.009972 0.000000 0.028844 0.000000
# 6 0.000000 0.000000 0.000000 0.016141 0.000000 0.045011
#
#
# Mechanical properties :
#
#
# Convention : Reuss Voigt Hill
#
# Bulk Modulus (GPa) = 13.79347 44.76863 29.28105
# Shear Modulus (GPa) = 14.07891 23.60314 18.84103
#
# Velocity S-wave (km/s) = 2.71967 3.52141 3.14618
# Velocity P-wave (km/s) = 4.13628 6.32880 5.34614
#
# Compressibility (1/GPa) = 0.07249809
#
# Stress axis : x y z
#
# Youngs Moduli (GPa) = 49.53364 16.93048 19.29382
#
# Poissons Ratio (x) = 0.20954 0.47824
# Poissons Ratio (y) = 0.61305 -0.15187
# Poissons Ratio (z) = 1.22781 -0.13326
#
# Static dielectric constant tensor:
#      x y z
#    x 1.727050 0.000000 0.005260 
#    y 0.000000 1.678280 0.000000 
#    z 0.005260 0.000000 1.685690 
# 
# From -- ./inp_files/295147.got.cif
#   From: 2010.05.17/outbox.cif.g08.bks.cpg/sg12_148_cif.got.tgz:295147.got - 2010.06.03 13:09:07.
