data_PCOD9178745
_publ_section_title
;
Structure prediction by ZEFSAII (Michael W. Deem and Ramdas Pophale) SiO2 
 PCOD9178745
Probable space group: C 2/M
;
_chemical_formula_sum "Si O2"
_cell_formula_units_Z 52
_cell_length_a 5.652113
_cell_length_b 22.108261
_cell_length_c 19.138260
_cell_angle_alpha 90.000000
_cell_angle_beta 106.032692
_cell_angle_gamma 90.000000
_cell_volume 2298.467535
_symmetry_space_group_name_H-M "C 2/M"
_symmetry_group_IT_number 12
_symmetry_cell_setting 'monoclinic'
loop_
_space_group_symop_operation_xyz
x,y,z
-x,y,-z
-x,-y,-z
x,-y,z
1/2+x,1/2+y,z
1/2-x,1/2+y,-z
1/2-x,1/2-y,-z
1/2+x,1/2-y,z
loop_
_atom_site_type_symbol
_atom_site_label
_atom_site_fract_x
_atom_site_fract_y
_atom_site_fract_z
Si Si1 0.955463 0.397431 0.571542
Si Si2 0.145699 0.393977 0.287137
Si Si3 0.680748 0.068774 0.137576
Si Si4 0.519993 0.228995 0.777693
Si Si5 0.630919 0.429017 0.085489
Si Si6 0.000000 0.811116 0.500000
Si Si7 0.598056 0.307961 0.362660
O O1 0.925114 0.426843 0.646141
O O2 0.719136 0.356720 0.536197
O O3 0.000000 0.429782 0.500000
O O4 0.171180 0.350213 0.604907
O O5 0.200925 0.432205 0.222981
O O6 0.959697 0.341316 0.243582
O O7 0.385030 0.355101 0.325528
O O8 0.409083 0.096432 0.101084
O O9 0.928081 0.096585 0.123592
O O10 0.673025 0.000000 0.108294
O O11 0.790597 0.258372 0.812606
O O12 0.399301 0.261807 0.700124
O O13 0.670685 0.500000 0.109089
O O14 0.500000 0.426762 0.000000
O O15 0.951013 0.775698 0.567098
#
# Coordination Sequence:
#
# PCOD9178745 Si02
#       7
#     8   8   8   8   8   4   8
#     4   9  16  30  46  65  95 137 175 220 272 314
#     4  10  20  31  48  71 105 138 177 220 256 311
#     4  10  21  34  55  84 113 144 171 201 252 305
#     4  10  19  31  45  67  96 133 169 216 259 312
#     4   9  18  35  58  85 114 138 161 198 254 321
#     4   8  16  28  44  64  91 130 169 214 280 328
#     4   9  17  30  45  66  96 134 171 222 267 322
#
# _framework density 22.623767999999998
#
# number of rings (size 3 to 8) (size 9 to 14) (size 15 to 20)
#    0.000    2.615    1.538    0.462    2.154    1.846 
#    1.385    3.077    0.000    0.462    0.000   18.308 
#    0.000   49.231    0.000    0.000    0.000    0.000 
#
# Total GULP energy -144803.377356 kJ/mol
# GULP energy per Si atom -5569.360668 kJ/mol
# Density = 2.257228 g / cm^3
# Si number density = 22.623768 Si / 1000 Ang^3
#
#
#
# Elastic Constant Matrix: (Units=GPa)
#
#
# Indices 1 2 3 4 5 6 
#
# 1 143.4365 6.9703 21.6358 0.0000 -3.4349 0.0000
# 2 6.9703 41.1980 -0.2383 0.0000 -3.8149 0.0000
# 3 21.6358 -0.2383 62.6476 0.0000 -11.8686 0.0000
# 4 0.0000 0.0000 0.0000 18.5590 0.0000 -7.1585
# 5 -3.4349 -3.8149 -11.8686 0.0000 35.0658 0.0000
# 6 0.0000 0.0000 0.0000 -7.1585 0.0000 3.8708
#
#
#
# Elastic Compliance Matrix: (Units=1/GPa)
#
#
# Indices 1 2 3 4 5 6 
#
# 1 0.007424 -0.001299 -0.002626 0.000000 -0.000303 0.000000
# 2 -0.001299 0.024771 0.001100 0.000000 0.002940 0.000000
# 3 -0.002626 0.001100 0.018002 0.000000 0.005955 0.000000
# 4 0.000000 0.000000 0.000000 0.187962 0.000000 0.347613
# 5 -0.000303 0.002940 0.005955 0.000000 0.030824 0.000000
# 6 0.000000 0.000000 0.000000 0.347613 0.000000 0.901217
#
#
# Mechanical properties :
#
#
# Convention : Reuss Voigt Hill
#
# Bulk Modulus (GPa) = 22.44878 33.77973 28.11426
# Shear Modulus (GPa) = 4.19921 26.09340 15.14631
#
# Velocity S-wave (km/s) = 1.36387 3.39980 2.59025
# Velocity P-wave (km/s) = 3.52482 5.51136 4.62598
#
# Compressibility (1/GPa) = 0.04454584
#
# Stress axis : x y z
#
# Youngs Moduli (GPa) = 134.70302 40.36904 55.55022
#
# Poissons Ratio (x) = 0.05245 0.14589
# Poissons Ratio (y) = 0.17502 -0.06110
# Poissons Ratio (z) = 0.35376 -0.04440
#
# Static dielectric constant tensor:
#      x y z
#    x 2.003620 0.000000 -0.086720 
#    y 0.000000 1.822430 0.000000 
#    z -0.086720 0.000000 1.866830 
# 
# From -- ./inp_files/253483.got.cif
#   From: 2010.05.17/outbox.cif.g08.bks.cpg/sg12_127_cif.got.tgz:253483.got - 2010.06.03 13:09:07.
