data_PCOD9178682
_publ_section_title
;
Structure prediction by ZEFSAII (Michael W. Deem and Ramdas Pophale) SiO2 
 PCOD9178682
Probable space group: C 2/M
;
_chemical_formula_sum "Si O2"
_cell_formula_units_Z 56
_cell_length_a 16.177013
_cell_length_b 22.559186
_cell_length_c 9.774986
_cell_angle_alpha 90.000000
_cell_angle_beta 130.429084
_cell_angle_gamma 90.000000
_cell_volume 2715.450819
_symmetry_space_group_name_H-M "C 2/M"
_symmetry_group_IT_number 12
_symmetry_cell_setting 'monoclinic'
loop_
_space_group_symop_operation_xyz
x,y,z
-x,y,-z
-x,-y,-z
x,-y,z
1/2+x,1/2+y,z
1/2-x,1/2+y,-z
1/2-x,1/2-y,-z
1/2+x,1/2-y,z
loop_
_atom_site_type_symbol
_atom_site_label
_atom_site_fract_x
_atom_site_fract_y
_atom_site_fract_z
Si Si1 0.186766 0.068527 0.972810
Si Si2 0.426486 0.227382 0.562092
Si Si3 0.419460 0.900240 0.700972
Si Si4 0.232695 0.271097 0.184564
Si Si5 0.121374 0.433209 0.627618
Si Si6 0.904193 0.810448 0.131437
Si Si7 0.349536 0.901373 0.922899
O O1 0.094793 0.118630 0.874720
O O2 0.246403 0.072724 0.890215
O O3 0.158433 0.000000 0.972536
O O4 0.279816 0.092050 0.179281
O O5 0.500000 0.219065 0.500000
O O6 0.418430 0.168381 0.646848
O O7 0.308820 0.250125 0.389043
O O8 0.485102 0.278642 0.710981
O O9 0.359607 0.932799 0.512971
O O10 0.366705 0.920480 0.786406
O O11 0.546625 0.913623 0.868715
O O12 0.319581 0.288897 0.158974
O O13 0.162617 0.330764 0.113119
O O14 0.151165 0.218578 0.059630
O O15 0.110315 0.500000 0.669648
O O16 0.000000 0.406351 0.500000
#
# Coordination Sequence:
#
# PCOD9178682 Si02
#       7
#     8   8   8   8   8   8   8
#     4  10  20  35  54  74 101 137 174 215 255 298
#     4  10  19  30  53  75  99 135 175 213 258 300
#     4  11  20  31  48  74 108 141 163 205 255 309
#     4   9  17  31  50  73 103 135 168 211 256 307
#     4  10  19  31  49  73  98 132 179 211 243 301
#     4   9  17  31  50  77 101 129 171 214 259 303
#     4  10  21  32  47  73 110 137 168 200 257 316
#
# _framework density 20.622724999999999
#
# number of rings (size 3 to 8) (size 9 to 14) (size 15 to 20)
#    0.000    2.143    2.857    1.286    2.000    1.143 
#    0.000    1.429    0.000   10.714    0.000    0.000 
#    0.000    4.571    0.000    0.000    0.000    1.000 
#
# Total GULP energy -155969.960370 kJ/mol
# GULP energy per Si atom -5570.355727 kJ/mol
# Density = 2.057579 g / cm^3
# Si number density = 20.622725 Si / 1000 Ang^3
#
#
#
# Elastic Constant Matrix: (Units=GPa)
#
#
# Indices 1 2 3 4 5 6 
#
# 1 8.5344 2.5844 22.9516 0.0000 -5.4266 0.0000
# 2 2.5844 114.6763 35.5943 0.0000 9.6476 0.0000
# 3 22.9516 35.5943 114.0299 0.0000 0.7547 0.0000
# 4 0.0000 0.0000 0.0000 3.5707 0.0000 8.4365
# 5 -5.4266 9.6476 0.7547 0.0000 17.5989 0.0000
# 6 0.0000 0.0000 0.0000 8.4365 0.0000 2.4556
#
#
#
# Elastic Compliance Matrix: (Units=1/GPa)
#
#
# Indices 1 2 3 4 5 6 
#
# 1 0.471652 0.007638 -0.098280 0.000000 0.145460 0.000000
# 2 0.007638 0.010273 -0.004724 0.000000 -0.003074 0.000000
# 3 -0.098280 -0.004724 0.030218 0.000000 -0.029011 0.000000
# 4 0.000000 0.000000 0.000000 -0.039349 0.000000 0.135187
# 5 0.145460 -0.003074 -0.029011 0.000000 0.104603 0.000000
# 6 0.000000 0.000000 0.000000 0.135187 0.000000 -0.057217
#
#
# Mechanical properties :
#
#
# Convention : Reuss Voigt Hill
#
# Bulk Modulus (GPa) = 3.11127 39.94459 21.52793
# Shear Modulus (GPa) = 6.11212 16.46574 11.28893
#
# Velocity S-wave (km/s) = 1.72343 2.82871 2.34220
# Velocity P-wave (km/s) = 2.33928 5.48453 4.21618
#
# Compressibility (1/GPa) = 0.32141166
#
# Stress axis : x y z
#
# Youngs Moduli (GPa) = 2.12021 97.34421 33.09339
#
# Poissons Ratio (x) = -0.74352 3.25240
# Poissons Ratio (y) = -0.01619 0.15632
# Poissons Ratio (z) = 0.20837 0.45982
#
# Static dielectric constant tensor:
#      x y z
#    x 1.799660 0.000000 -0.050180 
#    y 0.000000 1.780160 0.000000 
#    z -0.050180 0.000000 1.738120 
# 
# From -- ./inp_files/79144.got.cif
#   From: 2010.05.17/outbox.cif.g08.bks.cpg/sg12_40_cif.got.tgz:79144.got - 2010.06.03 13:09:07.
