data_PCOD9178111
_publ_section_title
;
Structure prediction by ZEFSAII (Michael W. Deem and Ramdas Pophale) SiO2 
 PCOD9178111
Probable space group: C 2/M
;
_chemical_formula_sum "Si O2"
_cell_formula_units_Z 64
_cell_length_a 19.990072
_cell_length_b 7.571259
_cell_length_c 21.050489
_cell_angle_alpha 90.000000
_cell_angle_beta 93.400064
_cell_angle_gamma 90.000000
_cell_volume 3180.383669
_symmetry_space_group_name_H-M "C 2/M"
_symmetry_group_IT_number 12
_symmetry_cell_setting 'monoclinic'
loop_
_space_group_symop_operation_xyz
x,y,z
-x,y,-z
-x,-y,-z
x,-y,z
1/2+x,1/2+y,z
1/2-x,1/2+y,-z
1/2-x,1/2-y,-z
1/2+x,1/2-y,z
loop_
_atom_site_type_symbol
_atom_site_label
_atom_site_fract_x
_atom_site_fract_y
_atom_site_fract_z
Si Si1 0.917108 0.214458 0.678351
Si Si2 0.983677 0.290217 0.429691
Si Si3 0.375293 0.784120 0.325556
Si Si4 0.765432 0.714996 0.847997
Si Si5 0.975315 0.205289 0.217646
Si Si6 0.879725 0.208457 0.109597
Si Si7 0.226492 0.206325 0.297787
Si Si8 0.175645 0.291068 0.022870
O O1 0.841315 0.281251 0.676433
O O2 0.956232 0.262214 0.616649
O O3 0.960852 0.281213 0.741134
O O4 0.916457 0.000000 0.682017
O O5 0.973708 0.500000 0.436478
O O6 0.917536 0.224754 0.389233
O O7 0.000000 0.216138 0.500000
O O8 0.415257 0.718155 0.265920
O O9 0.299008 0.720379 0.320442
O O10 0.376344 0.000000 0.322404
O O11 0.764833 0.500000 0.847773
O O12 0.691038 0.776805 0.865814
O O13 0.779807 0.778839 0.778544
O O14 0.819029 0.774394 0.904416
O O15 0.943444 0.282404 0.151378
O O16 0.991650 0.000000 0.206676
O O17 0.879069 0.000000 0.123067
O O18 0.875710 0.226660 0.033411
O O19 0.228641 0.000000 0.315454
O O20 0.167582 0.500000 0.024853
O O21 0.250000 0.250000 0.000000
#
# Coordination Sequence:
#
# PCOD9178111 Si02
#       8
#     8   8   8   8   8   8   8   8
#     4   9  19  33  49  71  98 125 153 188 232 279
#     4   9  18  34  54  73  95 125 158 189 224 270
#     4   9  17  29  47  71  95 120 154 193 230 270
#     4   9  17  28  42  63  91 121 154 190 233 279
#     4   9  16  29  47  66  91 121 155 195 235 276
#     4   9  16  26  42  65  89 115 153 198 238 275
#     4  10  19  30  46  70  97 123 152 191 236 278
#     4   9  17  27  39  60  90 121 154 194 237 280
#
# _framework density 20.123359000000001
#
# number of rings (size 3 to 8) (size 9 to 14) (size 15 to 20)
#    0.000    2.875    1.250    1.125    0.000    3.750 
#    0.000    0.625    0.000    0.750    0.000    5.250 
#    0.000    0.000    0.000    0.000    0.000    0.000 
#
# Total GULP energy -178299.985670 kJ/mol
# GULP energy per Si atom -5571.874552 kJ/mol
# Density = 2.007756 g / cm^3
# Si number density = 20.123359 Si / 1000 Ang^3
#
#
#
# Elastic Constant Matrix: (Units=GPa)
#
#
# Indices 1 2 3 4 5 6 
#
# 1 94.1618 -12.6898 45.8665 0.0000 16.8934 0.0000
# 2 -12.6898 40.2907 -8.1404 0.0000 3.2585 0.0000
# 3 45.8665 -8.1404 119.8664 0.0000 28.5783 0.0000
# 4 0.0000 0.0000 0.0000 13.7179 0.0000 -4.6663
# 5 16.8934 3.2585 28.5783 0.0000 18.9132 0.0000
# 6 0.0000 0.0000 0.0000 -4.6663 0.0000 6.7593
#
#
#
# Elastic Compliance Matrix: (Units=1/GPa)
#
#
# Indices 1 2 3 4 5 6 
#
# 1 0.014337 0.004639 -0.003012 0.000000 -0.009053 0.000000
# 2 0.004639 0.028165 0.003568 0.000000 -0.014387 0.000000
# 3 -0.003012 0.003568 0.014447 0.000000 -0.019754 0.000000
# 4 0.000000 0.000000 0.000000 0.095270 0.000000 0.065769
# 5 -0.009053 -0.014387 -0.019754 0.000000 0.093287 0.000000
# 6 0.000000 0.000000 0.000000 0.065769 0.000000 0.193347
#
#
# Mechanical properties :
#
#
# Convention : Reuss Voigt Hill
#
# Bulk Modulus (GPa) = 14.85049 33.82127 24.33588
# Shear Modulus (GPa) = 11.08867 23.16359 17.12613
#
# Velocity S-wave (km/s) = 2.34996 3.39644 2.92045
# Velocity P-wave (km/s) = 3.84172 5.67666 4.84682
#
# Compressibility (1/GPa) = 0.06733784
#
# Stress axis : x y z
#
# Youngs Moduli (GPa) = 69.75071 35.50497 69.21655
#
# Poissons Ratio (x) = -0.16471 0.20851
# Poissons Ratio (y) = -0.32357 -0.24695
# Poissons Ratio (z) = 0.21012 -0.12667
#
# Static dielectric constant tensor:
#      x y z
#    x 1.715500 0.000000 0.049290 
#    y 0.000000 1.740700 0.000000 
#    z 0.049290 0.000000 1.729530 
# 
# From -- ./inp_files/319245.got.cif
#   From: 2010.05.17/outbox.cif.g08.bks.cpg/sg12_160_cif.got.tgz:319245.got - 2010.06.03 13:09:07.
