data_PCOD9178625
_publ_section_title
;
Structure prediction by ZEFSAII (Michael W. Deem and Ramdas Pophale) SiO2 
 PCOD9178625
Probable space group: C 2/M
;
_chemical_formula_sum "Si O2"
_cell_formula_units_Z 42
_cell_length_a 7.905145
_cell_length_b 14.405069
_cell_length_c 20.655168
_cell_angle_alpha 90.000000
_cell_angle_beta 56.025049
_cell_angle_gamma 90.000000
_cell_volume 1950.545726
_symmetry_space_group_name_H-M "C 2/M"
_symmetry_group_IT_number 12
_symmetry_cell_setting 'monoclinic'
loop_
_space_group_symop_operation_xyz
x,y,z
-x,y,-z
-x,-y,-z
x,-y,z
1/2+x,1/2+y,z
1/2-x,1/2+y,-z
1/2-x,1/2-y,-z
1/2+x,1/2-y,z
loop_
_atom_site_type_symbol
_atom_site_label
_atom_site_fract_x
_atom_site_fract_y
_atom_site_fract_z
Si Si1 0.500000 0.500000 0.000000
Si Si2 0.529314 0.110938 0.308301
Si Si3 0.931919 0.113362 0.587217
Si Si4 0.657852 0.645573 0.872651
Si Si5 0.717333 0.182040 0.944995
Si Si6 0.686016 0.113290 0.412784
O O1 0.651626 0.580347 0.936754
O O2 0.297951 0.145552 0.350657
O O3 0.671200 0.126167 0.216253
O O4 0.634660 0.145649 0.351625
O O5 0.510757 0.000000 0.320617
O O6 0.000000 0.138628 0.500000
O O7 0.101115 0.145323 0.602200
O O8 0.932918 0.000000 0.589031
O O9 0.687810 0.750313 0.890349
O O10 0.428773 0.627629 0.893867
O O11 0.500000 0.131182 0.000000
O O12 0.750000 0.250000 0.000000
O O13 0.500000 0.138278 0.500000
O O14 0.693101 0.000000 0.410444
#
# Coordination Sequence:
#
# PCOD9178625 Si02
#       6
#     2   8   8   8   8   8
#     4  12  20  36  66  88 116 146 182 244 312 328
#     4  10  19  30  50  83 117 144 190 251 288 330
#     4   9  15  26  45  72 110 157 187 222 296 359
#     4  11  21  38  62  86 116 153 194 235 293 344
#     4   9  18  38  62  77 106 157 198 218 278 370
#     4   9  15  26  44  70 112 156 185 225 296 356
#
# _framework density 21.532437000000002
#
# number of rings (size 3 to 8) (size 9 to 14) (size 15 to 20)
#    0.000    2.286    5.714    0.000    0.000    0.000 
#    6.857    0.476    4.190    0.000    0.000    4.000 
#    0.000    0.000    0.000    0.000    0.000    0.000 
#
# Total GULP energy -116938.773175 kJ/mol
# GULP energy per Si atom -5568.513008 kJ/mol
# Density = 2.148343 g / cm^3
# Si number density = 21.532437 Si / 1000 Ang^3
#
#
#
# Elastic Constant Matrix: (Units=GPa)
#
#
# Indices 1 2 3 4 5 6 
#
# 1 172.2150 10.4287 82.2186 0.0000 -31.6773 0.0000
# 2 10.4287 49.3252 0.2438 0.0000 -3.5750 0.0000
# 3 82.2186 0.2438 168.8046 0.0001 -23.6358 -0.0001
# 4 0.0000 0.0000 0.0001 -43.2917 0.0000 27.4134
# 5 -31.6773 -3.5750 -23.6358 0.0000 37.6357 0.0000
# 6 0.0000 0.0000 -0.0001 27.4134 0.0000 -29.2783
#
#
#
# Elastic Compliance Matrix: (Units=1/GPa)
#
#
# Indices 1 2 3 4 5 6 
#
# 1 0.008408 -0.001413 -0.003422 0.000000 0.004793 0.000000
# 2 -0.001413 0.020663 0.000841 0.000000 0.001301 0.000000
# 3 -0.003422 0.000841 0.007891 0.000000 0.002156 0.000000
# 4 0.000000 0.000000 0.000000 -0.056740 0.000000 -0.053126
# 5 0.004793 0.001301 0.002156 0.000000 0.032082 0.000000
# 6 0.000000 0.000000 0.000000 -0.053126 0.000000 -0.083897
#
#
# Mechanical properties :
#
#
# Convention : Reuss Voigt Hill
#
# Bulk Modulus (GPa) = 34.51535 64.01413 49.26474
# Shear Modulus (GPa) = -92.68518 12.84337 -39.92091
#
# Velocity S-wave (km/s) = -6.56794 2.44492 -4.31047
# Velocity P-wave (km/s) = 6.43839 6.14523 1.35814
#
# Compressibility (1/GPa) = 0.02897262
#
# Stress axis : x y z
#
# Youngs Moduli (GPa) = 118.93975 48.39670 126.72220
#
# Poissons Ratio (x) = 0.06840 0.43362
# Poissons Ratio (y) = 0.16809 -0.10654
# Poissons Ratio (z) = 0.40699 -0.04069
#
# Static dielectric constant tensor:
#      x y z
#    x 1.831270 0.000000 0.007130 
#    y 0.000000 1.868570 0.000000 
#    z 0.007130 0.000000 1.753910 
# 
# From -- ./inp_files/300389.got.cif
#   From: 2010.05.17/outbox.cif.g08.bks.cpg/sg12_151_cif.got.tgz:300389.got - 2010.06.03 13:09:07.
