data_PCOD9178702
_publ_section_title
;
Structure prediction by ZEFSAII (Michael W. Deem and Ramdas Pophale) SiO2 
 PCOD9178702
Probable space group: C 2/M
;
_chemical_formula_sum "Si O2"
_cell_formula_units_Z 64
_cell_length_a 20.428646
_cell_length_b 9.045858
_cell_length_c 19.009332
_cell_angle_alpha 90.000000
_cell_angle_beta 86.681744
_cell_angle_gamma 90.000000
_cell_volume 3506.932977
_symmetry_space_group_name_H-M "C 2/M"
_symmetry_group_IT_number 12
_symmetry_cell_setting 'monoclinic'
loop_
_space_group_symop_operation_xyz
x,y,z
-x,y,-z
-x,-y,-z
x,-y,z
1/2+x,1/2+y,z
1/2-x,1/2+y,-z
1/2-x,1/2-y,-z
1/2+x,1/2-y,z
loop_
_atom_site_type_symbol
_atom_site_label
_atom_site_fract_x
_atom_site_fract_y
_atom_site_fract_z
Si Si1 0.221231 0.676001 0.695918
Si Si2 0.104638 0.676411 0.812972
Si Si3 0.942546 0.324078 0.447317
Si Si4 0.003100 0.678028 0.292737
Si Si5 0.138005 0.176800 0.245542
Si Si6 0.193369 0.175805 0.549603
Si Si7 0.167224 0.176038 0.936282
Si Si8 0.191141 0.822593 0.092193
O O1 0.216980 0.500000 0.679827
O O2 0.169062 0.704478 0.761067
O O3 0.294470 0.709210 0.717718
O O4 0.203070 0.768747 0.628789
O O5 0.100937 0.500000 0.824220
O O6 0.114802 0.756369 0.886217
O O7 0.042558 0.723681 0.770060
O O8 0.927216 0.500000 0.446675
O O9 0.877513 0.234782 0.469833
O O10 0.000000 0.300841 0.500000
O O11 0.968212 0.280761 0.368205
O O12 0.006979 0.500000 0.292068
O O13 0.075017 0.744692 0.281264
O O14 0.150285 0.220311 0.163433
O O15 0.128430 0.000000 0.248489
O O16 0.250000 0.250000 0.500000
O O17 0.196999 0.000000 0.544502
O O18 0.238247 0.244374 0.912891
O O19 0.169669 0.000000 0.928180
O O20 0.157151 0.210033 0.019585
O O21 0.202522 0.000000 0.095446
#
# Coordination Sequence:
#
# PCOD9178702 Si02
#       8
#     8   8   8   8   8   8   8   8
#     4  10  20  39  63  85 114 154 196 239 290 344
#     4  10  19  37  60  80 113 155 190 230 289 349
#     4  10  22  43  66  87 117 157 195 236 292 350
#     4  10  22  39  59  84 116 153 191 234 286 347
#     4  10  21  37  59  84 115 153 191 237 290 344
#     4  12  26  42  63  91 123 155 194 243 288 342
#     4  10  19  30  54  86 113 144 194 246 283 335
#     4   9  18  35  53  78 116 156 189 230 294 347
#
# _framework density 18.249563999999999
#
# number of rings (size 3 to 8) (size 9 to 14) (size 15 to 20)
#    0.000    1.875    2.500    1.500    1.750    3.250 
#    0.000    0.625    0.000    3.750    0.000    0.000 
#    0.000    0.000    0.000    0.000    0.000    0.000 
#
# Total GULP energy -178715.966952 kJ/mol
# GULP energy per Si atom -5584.873967 kJ/mol
# Density = 1.820803 g / cm^3
# Si number density = 18.249564 Si / 1000 Ang^3
#
#
#
# Elastic Constant Matrix: (Units=GPa)
#
#
# Indices 1 2 3 4 5 6 
#
# 1 97.4867 39.4423 15.8910 0.0000 2.9405 0.0000
# 2 39.4423 47.9343 35.3082 0.0000 4.4584 0.0000
# 3 15.8910 35.3082 62.5258 0.0000 12.8719 0.0000
# 4 0.0000 0.0000 0.0000 24.3815 0.0000 1.3880
# 5 2.9405 4.4584 12.8719 0.0000 28.0612 0.0000
# 6 0.0000 0.0000 0.0000 1.3880 0.0000 32.6654
#
#
#
# Elastic Compliance Matrix: (Units=1/GPa)
#
#
# Indices 1 2 3 4 5 6 
#
# 1 0.016669 -0.018323 0.006483 0.000000 -0.001809 0.000000
# 2 -0.018323 0.056262 -0.028346 0.000000 0.005984 0.000000
# 3 0.006483 -0.028346 0.032648 0.000000 -0.011152 0.000000
# 4 0.000000 0.000000 0.000000 0.041114 0.000000 -0.001747
# 5 -0.001809 0.005984 -0.011152 0.000000 0.039991 0.000000
# 6 0.000000 0.000000 0.000000 -0.001747 0.000000 0.030688
#
#
# Mechanical properties :
#
#
# Convention : Reuss Voigt Hill
#
# Bulk Modulus (GPa) = 39.67106 43.24778 41.45942
# Shear Modulus (GPa) = 16.33209 24.84196 20.58703
#
# Velocity S-wave (km/s) = 2.99478 3.69350 3.36234
# Velocity P-wave (km/s) = 5.80892 6.47600 6.15151
#
# Compressibility (1/GPa) = 0.02520729
#
# Stress axis : x y z
#
# Youngs Moduli (GPa) = 59.99192 17.77408 30.62939
#
# Poissons Ratio (x) = 0.32567 -0.19857
# Poissons Ratio (y) = 1.09923 0.86822
# Poissons Ratio (z) = -0.38893 0.50382
#
# Static dielectric constant tensor:
#      x y z
#    x 1.601860 0.000000 0.013660 
#    y 0.000000 1.608820 0.000000 
#    z 0.013660 0.000000 1.636480 
# 
# From -- ./inp_files/281372.got.cif
#   From: 2010.05.17/outbox.cif.g08.bks.cpg/sg12_141_cif.got.tgz:281372.got - 2010.06.03 13:09:07.
