data_PCOD9178235
_publ_section_title
;
Structure prediction by ZEFSAII (Michael W. Deem and Ramdas Pophale) SiO2 
 PCOD9178235
Probable space group: C 2/M
;
_chemical_formula_sum "Si O2"
_cell_formula_units_Z 64
_cell_length_a 13.838248
_cell_length_b 8.505360
_cell_length_c 23.525893
_cell_angle_alpha 90.000000
_cell_angle_beta 107.465319
_cell_angle_gamma 90.000000
_cell_volume 2641.327338
_symmetry_space_group_name_H-M "C 2/M"
_symmetry_group_IT_number 12
_symmetry_cell_setting 'monoclinic'
loop_
_space_group_symop_operation_xyz
x,y,z
-x,y,-z
-x,-y,-z
x,-y,z
1/2+x,1/2+y,z
1/2-x,1/2+y,-z
1/2-x,1/2-y,-z
1/2+x,1/2-y,z
loop_
_atom_site_type_symbol
_atom_site_label
_atom_site_fract_x
_atom_site_fract_y
_atom_site_fract_z
Si Si1 0.873411 0.807729 0.079457
Si Si2 0.598451 0.191533 0.451969
Si Si3 0.182695 0.814371 0.295590
Si Si4 0.512384 0.187729 0.673509
Si Si5 0.201246 0.690328 0.579959
Si Si6 0.641568 0.312613 0.047225
Si Si7 0.610461 0.324764 0.796313
Si Si8 0.350905 0.174160 0.833318
O O1 0.758935 0.740823 0.062329
O O2 0.925446 0.757876 0.148697
O O3 0.871974 0.000000 0.081224
O O4 0.907517 0.761547 0.021663
O O5 0.501711 0.233082 0.395362
O O6 0.696287 0.260588 0.436056
O O7 0.613947 0.241569 0.520176
O O8 0.604050 0.000000 0.452870
O O9 0.085847 0.764270 0.314879
O O10 0.277125 0.753197 0.351341
O O11 0.154086 0.755843 0.228312
O O12 0.195674 0.000000 0.294380
O O13 0.595488 0.234825 0.734681
O O14 0.507686 0.000000 0.673620
O O15 0.194217 0.500000 0.582256
O O16 0.635715 0.500000 0.047602
O O17 0.606287 0.254875 0.102756
O O18 0.566170 0.500000 0.781557
O O19 0.730436 0.338873 0.824704
O O20 0.393517 0.000000 0.834818
#
# Coordination Sequence:
#
# PCOD9178235 Si02
#       8
#     8   8   8   8   8   8   8   8
#     4   8  15  27  43  65  92 120 150 189 233 270
#     4   8  14  25  41  63  90 116 145 185 229 268
#     4  10  19  31  49  71  94 122 156 191 230 278
#     4  10  19  30  47  71  97 124 154 189 230 275
#     4   8  14  25  42  64  88 114 147 187 227 268
#     4   9  15  25  44  68  91 116 151 191 230 273
#     4   9  18  32  48  67  94 126 156 188 228 272
#     4  10  20  33  48  68  96 126 155 191 235 276
#
# _framework density 24.230243000000002
#
# number of rings (size 3 to 8) (size 9 to 14) (size 15 to 20)
#    0.000    3.000    0.000    2.250    0.000    4.000 
#    0.000    0.000    0.000    1.500    0.000   10.500 
#    0.000    0.000    0.000    0.000    0.000    0.000 
#
# Total GULP energy -178316.406414 kJ/mol
# GULP energy per Si atom -5572.387700 kJ/mol
# Density = 2.417509 g / cm^3
# Si number density = 24.230243 Si / 1000 Ang^3
#
#
#
# Elastic Constant Matrix: (Units=GPa)
#
#
# Indices 1 2 3 4 5 6 
#
# 1 41.9762 -2.4873 52.9043 0.0000 1.8757 0.0000
# 2 -2.4873 16.7892 58.5516 0.0000 -2.6187 0.0000
# 3 52.9043 58.5516 319.1927 0.0000 -13.3213 0.0000
# 4 0.0000 0.0000 0.0000 -269.4488 0.0000 277.3414
# 5 1.8757 -2.6187 -13.3213 0.0000 62.1427 0.0000
# 6 0.0000 0.0000 0.0000 277.3414 0.0000 -249.1659
#
#
#
# Elastic Compliance Matrix: (Units=1/GPa)
#
#
# Indices 1 2 3 4 5 6 
#
# 1 0.118941 0.239531 -0.063953 0.000000 -0.007206 0.000000
# 2 0.239531 0.647721 -0.159103 0.000000 -0.014041 0.000000
# 3 -0.063953 -0.159103 0.043104 0.000000 0.004466 0.000000
# 4 0.000000 0.000000 0.000000 0.025475 0.000000 0.028356
# 5 -0.007206 -0.014041 0.004466 0.000000 0.016675 0.000000
# 6 0.000000 0.000000 0.000000 0.028356 0.000000 0.027549
#
#
# Mechanical properties :
#
#
# Convention : Reuss Voigt Hill
#
# Bulk Modulus (GPa) = 1.18664 66.21059 33.69861
# Shear Modulus (GPa) = 4.43490 -73.36178 -34.46344
#
# Velocity S-wave (km/s) = 1.35436 -5.50842 -3.77547
# Velocity P-wave (km/s) = 1.71363 3.61552 2.25116
#
# Compressibility (1/GPa) = 0.84271790
#
# Stress axis : x y z
#
# Youngs Moduli (GPa) = 8.40750 1.54387 23.19951
#
# Poissons Ratio (x) = -0.36981 1.48369
# Poissons Ratio (y) = -2.01386 3.69110
# Poissons Ratio (z) = 0.53769 0.24563
#
# Static dielectric constant tensor:
#      x y z
#    x 2.089900 0.000000 0.009250 
#    y 0.000000 1.859790 0.000000 
#    z 0.009250 0.000000 2.051470 
# 
# From -- ./inp_files/345606.got.cif
#   From: 2010.05.17/outbox.cif.g08.bks.cpg/sg12_173_cif.got.tgz:345606.got - 2010.06.03 13:09:07.
