data_PCOD9178142
_publ_section_title
;
Structure prediction by ZEFSAII (Michael W. Deem and Ramdas Pophale) SiO2 
 PCOD9178142
Probable space group: C 2/M
;
_chemical_formula_sum "Si O2"
_cell_formula_units_Z 48
_cell_length_a 26.036975
_cell_length_b 8.327743
_cell_length_c 19.156150
_cell_angle_alpha 90.000000
_cell_angle_beta 27.454854
_cell_angle_gamma 90.000000
_cell_volume 1915.021590
_symmetry_space_group_name_H-M "C 2/M"
_symmetry_group_IT_number 12
_symmetry_cell_setting 'monoclinic'
loop_
_space_group_symop_operation_xyz
x,y,z
-x,y,-z
-x,-y,-z
x,-y,z
1/2+x,1/2+y,z
1/2-x,1/2+y,-z
1/2-x,1/2-y,-z
1/2+x,1/2-y,z
loop_
_atom_site_type_symbol
_atom_site_label
_atom_site_fract_x
_atom_site_fract_y
_atom_site_fract_z
Si Si1 0.435722 0.808045 0.796294
Si Si2 0.608061 0.692012 0.409860
Si Si3 0.400438 0.819311 0.066607
Si Si4 0.074722 0.807808 0.747054
Si Si5 0.740943 0.182921 0.370400
Si Si6 0.288877 0.307464 0.854434
O O1 0.545518 0.742023 0.703091
O O2 0.395390 0.757572 0.768104
O O3 0.441221 0.000000 0.793538
O O4 0.325313 0.749639 0.972790
O O5 0.500000 0.757645 0.500000
O O6 0.595843 0.500000 0.427765
O O7 0.637030 0.745080 0.452990
O O8 0.702846 0.732608 0.237261
O O9 0.327989 0.697897 0.200645
O O10 0.350933 0.000000 0.115606
O O11 0.500000 0.845393 0.000000
O O12 0.467608 0.757505 0.918650
O O13 0.187741 0.746463 0.650027
O O14 0.078108 0.000000 0.747764
O O15 0.714630 0.000000 0.419333
O O16 0.292442 0.500000 0.856689
#
# Coordination Sequence:
#
# PCOD9178142 Si02
#       6
#     8   8   8   8   8   8
#     4  10  19  31  52  80 107 139 174 208 254 313
#     4  10  21  37  57  78 101 135 178 221 264 310
#     4   9  16  26  42  66  98 134 168 204 248 301
#     4  10  19  30  46  72 106 139 170 208 259 315
#     4  10  20  32  48  72 102 136 172 213 262 312
#     4   9  19  35  52  74 106 139 172 212 258 307
#
# _framework density 25.064992
#
# number of rings (size 3 to 8) (size 9 to 14) (size 15 to 20)
#    0.000    2.333    0.000    3.000    0.000    7.000 
#    0.000    0.000    0.000    1.000    0.000    0.000 
#    0.000    0.000    0.000    0.000    0.000    0.000 
#
# Total GULP energy -133887.837252 kJ/mol
# GULP energy per Si atom -5578.659885 kJ/mol
# Density = 2.500794 g / cm^3
# Si number density = 25.064992 Si / 1000 Ang^3
#
#
#
# Elastic Constant Matrix: (Units=GPa)
#
#
# Indices 1 2 3 4 5 6 
#
# 1 252.5891 14.8157 36.1087 -0.0006 -16.1694 0.0001
# 2 14.8157 25.7438 -8.8959 -0.0006 -1.9560 0.0009
# 3 36.1087 -8.8959 58.8080 -0.0004 -6.8763 0.0001
# 4 -0.0006 -0.0006 -0.0004 2.2508 -0.0002 -10.3858
# 5 -16.1694 -1.9560 -6.8763 -0.0002 53.1638 0.0001
# 6 0.0001 0.0009 0.0001 -10.3858 0.0001 34.0691
#
#
#
# Elastic Compliance Matrix: (Units=1/GPa)
#
#
# Indices 1 2 3 4 5 6 
#
# 1 0.004720 -0.003818 -0.003376 0.000000 0.000859 0.000000
# 2 -0.003818 0.044365 0.009250 -0.000019 0.001668 -0.000007
# 3 -0.003376 0.009250 0.020709 -0.000011 0.001992 -0.000004
# 4 0.000000 -0.000019 -0.000011 -1.092583 -0.000006 -0.333067
# 5 0.000859 0.001668 0.001992 -0.000006 0.019390 -0.000002
# 6 0.000000 -0.000007 -0.000004 -0.333067 -0.000002 -0.072181
#
#
# Mechanical properties :
#
#
# Convention : Reuss Voigt Hill
#
# Bulk Modulus (GPa) = 13.53030 46.79975 30.16503
# Shear Modulus (GPa) = -4.73908 37.57090 16.41591
#
# Velocity S-wave (km/s) = -1.37652 3.87581 2.56194
# Velocity P-wave (km/s) = 1.69805 6.22424 4.56205
#
# Compressibility (1/GPa) = 0.07390817
#
# Stress axis : x y z
#
# Youngs Moduli (GPa) = 211.84445 22.54046 48.28740
#
# Poissons Ratio (x) = 0.08606 0.16300
# Poissons Ratio (y) = 0.80879 -0.44667
# Poissons Ratio (z) = 0.71509 -0.20850
#
# Static dielectric constant tensor:
#      x y z
#    x 2.034670 0.000000 -0.059400 
#    y 0.000000 1.896770 0.000000 
#    z -0.059400 0.000000 2.179710 
# 
# From -- ./inp_files/327195.got.cif
#   From: 2010.05.17/outbox.cif.g08.bks.cpg/sg12_164_cif.got.tgz:327195.got - 2010.06.03 13:09:07.
