data_PCOD9178964
_publ_section_title
;
Structure prediction by ZEFSAII (Michael W. Deem and Ramdas Pophale) SiO2 
 PCOD9178964
Probable space group: C 2/M
;
_chemical_formula_sum "Si O2"
_cell_formula_units_Z 64
_cell_length_a 23.267535
_cell_length_b 18.391196
_cell_length_c 11.278166
_cell_angle_alpha 90.000000
_cell_angle_beta 48.600231
_cell_angle_gamma 90.000000
_cell_volume 3620.144862
_symmetry_space_group_name_H-M "C 2/M"
_symmetry_group_IT_number 12
_symmetry_cell_setting 'monoclinic'
loop_
_space_group_symop_operation_xyz
x,y,z
-x,y,-z
-x,-y,-z
x,-y,z
1/2+x,1/2+y,z
1/2-x,1/2+y,-z
1/2-x,1/2-y,-z
1/2+x,1/2-y,z
loop_
_atom_site_type_symbol
_atom_site_label
_atom_site_fract_x
_atom_site_fract_y
_atom_site_fract_z
Si Si1 0.331109 0.668840 0.274098
Si Si2 0.393945 0.667083 0.917285
Si Si3 0.466971 0.583433 0.180272
Si Si4 0.915809 0.689659 0.146748
Si Si5 0.881995 0.663618 0.925912
Si Si6 0.463620 0.085289 0.293288
Si Si7 0.248731 0.085036 0.973249
Si Si8 0.694126 0.916208 0.375188
O O1 0.382183 0.615393 0.283896
O O2 0.356243 0.750237 0.274461
O O3 0.244866 0.640164 0.381991
O O4 0.361111 0.664356 0.096808
O O5 0.477931 0.632668 0.814346
O O6 0.391935 0.751142 0.883058
O O7 0.335820 0.619311 0.919234
O O8 0.468336 0.500000 0.217668
O O9 0.500000 0.584694 0.000000
O O10 0.935238 0.628370 0.215386
O O11 0.884895 0.658855 0.065104
O O12 0.000000 0.724920 0.000000
O O13 0.804435 0.630546 0.981316
O O14 0.955633 0.619459 0.779646
O O15 0.395626 0.094225 0.480485
O O16 0.473237 0.000000 0.255344
O O17 0.283825 0.090710 0.792473
O O18 0.246518 0.000000 0.008071
O O19 0.713373 0.000000 0.383960
#
# Coordination Sequence:
#
# PCOD9178964 Si02
#       8
#     8   8   8   8   8   8   8   8
#     4   9  15  27  45  65  91 121 149 181 224 271
#     4   9  17  29  43  64  94 119 144 185 230 267
#     4   9  14  21  39  65  90 118 150 181 220 271
#     4   9  18  31  47  68  91 117 151 191 231 265
#     4  10  19  31  48  66  88 121 156 186 223 267
#     4  10  20  33  47  65  92 123 153 188 225 261
#     4  10  19  31  48  69  92 119 150 184 225 272
#     4   9  19  32  45  66  96 124 149 182 224 267
#
# _framework density 17.678850000000001
#
# number of rings (size 3 to 8) (size 9 to 14) (size 15 to 20)
#    0.000    2.625    0.000    4.125    0.000    6.750 
#    0.000    1.875    0.000    0.000    0.000    0.000 
#    0.000    0.000    0.000   20.750    0.000    5.875 
#
# Total GULP energy -178335.379743 kJ/mol
# GULP energy per Si atom -5572.980617 kJ/mol
# Density = 1.763861 g / cm^3
# Si number density = 17.678850 Si / 1000 Ang^3
#
#
#
# Elastic Constant Matrix: (Units=GPa)
#
#
# Indices 1 2 3 4 5 6 
#
# 1 101.6373 38.6080 -8.4437 0.0000 -10.2521 0.0000
# 2 38.6080 90.0374 -5.5486 0.0000 -1.2845 0.0000
# 3 -8.4437 -5.5486 9.3345 0.0000 -2.7388 0.0000
# 4 0.0000 0.0000 0.0000 14.9846 0.0000 -7.0274
# 5 -10.2521 -1.2845 -2.7388 0.0000 9.9161 0.0000
# 6 0.0000 0.0000 0.0000 -7.0274 0.0000 32.5466
#
#
#
# Elastic Compliance Matrix: (Units=1/GPa)
#
#
# Indices 1 2 3 4 5 6 
#
# 1 0.015137 -0.005208 0.016313 0.000000 0.019481 0.000000
# 2 -0.005208 0.013445 0.002408 0.000000 -0.002977 0.000000
# 3 0.016313 0.002408 0.139676 0.000000 0.055756 0.000000
# 4 0.000000 0.000000 0.000000 0.074254 0.000000 0.016033
# 5 0.019481 -0.002977 0.055756 0.000000 0.136001 0.000000
# 6 0.000000 0.000000 0.000000 0.016033 0.000000 0.034187
#
#
# Mechanical properties :
#
#
# Convention : Reuss Voigt Hill
#
# Bulk Modulus (GPa) = 5.12069 27.80452 16.46260
# Shear Modulus (GPa) = 11.09213 23.24903 17.17058
#
# Velocity S-wave (km/s) = 2.50756 3.63033 3.11987
# Velocity P-wave (km/s) = 3.35955 5.77357 4.72338
#
# Compressibility (1/GPa) = 0.19528626
#
# Stress axis : x y z
#
# Youngs Moduli (GPa) = 66.06151 74.37449 7.15941
#
# Poissons Ratio (x) = 0.38732 -0.11679
# Poissons Ratio (y) = 0.34403 -0.01724
# Poissons Ratio (z) = -1.07767 -0.17910
#
# Static dielectric constant tensor:
#      x y z
#    x 1.596750 0.000000 -0.013580 
#    y 0.000000 1.620830 0.000000 
#    z -0.013580 0.000000 1.604480 
# 
# From -- ./inp_files/177106.got.cif
#   From: 2010.05.17/outbox.cif.g08.bks.cpg/sg12_89_cif.got.tgz:177106.got - 2010.06.03 13:09:07.
