data_PCOD9178313
_publ_section_title
;
Structure prediction by ZEFSAII (Michael W. Deem and Ramdas Pophale) SiO2 
 PCOD9178313
Probable space group: C 2/M
;
_chemical_formula_sum "Si O2"
_cell_formula_units_Z 64
_cell_length_a 9.986058
_cell_length_b 14.990510
_cell_length_c 18.931355
_cell_angle_alpha 90.000000
_cell_angle_beta 65.957849
_cell_angle_gamma 90.000000
_cell_volume 2588.093509
_symmetry_space_group_name_H-M "C 2/M"
_symmetry_group_IT_number 12
_symmetry_cell_setting 'monoclinic'
loop_
_space_group_symop_operation_xyz
x,y,z
-x,y,-z
-x,-y,-z
x,-y,z
1/2+x,1/2+y,z
1/2-x,1/2+y,-z
1/2-x,1/2-y,-z
1/2+x,1/2-y,z
loop_
_atom_site_type_symbol
_atom_site_label
_atom_site_fract_x
_atom_site_fract_y
_atom_site_fract_z
Si Si1 0.673104 0.687925 0.165732
Si Si2 0.076991 0.336903 0.384548
Si Si3 0.869032 0.599093 0.840236
Si Si4 0.292298 0.899741 0.498828
Si Si5 0.315817 0.860169 0.285330
Si Si6 0.483922 0.629238 0.605818
Si Si7 0.653552 0.835122 0.999716
Si Si8 0.373140 0.656785 0.283595
O O1 0.688520 0.797456 0.161596
O O2 0.738374 0.658211 0.226285
O O3 0.755328 0.632723 0.087482
O O4 0.500780 0.662870 0.198858
O O5 0.151307 0.342945 0.446495
O O6 0.206109 0.373215 0.306292
O O7 0.921190 0.385643 0.414587
O O8 0.040799 0.234353 0.383692
O O9 0.800390 0.500000 0.839667
O O10 0.028452 0.598308 0.768172
O O11 0.875382 0.605796 0.925130
O O12 0.119835 0.884585 0.522669
O O13 0.306753 0.000000 0.520491
O O14 0.350341 0.761388 0.307601
O O15 0.183392 0.904881 0.358451
O O16 0.560199 0.604164 0.664181
O O17 0.500000 0.805083 0.000000
O O18 0.750000 0.750000 0.000000
#
# Coordination Sequence:
#
# PCOD9178313 Si02
#       8
#     8   8   8   8   8   8   8   8
#     4   9  17  32  51  73 101 135 173 209 259 314
#     4   9  16  29  47  69  95 127 166 203 241 296
#     4  10  20  32  51  79 107 133 170 222 269 310
#     4  10  19  30  47  74 103 129 160 208 260 303
#     4   9  16  31  51  73  96 132 172 211 251 312
#     4   9  17  29  49  73  97 127 170 208 248 300
#     4  10  19  33  54  81 105 144 184 222 263 325
#     4   8  16  28  49  74  92 121 169 215 241 292
#
# _framework density 24.728626999999999
#
# number of rings (size 3 to 8) (size 9 to 14) (size 15 to 20)
#    0.000    2.750    1.250    1.125    0.000    0.750 
#    0.000    0.000    0.000   38.250    0.000   28.000 
#    0.000    0.000    0.000    0.000    0.000    0.000 
#
# Total GULP energy -178259.822294 kJ/mol
# GULP energy per Si atom -5570.619447 kJ/mol
# Density = 2.467234 g / cm^3
# Si number density = 24.728627 Si / 1000 Ang^3
#
#
#
# Elastic Constant Matrix: (Units=GPa)
#
#
# Indices 1 2 3 4 5 6 
#
# 1 98.7739 13.7420 47.9035 0.0000 -27.4673 0.0000
# 2 13.7420 50.0135 8.7171 0.0000 -7.0329 0.0000
# 3 47.9035 8.7171 146.4081 0.0000 -39.2580 0.0000
# 4 0.0000 0.0000 0.0000 -17.3094 0.0000 -10.8640
# 5 -27.4673 -7.0329 -39.2580 0.0000 45.4863 0.0000
# 6 0.0000 0.0000 0.0000 -10.8640 0.0000 -25.6748
#
#
#
# Elastic Compliance Matrix: (Units=1/GPa)
#
#
# Indices 1 2 3 4 5 6 
#
# 1 0.013271 -0.002424 -0.002797 0.000000 0.005225 0.000000
# 2 -0.002424 0.020908 0.000029 0.000000 0.001794 0.000000
# 3 -0.002797 0.000029 0.009488 0.000000 0.006504 0.000000
# 4 0.000000 0.000000 0.000000 -0.078663 0.000000 0.033285
# 5 0.005225 0.001794 0.006504 0.000000 0.031031 0.000000
# 6 0.000000 0.000000 0.000000 0.033285 0.000000 -0.053033
#
#
# Mechanical properties :
#
#
# Convention : Reuss Voigt Hill
#
# Bulk Modulus (GPa) = 30.04502 48.43562 39.24032
# Shear Modulus (GPa) = -140.76059 15.48926 -62.63567
#
# Velocity S-wave (km/s) = -7.55286 2.50545 -5.03827
# Velocity P-wave (km/s) = 7.99279 5.29142 4.23589
#
# Compressibility (1/GPa) = 0.03328338
#
# Stress axis : x y z
#
# Youngs Moduli (GPa) = 75.35377 47.82888 105.40112
#
# Poissons Ratio (x) = 0.11594 0.29477
# Poissons Ratio (y) = 0.18267 -0.00310
# Poissons Ratio (z) = 0.21074 -0.00141
#
# Static dielectric constant tensor:
#      x y z
#    x 1.929760 0.000000 -0.176440 
#    y 0.000000 1.901000 0.000000 
#    z -0.176440 0.000000 1.921300 
# 
# From -- ./inp_files/336291.got.cif
#   From: 2010.05.17/outbox.cif.g08.bks.cpg/sg12_169_cif.got.tgz:336291.got - 2010.06.03 13:09:07.
