data_PCOD9178069
_publ_section_title
;
Structure prediction by ZEFSAII (Michael W. Deem and Ramdas Pophale) SiO2 
 PCOD9178069
Probable space group: C 2/M
;
_chemical_formula_sum "Si O2"
_cell_formula_units_Z 64
_cell_length_a 19.588975
_cell_length_b 8.247795
_cell_length_c 23.912595
_cell_angle_alpha 90.000000
_cell_angle_beta 63.639777
_cell_angle_gamma 90.000000
_cell_volume 3461.737178
_symmetry_space_group_name_H-M "C 2/M"
_symmetry_group_IT_number 12
_symmetry_cell_setting 'monoclinic'
loop_
_space_group_symop_operation_xyz
x,y,z
-x,y,-z
-x,-y,-z
x,-y,z
1/2+x,1/2+y,z
1/2-x,1/2+y,-z
1/2-x,1/2-y,-z
1/2+x,1/2-y,z
loop_
_atom_site_type_symbol
_atom_site_label
_atom_site_fract_x
_atom_site_fract_y
_atom_site_fract_z
Si Si1 0.184687 0.191720 0.658083
Si Si2 0.165381 0.196054 0.458565
Si Si3 0.260517 0.691863 0.739749
Si Si4 0.675673 0.693044 0.061419
Si Si5 0.080269 0.801468 0.600439
Si Si6 0.581419 0.301545 0.994173
Si Si7 0.232591 0.191523 0.873631
Si Si8 0.585418 0.697050 0.375559
O O1 0.257096 0.225663 0.591583
O O2 0.201735 0.273744 0.710965
O O3 0.112560 0.249993 0.648538
O O4 0.178401 0.000000 0.669884
O O5 0.136425 0.248171 0.529656
O O6 0.102553 0.235866 0.433979
O O7 0.175179 0.000000 0.454848
O O8 0.266798 0.500000 0.745188
O O9 0.238558 0.766814 0.806662
O O10 0.342225 0.753549 0.686934
O O11 0.673583 0.500000 0.062387
O O12 0.694617 0.747800 0.117224
O O13 0.750000 0.750000 0.000000
O O14 0.603990 0.748265 0.049572
O O15 0.995457 0.745149 0.617163
O O16 0.080193 0.000000 0.600002
O O17 0.579811 0.500000 0.993846
O O18 0.652953 0.247059 0.929711
O O19 0.500000 0.246152 0.000000
O O20 0.231005 0.000000 0.881552
O O21 0.584751 0.500000 0.372920
#
# Coordination Sequence:
#
# PCOD9178069 Si02
#       8
#     8   8   8   8   8   8   8   8
#     4  10  19  30  46  68  96 125 153 192 239 288
#     4   9  16  28  48  70  92 120 154 193 236 286
#     4  10  20  35  53  68  88 123 165 202 234 278
#     4   9  16  28  49  75 102 130 160 194 228 266
#     4   9  16  27  46  71  93 116 153 199 242 283
#     4   8  15  29  50  77 104 128 157 192 227 264
#     4  10  19  32  53  75  97 127 161 198 236 279
#     4   8  15  28  47  69  89 115 157 203 237 270
#
# _framework density 18.487828
#
# number of rings (size 3 to 8) (size 9 to 14) (size 15 to 20)
#    0.000    2.875    0.000    3.750    0.000    1.500 
#    0.000    1.875    0.000   35.250    0.000    0.000 
#    0.000    0.000    0.000    0.000    0.000    0.000 
#
# Total GULP energy -178289.647355 kJ/mol
# GULP energy per Si atom -5571.551480 kJ/mol
# Density = 1.844575 g / cm^3
# Si number density = 18.487828 Si / 1000 Ang^3
#
#
#
# Elastic Constant Matrix: (Units=GPa)
#
#
# Indices 1 2 3 4 5 6 
#
# 1 109.2637 4.6433 36.7032 0.0004 35.6543 0.0005
# 2 4.6433 13.7919 2.6662 0.0006 1.1745 0.0014
# 3 36.7032 2.6662 87.7060 0.0002 24.4064 0.0001
# 4 0.0004 0.0006 0.0002 23.3712 0.0001 4.0673
# 5 35.6543 1.1745 24.4064 0.0001 20.0740 0.0002
# 6 0.0005 0.0014 0.0001 4.0673 0.0002 17.1218
#
#
#
# Elastic Compliance Matrix: (Units=1/GPa)
#
#
# Indices 1 2 3 4 5 6 
#
# 1 0.022400 -0.004414 0.002659 0.000000 -0.042760 0.000000
# 2 -0.004414 0.073880 -0.002082 -0.000001 0.006049 -0.000006
# 3 0.002659 -0.002082 0.017581 0.000000 -0.025977 0.000000
# 4 0.000000 -0.000001 0.000000 0.044633 0.000000 -0.010602
# 5 -0.042760 0.006049 -0.025977 0.000000 0.156994 -0.000001
# 6 0.000000 -0.000006 0.000000 -0.010602 -0.000001 0.060924
#
#
# Mechanical properties :
#
#
# Convention : Reuss Voigt Hill
#
# Bulk Modulus (GPa) = 9.41730 33.19855 21.30793
# Shear Modulus (GPa) = 11.91955 23.23001 17.57478
#
# Velocity S-wave (km/s) = 2.54190 3.54856 3.08655
# Velocity P-wave (km/s) = 3.70403 5.89794 4.92471
#
# Compressibility (1/GPa) = 0.10618751
#
# Stress axis : x y z
#
# Youngs Moduli (GPa) = 44.64340 13.53549 56.88028
#
# Poissons Ratio (x) = 0.05975 -0.15127
# Poissons Ratio (y) = 0.19706 0.11842
# Poissons Ratio (z) = -0.11873 0.02818
#
# Static dielectric constant tensor:
#      x y z
#    x 1.666340 0.000000 0.019940 
#    y 0.000000 1.651470 0.000000 
#    z 0.019940 0.000000 1.625500 
# 
# From -- ./inp_files/341967.got.cif
#   From: 2010.05.17/outbox.cif.g08.bks.cpg/sg12_171_cif.got.tgz:341967.got - 2010.06.03 13:09:07.
