data_PCOD9178054
_publ_section_title
;
Structure prediction by ZEFSAII (Michael W. Deem and Ramdas Pophale) SiO2 
 PCOD9178054
Probable space group: C 2/M
;
_chemical_formula_sum "Si O2"
_cell_formula_units_Z 48
_cell_length_a 22.114055
_cell_length_b 10.199258
_cell_length_c 24.183393
_cell_angle_alpha 90.000000
_cell_angle_beta 32.355326
_cell_angle_gamma 90.000000
_cell_volume 2919.070470
_symmetry_space_group_name_H-M "C 2/M"
_symmetry_group_IT_number 12
_symmetry_cell_setting 'monoclinic'
loop_
_space_group_symop_operation_xyz
x,y,z
-x,y,-z
-x,-y,-z
x,-y,z
1/2+x,1/2+y,z
1/2-x,1/2+y,-z
1/2-x,1/2-y,-z
1/2+x,1/2-y,z
loop_
_atom_site_type_symbol
_atom_site_label
_atom_site_fract_x
_atom_site_fract_y
_atom_site_fract_z
Si Si1 0.780239 0.349078 0.556722
Si Si2 0.586401 0.354149 0.611530
Si Si3 0.467753 0.152951 0.962162
Si Si4 0.922899 0.745783 0.824904
Si Si5 0.818231 0.143881 0.015241
Si Si6 0.629951 0.851210 0.735369
O O1 0.806134 0.500000 0.551923
O O2 0.688622 0.356076 0.577470
O O3 0.883714 0.262816 0.453444
O O4 0.718665 0.261165 0.650814
O O5 0.581221 0.500000 0.590553
O O6 0.475579 0.323206 0.732926
O O7 0.574142 0.168395 0.838523
O O8 0.434063 0.000000 0.985019
O O9 0.500000 0.183728 0.000000
O O10 0.369736 0.244475 0.014192
O O11 0.815148 0.662098 0.890086
O O12 0.025263 0.663725 0.773127
O O13 0.876909 0.837307 0.909934
O O14 0.844819 0.000000 0.016318
O O15 0.674738 0.000000 0.696162
#
# Coordination Sequence:
#
# PCOD9178054 Si02
#       6
#     8   8   8   8   8   8
#     4   9  17  26  38  60  88 116 146 182 220 256
#     4   9  16  26  40  58  85 120 153 179 208 256
#     4   9  19  34  49  66  89 118 152 189 227 266
#     4   9  18  28  43  66  95 122 148 181 221 263
#     4  10  19  30  46  68  93 121 153 186 223 268
#     4   9  16  28  46  64  87 119 150 180 217 264
#
# _framework density 16.443591000000001
#
# number of rings (size 3 to 8) (size 9 to 14) (size 15 to 20)
#    0.000    2.833    0.000    1.500    0.000   13.667 
#    0.000    0.000    0.000    0.000    0.000    1.167 
#    0.000    8.000    0.000    0.000    0.000    0.000 
#
# Total GULP energy -133653.211169 kJ/mol
# GULP energy per Si atom -5568.883799 kJ/mol
# Density = 1.640617 g / cm^3
# Si number density = 16.443591 Si / 1000 Ang^3
#
#
#
# Elastic Constant Matrix: (Units=GPa)
#
#
# Indices 1 2 3 4 5 6 
#
# 1 46.9371 36.7937 28.6923 0.0000 13.8427 0.0000
# 2 36.7937 128.6979 56.8879 0.0000 13.9069 0.0000
# 3 28.6923 56.8879 83.6284 0.0000 6.4192 0.0000
# 4 0.0000 0.0000 0.0000 10.3290 0.0000 3.8426
# 5 13.8427 13.9069 6.4192 0.0000 11.9492 0.0000
# 6 0.0000 0.0000 0.0000 3.8426 0.0000 8.9166
#
#
#
# Elastic Compliance Matrix: (Units=1/GPa)
#
#
# Indices 1 2 3 4 5 6 
#
# 1 0.040708 -0.003762 -0.008473 0.000000 -0.038229 0.000000
# 2 -0.003762 0.012534 -0.006728 0.000000 -0.006616 0.000000
# 3 -0.008473 -0.006728 0.018865 0.000000 0.007512 0.000000
# 4 0.000000 0.000000 0.000000 0.115299 0.000000 -0.049688
# 5 -0.038229 -0.006616 0.007512 0.000000 0.131639 0.000000
# 6 0.000000 0.000000 0.000000 -0.049688 0.000000 0.133564
#
#
# Mechanical properties :
#
#
# Convention : Reuss Voigt Hill
#
# Bulk Modulus (GPa) = 29.25586 56.00125 42.62856
# Shear Modulus (GPa) = 9.96155 15.36493 12.66324
#
# Velocity S-wave (km/s) = 2.46397 3.06012 2.77808
# Velocity P-wave (km/s) = 5.09168 6.82761 6.02252
#
# Compressibility (1/GPa) = 0.03418119
#
# Stress axis : x y z
#
# Youngs Moduli (GPa) = 24.56515 79.77993 53.00831
#
# Poissons Ratio (x) = 0.30011 0.44916
# Poissons Ratio (y) = 0.09241 0.35665
# Poissons Ratio (z) = 0.20815 0.53677
#
# Static dielectric constant tensor:
#      x y z
#    x 1.510330 0.000000 0.012540 
#    y 0.000000 1.573280 0.000000 
#    z 0.012540 0.000000 1.565500 
# 
# From -- ./inp_files/346889.got.cif
#   From: 2010.05.17/outbox.cif.g08.bks.cpg/sg12_174_cif.got.tgz:346889.got - 2010.06.03 13:09:07.
