data_PCOD9178657
_publ_section_title
;
Structure prediction by ZEFSAII (Michael W. Deem and Ramdas Pophale) SiO2 
 PCOD9178657
Probable space group: C 2/M
;
_chemical_formula_sum "Si O2"
_cell_formula_units_Z 56
_cell_length_a 5.171904
_cell_length_b 19.725013
_cell_length_c 31.353078
_cell_angle_alpha 90.000000
_cell_angle_beta 118.986786
_cell_angle_gamma 90.000000
_cell_volume 2797.838870
_symmetry_space_group_name_H-M "C 2/M"
_symmetry_group_IT_number 12
_symmetry_cell_setting 'monoclinic'
loop_
_space_group_symop_operation_xyz
x,y,z
-x,y,-z
-x,-y,-z
x,-y,z
1/2+x,1/2+y,z
1/2-x,1/2+y,-z
1/2-x,1/2-y,-z
1/2+x,1/2-y,z
loop_
_atom_site_type_symbol
_atom_site_label
_atom_site_fract_x
_atom_site_fract_y
_atom_site_fract_z
Si Si1 0.689779 0.340020 0.057397
Si Si2 0.808527 0.574452 0.941691
Si Si3 0.891404 0.285565 0.154518
Si Si4 0.029530 0.298194 0.340282
Si Si5 0.831542 0.424711 0.797707
Si Si6 0.213200 0.205015 0.550595
Si Si7 0.359964 0.076297 0.267838
O O1 0.500660 0.397626 0.066517
O O2 0.729374 0.282656 0.095776
O O3 0.005371 0.371691 0.070303
O O4 0.500000 0.320713 0.000000
O O5 0.785095 0.500000 0.919663
O O6 0.000000 0.568116 0.000000
O O7 0.668868 0.264362 0.173573
O O8 0.007372 0.361503 0.168376
O O9 0.264611 0.251693 0.333626
O O10 0.180744 0.325340 0.396208
O O11 0.925124 0.361798 0.304380
O O12 0.922975 0.500000 0.820001
O O13 0.479696 0.418339 0.774847
O O14 0.921324 0.420426 0.755067
O O15 0.502453 0.232561 0.549329
O O16 0.000000 0.166848 0.500000
O O17 0.389031 0.000000 0.289027
#
# Coordination Sequence:
#
# PCOD9178657 Si02
#       7
#     8   8   8   8   8   8   8
#     4  10  21  37  56  81 113 145 175 211 260 318
#     4   9  17  31  53  81 110 140 176 215 252 293
#     4  12  26  42  61  87 114 142 179 221 265 314
#     4  10  19  30  51  82 109 141 187 231 272 319
#     4  10  23  42  61  81 108 145 181 217 271 332
#     4   8  14  25  41  66 103 142 180 224 269 313
#     4  10  21  38  58  81 111 143 177 222 278 332
#
# _framework density 20.015446000000001
#
# number of rings (size 3 to 8) (size 9 to 14) (size 15 to 20)
#    0.000    2.143    0.000    3.000    0.000    6.857 
#    0.000    1.429    0.000    0.429    0.000    0.000 
#    0.000   14.857    0.000    0.000    0.000    2.286 
#
# Total GULP energy -156253.184751 kJ/mol
# GULP energy per Si atom -5580.470884 kJ/mol
# Density = 1.996989 g / cm^3
# Si number density = 20.015446 Si / 1000 Ang^3
#
#
#
# Elastic Constant Matrix: (Units=GPa)
#
#
# Indices 1 2 3 4 5 6 
#
# 1 54.5964 12.0721 3.1122 0.0000 -8.7292 0.0000
# 2 12.0721 88.9223 35.9437 0.0000 7.2204 0.0000
# 3 3.1122 35.9437 47.9451 0.0000 1.8091 0.0000
# 4 0.0000 0.0000 0.0000 -7.9235 0.0000 -17.1336
# 5 -8.7292 7.2204 1.8091 0.0000 21.1006 0.0000
# 6 0.0000 0.0000 0.0000 -17.1336 0.0000 -8.3470
#
#
#
# Elastic Compliance Matrix: (Units=1/GPa)
#
#
# Indices 1 2 3 4 5 6 
#
# 1 0.020745 -0.004196 0.001426 0.000000 0.009896 0.000000
# 2 -0.004196 0.017421 -0.012538 0.000000 -0.006622 0.000000
# 3 0.001426 -0.012538 0.030077 0.000000 0.002302 0.000000
# 4 0.000000 0.000000 0.000000 0.036703 0.000000 -0.075338
# 5 0.009896 -0.006622 0.002302 0.000000 0.053555 0.000000
# 6 0.000000 0.000000 0.000000 -0.075338 0.000000 0.034840
#
#
# Mechanical properties :
#
#
# Convention : Reuss Voigt Hill
#
# Bulk Modulus (GPa) = 26.57694 32.63553 29.60623
# Shear Modulus (GPa) = 21.14158 10.32172 15.73165
#
# Velocity S-wave (km/s) = 3.25355 2.27334 2.80657
# Velocity P-wave (km/s) = 5.23652 4.81989 5.03252
#
# Compressibility (1/GPa) = 0.03762661
#
# Stress axis : x y z
#
# Youngs Moduli (GPa) = 48.20447 57.40095 33.24749
#
# Poissons Ratio (x) = 0.24087 -0.04741
# Poissons Ratio (y) = 0.20228 0.41686
# Poissons Ratio (z) = -0.06873 0.71971
#
# Static dielectric constant tensor:
#      x y z
#    x 1.619870 0.000000 -0.032610 
#    y 0.000000 1.691420 0.000000 
#    z -0.032610 0.000000 1.738310 
# 
# From -- ./inp_files/354939.got.cif
#   From: 2010.05.17/outbox.cif.g08.bks.cpg/sg12_178_cif.got.tgz:354939.got - 2010.06.03 13:09:07.
