data_PCOD9178606
_publ_section_title
;
Structure prediction by ZEFSAII (Michael W. Deem and Ramdas Pophale) SiO2 
 PCOD9178606
Probable space group: C 2/M
;
_chemical_formula_sum "Si O2"
_cell_formula_units_Z 40
_cell_length_a 24.699612
_cell_length_b 8.923407
_cell_length_c 32.341883
_cell_angle_alpha 90.000000
_cell_angle_beta 19.886092
_cell_angle_gamma 90.000000
_cell_volume 2424.701395
_symmetry_space_group_name_H-M "C 2/M"
_symmetry_group_IT_number 12
_symmetry_cell_setting 'monoclinic'
loop_
_space_group_symop_operation_xyz
x,y,z
-x,y,-z
-x,-y,-z
x,-y,z
1/2+x,1/2+y,z
1/2-x,1/2+y,-z
1/2-x,1/2-y,-z
1/2+x,1/2-y,z
loop_
_atom_site_type_symbol
_atom_site_label
_atom_site_fract_x
_atom_site_fract_y
_atom_site_fract_z
Si Si1 0.744758 0.178636 0.299973
Si Si2 0.442666 0.177490 0.901698
Si Si3 0.708450 0.821495 0.573778
Si Si4 0.581091 0.321963 0.171677
Si Si5 0.419042 0.179313 0.493409
O O1 0.602877 0.218722 0.370448
O O2 0.675003 0.208078 0.396130
O O3 0.909672 0.265193 0.177573
O O4 0.771048 0.000000 0.278205
O O5 0.448478 0.263407 0.853680
O O6 0.456058 0.000000 0.884310
O O7 0.267896 0.205586 0.046064
O O8 0.750000 0.750000 0.500000
O O9 0.538768 0.761405 0.711943
O O10 0.836508 0.766701 0.515772
O O11 0.707204 0.000000 0.572059
O O12 0.550860 0.500000 0.194713
O O13 0.409759 0.000000 0.492632
#
# Coordination Sequence:
#
# PCOD9178606 Si02
#       5
#     8   8   8   8   8
#     4   9  17  30  52  77 108 141 167 208 263 312
#     4  10  19  30  50  79 108 137 170 213 262 308
#     4  12  24  37  55  77 103 139 178 218 259 306
#     4  10  20  34  50  73 107 140 173 214 259 308
#     4   9  18  33  51  76 106 139 174 210 258 310
#
# _framework density 16.496877000000001
#
# number of rings (size 3 to 8) (size 9 to 14) (size 15 to 20)
#    0.000    2.000    2.000    4.200    0.000    3.200 
#    0.000    2.000    0.000    1.200    0.000    8.400 
#    0.000    0.000    0.000    0.000    0.000    0.000 
#
# Total GULP energy -111613.211855 kJ/mol
# GULP energy per Si atom -5580.660593 kJ/mol
# Density = 1.645933 g / cm^3
# Si number density = 16.496877 Si / 1000 Ang^3
#
#
#
# Elastic Constant Matrix: (Units=GPa)
#
#
# Indices 1 2 3 4 5 6 
#
# 1 79.2104 64.1730 68.7846 -0.0119 -9.9235 -0.0011
# 2 64.1730 101.0288 75.3951 0.0068 -8.9830 0.0023
# 3 68.7846 75.3951 125.6643 0.0531 -20.1260 0.0088
# 4 -0.0119 0.0068 0.0531 29.1990 0.0049 -4.1855
# 5 -9.9235 -8.9830 -20.1260 0.0049 32.7897 -0.0015
# 6 -0.0011 0.0023 0.0088 -4.1855 -0.0015 27.6102
#
#
#
# Elastic Compliance Matrix: (Units=1/GPa)
#
#
# Indices 1 2 3 4 5 6 
#
# 1 0.031098 -0.012777 -0.009327 0.000034 0.000187 0.000011
# 2 -0.012777 0.023277 -0.007286 0.000003 -0.001962 0.000000
# 3 -0.009327 -0.007286 0.018479 -0.000038 0.006524 -0.000011
# 4 0.000034 0.000003 -0.000038 0.035009 -0.000017 0.005307
# 5 0.000187 -0.001962 0.006524 -0.000017 0.034021 -0.000003
# 6 0.000011 0.000000 -0.000011 0.005307 -0.000003 0.037023
#
#
# Mechanical properties :
#
#
# Convention : Reuss Voigt Hill
#
# Bulk Modulus (GPa) = 71.04658 80.28989 75.66824
# Shear Modulus (GPa) = 20.62905 24.42317 22.52611
#
# Velocity S-wave (km/s) = 3.54005 3.85186 3.69925
# Velocity P-wave (km/s) = 7.73754 8.27997 8.01334
#
# Compressibility (1/GPa) = 0.01407527
#
# Stress axis : x y z
#
# Youngs Moduli (GPa) = 32.15631 42.96118 54.11505
#
# Poissons Ratio (x) = 0.54890 0.50471
# Poissons Ratio (y) = 0.41085 0.39429
# Poissons Ratio (z) = 0.29991 0.31302
#
# Static dielectric constant tensor:
#      x y z
#    x 1.535830 0.000000 -0.031980 
#    y 0.000000 1.547480 0.000000 
#    z -0.031980 0.000000 1.563750 
# 
# From -- ./inp_files/162733.got.cif
#   From: 2010.05.17/outbox.cif.g08.bks.cpg/sg12_82_cif.got.tgz:162733.got - 2010.06.03 13:09:07.
