data_PCOD9178070
_publ_section_title
;
Structure prediction by ZEFSAII (Michael W. Deem and Ramdas Pophale) SiO2 
 PCOD9178070
Probable space group: C 2/M
;
_chemical_formula_sum "Si O2"
_cell_formula_units_Z 56
_cell_length_a 27.655666
_cell_length_b 8.795024
_cell_length_c 16.334056
_cell_angle_alpha 90.000000
_cell_angle_beta 114.511887
_cell_angle_gamma 90.000000
_cell_volume 3614.906146
_symmetry_space_group_name_H-M "C 2/M"
_symmetry_group_IT_number 12
_symmetry_cell_setting 'monoclinic'
loop_
_space_group_symop_operation_xyz
x,y,z
-x,y,-z
-x,-y,-z
x,-y,z
1/2+x,1/2+y,z
1/2-x,1/2+y,-z
1/2-x,1/2-y,-z
1/2+x,1/2-y,z
loop_
_atom_site_type_symbol
_atom_site_label
_atom_site_fract_x
_atom_site_fract_y
_atom_site_fract_z
Si Si1 0.312398 0.318780 0.452858
Si Si2 0.419116 0.818164 0.462397
Si Si3 0.697873 0.681378 0.362118
Si Si4 0.511508 0.818987 0.810488
Si Si5 0.487160 0.318186 0.366514
Si Si6 0.441337 0.675412 0.000103
Si Si7 0.603524 0.181287 0.189677
O O1 0.316535 0.500000 0.444682
O O2 0.359728 0.235107 0.439475
O O3 0.316885 0.285511 0.553403
O O4 0.254448 0.260262 0.385893
O O5 0.457891 0.751137 0.559841
O O6 0.441954 0.749104 0.394292
O O7 0.423465 0.000000 0.464315
O O8 0.703242 0.500000 0.357922
O O9 0.652127 0.742938 0.271197
O O10 0.520437 0.734123 0.731653
O O11 0.451583 0.785999 0.800591
O O12 0.516068 0.000000 0.802810
O O13 0.551183 0.762210 0.909287
O O14 0.488727 0.500000 0.374426
O O15 0.426440 0.500000 0.002565
O O16 0.403869 0.754533 0.907064
O O17 0.500000 0.677722 0.000000
O O18 0.609905 0.000000 0.191757
#
# Coordination Sequence:
#
# PCOD9178070 Si02
#       7
#     8   8   8   8   8   8   8
#     4  10  20  34  50  69  95 125 158 196 236 278
#     4  11  21  34  50  69  95 125 158 196 237 278
#     4  10  20  32  48  70  95 125 160 195 233 279
#     4  10  19  31  47  69  97 127 159 194 235 281
#     4  11  21  33  49  70  95 125 161 195 233 279
#     4   9  17  29  45  66  93 124 157 193 234 280
#     4  10  19  30  46  68  96 128 159 194 235 280
#
# _framework density 15.491412
#
# number of rings (size 3 to 8) (size 9 to 14) (size 15 to 20)
#    0.000    1.857    0.000    6.429    0.000    7.429 
#    0.000    0.000    0.000    0.000    0.000    1.000 
#    0.000    0.000    0.000    0.000    0.000    0.000 
#
# Total GULP energy -156322.868388 kJ/mol
# GULP energy per Si atom -5582.959585 kJ/mol
# Density = 1.545615 g / cm^3
# Si number density = 15.491412 Si / 1000 Ang^3
#
#
#
# Elastic Constant Matrix: (Units=GPa)
#
#
# Indices 1 2 3 4 5 6 
#
# 1 65.1169 47.5479 42.8467 0.0000 4.6460 0.0000
# 2 47.5479 111.4201 59.8894 0.0000 -0.9854 0.0000
# 3 42.8467 59.8894 127.5697 0.0000 4.6455 0.0000
# 4 0.0000 0.0000 0.0000 31.1528 0.0000 1.2431
# 5 4.6460 -0.9854 4.6455 0.0000 18.9676 0.0000
# 6 0.0000 0.0000 0.0000 1.2431 0.0000 25.2416
#
#
#
# Elastic Compliance Matrix: (Units=1/GPa)
#
#
# Indices 1 2 3 4 5 6 
#
# 1 0.024522 -0.008281 -0.004151 0.000000 -0.005420 0.000000
# 2 -0.008281 0.014878 -0.004344 0.000000 0.003865 0.000000
# 3 -0.004151 -0.004344 0.011345 0.000000 -0.001987 0.000000
# 4 0.000000 0.000000 0.000000 0.032163 0.000000 -0.001584
# 5 -0.005420 0.003865 -0.001987 0.000000 0.054737 0.000000
# 6 0.000000 0.000000 0.000000 -0.001584 0.000000 0.039695
#
#
# Mechanical properties :
#
#
# Convention : Reuss Voigt Hill
#
# Bulk Modulus (GPa) = 58.16609 67.18608 62.67608
# Shear Modulus (GPa) = 23.08151 25.32725 24.20438
#
# Velocity S-wave (km/s) = 3.86418 4.04780 3.95706
# Velocity P-wave (km/s) = 7.58538 8.08148 7.83736
#
# Compressibility (1/GPa) = 0.01719215
#
# Stress axis : x y z
#
# Youngs Moduli (GPa) = 40.77959 67.21226 88.14593
#
# Poissons Ratio (x) = 0.55661 0.36590
# Poissons Ratio (y) = 0.33771 0.38291
# Poissons Ratio (z) = 0.16928 0.29198
#
# Static dielectric constant tensor:
#      x y z
#    x 1.493430 0.000000 -0.003930 
#    y 0.000000 1.514770 0.000000 
#    z -0.003930 0.000000 1.500090 
# 
# From -- ./inp_files/237889.got.cif
#   From: 2010.05.17/outbox.cif.g08.bks.cpg/sg12_119_cif.got.tgz:237889.got - 2010.06.03 13:09:07.
