data_PCOD9178923
_publ_section_title
;
Structure prediction by ZEFSAII (Michael W. Deem and Ramdas Pophale) SiO2 
 PCOD9178923
Probable space group: C 2/M
;
_chemical_formula_sum "Si O2"
_cell_formula_units_Z 64
_cell_length_a 22.606284
_cell_length_b 7.383050
_cell_length_c 19.592591
_cell_angle_alpha 90.000000
_cell_angle_beta 115.535398
_cell_angle_gamma 90.000000
_cell_volume 2950.645465
_symmetry_space_group_name_H-M "C 2/M"
_symmetry_group_IT_number 12
_symmetry_cell_setting 'monoclinic'
loop_
_space_group_symop_operation_xyz
x,y,z
-x,y,-z
-x,-y,-z
x,-y,z
1/2+x,1/2+y,z
1/2-x,1/2+y,-z
1/2-x,1/2-y,-z
1/2+x,1/2-y,z
loop_
_atom_site_type_symbol
_atom_site_label
_atom_site_fract_x
_atom_site_fract_y
_atom_site_fract_z
Si Si1 0.426775 0.279002 0.136104
Si Si2 0.810558 0.785303 0.982465
Si Si3 0.963680 0.220312 0.553189
Si Si4 0.965089 0.220343 0.912108
Si Si5 0.184699 0.218894 0.165973
Si Si6 0.801428 0.790363 0.322303
Si Si7 0.688267 0.716808 0.520070
Si Si8 0.578917 0.721324 0.710838
O O1 0.423392 0.500000 0.135937
O O2 0.372839 0.214735 0.054784
O O3 0.494684 0.227733 0.134725
O O4 0.417345 0.217552 0.208837
O O5 0.822218 0.000000 0.979972
O O6 0.750000 0.750000 0.000000
O O7 0.794894 0.717433 0.899319
O O8 0.888018 0.279698 0.528086
O O9 0.000000 0.276494 0.500000
O O10 0.012192 0.272675 0.638856
O O11 0.962366 0.000000 0.549812
O O12 0.890472 0.277513 0.867134
O O13 0.965020 0.000000 0.915717
O O14 0.000000 0.280208 0.000000
O O15 0.233874 0.283069 0.247928
O O16 0.186838 0.000000 0.170241
O O17 0.795088 0.715386 0.395227
O O18 0.859367 0.714411 0.303574
O O19 0.820195 0.000000 0.341331
O O20 0.683539 0.500000 0.517288
O O21 0.750000 0.750000 0.500000
O O22 0.580584 0.500000 0.713506
#
# Coordination Sequence:
#
# PCOD9178923 Si02
#       8
#     8   8   8   8   8   8   8   8
#     4   9  16  26  44  70  96 125 165 211 255 300
#     4  10  19  31  47  70 100 133 167 207 255 306
#     4   9  15  29  53  78 104 136 178 225 268 312
#     4   9  15  28  47  67  97 133 167 210 262 307
#     4  10  20  32  51  76 103 137 174 214 263 316
#     4  10  20  35  53  76 108 142 172 213 269 320
#     4  10  21  36  57  83 114 147 177 220 275 328
#     4   9  16  27  48  76 100 128 174 224 263 303
#
# _framework density 21.690170999999999
#
# number of rings (size 3 to 8) (size 9 to 14) (size 15 to 20)
#    0.000    2.500    2.500    0.750    0.000    3.000 
#    0.000    2.500    0.000    2.250    0.000    3.500 
#    0.000    0.000    0.000    0.000    0.000    0.000 
#
# Total GULP energy -178541.711420 kJ/mol
# GULP energy per Si atom -5579.428482 kJ/mol
# Density = 2.164080 g / cm^3
# Si number density = 21.690171 Si / 1000 Ang^3
#
#
#
# Elastic Constant Matrix: (Units=GPa)
#
#
# Indices 1 2 3 4 5 6 
#
# 1 149.8291 -4.0760 53.3892 0.0000 -3.7662 0.0000
# 2 -4.0760 73.1809 -3.0212 0.0000 -3.8743 0.0000
# 3 53.3892 -3.0212 129.3232 0.0000 -1.6759 0.0000
# 4 0.0000 0.0000 0.0000 4.1886 0.0000 3.6780
# 5 -3.7662 -3.8743 -1.6759 0.0000 40.9247 0.0000
# 6 0.0000 0.0000 0.0000 3.6780 0.0000 15.5974
#
#
#
# Elastic Compliance Matrix: (Units=1/GPa)
#
#
# Indices 1 2 3 4 5 6 
#
# 1 0.007848 0.000337 -0.003224 0.000000 0.000622 0.000000
# 2 0.000337 0.013763 0.000200 0.000000 0.001342 0.000000
# 3 -0.003224 0.000200 0.009069 0.000000 0.000094 0.000000
# 4 0.000000 0.000000 0.000000 0.301085 0.000000 -0.070997
# 5 0.000622 0.001342 0.000094 0.000000 0.024623 0.000000
# 6 0.000000 0.000000 0.000000 -0.070997 0.000000 0.080855
#
#
# Mechanical properties :
#
#
# Convention : Reuss Voigt Hill
#
# Bulk Modulus (GPa) = 39.51675 49.43526 44.47600
# Shear Modulus (GPa) = 11.08518 32.54490 21.81504
#
# Velocity S-wave (km/s) = 2.26314 3.87776 3.17481
# Velocity P-wave (km/s) = 5.00873 6.54908 5.83000
#
# Compressibility (1/GPa) = 0.02530573
#
# Stress axis : x y z
#
# Youngs Moduli (GPa) = 127.42296 72.65947 110.26080
#
# Poissons Ratio (x) = -0.02448 0.35548
# Poissons Ratio (y) = -0.04294 -0.02203
# Poissons Ratio (z) = 0.41081 -0.01452
#
# Static dielectric constant tensor:
#      x y z
#    x 1.795490 0.000000 0.004620 
#    y 0.000000 1.835370 0.000000 
#    z 0.004620 0.000000 1.756380 
# 
# From -- ./inp_files/320010.got.cif
#   From: 2010.05.17/outbox.cif.g08.bks.cpg/sg12_161_cif.got.tgz:320010.got - 2010.06.03 13:09:07.
