data_PCOD9178343
_publ_section_title
;
Structure prediction by ZEFSAII (Michael W. Deem and Ramdas Pophale) SiO2 
 PCOD9178343
Probable space group: C 2/M
;
_chemical_formula_sum "Si O2"
_cell_formula_units_Z 40
_cell_length_a 23.248292
_cell_length_b 7.488197
_cell_length_c 11.657053
_cell_angle_alpha 90.000000
_cell_angle_beta 92.590428
_cell_angle_gamma 90.000000
_cell_volume 2027.276876
_symmetry_space_group_name_H-M "C 2/M"
_symmetry_group_IT_number 12
_symmetry_cell_setting 'monoclinic'
loop_
_space_group_symop_operation_xyz
x,y,z
-x,y,-z
-x,-y,-z
x,-y,z
1/2+x,1/2+y,z
1/2-x,1/2+y,-z
1/2-x,1/2-y,-z
1/2+x,1/2-y,z
loop_
_atom_site_type_symbol
_atom_site_label
_atom_site_fract_x
_atom_site_fract_y
_atom_site_fract_z
Si Si1 0.556183 0.299910 0.055021
Si Si2 0.878519 0.703804 0.155294
Si Si3 0.252808 0.212674 0.136990
Si Si4 0.585816 0.000000 0.411737
Si Si5 0.360746 0.282182 0.738016
Si Si6 0.452523 0.000000 0.330412
O O1 0.538323 0.500000 0.089181
O O2 0.598682 0.308541 0.951162
O O3 0.500000 0.204634 0.000000
O O4 0.590457 0.227368 0.165080
O O5 0.868936 0.500000 0.110379
O O6 0.815879 0.771004 0.186533
O O7 0.926546 0.669748 0.257147
O O8 0.199228 0.277038 0.208161
O O9 0.249030 0.000000 0.148502
O O10 0.250000 0.250000 0.000000
O O11 0.621500 0.172906 0.372602
O O12 0.521166 0.000000 0.350824
O O13 0.575251 0.000000 0.546456
O O14 0.361155 0.500000 0.724601
#
# Coordination Sequence:
#
# PCOD9178343 Si02
#       6
#     8   8   8   4   8   4
#     4  10  19  30  47  81 117 142 178 231 291 357
#     4   9  19  34  54  75 110 150 183 237 289 335
#     4  10  19  32  53  81 116 150 184 228 285 354
#     4  11  22  41  65  81 113 160 207 242 304 331
#     4  10  22  36  56  89 118 152 192 243 290 357
#     4   9  22  41  59  85 109 150 211 256 274 357
#
# _framework density 19.730903000000001
#
# number of rings (size 3 to 8) (size 9 to 14) (size 15 to 20)
#    0.600    1.600    2.000    1.200    2.800    0.400 
#    0.000    4.000    0.000    0.000    0.000    0.000 
#    0.000    0.000    0.000    0.000    0.000    0.000 
#
# Total GULP energy -111343.043196 kJ/mol
# GULP energy per Si atom -5567.152160 kJ/mol
# Density = 1.968599 g / cm^3
# Si number density = 19.730903 Si / 1000 Ang^3
#
#
#
# Elastic Constant Matrix: (Units=GPa)
#
#
# Indices 1 2 3 4 5 6 
#
# 1 45.5829 5.7772 -7.9391 0.0000 -20.2451 0.0000
# 2 5.7772 65.6355 14.0678 0.0000 -11.5462 0.0000
# 3 -7.9391 14.0678 70.8117 0.0000 -20.9456 0.0000
# 4 0.0000 0.0000 0.0000 1.4569 0.0000 -23.1480
# 5 -20.2451 -11.5462 -20.9456 0.0000 34.6583 0.0000
# 6 0.0000 0.0000 0.0000 -23.1480 0.0000 -9.1538
#
#
#
# Elastic Compliance Matrix: (Units=1/GPa)
#
#
# Indices 1 2 3 4 5 6 
#
# 1 0.037423 -0.000917 0.013094 0.000000 0.029468 0.000000
# 2 -0.000917 0.016436 -0.002322 0.000000 0.003537 0.000000
# 3 0.013094 -0.002322 0.022022 0.000000 0.020184 0.000000
# 4 0.000000 0.000000 0.000000 0.016669 0.000000 -0.042151
# 5 0.029468 0.003537 0.020184 0.000000 0.059443 0.000000
# 6 0.000000 0.000000 0.000000 -0.042151 0.000000 -0.002653
#
#
# Mechanical properties :
#
#
# Convention : Reuss Voigt Hill
#
# Bulk Modulus (GPa) = 10.46115 22.87132 16.66624
# Shear Modulus (GPa) = 30.96143 16.73388 23.84765
#
# Velocity S-wave (km/s) = 3.96559 2.91538 3.48033
# Velocity P-wave (km/s) = 5.12653 4.79055 4.96139
#
# Compressibility (1/GPa) = 0.09559176
#
# Stress axis : x y z
#
# Youngs Moduli (GPa) = 26.72178 60.84130 45.41012
#
# Poissons Ratio (x) = 0.05577 -0.59461
# Poissons Ratio (y) = 0.02449 0.10544
# Poissons Ratio (z) = -0.34990 0.14126
#
# Static dielectric constant tensor:
#      x y z
#    x 1.780920 0.000000 -0.001400 
#    y 0.000000 1.725470 0.000000 
#    z -0.001400 0.000000 1.655940 
# 
# From -- ./inp_files/171446.got.cif
#   From: 2010.05.17/outbox.cif.g08.bks.cpg/sg12_86_cif.got.tgz:171446.got - 2010.06.03 13:09:07.
