data_PCOD9178377
_publ_section_title
;
Structure prediction by ZEFSAII (Michael W. Deem and Ramdas Pophale) SiO2 
 PCOD9178377
Probable space group: C 2/M
;
_chemical_formula_sum "Si O2"
_cell_formula_units_Z 64
_cell_length_a 30.853455
_cell_length_b 8.754573
_cell_length_c 15.507028
_cell_angle_alpha 90.000000
_cell_angle_beta 78.895454
_cell_angle_gamma 90.000000
_cell_volume 4110.163835
_symmetry_space_group_name_H-M "C 2/M"
_symmetry_group_IT_number 12
_symmetry_cell_setting 'monoclinic'
loop_
_space_group_symop_operation_xyz
x,y,z
-x,y,-z
-x,-y,-z
x,-y,z
1/2+x,1/2+y,z
1/2-x,1/2+y,-z
1/2-x,1/2-y,-z
1/2+x,1/2-y,z
loop_
_atom_site_type_symbol
_atom_site_label
_atom_site_fract_x
_atom_site_fract_y
_atom_site_fract_z
Si Si1 0.191518 0.684422 0.381002
Si Si2 0.813037 0.816233 0.921541
Si Si3 0.150908 0.683888 0.579978
Si Si4 0.553474 0.816839 0.559821
Si Si5 0.128008 0.184219 0.257858
Si Si6 0.461993 0.683282 0.624183
Si Si7 0.284912 0.817810 0.107681
Si Si8 0.790680 0.182757 0.291930
O O1 0.189409 0.500000 0.378265
O O2 0.175832 0.731693 0.482306
O O3 0.158609 0.749582 0.321829
O O4 0.241566 0.732671 0.341391
O O5 0.851760 0.768474 0.841699
O O6 0.766202 0.775724 0.894242
O O7 0.813851 0.000000 0.930957
O O8 0.812687 0.741154 0.015456
O O9 0.154168 0.500000 0.584951
O O10 0.099345 0.723217 0.588167
O O11 0.173985 0.756902 0.653340
O O12 0.509507 0.757465 0.623670
O O13 0.552207 0.742047 0.465272
O O14 0.551464 0.000000 0.550640
O O15 0.077382 0.226431 0.295983
O O16 0.131001 0.000000 0.261076
O O17 0.466248 0.500000 0.620200
O O18 0.298088 0.745365 0.193199
O O19 0.287357 0.000000 0.112308
O O20 0.791267 0.000000 0.290170
#
# Coordination Sequence:
#
# PCOD9178377 Si02
#       8
#     8   8   8   8   8   8   8   8
#     4  10  20  33  47  68  98 131 168 203 234 278
#     4   9  18  32  49  70  97 126 160 199 240 287
#     4  10  21  35  49  67  95 132 170 205 239 281
#     4  10  19  32  49  68  94 129 164 200 243 284
#     4  10  19  31  49  73  99 131 161 195 243 288
#     4  10  19  30  48  72  98 125 159 200 243 289
#     4  10  19  32  50  70  95 128 161 200 243 284
#     4  11  22  33  49  71  96 130 168 205 242 283
#
# _framework density 15.571154999999999
#
# number of rings (size 3 to 8) (size 9 to 14) (size 15 to 20)
#    0.000    2.000    2.500    2.625    0.000    3.500 
#    0.000    0.000    0.000    0.000    0.000    0.875 
#    0.000    7.000    0.000    0.000    0.000    0.000 
#
# Total GULP energy -178561.952254 kJ/mol
# GULP energy per Si atom -5580.061008 kJ/mol
# Density = 1.553571 g / cm^3
# Si number density = 15.571155 Si / 1000 Ang^3
#
#
#
# Elastic Constant Matrix: (Units=GPa)
#
#
# Indices 1 2 3 4 5 6 
#
# 1 95.8370 29.2448 79.0084 0.0000 -6.9190 0.0000
# 2 29.2448 25.4886 36.0816 0.0000 -0.8888 0.0000
# 3 79.0084 36.0816 139.4153 0.0000 -7.1840 0.0000
# 4 0.0000 0.0000 0.0000 23.7624 0.0000 3.6454
# 5 -6.9190 -0.8888 -7.1840 0.0000 24.1343 0.0000
# 6 0.0000 0.0000 0.0000 3.6454 0.0000 22.7119
#
#
#
# Elastic Compliance Matrix: (Units=1/GPa)
#
#
# Indices 1 2 3 4 5 6 
#
# 1 0.021839 -0.012082 -0.009089 0.000000 0.003110 0.000000
# 2 -0.012082 0.068755 -0.011166 0.000000 -0.004256 0.000000
# 3 -0.009089 -0.011166 0.015293 0.000000 0.001535 0.000000
# 4 0.000000 0.000000 0.000000 0.043146 0.000000 -0.006925
# 5 0.003110 -0.004256 0.001535 0.000000 0.042627 0.000000
# 6 0.000000 0.000000 0.000000 -0.006925 0.000000 0.045141
#
#
# Mechanical properties :
#
#
# Convention : Reuss Voigt Hill
#
# Bulk Modulus (GPa) = 24.26543 61.04563 42.65553
# Shear Modulus (GPa) = 15.86232 21.88214 18.87223
#
# Velocity S-wave (km/s) = 3.19517 3.75280 3.48516
# Velocity P-wave (km/s) = 5.40644 7.62020 6.60670
#
# Compressibility (1/GPa) = 0.04121088
#
# Stress axis : x y z
#
# Youngs Moduli (GPa) = 45.78962 14.54450 65.39042
#
# Poissons Ratio (x) = 0.17573 0.59435
# Poissons Ratio (y) = 0.55324 0.73016
# Poissons Ratio (z) = 0.41619 0.16241
#
# Static dielectric constant tensor:
#      x y z
#    x 1.513210 0.000000 -0.028700 
#    y 0.000000 1.523030 0.000000 
#    z -0.028700 0.000000 1.502840 
# 
# From -- ./inp_files/248272.got.cif
#   From: 2010.05.17/outbox.cif.g08.bks.cpg/sg12_125_cif.got.tgz:248272.got - 2010.06.03 13:09:07.
