data_PCOD9178280
_publ_section_title
;
Structure prediction by ZEFSAII (Michael W. Deem and Ramdas Pophale) SiO2 
 PCOD9178280
Probable space group: C 2/M
;
_chemical_formula_sum "Si O2"
_cell_formula_units_Z 40
_cell_length_a 26.383785
_cell_length_b 8.990658
_cell_length_c 10.075850
_cell_angle_alpha 90.000000
_cell_angle_beta 89.783891
_cell_angle_gamma 90.000000
_cell_volume 2390.051071
_symmetry_space_group_name_H-M "C 2/M"
_symmetry_group_IT_number 12
_symmetry_cell_setting 'monoclinic'
loop_
_space_group_symop_operation_xyz
x,y,z
-x,y,-z
-x,-y,-z
x,-y,z
1/2+x,1/2+y,z
1/2-x,1/2+y,-z
1/2-x,1/2-y,-z
1/2+x,1/2-y,z
loop_
_atom_site_type_symbol
_atom_site_label
_atom_site_fract_x
_atom_site_fract_y
_atom_site_fract_z
Si Si1 0.690634 0.679017 0.139517
Si Si2 0.307029 0.179005 0.144902
Si Si3 0.606190 0.322160 0.352892
Si Si4 0.891011 0.680135 0.357220
Si Si5 0.997249 0.670644 0.661187
O O1 0.688601 0.500000 0.127549
O O2 0.748588 0.719777 0.175978
O O3 0.650188 0.724249 0.250785
O O4 0.679722 0.750280 0.996854
O O5 0.346047 0.223950 0.259103
O O6 0.309449 0.000000 0.133542
O O7 0.606451 0.500000 0.365173
O O8 0.614658 0.250676 0.497524
O O9 0.551160 0.268247 0.302591
O O10 0.891516 0.500000 0.371302
O O11 0.946540 0.721794 0.298869
O O12 0.989243 0.500000 0.704101
O O13 0.000000 0.670327 0.500000
#
# Coordination Sequence:
#
# PCOD9178280 Si02
#       5
#     8   8   8   8   8
#     4   9  19  34  49  69  97 124 154 193 233 277
#     4   9  18  34  53  69  90 124 160 193 233 277
#     4  10  19  30  47  72  99 125 153 188 232 280
#     4   9  18  32  50  72  95 120 156 198 232 269
#     4   8  15  29  47  67  93 123 155 192 230 269
#
# _framework density 16.736042999999999
#
# number of rings (size 3 to 8) (size 9 to 14) (size 15 to 20)
#    0.000    3.000    0.000    1.800    0.000    6.800 
#    0.000    1.000    0.000    6.000    0.000    0.000 
#    0.000    0.000    0.000    0.000    0.000    0.000 
#
# Total GULP energy -111409.237346 kJ/mol
# GULP energy per Si atom -5570.461867 kJ/mol
# Density = 1.669795 g / cm^3
# Si number density = 16.736043 Si / 1000 Ang^3
#
#
#
# Elastic Constant Matrix: (Units=GPa)
#
#
# Indices 1 2 3 4 5 6 
#
# 1 152.1129 45.2182 95.4829 0.0000 -15.8068 0.0000
# 2 45.2182 22.5373 33.6078 0.0000 -2.2228 0.0000
# 3 95.4829 33.6078 86.2807 0.0000 -13.0669 0.0000
# 4 0.0000 0.0000 0.0000 24.7221 0.0000 -1.8383
# 5 -15.8068 -2.2228 -13.0669 0.0000 -5.9967 0.0000
# 6 0.0000 0.0000 0.0000 -1.8383 0.0000 25.3882
#
#
#
# Elastic Compliance Matrix: (Units=1/GPa)
#
#
# Indices 1 2 3 4 5 6 
#
# 1 0.024246 -0.017454 -0.021603 0.000000 -0.010367 0.000000
# 2 -0.017454 0.108011 -0.016431 0.000000 0.041772 0.000000
# 3 -0.021603 -0.016431 0.038679 0.000000 -0.021248 0.000000
# 4 0.000000 0.000000 0.000000 0.040669 0.000000 0.002945
# 5 -0.010367 0.041772 -0.021248 0.000000 -0.108617 0.000000
# 6 0.000000 0.000000 0.000000 0.002945 0.000000 0.039602
#
#
# Mechanical properties :
#
#
# Convention : Reuss Voigt Hill
#
# Bulk Modulus (GPa) = 16.67744 67.72764 42.20254
# Shear Modulus (GPa) = 18.27804 14.59753 16.43779
#
# Velocity S-wave (km/s) = 3.30833 2.95654 3.13737
# Velocity P-wave (km/s) = 4.95783 7.22571 6.19641
#
# Compressibility (1/GPa) = 0.05996122
#
# Stress axis : x y z
#
# Youngs Moduli (GPa) = 41.24438 9.25828 25.85360
#
# Poissons Ratio (x) = 0.16159 0.55852
# Poissons Ratio (y) = 0.71987 0.42480
# Poissons Ratio (z) = 0.89101 0.15212
#
# Static dielectric constant tensor:
#      x y z
#    x 1.594020 0.000000 0.007840 
#    y 0.000000 1.564060 0.000000 
#    z 0.007840 0.000000 1.525680 
# 
# From -- ./inp_files/100998.got.cif
#   From: 2010.05.17/outbox.cif.g08.bks.cpg/sg12_51_cif.got.tgz:100998.got - 2010.06.03 13:09:07.
