data_PCOD9178644
_publ_section_title
;
Structure prediction by ZEFSAII (Michael W. Deem and Ramdas Pophale) SiO2 
 PCOD9178644
Probable space group: C 2/M
;
_chemical_formula_sum "Si O2"
_cell_formula_units_Z 64
_cell_length_a 38.822429
_cell_length_b 14.280719
_cell_length_c 9.878455
_cell_angle_alpha 90.000000
_cell_angle_beta 141.138255
_cell_angle_gamma 90.000000
_cell_volume 3436.341306
_symmetry_space_group_name_H-M "C 2/M"
_symmetry_group_IT_number 12
_symmetry_cell_setting 'monoclinic'
loop_
_space_group_symop_operation_xyz
x,y,z
-x,y,-z
-x,-y,-z
x,-y,z
1/2+x,1/2+y,z
1/2-x,1/2+y,-z
1/2-x,1/2-y,-z
1/2+x,1/2-y,z
loop_
_atom_site_type_symbol
_atom_site_label
_atom_site_fract_x
_atom_site_fract_y
_atom_site_fract_z
Si Si1 0.661840 0.787211 0.130321
Si Si2 0.166688 0.307979 0.450946
Si Si3 0.338976 0.394610 0.458369
Si Si4 0.058700 0.712130 0.616101
Si Si5 0.880723 0.388213 0.431913
Si Si6 0.711855 0.389481 0.176914
Si Si7 0.391034 0.394244 0.334525
Si Si8 0.285219 0.892297 0.944134
O O1 0.657385 0.829604 0.265067
O O2 0.683914 0.679971 0.201170
O O3 0.705713 0.838674 0.167995
O O4 0.605590 0.799290 0.874467
O O5 0.159926 0.195990 0.444851
O O6 0.125089 0.350476 0.434121
O O7 0.227709 0.348588 0.670075
O O8 0.345280 0.500000 0.536539
O O9 0.381025 0.383421 0.463544
O O10 0.277784 0.391073 0.208277
O O11 0.072745 0.650200 0.526664
O O12 0.066912 0.818607 0.591997
O O13 0.000000 0.693117 0.500000
O O14 0.882332 0.500000 0.441941
O O15 0.825154 0.355306 0.183034
O O16 0.716055 0.500000 0.224816
O O17 0.668107 0.381052 0.920146
O O18 0.408550 0.500000 0.359317
O O19 0.301415 0.000000 0.970280
#
# Coordination Sequence:
#
# PCOD9178644 Si02
#       8
#     8   8   8   8   8   8   8   8
#     4  10  22  36  51  80 112 142 182 221 262 314
#     4  12  21  33  52  81 114 149 173 210 263 327
#     4  10  19  30  51  79 112 147 180 212 257 315
#     4  10  21  40  63  79  98 136 183 234 278 315
#     4  10  21  36  56  80 107 138 178 224 268 316
#     4  10  20  32  51  79 117 153 180 210 253 311
#     4   9  18  34  55  84 110 138 182 226 259 308
#     4   9  18  33  52  77 108 147 183 211 249 308
#
# _framework density 18.624459999999999
#
# number of rings (size 3 to 8) (size 9 to 14) (size 15 to 20)
#    0.000    2.000    2.500    1.500    0.000    5.000 
#    0.000    0.625    0.000    0.750    0.000    1.750 
#    0.000    0.000    0.000    0.000    0.000    0.000 
#
# Total GULP energy -178370.368501 kJ/mol
# GULP energy per Si atom -5574.074016 kJ/mol
# Density = 1.858207 g / cm^3
# Si number density = 18.624460 Si / 1000 Ang^3
#
#
#
# Elastic Constant Matrix: (Units=GPa)
#
#
# Indices 1 2 3 4 5 6 
#
# 1 125.4580 39.0700 32.1490 0.0000 -8.5357 0.0000
# 2 39.0700 77.0379 12.2024 0.0000 -9.5033 0.0000
# 3 32.1490 12.2024 13.1349 0.0000 -5.4467 0.0000
# 4 0.0000 0.0000 0.0000 11.8968 0.0000 1.9210
# 5 -8.5357 -9.5033 -5.4467 0.0000 29.1684 0.0000
# 6 0.0000 0.0000 0.0000 1.9210 0.0000 11.3540
#
#
#
# Elastic Compliance Matrix: (Units=1/GPa)
#
#
# Indices 1 2 3 4 5 6 
#
# 1 0.022534 -0.003467 -0.053836 0.000000 -0.004588 0.000000
# 2 -0.003467 0.015926 -0.004963 0.000000 0.003247 0.000000
# 3 -0.053836 -0.004963 0.222541 0.000000 0.024185 0.000000
# 4 0.000000 0.000000 0.000000 0.086417 0.000000 -0.014621
# 5 -0.004588 0.003247 0.024185 0.000000 0.038515 0.000000
# 6 0.000000 0.000000 0.000000 -0.014621 0.000000 0.090548
#
#
# Mechanical properties :
#
#
# Convention : Reuss Voigt Hill
#
# Bulk Modulus (GPa) = 7.32765 42.49707 24.91236
# Shear Modulus (GPa) = 7.73394 19.29781 13.51587
#
# Velocity S-wave (km/s) = 2.04000 3.22243 2.69681
# Velocity P-wave (km/s) = 3.08087 6.05911 4.80648
#
# Compressibility (1/GPa) = 0.13646937
#
# Stress axis : x y z
#
# Youngs Moduli (GPa) = 44.37760 62.79234 4.49355
#
# Poissons Ratio (x) = 0.21769 0.24191
# Poissons Ratio (y) = 0.15385 0.02230
# Poissons Ratio (z) = 2.38911 0.31162
#
# Static dielectric constant tensor:
#      x y z
#    x 1.624860 0.000000 -0.007030 
#    y 0.000000 1.693050 0.000000 
#    z -0.007030 0.000000 1.642860 
# 
# From -- ./inp_files/112023.got.cif
#   From: 2010.05.17/outbox.cif.g08.bks.cpg/sg12_57_cif.got.tgz:112023.got - 2010.06.03 13:09:07.
