data_PCOD9178512
_publ_section_title
;
Structure prediction by ZEFSAII (Michael W. Deem and Ramdas Pophale) SiO2 
 PCOD9178512
Probable space group: C 2/M
;
_chemical_formula_sum "Si O2"
_cell_formula_units_Z 56
_cell_length_a 24.402968
_cell_length_b 13.031710
_cell_length_c 14.113867
_cell_angle_alpha 90.000000
_cell_angle_beta 46.033200
_cell_angle_gamma 90.000000
_cell_volume 3230.479908
_symmetry_space_group_name_H-M "C 2/M"
_symmetry_group_IT_number 12
_symmetry_cell_setting 'monoclinic'
loop_
_space_group_symop_operation_xyz
x,y,z
-x,y,-z
-x,-y,-z
x,-y,z
1/2+x,1/2+y,z
1/2-x,1/2+y,-z
1/2-x,1/2-y,-z
1/2+x,1/2-y,z
loop_
_atom_site_type_symbol
_atom_site_label
_atom_site_fract_x
_atom_site_fract_y
_atom_site_fract_z
Si Si1 0.532636 0.000000 0.311200
Si Si2 0.372018 0.000000 0.615959
Si Si3 0.510775 0.785450 0.714607
Si Si4 0.856307 0.272652 0.599672
Si Si5 0.283435 0.878402 0.231870
Si Si6 0.869348 0.213251 0.796216
Si Si7 0.215483 0.615582 0.985664
Si Si8 0.561455 0.119530 0.842259
O O1 0.530595 0.105421 0.256763
O O2 0.450027 0.000000 0.461932
O O3 0.596164 0.000000 0.315850
O O4 0.331722 0.892177 0.641485
O O5 0.579305 0.769726 0.558133
O O6 0.444633 0.704446 0.769224
O O7 0.542247 0.801225 0.781949
O O8 0.786685 0.196446 0.661531
O O9 0.888952 0.238045 0.663357
O O10 0.307488 0.855239 0.094194
O O11 0.355048 0.863702 0.214339
O O12 0.262281 0.000000 0.259461
O O13 0.807451 0.123262 0.875418
O O14 0.819739 0.307932 0.896484
O O15 0.190953 0.500000 0.031822
O O16 0.558745 0.000000 0.810992
O O17 0.500000 0.127835 0.000000
#
# Coordination Sequence:
#
# PCOD9178512 Si02
#       8
#     4   4   8   8   8   8   8   8
#     4   9  16  26  43  72 104 128 145 203 250 289
#     4   9  16  28  44  74 107 128 154 189 248 303
#     4  11  19  30  49  75 103 125 162 207 252 296
#     4  10  20  31  50  77 105 131 159 200 254 300
#     4   9  19  37  52  70 102 134 169 206 239 288
#     4  10  19  30  49  76 101 130 166 199 249 300
#     4   9  19  33  49  70 101 135 166 203 243 288
#     4  10  20  33  52  74  96 130 170 206 249 291
#
# _framework density 17.334886000000001
#
# number of rings (size 3 to 8) (size 9 to 14) (size 15 to 20)
#    0.000    2.286    2.143    1.286    2.000    1.714 
#    0.000    0.714    0.000    3.429    1.857    0.500 
#    0.000    0.000    0.000    0.000    0.000    0.000 
#
# Total GULP energy -156071.737501 kJ/mol
# GULP energy per Si atom -5573.990625 kJ/mol
# Density = 1.729543 g / cm^3
# Si number density = 17.334886 Si / 1000 Ang^3
#
#
#
# Elastic Constant Matrix: (Units=GPa)
#
#
# Indices 1 2 3 4 5 6 
#
# 1 115.1618 25.4428 38.3175 0.0000 -4.4877 0.0000
# 2 25.4428 40.3164 21.1499 0.0000 -8.3065 0.0000
# 3 38.3175 21.1499 69.3169 0.0000 1.7273 0.0000
# 4 0.0000 0.0000 0.0000 23.3194 0.0000 -6.2695
# 5 -4.4877 -8.3065 1.7273 0.0000 19.6633 0.0000
# 6 0.0000 0.0000 0.0000 -6.2695 0.0000 23.7162
#
#
#
# Elastic Compliance Matrix: (Units=1/GPa)
#
#
# Indices 1 2 3 4 5 6 
#
# 1 0.011338 -0.004287 -0.004990 0.000000 0.001215 0.000000
# 2 -0.004287 0.035082 -0.008698 0.000000 0.014605 0.000000
# 3 -0.004990 -0.008698 0.020002 0.000000 -0.006570 0.000000
# 4 0.000000 0.000000 0.000000 0.046164 0.000000 0.012204
# 5 0.001215 0.014605 -0.006570 0.000000 0.057880 0.000000
# 6 0.000000 0.000000 0.000000 0.012204 0.000000 0.045391
#
#
# Mechanical properties :
#
#
# Convention : Reuss Voigt Hill
#
# Bulk Modulus (GPa) = 32.81702 43.84616 38.33159
# Shear Modulus (GPa) = 19.08650 22.66545 20.87598
#
# Velocity S-wave (km/s) = 3.32180 3.61987 3.47403
# Velocity P-wave (km/s) = 5.80386 6.54368 6.18484
#
# Compressibility (1/GPa) = 0.03047199
#
# Stress axis : x y z
#
# Youngs Moduli (GPa) = 88.19729 28.50495 49.99401
#
# Poissons Ratio (x) = 0.12221 0.24946
# Poissons Ratio (y) = 0.37814 0.43485
# Poissons Ratio (z) = 0.44008 0.24794
#
# Static dielectric constant tensor:
#      x y z
#    x 1.603500 0.000000 -0.003480 
#    y 0.000000 1.604650 0.000000 
#    z -0.003480 0.000000 1.617270 
# 
# From -- ./inp_files/240420.got.cif
#   From: 2010.05.17/outbox.cif.g08.bks.cpg/sg12_121_cif.got.tgz:240420.got - 2010.06.03 13:09:07.
