data_PCOD9178541
_publ_section_title
;
Structure prediction by ZEFSAII (Michael W. Deem and Ramdas Pophale) SiO2 
 PCOD9178541
Probable space group: C 2/M
;
_chemical_formula_sum "Si O2"
_cell_formula_units_Z 64
_cell_length_a 17.343316
_cell_length_b 14.354038
_cell_length_c 16.018406
_cell_angle_alpha 90.000000
_cell_angle_beta 106.119155
_cell_angle_gamma 90.000000
_cell_volume 3830.955996
_symmetry_space_group_name_H-M "C 2/M"
_symmetry_group_IT_number 12
_symmetry_cell_setting 'monoclinic'
loop_
_space_group_symop_operation_xyz
x,y,z
-x,y,-z
-x,-y,-z
x,-y,z
1/2+x,1/2+y,z
1/2-x,1/2+y,-z
1/2-x,1/2-y,-z
1/2+x,1/2-y,z
loop_
_atom_site_type_symbol
_atom_site_label
_atom_site_fract_x
_atom_site_fract_y
_atom_site_fract_z
Si Si1 0.953819 0.896459 0.897308
Si Si2 0.408961 0.705792 0.144092
Si Si3 0.815549 0.891757 0.970632
Si Si4 0.285915 0.890540 0.348746
Si Si5 0.843363 0.606236 0.176418
Si Si6 0.435033 0.393093 0.314624
Si Si7 0.877954 0.108708 0.606774
Si Si8 0.593341 0.742528 0.539796
O O1 0.864827 0.873808 0.899875
O O2 0.002781 0.821640 0.861038
O O3 0.956602 0.000000 0.858965
O O4 0.000000 0.902416 0.000000
O O5 0.403896 0.811442 0.172802
O O6 0.392013 0.640734 0.218233
O O7 0.347806 0.676204 0.051929
O O8 0.724038 0.886681 0.915923
O O9 0.833999 0.000000 0.000002
O O10 0.304189 0.876430 0.255835
O O11 0.193895 0.872521 0.349593
O O12 0.346545 0.825718 0.419132
O O13 0.301000 0.000000 0.370001
O O14 0.874508 0.500000 0.186220
O O15 0.417731 0.500000 0.328614
O O16 0.531454 0.384349 0.331016
O O17 0.410331 0.328024 0.383383
O O18 0.877041 0.182357 0.530677
O O19 0.868967 0.000000 0.575927
O O20 0.500000 0.773319 0.500000
#
# Coordination Sequence:
#
# PCOD9178541 Si02
#       8
#     8   8   8   8   8   8   8   8
#     4   8  15  27  46  73  99 119 148 197 247 285
#     4  11  18  30  49  74 102 129 166 198 244 290
#     4   9  18  32  51  76 102 128 159 203 249 292
#     4  10  20  35  51  72  99 132 172 204 234 283
#     4  10  21  34  48  69 101 135 169 203 238 282
#     4  10  19  30  49  78 104 126 154 198 252 303
#     4   9  19  33  53  75 100 130 158 198 252 302
#     4  10  19  34  52  75 102 127 160 200 248 298
#
# _framework density 16.706012999999999
#
# number of rings (size 3 to 8) (size 9 to 14) (size 15 to 20)
#    0.000    2.375    1.250    3.000    1.750    1.750 
#    0.000    0.000    0.000    3.375    0.000    1.750 
#    0.000    0.000    0.000    0.000    0.000    0.000 
#
# Total GULP energy -178261.100666 kJ/mol
# GULP energy per Si atom -5570.659396 kJ/mol
# Density = 1.666799 g / cm^3
# Si number density = 16.706013 Si / 1000 Ang^3
#
#
#
# Elastic Constant Matrix: (Units=GPa)
#
#
# Indices 1 2 3 4 5 6 
#
# 1 50.0731 46.5175 16.1511 0.0000 -15.9495 0.0000
# 2 46.5175 94.3028 39.2901 0.0000 -14.2501 0.0000
# 3 16.1511 39.2901 64.6302 0.0000 -8.7743 0.0000
# 4 0.0000 0.0000 0.0000 28.8336 0.0000 -2.1528
# 5 -15.9495 -14.2501 -8.7743 0.0000 20.4974 0.0000
# 6 0.0000 0.0000 0.0000 -2.1528 0.0000 19.6690
#
#
#
# Elastic Compliance Matrix: (Units=1/GPa)
#
#
# Indices 1 2 3 4 5 6 
#
# 1 0.044753 -0.020484 0.004314 0.000000 0.022429 0.000000
# 2 -0.020484 0.024458 -0.010198 0.000000 -0.003300 0.000000
# 3 0.004314 -0.010198 0.021327 0.000000 0.005396 0.000000
# 4 0.000000 0.000000 0.000000 0.034967 0.000000 0.003827
# 5 0.022429 -0.003300 0.005396 0.000000 0.066255 0.000000
# 6 0.000000 0.000000 0.000000 0.003827 0.000000 0.051260
#
#
# Mechanical properties :
#
#
# Convention : Reuss Voigt Hill
#
# Bulk Modulus (GPa) = 26.45339 45.88038 36.16689
# Shear Modulus (GPa) = 16.21497 20.93650 18.57574
#
# Velocity S-wave (km/s) = 3.11884 3.54394 3.33816
# Velocity P-wave (km/s) = 5.37015 6.65350 6.04597
#
# Compressibility (1/GPa) = 0.03780233
#
# Stress axis : x y z
#
# Youngs Moduli (GPa) = 22.34501 40.88580 46.88923
#
# Poissons Ratio (x) = 0.83748 -0.20227
# Poissons Ratio (y) = 0.45770 0.47818
# Poissons Ratio (z) = -0.09639 0.41695
#
# Static dielectric constant tensor:
#      x y z
#    x 1.589170 0.000000 0.005090 
#    y 0.000000 1.554340 0.000000 
#    z 0.005090 0.000000 1.583800 
# 
# From -- ./inp_files/224821.got.cif
#   From: 2010.05.17/outbox.cif.g08.bks.cpg/sg12_113_cif.got.tgz:224821.got - 2010.06.03 13:09:07.
