data_PCOD9178489
_publ_section_title
;
Structure prediction by ZEFSAII (Michael W. Deem and Ramdas Pophale) SiO2 
 PCOD9178489
Probable space group: C 2/M
;
_chemical_formula_sum "Si O2"
_cell_formula_units_Z 64
_cell_length_a 14.286739
_cell_length_b 18.354672
_cell_length_c 15.092428
_cell_angle_alpha 90.000000
_cell_angle_beta 105.563907
_cell_angle_gamma 90.000000
_cell_volume 3812.542899
_symmetry_space_group_name_H-M "C 2/M"
_symmetry_group_IT_number 12
_symmetry_cell_setting 'monoclinic'
loop_
_space_group_symop_operation_xyz
x,y,z
-x,y,-z
-x,-y,-z
x,-y,z
1/2+x,1/2+y,z
1/2-x,1/2+y,-z
1/2-x,1/2-y,-z
1/2+x,1/2-y,z
loop_
_atom_site_type_symbol
_atom_site_label
_atom_site_fract_x
_atom_site_fract_y
_atom_site_fract_z
Si Si1 0.286114 0.302394 0.290224
Si Si2 0.715930 0.915382 0.935177
Si Si3 0.106619 0.228546 0.208911
Si Si4 0.895727 0.281330 0.162340
Si Si5 0.993668 0.918244 0.219637
Si Si6 0.614565 0.309569 0.020223
Si Si7 0.766660 0.916806 0.142139
Si Si8 0.422417 0.416595 0.402712
O O1 0.196489 0.250875 0.293304
O O2 0.511799 0.222007 0.196589
O O3 0.241064 0.364184 0.214841
O O4 0.345936 0.349998 0.376398
O O5 0.703354 0.907130 0.038199
O O6 0.708654 0.000000 0.910257
O O7 0.646528 0.861419 0.864173
O O8 0.823793 0.882620 0.953130
O O9 0.355200 0.256097 0.241288
O O10 0.141412 0.234997 0.115665
O O11 0.065552 0.146485 0.211500
O O12 0.866331 0.235253 0.065516
O O13 0.883659 0.907076 0.154094
O O14 0.975968 0.915200 0.320822
O O15 0.025612 0.000000 0.203089
O O16 0.500000 0.322924 0.000000
O O17 0.757865 0.000000 0.168782
O O18 0.500000 0.406082 0.500000
O O19 0.382153 0.500000 0.401315
#
# Coordination Sequence:
#
# PCOD9178489 Si02
#       8
#     8   8   8   8   8   8   8   8
#     4  11  18  32  54  72 100 134 163 199 252 301
#     4  11  20  30  44  65  99 138 173 212 249 283
#     4  11  20  30  50  76  98 135 172 200 246 295
#     4  11  20  35  47  66 104 135 179 210 244 289
#     4   9  17  32  51  74 104 127 157 212 261 295
#     4  10  19  30  49  71  94 134 178 223 249 278
#     4   9  16  29  49  68  91 129 172 216 255 281
#     4   9  18  35  60  83 100 122 154 203 263 306
#
# _framework density 16.786697
#
# number of rings (size 3 to 8) (size 9 to 14) (size 15 to 20)
#    0.000    1.875    5.000    3.000    0.000    0.750 
#    0.000    1.875    0.000    4.875    0.000    0.000 
#    0.000    1.000    0.000    0.000    0.000    0.000 
#
# Total GULP energy -178227.029007 kJ/mol
# GULP energy per Si atom -5569.594656 kJ/mol
# Density = 1.674849 g / cm^3
# Si number density = 16.786697 Si / 1000 Ang^3
#
#
#
# Elastic Constant Matrix: (Units=GPa)
#
#
# Indices 1 2 3 4 5 6 
#
# 1 54.6656 38.0275 22.4754 0.0000 12.7987 0.0000
# 2 38.0275 110.3573 14.8764 0.0000 12.3294 0.0000
# 3 22.4754 14.8764 34.5055 0.0000 16.3813 0.0000
# 4 0.0000 0.0000 0.0000 18.8641 0.0000 5.6768
# 5 12.7987 12.3294 16.3813 0.0000 19.4729 0.0000
# 6 0.0000 0.0000 0.0000 5.6768 0.0000 29.6193
#
#
#
# Elastic Compliance Matrix: (Units=1/GPa)
#
#
# Indices 1 2 3 4 5 6 
#
# 1 0.031000 -0.008356 -0.015697 0.000000 -0.001879 0.000000
# 2 -0.008356 0.012098 0.002091 0.000000 -0.003927 0.000000
# 3 -0.015697 0.002091 0.056665 0.000000 -0.038675 0.000000
# 4 0.000000 0.000000 0.000000 0.056255 0.000000 -0.010782
# 5 -0.001879 -0.003927 -0.038675 0.000000 0.087610 0.000000
# 6 0.000000 0.000000 0.000000 -0.010782 0.000000 0.035828
#
#
# Mechanical properties :
#
#
# Convention : Reuss Voigt Hill
#
# Bulk Modulus (GPa) = 17.90889 38.92078 28.41484
# Shear Modulus (GPa) = 14.62024 21.86786 18.24405
#
# Velocity S-wave (km/s) = 2.95437 3.61320 3.30027
# Velocity P-wave (km/s) = 4.72540 6.37517 5.61125
#
# Compressibility (1/GPa) = 0.05583818
#
# Stress axis : x y z
#
# Youngs Moduli (GPa) = 32.25847 82.66057 17.64768
#
# Poissons Ratio (x) = 0.69072 0.27702
# Poissons Ratio (y) = 0.26955 -0.03691
# Poissons Ratio (z) = 0.50637 -0.17288
#
# Static dielectric constant tensor:
#      x y z
#    x 1.597680 0.000000 -0.005100 
#    y 0.000000 1.611310 0.000000 
#    z -0.005100 0.000000 1.595200 
# 
# From -- ./inp_files/270992.got.cif
#   From: 2010.05.17/outbox.cif.g08.bks.cpg/sg12_136_cif.got.tgz:270992.got - 2010.06.03 13:09:07.
