data_PCOD9178839
_publ_section_title
;
Structure prediction by ZEFSAII (Michael W. Deem and Ramdas Pophale) SiO2 
 PCOD9178839
Probable space group: C 2/M
;
_chemical_formula_sum "Si O2"
_cell_formula_units_Z 56
_cell_length_a 13.867543
_cell_length_b 9.335072
_cell_length_c 20.484718
_cell_angle_alpha 90.000000
_cell_angle_beta 115.038097
_cell_angle_gamma 90.000000
_cell_volume 2402.636783
_symmetry_space_group_name_H-M "C 2/M"
_symmetry_group_IT_number 12
_symmetry_cell_setting 'monoclinic'
loop_
_space_group_symop_operation_xyz
x,y,z
-x,y,-z
-x,-y,-z
x,-y,z
1/2+x,1/2+y,z
1/2-x,1/2+y,-z
1/2-x,1/2-y,-z
1/2+x,1/2-y,z
loop_
_atom_site_type_symbol
_atom_site_label
_atom_site_fract_x
_atom_site_fract_y
_atom_site_fract_z
Si Si1 0.331044 0.663529 0.277469
Si Si2 0.932615 0.338434 0.418393
Si Si3 0.502478 0.663348 0.850729
Si Si4 0.210010 0.839392 0.427487
Si Si5 0.722261 0.336190 0.134206
Si Si6 0.604369 0.163147 0.290216
Si Si7 0.887886 0.336260 0.008003
O O1 0.363003 0.500000 0.273368
O O2 0.413597 0.742295 0.349287
O O3 0.302365 0.750472 0.203900
O O4 0.217684 0.657676 0.284001
O O5 0.973859 0.500000 0.415783
O O6 0.813486 0.354224 0.411827
O O7 0.000000 0.280786 0.500000
O O8 0.538719 0.500000 0.852953
O O9 0.390442 0.658482 0.858612
O O10 0.473216 0.741926 0.775682
O O11 0.582093 0.756737 0.916819
O O12 0.250000 0.750000 0.500000
O O13 0.128428 0.743145 0.364175
O O14 0.171935 0.000000 0.432845
O O15 0.756410 0.500000 0.133481
O O16 0.692513 0.253923 0.059500
O O17 0.567461 0.000000 0.287266
O O18 0.852835 0.500000 0.006977
O O19 0.000000 0.340941 0.000000
#
# Coordination Sequence:
#
# PCOD9178839 Si02
#       7
#     8   8   8   8   8   8   8
#     4   9  16  25  38  56  77 102 134 172 212 254
#     4   9  18  32  48  65  86 114 147 181 218 261
#     4   9  15  22  32  47  68  96 131 168 206 249
#     4  10  19  31  47  66  88 114 145 181 220 262
#     4   9  15  22  32  46  67  97 132 168 205 248
#     4   9  16  26  39  55  76 103 136 172 210 253
#     4   9  15  21  29  43  65  94 129 168 207 246
#
# _framework density 23.307725999999999
#
# number of rings (size 3 to 8) (size 9 to 14) (size 15 to 20)
#    0.000    2.857    0.000    2.571    0.000    9.429 
#    0.000    0.000    0.000    0.000    0.000    0.000 
#    0.000    0.000    0.000    1.286    0.000   17.714 
#
# Total GULP energy -156638.073485 kJ/mol
# GULP energy per Si atom -5594.216910 kJ/mol
# Density = 2.325468 g / cm^3
# Si number density = 23.307726 Si / 1000 Ang^3
#
#
#
# Elastic Constant Matrix: (Units=GPa)
#
#
# Indices 1 2 3 4 5 6 
#
# 1 69.1572 -2.7279 -2.6175 0.0000 13.4871 0.0000
# 2 -2.7279 261.2688 170.3951 0.0000 5.7745 0.0000
# 3 -2.6175 170.3951 279.6024 0.0000 3.2706 0.0000
# 4 0.0000 0.0000 0.0000 24.0211 0.0000 2.1315
# 5 13.4871 5.7745 3.2706 0.0000 17.5390 0.0000
# 6 0.0000 0.0000 0.0000 2.1315 0.0000 0.2946
#
#
#
# Elastic Compliance Matrix: (Units=1/GPa)
#
#
# Indices 1 2 3 4 5 6 
#
# 1 0.017069 0.000442 0.000046 0.000000 -0.013280 0.000000
# 2 0.000442 0.006397 -0.003874 0.000000 -0.001723 0.000000
# 3 0.000046 -0.003874 0.005936 0.000000 0.000133 0.000000
# 4 0.000000 0.000000 0.000000 0.116255 0.000000 -0.841002
# 5 -0.013280 -0.001723 0.000133 0.000000 0.067770 0.000000
# 6 0.000000 0.000000 0.000000 -0.841002 0.000000 9.477892
#
#
# Mechanical properties :
#
#
# Convention : Reuss Voigt Hill
#
# Bulk Modulus (GPa) = 44.19083 104.45865 74.32474
# Shear Modulus (GPa) = 0.51516 38.03620 19.27568
#
# Velocity S-wave (km/s) = 0.47065 4.04408 2.87890
# Velocity P-wave (km/s) = 4.39275 8.16827 6.55808
#
# Compressibility (1/GPa) = 0.02262913
#
# Stress axis : x y z
#
# Youngs Moduli (GPa) = 58.58654 156.32976 168.45602
#
# Poissons Ratio (x) = -0.06906 -0.00773
# Poissons Ratio (y) = -0.02588 0.65260
# Poissons Ratio (z) = -0.00269 0.60562
#
# Static dielectric constant tensor:
#      x y z
#    x 2.033220 0.000000 -0.050520 
#    y 0.000000 1.817480 0.000000 
#    z -0.050520 0.000000 1.816610 
# 
# From -- ./inp_files/345662.got.cif
#   From: 2010.05.17/outbox.cif.g08.bks.cpg/sg12_173_cif.got.tgz:345662.got - 2010.06.03 13:09:07.
