data_PCOD9178627
_publ_section_title
;
Structure prediction by ZEFSAII (Michael W. Deem and Ramdas Pophale) SiO2 
 PCOD9178627
Probable space group: C 2/M
;
_chemical_formula_sum "Si O2"
_cell_formula_units_Z 40
_cell_length_a 11.759979
_cell_length_b 14.576045
_cell_length_c 17.585526
_cell_angle_alpha 90.000000
_cell_angle_beta 43.488558
_cell_angle_gamma 90.000000
_cell_volume 2074.542813
_symmetry_space_group_name_H-M "C 2/M"
_symmetry_group_IT_number 12
_symmetry_cell_setting 'monoclinic'
loop_
_space_group_symop_operation_xyz
x,y,z
-x,y,-z
-x,-y,-z
x,-y,z
1/2+x,1/2+y,z
1/2-x,1/2+y,-z
1/2-x,1/2-y,-z
1/2+x,1/2-y,z
loop_
_atom_site_type_symbol
_atom_site_label
_atom_site_fract_x
_atom_site_fract_y
_atom_site_fract_z
Si Si1 0.732909 0.653173 0.465806
Si Si2 0.399601 0.104135 0.126529
Si Si3 0.937034 0.601817 0.617983
Si Si4 0.176205 0.250424 0.722417
Si Si5 0.508267 0.601782 0.292323
O O1 0.750000 0.750000 0.500000
O O2 0.729080 0.678632 0.379615
O O3 0.579739 0.607430 0.582499
O O4 0.903586 0.604305 0.405414
O O5 0.430458 0.186673 0.169998
O O6 0.203851 0.110540 0.204908
O O7 0.432533 0.000000 0.139592
O O8 0.500000 0.115048 0.000000
O O9 0.862425 0.500000 0.658496
O O10 0.811805 0.684357 0.695665
O O11 0.000000 0.614793 0.500000
O O12 0.068201 0.180909 0.723477
O O13 0.470534 0.500000 0.279684
#
# Coordination Sequence:
#
# PCOD9178627 Si02
#       5
#     8   8   8   8   8
#     4  10  19  30  50  86 118 143 177 215 264 329
#     4  10  24  43  58  76 105 145 192 240 285 320
#     4  11  20  32  53  84 123 153 173 212 272 335
#     4  11  21  35  60  82 112 146 187 225 268 334
#     4  10  20  35  56  82 113 144 178 221 275 337
#
# _framework density 19.281357
#
# number of rings (size 3 to 8) (size 9 to 14) (size 15 to 20)
#    0.000    1.600    4.000    3.600    0.000    2.400 
#    0.000    2.000    0.000    2.400    0.000    0.000 
#    0.000    0.000    0.000    0.000    0.000    0.000 
#
# Total GULP energy -111600.328728 kJ/mol
# GULP energy per Si atom -5580.016436 kJ/mol
# Density = 1.923747 g / cm^3
# Si number density = 19.281357 Si / 1000 Ang^3
#
#
#
# Elastic Constant Matrix: (Units=GPa)
#
#
# Indices 1 2 3 4 5 6 
#
# 1 47.1370 24.2220 10.0077 0.0000 -2.8341 0.0000
# 2 24.2220 128.5855 33.5296 0.0000 20.6295 0.0000
# 3 10.0077 33.5296 63.6286 -0.0001 9.4262 0.0001
# 4 0.0000 0.0000 -0.0001 20.3639 0.0000 -5.8221
# 5 -2.8341 20.6295 9.4262 0.0000 18.2211 0.0000
# 6 0.0000 0.0000 0.0001 -5.8221 0.0000 20.7482
#
#
#
# Elastic Compliance Matrix: (Units=1/GPa)
#
#
# Indices 1 2 3 4 5 6 
#
# 1 0.025654 -0.006116 -0.002631 0.000000 0.012276 0.000000
# 2 -0.006116 0.011838 -0.003411 0.000000 -0.012590 0.000000
# 3 -0.002631 -0.003411 0.018862 0.000000 -0.006305 0.000000
# 4 0.000000 0.000000 0.000000 0.053390 0.000000 0.014982
# 5 0.012276 -0.012590 -0.006305 0.000000 0.074306 0.000000
# 6 0.000000 0.000000 0.000000 0.014982 0.000000 0.052401
#
#
# Mechanical properties :
#
#
# Convention : Reuss Voigt Hill
#
# Bulk Modulus (GPa) = 31.21275 41.65218 36.43246
# Shear Modulus (GPa) = 18.41987 23.30609 20.86298
#
# Velocity S-wave (km/s) = 3.09418 3.48046 3.29299
# Velocity P-wave (km/s) = 5.38409 6.14823 5.77880
#
# Compressibility (1/GPa) = 0.03203819
#
# Stress axis : x y z
#
# Youngs Moduli (GPa) = 38.98009 84.47126 53.01792
#
# Poissons Ratio (x) = 0.51663 0.13947
# Poissons Ratio (y) = 0.23840 0.18086
# Poissons Ratio (z) = 0.10254 0.28815
#
# Static dielectric constant tensor:
#      x y z
#    x 1.721290 0.000000 0.003280 
#    y 0.000000 1.528080 0.000000 
#    z 0.003280 0.000000 1.650150 
# 
# From -- ./inp_files/129134.got.cif
#   From: 2010.05.17/outbox.cif.g08.bks.cpg/sg12_65_cif.got.tgz:129134.got - 2010.06.03 13:09:07.
