data_PCOD9178913
_publ_section_title
;
Structure prediction by ZEFSAII (Michael W. Deem and Ramdas Pophale) SiO2 
 PCOD9178913
Probable space group: C 2/M
;
_chemical_formula_sum "Si O2"
_cell_formula_units_Z 48
_cell_length_a 26.291251
_cell_length_b 7.988777
_cell_length_c 9.611680
_cell_angle_alpha 90.000000
_cell_angle_beta 65.531470
_cell_angle_gamma 90.000000
_cell_volume 1837.479028
_symmetry_space_group_name_H-M "C 2/M"
_symmetry_group_IT_number 12
_symmetry_cell_setting 'monoclinic'
loop_
_space_group_symop_operation_xyz
x,y,z
-x,y,-z
-x,-y,-z
x,-y,z
1/2+x,1/2+y,z
1/2-x,1/2+y,-z
1/2-x,1/2-y,-z
1/2+x,1/2-y,z
loop_
_atom_site_type_symbol
_atom_site_label
_atom_site_fract_x
_atom_site_fract_y
_atom_site_fract_z
Si Si1 0.565653 0.311908 0.437108
Si Si2 0.574884 0.810428 0.120101
Si Si3 0.333397 0.198386 0.282702
Si Si4 0.686366 0.302071 0.092984
Si Si5 0.049762 0.299089 0.765848
Si Si6 0.711973 0.296415 0.364776
O O1 0.500000 0.338192 0.500000
O O2 0.590927 0.500000 0.399224
O O3 0.573546 0.203022 0.289884
O O4 0.570282 0.238115 0.585798
O O5 0.639818 0.755653 0.034813
O O6 0.514355 0.733296 0.143117
O O7 0.572240 0.000000 0.075576
O O8 0.397877 0.263465 0.199412
O O9 0.314807 0.224047 0.465720
O O10 0.276306 0.265015 0.276966
O O11 0.335875 0.000000 0.252625
O O12 0.684528 0.500000 0.090242
O O13 0.677797 0.249359 0.265419
O O14 0.750000 0.250000 0.000000
O O15 0.046535 0.500000 0.784276
O O16 0.713570 0.500000 0.374896
#
# Coordination Sequence:
#
# PCOD9178913 Si02
#       6
#     8   8   8   8   8   8
#     4   9  16  25  39  63  97 133 163 193 235 287
#     4  10  19  31  47  69  97 127 162 204 249 297
#     4   9  17  31  52  77 105 135 164 198 243 296
#     4  11  23  38  55  74  97 129 170 213 254 295
#     4   9  17  28  45  70  99 130 162 198 245 300
#     4   9  19  34  51  74 103 133 168 207 245 290
#
# _framework density 26.122744999999998
#
# number of rings (size 3 to 8) (size 9 to 14) (size 15 to 20)
#    0.000    2.500    0.000    2.500    0.000    7.333 
#    0.000    0.000    0.000    1.000    0.000    7.000 
#    0.000    0.000    0.000    0.000    0.000    0.000 
#
# Total GULP energy -133840.929798 kJ/mol
# GULP energy per Si atom -5576.705408 kJ/mol
# Density = 2.606329 g / cm^3
# Si number density = 26.122745 Si / 1000 Ang^3
#
#
#
# Elastic Constant Matrix: (Units=GPa)
#
#
# Indices 1 2 3 4 5 6 
#
# 1 276.1061 13.8912 29.0914 0.0000 -19.0201 0.0000
# 2 13.8912 35.3918 8.8775 0.0000 -0.1115 0.0000
# 3 29.0914 8.8775 63.5964 0.0000 -10.2320 0.0000
# 4 0.0000 0.0000 0.0000 11.5725 0.0000 -2.3037
# 5 -19.0201 -0.1115 -10.2320 0.0000 68.0357 0.0000
# 6 0.0000 0.0000 0.0000 -2.3037 0.0000 9.7260
#
#
#
# Elastic Compliance Matrix: (Units=1/GPa)
#
#
# Indices 1 2 3 4 5 6 
#
# 1 0.003896 -0.001155 -0.001482 0.000000 0.000864 0.000000
# 2 -0.001155 0.029645 -0.003745 0.000000 -0.000837 0.000000
# 3 -0.001482 -0.003745 0.017275 0.000000 0.002178 0.000000
# 4 0.000000 0.000000 0.000000 0.090688 0.000000 0.021481
# 5 0.000864 -0.000837 0.002178 0.000000 0.015266 0.000000
# 6 0.000000 0.000000 0.000000 0.021481 0.000000 0.107905
#
#
# Mechanical properties :
#
#
# Convention : Reuss Voigt Hill
#
# Bulk Modulus (GPa) = 26.27887 53.20163 39.74025
# Shear Modulus (GPa) = 17.23418 39.41579 28.32498
#
# Velocity S-wave (km/s) = 2.57132 3.88863 3.29645
# Velocity P-wave (km/s) = 4.34709 6.36963 5.45295
#
# Compressibility (1/GPa) = 0.03805338
#
# Stress axis : x y z
#
# Youngs Moduli (GPa) = 256.70341 33.73254 57.88686
#
# Poissons Ratio (x) = 0.03895 0.08577
# Poissons Ratio (y) = 0.29639 0.21677
# Poissons Ratio (z) = 0.38037 0.12632
#
# Static dielectric constant tensor:
#      x y z
#    x 2.126700 0.000000 -0.076000 
#    y 0.000000 1.968890 0.000000 
#    z -0.076000 0.000000 2.286090 
# 
# From -- ./inp_files/179752.got.cif
#   From: 2010.05.17/outbox.cif.g08.bks.cpg/sg12_90_cif.got.tgz:179752.got - 2010.06.03 13:09:07.
