data_PCOD9178777
_publ_section_title
;
Structure prediction by ZEFSAII (Michael W. Deem and Ramdas Pophale) SiO2 
 PCOD9178777
Probable space group: C 2/M
;
_chemical_formula_sum "Si O2"
_cell_formula_units_Z 40
_cell_length_a 5.049800
_cell_length_b 13.740709
_cell_length_c 26.066941
_cell_angle_alpha 90.000000
_cell_angle_beta 71.624121
_cell_angle_gamma 90.000000
_cell_volume 1716.499316
_symmetry_space_group_name_H-M "C 2/M"
_symmetry_group_IT_number 12
_symmetry_cell_setting 'monoclinic'
loop_
_space_group_symop_operation_xyz
x,y,z
-x,y,-z
-x,-y,-z
x,-y,z
1/2+x,1/2+y,z
1/2-x,1/2+y,-z
1/2-x,1/2-y,-z
1/2+x,1/2-y,z
loop_
_atom_site_type_symbol
_atom_site_label
_atom_site_fract_x
_atom_site_fract_y
_atom_site_fract_z
Si Si1 0.294584 0.812898 0.669889
Si Si2 0.829676 0.381008 0.848539
Si Si3 0.570064 0.384310 0.214095
Si Si4 0.178082 0.613437 0.035512
Si Si5 0.653581 0.818386 0.443301
O O1 0.602417 0.781322 0.668241
O O2 0.128157 0.860170 0.726476
O O3 0.311445 0.868067 0.614237
O O4 0.817374 0.500000 0.851947
O O5 0.110019 0.352587 0.800957
O O6 0.564266 0.351034 0.831418
O O7 0.845738 0.345269 0.905898
O O8 0.581798 0.500000 0.210331
O O9 0.079984 0.500000 0.045780
O O10 0.500000 0.611743 0.000000
O O11 0.000000 0.658727 0.000000
O O12 0.500000 0.870802 0.500000
O O13 0.446307 0.726804 0.443681
#
# Coordination Sequence:
#
# PCOD9178777 Si02
#       5
#     8   8   8   8   8
#     4  10  19  31  48  70  94 119 154 195 226 262
#     4   9  17  28  42  62  90 123 152 180 224 278
#     4  10  19  31  46  65  94 127 153 181 225 278
#     4   9  15  23  37  58  85 114 143 180 225 267
#     4   8  14  25  42  64  88 114 145 184 228 266
#
# _framework density 23.303242999999998
#
# number of rings (size 3 to 8) (size 9 to 14) (size 15 to 20)
#    0.000    2.800    0.000    2.400    0.000    4.800 
#    0.000    0.000    0.000    0.600    0.000    0.000 
#    0.000   76.800    0.000    0.000    0.000    3.200 
#
# Total GULP energy -111669.238967 kJ/mol
# GULP energy per Si atom -5583.461948 kJ/mol
# Density = 2.325020 g / cm^3
# Si number density = 23.303243 Si / 1000 Ang^3
#
#
#
# Elastic Constant Matrix: (Units=GPa)
#
#
# Indices 1 2 3 4 5 6 
#
# 1 86.3211 -15.4034 -1.7385 0.0000 7.9262 0.0000
# 2 -15.4034 56.7256 -3.1638 0.0000 5.7482 0.0000
# 3 -1.7385 -3.1638 137.2528 0.0000 7.4240 0.0000
# 4 0.0000 0.0000 0.0000 -5.1070 0.0000 -8.2310
# 5 7.9262 5.7482 7.4240 0.0000 40.6070 0.0000
# 6 0.0000 0.0000 0.0000 -8.2310 0.0000 -2.2042
#
#
#
# Elastic Compliance Matrix: (Units=1/GPa)
#
#
# Indices 1 2 3 4 5 6 
#
# 1 0.012540 0.003737 0.000410 0.000000 -0.003052 0.000000
# 2 0.003737 0.019041 0.000678 0.000000 -0.003549 0.000000
# 3 0.000410 0.000678 0.007389 0.000000 -0.001527 0.000000
# 4 0.000000 0.000000 0.000000 0.039016 0.000000 -0.145700
# 5 -0.003052 -0.003549 -0.001527 0.000000 0.026003 0.000000
# 6 0.000000 0.000000 0.000000 -0.145700 0.000000 0.090401
#
#
# Mechanical properties :
#
#
# Convention : Reuss Voigt Hill
#
# Bulk Modulus (GPa) = 20.56709 26.63199 23.59954
# Shear Modulus (GPa) = 24.88215 26.69952 25.79083
#
# Velocity S-wave (km/s) = 3.27120 3.38855 3.33039
# Velocity P-wave (km/s) = 4.80756 5.17330 4.99378
#
# Compressibility (1/GPa) = 0.04862135
#
# Stress axis : x y z
#
# Youngs Moduli (GPa) = 79.74468 52.51821 135.33179
#
# Poissons Ratio (x) = -0.19627 -0.05549
# Poissons Ratio (y) = -0.29803 -0.09178
# Poissons Ratio (z) = -0.03270 -0.03562
#
# Static dielectric constant tensor:
#      x y z
#    x 1.829810 0.000000 0.012340 
#    y 0.000000 1.901410 0.000000 
#    z 0.012340 0.000000 1.930620 
# 
# From -- ./inp_files/252793.got.cif
#   From: 2010.05.17/outbox.cif.g08.bks.cpg/sg12_127_cif.got.tgz:252793.got - 2010.06.03 13:09:07.
