data_PCOD9178195
_publ_section_title
;
Structure prediction by ZEFSAII (Michael W. Deem and Ramdas Pophale) SiO2 
 PCOD9178195
Probable space group: C 2/M
;
_chemical_formula_sum "Si O2"
_cell_formula_units_Z 56
_cell_length_a 21.001193
_cell_length_b 7.342777
_cell_length_c 18.581240
_cell_angle_alpha 90.000000
_cell_angle_beta 62.914315
_cell_angle_gamma 90.000000
_cell_volume 2551.105052
_symmetry_space_group_name_H-M "C 2/M"
_symmetry_group_IT_number 12
_symmetry_cell_setting 'monoclinic'
loop_
_space_group_symop_operation_xyz
x,y,z
-x,y,-z
-x,-y,-z
x,-y,z
1/2+x,1/2+y,z
1/2-x,1/2+y,-z
1/2-x,1/2-y,-z
1/2+x,1/2-y,z
loop_
_atom_site_type_symbol
_atom_site_label
_atom_site_fract_x
_atom_site_fract_y
_atom_site_fract_z
Si Si1 0.396359 0.277824 0.778444
Si Si2 0.422509 0.277969 0.509312
Si Si3 0.808040 0.780403 0.685851
Si Si4 0.581553 0.277436 0.942191
Si Si5 0.640899 0.713090 0.759781
Si Si6 0.559118 0.722283 0.661614
Si Si7 0.665775 0.717026 0.038521
O O1 0.395525 0.500000 0.779406
O O2 0.341418 0.219210 0.744644
O O3 0.476816 0.224242 0.716902
O O4 0.372685 0.214540 0.869448
O O5 0.500000 0.223244 0.500000
O O6 0.422076 0.500000 0.510256
O O7 0.359601 0.218080 0.594799
O O8 0.415477 0.218939 0.430364
O O9 0.726183 0.727564 0.717840
O O10 0.810323 0.000000 0.685092
O O11 0.584154 0.500000 0.939832
O O12 0.608479 0.212287 0.850689
O O13 0.500000 0.226216 0.000000
O O14 0.631788 0.214761 0.981777
O O15 0.621548 0.500000 0.769757
O O16 0.607052 0.786505 0.703616
O O17 0.560420 0.500000 0.659581
O O18 0.654666 0.500000 0.043925
O O19 0.750000 0.750000 0.000000
#
# Coordination Sequence:
#
# PCOD9178195 Si02
#       7
#     8   8   8   8   8   8   8
#     4   9  16  28  48  72  91 116 160 205 233 261
#     4   9  15  27  48  74  96 117 156 203 237 266
#     4  10  19  31  50  73  98 125 154 195 240 281
#     4   9  17  31  50  70  93 125 164 199 230 272
#     4  10  20  32  48  72 100 127 154 191 240 286
#     4   9  16  28  48  72  94 118 158 203 232 265
#     4  10  19  30  47  70  95 122 154 194 237 279
#
# _framework density 21.951273
#
# number of rings (size 3 to 8) (size 9 to 14) (size 15 to 20)
#    0.000    2.571    1.429    1.714    0.000    4.000 
#    0.000    0.000    0.000    5.571    0.000    0.000 
#    0.000    0.000    0.000    0.000    0.000    0.000 
#
# Total GULP energy -156497.702225 kJ/mol
# GULP energy per Si atom -5589.203651 kJ/mol
# Density = 2.190131 g / cm^3
# Si number density = 21.951273 Si / 1000 Ang^3
#
#
#
# Elastic Constant Matrix: (Units=GPa)
#
#
# Indices 1 2 3 4 5 6 
#
# 1 183.1570 -5.2797 86.2766 0.0002 31.3661 -0.0010
# 2 -5.2797 81.8746 1.8212 0.0004 9.4866 -0.0009
# 3 86.2766 1.8212 184.7714 0.0002 30.3916 -0.0004
# 4 0.0002 0.0004 0.0002 -6.2046 0.0000 -17.0033
# 5 31.3661 9.4866 30.3916 0.0000 43.5856 0.0002
# 6 -0.0010 -0.0009 -0.0004 -17.0033 0.0002 13.1661
#
#
#
# Elastic Compliance Matrix: (Units=1/GPa)
#
#
# Indices 1 2 3 4 5 6 
#
# 1 0.007467 0.000958 -0.002912 0.000000 -0.003552 0.000000
# 2 0.000958 0.012675 -0.000006 0.000000 -0.003444 0.000000
# 3 -0.002912 -0.000006 0.007260 0.000000 -0.002965 0.000000
# 4 0.000000 0.000000 0.000000 -0.035507 0.000000 -0.045855
# 5 -0.003552 -0.003444 -0.002965 0.000000 0.028317 0.000000
# 6 0.000000 0.000000 0.000000 -0.045855 0.000000 0.016733
#
#
# Mechanical properties :
#
#
# Convention : Reuss Voigt Hill
#
# Bulk Modulus (GPa) = 42.58585 68.38214 55.48400
# Shear Modulus (GPa) = 102.68823 34.57508 68.63166
#
# Velocity S-wave (km/s) = 6.84702 3.97304 5.59762
# Velocity P-wave (km/s) = 9.05269 7.22953 8.19199
#
# Compressibility (1/GPa) = 0.02348198
#
# Stress axis : x y z
#
# Youngs Moduli (GPa) = 133.91565 78.89703 137.74869
#
# Poissons Ratio (x) = -0.07557 0.40113
# Poissons Ratio (y) = -0.12827 0.00079
# Poissons Ratio (z) = 0.38997 0.00045
#
# Static dielectric constant tensor:
#      x y z
#    x 1.739030 0.000000 0.029920 
#    y 0.000000 1.857780 0.000000 
#    z 0.029920 0.000000 1.758040 
# 
# From -- ./inp_files/268615.got.cif
#   From: 2010.05.17/outbox.cif.g08.bks.cpg/sg12_135_cif.got.tgz:268615.got - 2010.06.03 13:09:07.
