data_PCOD9178950
_publ_section_title
;
Structure prediction by ZEFSAII (Michael W. Deem and Ramdas Pophale) SiO2 
 PCOD9178950
Probable space group: C 2/M
;
_chemical_formula_sum "Si O2"
_cell_formula_units_Z 56
_cell_length_a 37.979399
_cell_length_b 16.696657
_cell_length_c 6.921394
_cell_angle_alpha 90.000000
_cell_angle_beta 131.757994
_cell_angle_gamma 90.000000
_cell_volume 3274.080281
_symmetry_space_group_name_H-M "C 2/M"
_symmetry_group_IT_number 12
_symmetry_cell_setting 'monoclinic'
loop_
_space_group_symop_operation_xyz
x,y,z
-x,y,-z
-x,-y,-z
x,-y,z
1/2+x,1/2+y,z
1/2-x,1/2+y,-z
1/2-x,1/2-y,-z
1/2+x,1/2-y,z
loop_
_atom_site_type_symbol
_atom_site_label
_atom_site_fract_x
_atom_site_fract_y
_atom_site_fract_z
Si Si1 0.701481 0.279775 0.224617
Si Si2 0.150222 0.206127 0.432158
Si Si3 0.811641 0.344882 0.163837
Si Si4 0.289829 0.405427 0.082522
Si Si5 0.051861 0.280248 0.153617
Si Si6 0.452557 0.910270 0.198116
Si Si7 0.907597 0.588328 0.420854
O O1 0.750000 0.250000 0.500000
O O2 0.664343 0.296633 0.259576
O O3 0.687162 0.209646 0.023767
O O4 0.707674 0.357434 0.110885
O O5 0.176687 0.284083 0.618830
O O6 0.171453 0.132258 0.630748
O O7 0.094946 0.220215 0.271650
O O8 0.854487 0.406176 0.302576
O O9 0.761103 0.383999 0.011814
O O10 0.295052 0.500000 0.077879
O O11 0.065287 0.338352 0.381316
O O12 0.049325 0.341673 0.965421
O O13 0.000000 0.244748 0.000000
O O14 0.500000 0.904935 0.500000
O O15 0.410910 0.902519 0.202509
O O16 0.450694 0.000000 0.106089
O O17 0.927901 0.500000 0.538791
#
# Coordination Sequence:
#
# PCOD9178950 Si02
#       7
#     8   8   8   8   8   8   8
#     4  11  18  36  58  78 108 148 177 211 263 319
#     4  10  21  37  56  78 108 141 177 218 263 311
#     4  10  19  34  55  78 107 145 179 212 254 310
#     4  11  22  36  56  83 110 137 176 221 267 318
#     4  11  21  34  54  75  97 137 185 219 259 314
#     4  10  19  31  47  72 107 143 177 215 258 301
#     4  10  20  32  47  72 108 143 175 215 256 298
#
# _framework density 17.104040000000001
#
# number of rings (size 3 to 8) (size 9 to 14) (size 15 to 20)
#    0.000    1.571    4.286    2.571    0.000    1.143 
#    0.000    0.000    0.000    0.429    0.000    1.000 
#    0.000    0.000    0.000    0.000    0.000    0.000 
#
# Total GULP energy -156234.440619 kJ/mol
# GULP energy per Si atom -5579.801451 kJ/mol
# Density = 1.706511 g / cm^3
# Si number density = 17.104040 Si / 1000 Ang^3
#
#
#
# Elastic Constant Matrix: (Units=GPa)
#
#
# Indices 1 2 3 4 5 6 
#
# 1 119.3170 44.4108 43.8336 0.0000 6.0562 0.0000
# 2 44.4108 85.4688 26.1143 0.0000 1.4301 0.0000
# 3 43.8336 26.1143 58.6974 0.0000 -1.0400 0.0000
# 4 0.0000 0.0000 0.0000 15.4567 0.0000 -0.7414
# 5 6.0562 1.4301 -1.0400 0.0000 37.1628 0.0000
# 6 0.0000 0.0000 0.0000 -0.7414 0.0000 -2.2971
#
#
#
# Elastic Compliance Matrix: (Units=1/GPa)
#
#
# Indices 1 2 3 4 5 6 
#
# 1 0.012962 -0.004317 -0.007798 0.000000 -0.002164 0.000000
# 2 -0.004317 0.014996 -0.003448 0.000000 0.000030 0.000000
# 3 -0.007798 -0.003448 0.024431 0.000000 0.002087 0.000000
# 4 0.000000 0.000000 0.000000 0.063711 0.000000 -0.020562
# 5 -0.002164 0.000030 0.002087 0.000000 0.027319 0.000000
# 6 0.000000 0.000000 0.000000 -0.020562 0.000000 -0.428702
#
#
# Mechanical properties :
#
#
# Convention : Reuss Voigt Hill
#
# Bulk Modulus (GPa) = 47.02608 54.68895 50.85751
# Shear Modulus (GPa) = -20.23705 20.00611 -0.11547
#
# Velocity S-wave (km/s) = -3.44346 3.42376 -0.26011
# Velocity P-wave (km/s) = 3.42694 6.90458 5.45056
#
# Compressibility (1/GPa) = 0.02126479
#
# Stress axis : x y z
#
# Youngs Moduli (GPa) = 77.14709 66.68422 40.93240
#
# Poissons Ratio (x) = 0.28785 0.31918
# Poissons Ratio (y) = 0.33301 0.14112
# Poissons Ratio (z) = 0.60157 0.22990
#
# Static dielectric constant tensor:
#      x y z
#    x 1.610170 0.000000 0.004390 
#    y 0.000000 1.556230 0.000000 
#    z 0.004390 0.000000 1.598160 
# 
# From -- ./inp_files/32102.got.cif
#   From: 2010.05.17/outbox.cif.g08.bks.cpg/sg12_17_cif.got.tgz:32102.got - 2010.06.03 13:09:07.
