data_PCOD9178598
_publ_section_title
;
Structure prediction by ZEFSAII (Michael W. Deem and Ramdas Pophale) SiO2 
 PCOD9178598
Probable space group: C 2/M
;
_chemical_formula_sum "Si O2"
_cell_formula_units_Z 64
_cell_length_a 25.160199
_cell_length_b 7.503936
_cell_length_c 16.902098
_cell_angle_alpha 90.000000
_cell_angle_beta 90.187223
_cell_angle_gamma 90.000000
_cell_volume 3191.107906
_symmetry_space_group_name_H-M "C 2/M"
_symmetry_group_IT_number 12
_symmetry_cell_setting 'monoclinic'
loop_
_space_group_symop_operation_xyz
x,y,z
-x,y,-z
-x,-y,-z
x,-y,z
1/2+x,1/2+y,z
1/2-x,1/2+y,-z
1/2-x,1/2-y,-z
1/2+x,1/2-y,z
loop_
_atom_site_type_symbol
_atom_site_label
_atom_site_fract_x
_atom_site_fract_y
_atom_site_fract_z
Si Si1 0.859653 0.790822 0.864429
Si Si2 0.820344 0.211256 0.201647
Si Si3 0.044515 0.285279 0.238825
Si Si4 0.215814 0.295791 0.280178
Si Si5 0.430179 0.215357 0.287844
Si Si6 0.058150 0.282443 0.531569
Si Si7 0.121785 0.281993 0.382057
Si Si8 0.689309 0.713153 0.975863
O O1 0.919914 0.769928 0.835415
O O2 0.821699 0.704123 0.798087
O O3 0.846221 0.000000 0.862417
O O4 0.846900 0.720689 0.951745
O O5 0.771672 0.286181 0.253781
O O6 0.876569 0.232456 0.243790
O O7 0.820837 0.284406 0.112232
O O8 0.808886 0.000000 0.194117
O O9 0.044030 0.500000 0.239579
O O10 0.077144 0.228887 0.317414
O O11 0.984061 0.222809 0.244767
O O12 0.226223 0.500000 0.304187
O O13 0.178344 0.217443 0.348729
O O14 0.431854 0.276646 0.378979
O O15 0.431846 0.000000 0.289379
O O16 0.057865 0.500000 0.532170
O O17 0.102356 0.226065 0.468194
O O18 0.000000 0.228121 0.500000
O O19 0.122936 0.500000 0.381108
O O20 0.681328 0.500000 0.972391
O O21 0.750000 0.750000 0.000000
#
# Coordination Sequence:
#
# PCOD9178598 Si02
#       8
#     8   8   8   8   8   8   8   8
#     4  10  19  30  50  79 103 124 161 213 258 294
#     4  10  21  36  51  70 103 141 169 199 252 312
#     4   9  17  31  50  73 101 133 168 203 249 305
#     4   9  17  31  51  73  99 135 171 200 245 306
#     4  10  20  33  52  77 102 133 174 213 249 295
#     4   9  14  25  48  78 103 123 163 218 256 286
#     4   8  13  24  47  75  98 123 162 209 248 291
#     4  10  20  34  53  77 101 130 170 210 250 299
#
# _framework density 20.055731000000002
#
# number of rings (size 3 to 8) (size 9 to 14) (size 15 to 20)
#    0.000    2.625    2.500    1.125    0.000    2.000 
#    0.000    1.250    0.000    7.125    0.000    0.000 
#    0.000    0.000    0.000    0.000    0.000    0.000 
#
# Total GULP energy -178497.942381 kJ/mol
# GULP energy per Si atom -5578.060699 kJ/mol
# Density = 2.001008 g / cm^3
# Si number density = 20.055731 Si / 1000 Ang^3
#
#
#
# Elastic Constant Matrix: (Units=GPa)
#
#
# Indices 1 2 3 4 5 6 
#
# 1 159.5247 -10.9903 94.1887 0.0000 -31.1324 0.0000
# 2 -10.9903 50.7731 -6.4617 0.0000 -4.0941 0.0000
# 3 94.1887 -6.4617 141.6921 0.0000 -26.2217 0.0000
# 4 0.0000 0.0000 0.0000 -4.5861 0.0000 -3.5856
# 5 -31.1324 -4.0941 -26.2217 0.0000 39.7251 0.0000
# 6 0.0000 0.0000 0.0000 -3.5856 0.0000 14.5238
#
#
#
# Elastic Compliance Matrix: (Units=1/GPa)
#
#
# Indices 1 2 3 4 5 6 
#
# 1 0.011114 0.001963 -0.006435 0.000000 0.004664 0.000000
# 2 0.001963 0.020477 0.000347 0.000000 0.003877 0.000000
# 3 -0.006435 0.000347 0.011875 0.000000 0.002831 0.000000
# 4 0.000000 0.000000 0.000000 -0.182771 0.000000 -0.045122
# 5 0.004664 0.003877 0.002831 0.000000 0.031097 0.000000
# 6 0.000000 0.000000 0.000000 -0.045122 0.000000 0.057713
#
#
# Mechanical properties :
#
#
# Convention : Reuss Voigt Hill
#
# Bulk Modulus (GPa) = 28.39738 56.16258 42.27998
# Shear Modulus (GPa) = -163.89803 28.28278 -67.80763
#
# Velocity S-wave (km/s) = -9.04979 3.75935 -5.82091
# Velocity P-wave (km/s) = 9.74722 6.84892 4.90411
#
# Compressibility (1/GPa) = 0.03521452
#
# Stress axis : x y z
#
# Youngs Moduli (GPa) = 89.98048 48.83498 84.21159
#
# Poissons Ratio (x) = -0.09585 0.54190
# Poissons Ratio (y) = -0.17661 -0.02919
# Poissons Ratio (z) = 0.57902 -0.01693
#
# Static dielectric constant tensor:
#      x y z
#    x 1.690560 0.000000 -0.050910 
#    y 0.000000 1.799410 0.000000 
#    z -0.050910 0.000000 1.701830 
# 
# From -- ./inp_files/281288.got.cif
#   From: 2010.05.17/outbox.cif.g08.bks.cpg/sg12_141_cif.got.tgz:281288.got - 2010.06.03 13:09:07.
