data_PCOD9178257
_publ_section_title
;
Structure prediction by ZEFSAII (Michael W. Deem and Ramdas Pophale) SiO2 
 PCOD9178257
Probable space group: C 2/M
;
_chemical_formula_sum "Si O2"
_cell_formula_units_Z 56
_cell_length_a 33.304893
_cell_length_b 9.181494
_cell_length_c 18.398440
_cell_angle_alpha 90.000000
_cell_angle_beta 35.551061
_cell_angle_gamma 90.000000
_cell_volume 3271.135452
_symmetry_space_group_name_H-M "C 2/M"
_symmetry_group_IT_number 12
_symmetry_cell_setting 'monoclinic'
loop_
_space_group_symop_operation_xyz
x,y,z
-x,y,-z
-x,-y,-z
x,-y,z
1/2+x,1/2+y,z
1/2-x,1/2+y,-z
1/2-x,1/2-y,-z
1/2+x,1/2-y,z
loop_
_atom_site_type_symbol
_atom_site_label
_atom_site_fract_x
_atom_site_fract_y
_atom_site_fract_z
Si Si1 0.258529 0.170071 0.602783
Si Si2 0.775861 0.829316 0.725055
Si Si3 0.813223 0.331782 0.812870
Si Si4 0.150941 0.168158 0.098456
Si Si5 0.856286 0.329891 0.318076
Si Si6 0.998233 0.171449 0.089610
Si Si7 0.115046 0.329399 0.008034
O O1 0.286189 0.247767 0.633943
O O2 0.190023 0.251138 0.674903
O O3 0.313222 0.179216 0.456393
O O4 0.243634 0.000000 0.638857
O O5 0.815130 0.752071 0.733720
O O6 0.693956 0.818008 0.863911
O O7 0.793084 0.000000 0.695195
O O8 0.834521 0.500000 0.775018
O O9 0.852982 0.248493 0.818493
O O10 0.732308 0.331737 0.956256
O O11 0.128974 0.000000 0.134927
O O12 0.113093 0.254893 0.090121
O O13 0.865468 0.500000 0.286124
O O14 0.928813 0.249750 0.218500
O O15 0.997217 0.000000 0.108270
O O16 0.000000 0.187665 0.000000
O O17 0.063925 0.246903 0.029420
O O18 0.097614 0.500000 0.038225
#
# Coordination Sequence:
#
# PCOD9178257 Si02
#       7
#     8   8   8   8   8   8   8
#     4  10  20  34  52  73  97 125 159 200 243 286
#     4  10  19  30  47  72 100 130 163 199 241 287
#     4   9  16  26  42  65  95 128 160 197 240 285
#     4   9  16  27  43  64  93 127 162 198 238 286
#     4  10  21  36  53  72  95 126 162 199 241 287
#     4  11  23  36  51  72  98 128 162 200 241 285
#     4  10  20  32  47  69  98 131 165 199 239 288
#
# _framework density 17.119437999999999
#
# number of rings (size 3 to 8) (size 9 to 14) (size 15 to 20)
#    0.000    2.143    0.000    3.857    0.000   10.286 
#    0.000    0.000    0.000    0.000    0.000    1.000 
#    0.000    8.000    0.000    0.000    0.000    0.000 
#
# Total GULP energy -156292.144858 kJ/mol
# GULP energy per Si atom -5581.862316 kJ/mol
# Density = 1.708047 g / cm^3
# Si number density = 17.119438 Si / 1000 Ang^3
#
#
#
# Elastic Constant Matrix: (Units=GPa)
#
#
# Indices 1 2 3 4 5 6 
#
# 1 103.4886 77.0213 11.7338 -0.0019 23.9183 0.0008
# 2 77.0213 172.0130 28.5390 0.0007 15.6921 0.0012
# 3 11.7338 28.5390 12.9019 -0.0008 3.0826 0.0007
# 4 -0.0019 0.0007 -0.0008 20.8908 0.0003 2.8974
# 5 23.9183 15.6921 3.0826 0.0003 25.0435 -0.0002
# 6 0.0008 0.0012 0.0007 2.8974 -0.0002 34.9124
#
#
#
# Elastic Compliance Matrix: (Units=1/GPa)
#
#
# Indices 1 2 3 4 5 6 
#
# 1 0.017643 -0.007241 0.003001 0.000002 -0.012682 0.000000
# 2 -0.007241 0.012437 -0.021344 -0.000002 0.001749 0.000000
# 3 0.003001 -0.021344 0.123101 0.000006 -0.004645 -0.000002
# 4 0.000002 -0.000002 0.000006 0.048425 -0.000002 -0.004019
# 5 -0.012682 0.001749 -0.004645 -0.000002 0.051519 0.000001
# 6 0.000000 0.000000 -0.000002 -0.004019 0.000001 0.028977
#
#
# Mechanical properties :
#
#
# Convention : Reuss Voigt Hill
#
# Bulk Modulus (GPa) = 9.80259 58.11018 33.95639
# Shear Modulus (GPa) = 13.61387 27.57665 20.59526
#
# Velocity S-wave (km/s) = 2.82304 4.01788 3.47224
# Velocity P-wave (km/s) = 4.04531 7.45266 5.99611
#
# Compressibility (1/GPa) = 0.10201381
#
# Stress axis : x y z
#
# Youngs Moduli (GPa) = 56.68073 80.40340 8.12343
#
# Poissons Ratio (x) = 0.58218 -0.02438
# Poissons Ratio (y) = 0.41041 0.17339
# Poissons Ratio (z) = -0.17012 1.71613
#
# Static dielectric constant tensor:
#      x y z
#    x 1.559730 0.000000 0.008710 
#    y 0.000000 1.573110 0.000000 
#    z 0.008710 0.000000 1.566010 
# 
# From -- ./inp_files/281703.got.cif
#   From: 2010.05.17/outbox.cif.g08.bks.cpg/sg12_141_cif.got.tgz:281703.got - 2010.06.03 13:09:07.
