data_PCOD9178831
_publ_section_title
;
Structure prediction by ZEFSAII (Michael W. Deem and Ramdas Pophale) SiO2 
 PCOD9178831
Probable space group: C 2/M
;
_chemical_formula_sum "Si O2"
_cell_formula_units_Z 44
_cell_length_a 20.142230
_cell_length_b 7.646527
_cell_length_c 12.231974
_cell_angle_alpha 90.000000
_cell_angle_beta 62.229122
_cell_angle_gamma 90.000000
_cell_volume 1666.948693
_symmetry_space_group_name_H-M "C 2/M"
_symmetry_group_IT_number 12
_symmetry_cell_setting 'monoclinic'
loop_
_space_group_symop_operation_xyz
x,y,z
-x,y,-z
-x,-y,-z
x,-y,z
1/2+x,1/2+y,z
1/2-x,1/2+y,-z
1/2-x,1/2-y,-z
1/2+x,1/2-y,z
loop_
_atom_site_type_symbol
_atom_site_label
_atom_site_fract_x
_atom_site_fract_y
_atom_site_fract_z
Si Si1 0.497859 0.299782 0.162379
Si Si2 0.176618 0.297861 0.410268
Si Si3 0.657091 0.303573 0.969515
Si Si4 0.555224 0.795045 0.352984
Si Si5 0.772079 0.000000 0.886565
Si Si6 0.837787 0.702356 0.336088
O O1 0.487730 0.500000 0.139442
O O2 0.571259 0.237850 0.041359
O O3 0.520573 0.290545 0.273178
O O4 0.416740 0.213642 0.216102
O O5 0.151360 0.500000 0.428245
O O6 0.132661 0.214999 0.342183
O O7 0.153562 0.225225 0.546524
O O8 0.265667 0.292477 0.340680
O O9 0.662258 0.500000 0.913739
O O10 0.713392 0.154060 0.889043
O O11 0.680699 0.350091 0.077106
O O12 0.500000 0.785253 0.500000
O O13 0.564220 0.000000 0.314592
O O14 0.816110 0.500000 0.364409
#
# Coordination Sequence:
#
# PCOD9178831 Si02
#       6
#     8   8   8   8   4   8
#     4  11  21  30  45  74 101 121 161 203 236 276
#     4   9  18  33  47  60  88 128 166 200 235 276
#     4   8  16  28  45  70  97 125 152 191 239 297
#     4  10  19  33  47  64  94 130 165 196 235 283
#     4   8  14  30  48  64  98 128 146 184 250 304
#     4  10  19  31  47  65  87 123 167 203 237 276
#
# _framework density 26.395530999999998
#
# number of rings (size 3 to 8) (size 9 to 14) (size 15 to 20)
#    0.545    2.000    1.818    1.091    2.545    1.818 
#    0.000    0.000    0.000    0.000    0.000    0.000 
#    0.000    8.727    0.000    0.000    0.000    0.000 
#
# Total GULP energy -122520.242178 kJ/mol
# GULP energy per Si atom -5569.101917 kJ/mol
# Density = 2.633545 g / cm^3
# Si number density = 26.395531 Si / 1000 Ang^3
#
#
#
# Elastic Constant Matrix: (Units=GPa)
#
#
# Indices 1 2 3 4 5 6 
#
# 1 150.5222 11.3140 56.4918 0.0000 -25.8260 0.0000
# 2 11.3140 69.4564 11.5446 0.0000 -4.0730 0.0000
# 3 56.4918 11.5446 107.6131 0.0000 10.7534 0.0000
# 4 0.0000 0.0000 0.0000 -0.2451 0.0000 -2.2453
# 5 -25.8260 -4.0730 10.7534 0.0000 51.2386 0.0000
# 6 0.0000 0.0000 0.0000 -2.2453 0.0000 34.5300
#
#
#
# Elastic Compliance Matrix: (Units=1/GPa)
#
#
# Indices 1 2 3 4 5 6 
#
# 1 0.009895 -0.000289 -0.005780 0.000000 0.006177 0.000000
# 2 -0.000289 0.014785 -0.001570 0.000000 0.001359 0.000000
# 3 -0.005780 -0.001570 0.013073 0.000000 -0.005782 0.000000
# 4 0.000000 0.000000 0.000000 -2.556600 0.000000 -0.166244
# 5 0.006177 0.001359 -0.005782 0.000000 0.023952 0.000000
# 6 0.000000 0.000000 0.000000 -0.166244 0.000000 0.018150
#
#
# Mechanical properties :
#
#
# Convention : Reuss Voigt Hill
#
# Bulk Modulus (GPa) = 44.49608 54.03250 49.26429
# Shear Modulus (GPa) = -2.03751 33.65412 15.80830
#
# Velocity S-wave (km/s) = -0.87954 3.57458 2.44990
# Velocity P-wave (km/s) = 3.98278 6.12793 5.16789
#
# Compressibility (1/GPa) = 0.02247389
#
# Stress axis : x y z
#
# Youngs Moduli (GPa) = 101.06537 67.63482 76.49186
#
# Poissons Ratio (x) = 0.01953 0.44216
# Poissons Ratio (y) = 0.02918 0.12012
# Poissons Ratio (z) = 0.58421 0.10622
#
# Static dielectric constant tensor:
#      x y z
#    x 2.107180 0.000000 0.047650 
#    y 0.000000 1.990580 0.000000 
#    z 0.047650 0.000000 2.153860 
# 
# From -- ./inp_files/229722.got.cif
#   From: 2010.05.17/outbox.cif.g08.bks.cpg/sg12_115_cif.got.tgz:229722.got - 2010.06.03 13:09:07.
