data_PCOD9178904
_publ_section_title
;
Structure prediction by ZEFSAII (Michael W. Deem and Ramdas Pophale) SiO2 
 PCOD9178904
Probable space group: C 2/M
;
_chemical_formula_sum "Si O2"
_cell_formula_units_Z 48
_cell_length_a 14.938895
_cell_length_b 7.292178
_cell_length_c 16.421212
_cell_angle_alpha 90.000000
_cell_angle_beta 103.298057
_cell_angle_gamma 90.000000
_cell_volume 1740.913115
_symmetry_space_group_name_H-M "C 2/M"
_symmetry_group_IT_number 12
_symmetry_cell_setting 'monoclinic'
loop_
_space_group_symop_operation_xyz
x,y,z
-x,y,-z
-x,-y,-z
x,-y,z
1/2+x,1/2+y,z
1/2-x,1/2+y,-z
1/2-x,1/2-y,-z
1/2+x,1/2-y,z
loop_
_atom_site_type_symbol
_atom_site_label
_atom_site_fract_x
_atom_site_fract_y
_atom_site_fract_z
Si Si1 0.107214 0.279156 0.435477
Si Si2 0.712228 0.289970 0.306693
Si Si3 0.594502 0.223225 0.622290
Si Si4 0.367604 0.288458 0.946549
Si Si5 0.333315 0.278694 0.122216
Si Si6 0.529631 0.724307 0.184974
O O1 0.109316 0.500000 0.433984
O O2 0.190559 0.209067 0.398822
O O3 0.105925 0.225354 0.529440
O O4 0.008501 0.217189 0.377053
O O5 0.715825 0.500000 0.280072
O O6 0.813251 0.208823 0.314057
O O7 0.618469 0.206956 0.252044
O O8 0.595580 0.000000 0.625855
O O9 0.389895 0.500000 0.965768
O O10 0.269772 0.280049 0.878308
O O11 0.445984 0.219419 0.902819
O O12 0.348660 0.211246 0.031853
O O13 0.331095 0.500000 0.122980
O O14 0.426695 0.216635 0.186287
O O15 0.529525 0.500000 0.187849
#
# Coordination Sequence:
#
# PCOD9178904 Si02
#       6
#     8   8   8   8   8   8
#     4   9  17  32  51  69  90 120 156 190 228 272
#     4  10  19  31  47  69  95 122 153 189 228 270
#     4   8  16  31  50  68  90 122 155 187 227 276
#     4   9  17  31  51  71  90 119 158 191 222 269
#     4   9  17  31  50  70  92 119 153 193 231 265
#     4   9  18  31  47  67  94 127 155 181 224 281
#
# _framework density 27.571736999999999
#
# number of rings (size 3 to 8) (size 9 to 14) (size 15 to 20)
#    0.000    3.000    0.000    2.000    0.000    3.333 
#    0.000    6.667    0.000    4.000    0.000    0.000 
#    0.000    0.000    0.000    0.000    0.000    0.000 
#
# Total GULP energy -134239.587757 kJ/mol
# GULP energy per Si atom -5593.316157 kJ/mol
# Density = 2.750898 g / cm^3
# Si number density = 27.571737 Si / 1000 Ang^3
#
#
#
# Elastic Constant Matrix: (Units=GPa)
#
#
# Indices 1 2 3 4 5 6 
#
# 1 219.4478 -2.3054 32.0758 0.0000 28.5046 0.0000
# 2 -2.3054 129.5937 0.2604 0.0000 2.2788 0.0000
# 3 32.0758 0.2604 67.4004 0.0000 19.8636 0.0000
# 4 0.0000 0.0000 0.0000 4.0224 0.0000 -2.7134
# 5 28.5046 2.2788 19.8636 0.0000 63.9021 0.0000
# 6 0.0000 0.0000 0.0000 -2.7134 0.0000 1.6266
#
#
#
# Elastic Compliance Matrix: (Units=1/GPa)
#
#
# Indices 1 2 3 4 5 6 
#
# 1 0.005054 0.000123 -0.001916 0.000000 -0.001663 0.000000
# 2 0.000123 0.007724 0.000010 0.000000 -0.000333 0.000000
# 3 -0.001916 0.000010 0.017059 0.000000 -0.004449 0.000000
# 4 0.000000 0.000000 0.000000 -1.984761 0.000000 -3.310834
# 5 -0.001663 -0.000333 -0.004449 0.000000 0.017786 0.000000
# 6 0.000000 0.000000 0.000000 -3.310834 0.000000 -4.908116
#
#
# Mechanical properties :
#
#
# Convention : Reuss Voigt Hill
#
# Bulk Modulus (GPa) = 38.06226 52.94482 45.50354
# Shear Modulus (GPa) = -0.73175 39.67098 19.46962
#
# Velocity S-wave (km/s) = -0.51573 3.79730 2.66022
# Velocity P-wave (km/s) = 3.67153 6.20244 5.09659
#
# Compressibility (1/GPa) = 0.02627274
#
# Stress axis : x y z
#
# Youngs Moduli (GPa) = 197.85349 129.45901 58.61887
#
# Poissons Ratio (x) = -0.01593 0.11229
# Poissons Ratio (y) = -0.02434 -0.00058
# Poissons Ratio (z) = 0.37900 -0.00128
#
# Static dielectric constant tensor:
#      x y z
#    x 2.070450 0.000000 0.044470 
#    y 0.000000 2.034350 0.000000 
#    z 0.044470 0.000000 2.263570 
# 
# From -- ./inp_files/261786.got.cif
#   From: 2010.05.17/outbox.cif.g08.bks.cpg/sg12_131_cif.got.tgz:261786.got - 2010.06.03 13:09:07.
