data_PCOD9178468
_publ_section_title
;
Structure prediction by ZEFSAII (Michael W. Deem and Ramdas Pophale) SiO2 
 PCOD9178468
Probable space group: C 2/M
;
_chemical_formula_sum "Si O2"
_cell_formula_units_Z 48
_cell_length_a 24.493517
_cell_length_b 10.158346
_cell_length_c 9.631573
_cell_angle_alpha 90.000000
_cell_angle_beta 116.319514
_cell_angle_gamma 90.000000
_cell_volume 2148.037984
_symmetry_space_group_name_H-M "C 2/M"
_symmetry_group_IT_number 12
_symmetry_cell_setting 'monoclinic'
loop_
_space_group_symop_operation_xyz
x,y,z
-x,y,-z
-x,-y,-z
x,-y,z
1/2+x,1/2+y,z
1/2-x,1/2+y,-z
1/2-x,1/2-y,-z
1/2+x,1/2-y,z
loop_
_atom_site_type_symbol
_atom_site_label
_atom_site_fract_x
_atom_site_fract_y
_atom_site_fract_z
Si Si1 0.930353 0.154464 0.791093
Si Si2 0.954043 0.653250 0.577231
Si Si3 0.109550 0.653687 0.017739
Si Si4 0.705103 0.363948 0.482785
Si Si5 0.645067 0.846394 0.757367
Si Si6 0.254836 0.644312 0.162816
O O1 0.963454 0.242998 0.711243
O O2 0.925144 0.240023 0.926788
O O3 0.861197 0.150474 0.655277
O O4 0.949641 0.000000 0.826198
O O5 0.955257 0.500000 0.627438
O O6 0.889866 0.678969 0.425676
O O7 0.000000 0.664447 0.500000
O O8 0.094384 0.500000 0.034116
O O9 0.183566 0.666789 0.119177
O O10 0.102057 0.674140 0.843892
O O11 0.731471 0.500000 0.453654
O O12 0.750000 0.250000 0.500000
O O13 0.708637 0.371020 0.651526
O O14 0.705573 0.762928 0.854098
O O15 0.659759 0.000000 0.772795
O O16 0.259474 0.500000 0.097918
#
# Coordination Sequence:
#
# PCOD9178468 Si02
#       6
#     8   8   8   8   8   8
#     4  11  22  36  56  83 111 143 183 226 272 322
#     4  10  22  41  63  83 104 137 183 233 282 328
#     4  10  21  36  54  81 117 152 182 216 263 325
#     4  10  19  30  48  77 111 146 182 219 260 313
#     4  10  21  36  56  82 111 145 186 227 270 321
#     4  10  19  32  51  78 115 152 182 216 263 318
#
# _framework density 22.345973000000001
#
# number of rings (size 3 to 8) (size 9 to 14) (size 15 to 20)
#    0.000    1.833    3.333    1.000    0.000    3.000 
#    0.000    0.833    0.000    5.000    0.000    0.000 
#    0.000    0.000    0.000    0.000    0.000    0.000 
#
# Total GULP energy -133862.396782 kJ/mol
# GULP energy per Si atom -5577.599866 kJ/mol
# Density = 2.229511 g / cm^3
# Si number density = 22.345973 Si / 1000 Ang^3
#
#
#
# Elastic Constant Matrix: (Units=GPa)
#
#
# Indices 1 2 3 4 5 6 
#
# 1 64.1901 73.9698 6.9390 0.0000 -3.2103 0.0000
# 2 73.9698 183.0086 42.8293 0.0000 -32.1934 0.0000
# 3 6.9390 42.8293 90.9467 0.0000 -7.6944 0.0000
# 4 0.0000 0.0000 0.0000 23.5679 0.0000 -15.2776
# 5 -3.2103 -32.1934 -7.6944 0.0000 35.3317 0.0000
# 6 0.0000 0.0000 0.0000 -15.2776 0.0000 25.4456
#
#
#
# Elastic Compliance Matrix: (Units=1/GPa)
#
#
# Indices 1 2 3 4 5 6 
#
# 1 0.033627 -0.016545 0.004288 0.000000 -0.011086 0.000000
# 2 -0.016545 0.015319 -0.004990 0.000000 0.011368 0.000000
# 3 0.004288 -0.004990 0.012904 0.000000 -0.001347 0.000000
# 4 0.000000 0.000000 0.000000 0.069468 0.000000 0.041709
# 5 -0.011086 0.011368 -0.001347 0.000000 0.037361 0.000000
# 6 0.000000 0.000000 0.000000 0.041709 0.000000 0.064342
#
#
# Mechanical properties :
#
#
# Convention : Reuss Voigt Hill
#
# Bulk Modulus (GPa) = 36.55549 65.06907 50.81228
# Shear Modulus (GPa) = 18.07443 31.16286 24.61865
#
# Velocity S-wave (km/s) = 2.84711 3.73844 3.32279
# Velocity P-wave (km/s) = 5.21559 6.91496 6.12450
#
# Compressibility (1/GPa) = 0.02735567
#
# Stress axis : x y z
#
# Youngs Moduli (GPa) = 29.73825 65.27723 77.49357
#
# Poissons Ratio (x) = 1.08003 -0.33229
# Poissons Ratio (y) = 0.49203 0.38670
# Poissons Ratio (z) = -0.12752 0.32574
#
# Static dielectric constant tensor:
#      x y z
#    x 1.847490 0.000000 -0.009790 
#    y 0.000000 1.872450 0.000000 
#    z -0.009790 0.000000 1.923900 
# 
# From -- ./inp_files/179317.got.cif
#   From: 2010.05.17/outbox.cif.g08.bks.cpg/sg12_90_cif.got.tgz:179317.got - 2010.06.03 13:09:07.
