data_PCOD9178995
_publ_section_title
;
Structure prediction by ZEFSAII (Michael W. Deem and Ramdas Pophale) SiO2 
 PCOD9178995
Probable space group: C 2/M
;
_chemical_formula_sum "Si O2"
_cell_formula_units_Z 48
_cell_length_a 15.854470
_cell_length_b 7.710420
_cell_length_c 18.331381
_cell_angle_alpha 90.000000
_cell_angle_beta 127.111370
_cell_angle_gamma 90.000000
_cell_volume 1787.047718
_symmetry_space_group_name_H-M "C 2/M"
_symmetry_group_IT_number 12
_symmetry_cell_setting 'monoclinic'
loop_
_space_group_symop_operation_xyz
x,y,z
-x,y,-z
-x,-y,-z
x,-y,z
1/2+x,1/2+y,z
1/2-x,1/2+y,-z
1/2-x,1/2-y,-z
1/2+x,1/2-y,z
loop_
_atom_site_type_symbol
_atom_site_label
_atom_site_fract_x
_atom_site_fract_y
_atom_site_fract_z
Si Si1 0.150888 0.204104 0.686286
Si Si2 0.606119 0.799817 0.352858
Si Si3 0.107927 0.713161 0.193559
Si Si4 0.324125 0.203105 0.144013
Si Si5 0.896636 0.289892 0.023019
Si Si6 0.149029 0.704613 0.528415
O O1 0.272240 0.274257 0.751784
O O2 0.117742 0.234961 0.752462
O O3 0.104865 0.278622 0.587246
O O4 0.152547 0.000000 0.675580
O O5 0.572618 0.729191 0.256553
O O6 0.735168 0.792780 0.412750
O O7 0.587800 0.725055 0.424709
O O8 0.571467 0.000000 0.336230
O O9 0.111043 0.500000 0.194884
O O10 0.019557 0.763992 0.088590
O O11 0.359430 0.274438 0.084079
O O12 0.342271 0.000000 0.149510
O O13 0.197863 0.236101 0.079213
O O14 0.897019 0.500000 0.019701
O O15 0.164836 0.500000 0.523903
#
# Coordination Sequence:
#
# PCOD9178995 Si02
#       6
#     8   8   8   8   8   8
#     4  10  19  31  48  69  94 122 153 189 227 268
#     4   8  14  25  42  65  93 123 152 183 221 267
#     4   8  15  29  49  71  91 117 155 190 221 262
#     4  10  20  33  49  69  92 118 151 189 229 274
#     4   9  18  34  53  68  87 119 155 188 224 271
#     4   9  15  24  41  66  95 122 150 185 224 266
#
# _framework density 26.859943999999999
#
# number of rings (size 3 to 8) (size 9 to 14) (size 15 to 20)
#    0.000    3.000    0.000    2.500    0.000    2.000 
#    0.000    7.500    0.000    1.000    0.000    7.000 
#    0.000    0.000    0.000    0.000    0.000    0.000 
#
# Total GULP energy -134070.417576 kJ/mol
# GULP energy per Si atom -5586.267399 kJ/mol
# Density = 2.679881 g / cm^3
# Si number density = 26.859944 Si / 1000 Ang^3
#
#
#
# Elastic Constant Matrix: (Units=GPa)
#
#
# Indices 1 2 3 4 5 6 
#
# 1 75.7490 -8.8007 8.1344 0.0000 -4.6388 0.0000
# 2 -8.8007 62.8317 6.7224 0.0000 4.3926 0.0000
# 3 8.1344 6.7224 225.7336 0.0000 7.6219 0.0000
# 4 0.0000 0.0000 0.0000 21.6248 0.0000 -3.4147
# 5 -4.6388 4.3926 7.6219 0.0000 56.0820 0.0000
# 6 0.0000 0.0000 0.0000 -3.4147 0.0000 0.9500
#
#
#
# Elastic Compliance Matrix: (Units=1/GPa)
#
#
# Indices 1 2 3 4 5 6 
#
# 1 0.013547 0.001886 -0.000580 0.000000 0.001052 0.000000
# 2 0.001886 0.016309 -0.000518 0.000000 -0.001051 0.000000
# 3 -0.000580 -0.000518 0.004487 0.000000 -0.000617 0.000000
# 4 0.000000 0.000000 0.000000 0.106937 0.000000 0.384362
# 5 0.001052 -0.001051 -0.000617 0.000000 0.018084 0.000000
# 6 0.000000 0.000000 0.000000 0.384362 0.000000 2.434082
#
#
# Mechanical properties :
#
#
# Convention : Reuss Voigt Hill
#
# Bulk Modulus (GPa) = 27.84026 41.82515 34.83271
# Shear Modulus (GPa) = 1.92024 39.61526 20.76775
#
# Velocity S-wave (km/s) = 0.84644 3.84459 2.78364
# Velocity P-wave (km/s) = 3.36790 5.94249 4.82990
#
# Compressibility (1/GPa) = 0.03591920
#
# Stress axis : x y z
#
# Youngs Moduli (GPa) = 73.81543 61.31725 222.85774
#
# Poissons Ratio (x) = -0.11565 0.12923
# Poissons Ratio (y) = -0.13922 0.11548
# Poissons Ratio (z) = 0.04280 0.03177
#
# Static dielectric constant tensor:
#      x y z
#    x 2.277020 0.000000 -0.047120 
#    y 0.000000 1.988820 0.000000 
#    z -0.047120 0.000000 2.110430 
# 
# From -- ./inp_files/274036.got.cif
#   From: 2010.05.17/outbox.cif.g08.bks.cpg/sg12_138_cif.got.tgz:274036.got - 2010.06.03 13:09:07.
