data_PCOD9178790
_publ_section_title
;
Structure prediction by ZEFSAII (Michael W. Deem and Ramdas Pophale) SiO2 
 PCOD9178790
Probable space group: C 2/M
;
_chemical_formula_sum "Si O2"
_cell_formula_units_Z 56
_cell_length_a 22.135050
_cell_length_b 19.270355
_cell_length_c 10.308150
_cell_angle_alpha 90.000000
_cell_angle_beta 136.801741
_cell_angle_gamma 90.000000
_cell_volume 3009.818018
_symmetry_space_group_name_H-M "C 2/M"
_symmetry_group_IT_number 12
_symmetry_cell_setting 'monoclinic'
loop_
_space_group_symop_operation_xyz
x,y,z
-x,y,-z
-x,-y,-z
x,-y,z
1/2+x,1/2+y,z
1/2-x,1/2+y,-z
1/2-x,1/2-y,-z
1/2+x,1/2-y,z
loop_
_atom_site_type_symbol
_atom_site_label
_atom_site_fract_x
_atom_site_fract_y
_atom_site_fract_z
Si Si1 0.178047 0.661849 0.236296
Si Si2 0.715409 0.081079 0.023901
Si Si3 0.060359 0.577464 0.224022
Si Si4 0.900888 0.686953 0.310032
Si Si5 0.027656 0.288046 0.839868
Si Si6 0.864408 0.214846 0.497293
Si Si7 0.403615 0.422124 0.410396
O O1 0.193183 0.613572 0.131373
O O2 0.149340 0.613702 0.311144
O O3 0.265748 0.705959 0.393851
O O4 0.094805 0.708841 0.063722
O O5 0.821806 0.086588 0.182467
O O6 0.690464 0.000000 0.981340
O O7 0.664917 0.126397 0.837570
O O8 0.071867 0.500000 0.294403
O O9 0.008993 0.632618 0.231509
O O10 0.000000 0.572416 0.000000
O O11 0.866761 0.734383 0.374569
O O12 0.000000 0.662593 0.500000
O O13 0.918555 0.731108 0.205928
O O14 0.939887 0.243067 0.709556
O O15 0.892912 0.138708 0.495882
O O16 0.500000 0.417058 0.500000
O O17 0.392735 0.500000 0.447969
#
# Coordination Sequence:
#
# PCOD9178790 Si02
#       7
#     8   8   8   8   8   8   8
#     4   9  18  30  48  68  90 120 157 194 235 271
#     4   9  17  28  43  65  90 118 154 189 225 274
#     4   9  17  31  50  71  96 122 152 193 234 274
#     4   9  18  30  44  66  94 125 154 181 225 281
#     4   9  18  30  46  70  94 122 154 185 231 278
#     4  10  19  31  46  67  96 123 154 191 227 278
#     4   9  17  28  43  62  85 116 153 193 231 263
#
# _framework density 18.605777
#
# number of rings (size 3 to 8) (size 9 to 14) (size 15 to 20)
#    0.000    2.857    0.000    1.714    0.000   11.143 
#    0.000    2.143    0.000    0.000    0.000    1.000 
#    0.000    6.286    0.000    0.714    0.000    0.143 
#
# Total GULP energy -155976.445753 kJ/mol
# GULP energy per Si atom -5570.587348 kJ/mol
# Density = 1.856343 g / cm^3
# Si number density = 18.605777 Si / 1000 Ang^3
#
#
#
# Elastic Constant Matrix: (Units=GPa)
#
#
# Indices 1 2 3 4 5 6 
#
# 1 66.7788 28.5427 24.3463 0.0000 17.0173 0.0000
# 2 28.5427 89.7284 53.8084 0.0000 18.4259 0.0000
# 3 24.3463 53.8084 72.3885 0.0000 31.8611 0.0000
# 4 0.0000 0.0000 0.0000 20.6638 0.0000 9.0678
# 5 17.0173 18.4259 31.8611 0.0000 33.8167 0.0000
# 6 0.0000 0.0000 0.0000 9.0678 0.0000 15.2143
#
#
#
# Elastic Compliance Matrix: (Units=1/GPa)
#
#
# Indices 1 2 3 4 5 6 
#
# 1 0.018676 -0.004683 0.000364 0.000000 -0.007189 0.000000
# 2 -0.004683 0.021863 -0.017889 0.000000 0.007298 0.000000
# 3 0.000364 -0.017889 0.038919 0.000000 -0.027104 0.000000
# 4 0.000000 0.000000 0.000000 0.065534 0.000000 -0.039059
# 5 -0.007189 0.007298 -0.027104 0.000000 0.054749 0.000000
# 6 0.000000 0.000000 0.000000 -0.039059 0.000000 0.089007
#
#
# Mechanical properties :
#
#
# Convention : Reuss Voigt Hill
#
# Bulk Modulus (GPa) = 28.53655 49.14338 38.83997
# Shear Modulus (GPa) = 14.49934 22.08551 18.29243
#
# Velocity S-wave (km/s) = 2.79461 3.44906 3.13894
# Velocity P-wave (km/s) = 5.07778 6.50628 5.83590
#
# Compressibility (1/GPa) = 0.03504278
#
# Stress axis : x y z
#
# Youngs Moduli (GPa) = 53.54564 45.73900 25.69452
#
# Poissons Ratio (x) = 0.21418 -0.00935
# Poissons Ratio (y) = 0.25073 0.45964
# Poissons Ratio (z) = -0.01949 0.81821
#
# Static dielectric constant tensor:
#      x y z
#    x 1.678780 0.000000 0.026660 
#    y 0.000000 1.665670 0.000000 
#    z 0.026660 0.000000 1.661520 
# 
# From -- ./inp_files/177609.got.cif
#   From: 2010.05.17/outbox.cif.g08.bks.cpg/sg12_89_cif.got.tgz:177609.got - 2010.06.03 13:09:07.
