data_PCOD9178798
_publ_section_title
;
Structure prediction by ZEFSAII (Michael W. Deem and Ramdas Pophale) SiO2 
 PCOD9178798
Probable space group: C 2/M
;
_chemical_formula_sum "Si O2"
_cell_formula_units_Z 58
_cell_length_a 20.392656
_cell_length_b 7.467319
_cell_length_c 15.868553
_cell_angle_alpha 90.000000
_cell_angle_beta 74.138288
_cell_angle_gamma 90.000000
_cell_volume 2324.431012
_symmetry_space_group_name_H-M "C 2/M"
_symmetry_group_IT_number 12
_symmetry_cell_setting 'monoclinic'
loop_
_space_group_symop_operation_xyz
x,y,z
-x,y,-z
-x,-y,-z
x,-y,z
1/2+x,1/2+y,z
1/2-x,1/2+y,-z
1/2-x,1/2-y,-z
1/2+x,1/2-y,z
loop_
_atom_site_type_symbol
_atom_site_label
_atom_site_fract_x
_atom_site_fract_y
_atom_site_fract_z
Si Si1 0.894490 0.217415 0.861435
Si Si2 0.032871 0.201889 0.739476
Si Si3 0.898629 0.796036 0.056963
Si Si4 0.250962 0.212635 0.100980
Si Si5 0.677003 0.784999 0.424961
Si Si6 0.000000 0.500000 0.000000
Si Si7 0.039360 0.289617 0.398677
Si Si8 0.328571 0.715073 0.373543
O O1 0.823721 0.279205 0.843982
O O2 0.966126 0.288114 0.804065
O O3 0.895170 0.000000 0.853482
O O4 0.891426 0.260454 0.961153
O O5 0.107832 0.284450 0.703581
O O6 0.005358 0.190509 0.653840
O O7 0.040761 0.000000 0.772367
O O8 0.820511 0.786761 0.116022
O O9 0.954752 0.656824 0.065740
O O10 0.921499 0.000000 0.053848
O O11 0.253748 0.000000 0.110488
O O12 0.250000 0.250000 0.000000
O O13 0.615455 0.718799 0.388551
O O14 0.662792 0.749836 0.529213
O O15 0.752912 0.717792 0.377867
O O16 0.677376 0.000000 0.416483
O O17 0.042597 0.500000 0.373634
O O18 0.000000 0.280006 0.500000
O O19 0.329185 0.500000 0.363449
#
# Coordination Sequence:
#
# PCOD9178798 Si02
#       8
#     8   8   8   8   8   2   8   8
#     4   8  17  33  55  78 109 143 176 230 286 332
#     4  10  19  32  51  76 103 134 176 223 276 331
#     4  10  20  36  58  87 119 152 191 233 278 329
#     4   9  15  29  53  81 106 138 185 232 278 325
#     4   9  17  30  46  63  93 126 165 217 271 319
#     4  12  22  36  60  90 120 152 188 226 274 346
#     4  10  19  31  46  68  99 134 172 224 280 323
#     4   9  17  28  47  71  90 124 172 217 260 320
#
# _framework density 24.952342999999999
#
# number of rings (size 3 to 8) (size 9 to 14) (size 15 to 20)
#    0.000    2.621    2.069    1.448    0.000    0.828 
#    1.241    0.000    3.034    0.000    0.000    0.000 
#    0.000    0.000    0.000    0.000    0.000    0.000 
#
# Total GULP energy -161689.980984 kJ/mol
# GULP energy per Si atom -5575.516586 kJ/mol
# Density = 2.489555 g / cm^3
# Si number density = 24.952343 Si / 1000 Ang^3
#
#
#
# Elastic Constant Matrix: (Units=GPa)
#
#
# Indices 1 2 3 4 5 6 
#
# 1 179.4049 12.7162 39.9745 0.0000 -51.4402 0.0000
# 2 12.7162 91.1892 -6.1219 0.0000 -5.1340 0.0000
# 3 39.9745 -6.1219 49.2145 0.0000 -29.9048 0.0000
# 4 0.0000 0.0000 0.0000 -0.6971 0.0000 -7.2891
# 5 -51.4402 -5.1340 -29.9048 0.0000 51.5194 0.0000
# 6 0.0000 0.0000 0.0000 -7.2891 0.0000 -7.4922
#
#
#
# Elastic Compliance Matrix: (Units=1/GPa)
#
#
# Indices 1 2 3 4 5 6 
#
# 1 0.008092 -0.000963 -0.002845 0.000000 0.006332 0.000000
# 2 -0.000963 0.011468 0.003582 0.000000 0.002261 0.000000
# 3 -0.002845 0.003582 0.033318 0.000000 0.016857 0.000000
# 4 0.000000 0.000000 0.000000 0.156387 0.000000 -0.152147
# 5 0.006332 0.002261 0.016857 0.000000 0.035742 0.000000
# 6 0.000000 0.000000 0.000000 -0.152147 0.000000 0.014551
#
#
# Mechanical properties :
#
#
# Convention : Reuss Voigt Hill
#
# Bulk Modulus (GPa) = 19.07371 45.88290 32.47830
# Shear Modulus (GPa) = 18.01909 26.88200 22.45055
#
# Velocity S-wave (km/s) = 2.69018 3.28584 3.00282
# Velocity P-wave (km/s) = 4.16054 5.72920 5.00669
#
# Compressibility (1/GPa) = 0.05242820
#
# Stress axis : x y z
#
# Youngs Moduli (GPa) = 123.58450 87.19709 30.01375
#
# Poissons Ratio (x) = 0.08396 0.08537
# Poissons Ratio (y) = 0.11899 -0.10752
# Poissons Ratio (z) = 0.35154 -0.31238
#
# Static dielectric constant tensor:
#      x y z
#    x 2.042600 0.000000 -0.021870 
#    y 0.000000 1.941470 0.000000 
#    z -0.021870 0.000000 1.949390 
# 
# From -- ./inp_files/281146.got.cif
#   From: 2010.05.17/outbox.cif.g08.bks.cpg/sg12_141_cif.got.tgz:281146.got - 2010.06.03 13:09:07.
