data_PCOD9178199
_publ_section_title
;
Structure prediction by ZEFSAII (Michael W. Deem and Ramdas Pophale) SiO2 
 PCOD9178199
Probable space group: C 2/M
;
_chemical_formula_sum "Si O2"
_cell_formula_units_Z 56
_cell_length_a 13.780590
_cell_length_b 9.296653
_cell_length_c 19.519575
_cell_angle_alpha 90.000000
_cell_angle_beta 107.023657
_cell_angle_gamma 90.000000
_cell_volume 2391.146818
_symmetry_space_group_name_H-M "C 2/M"
_symmetry_group_IT_number 12
_symmetry_cell_setting 'monoclinic'
loop_
_space_group_symop_operation_xyz
x,y,z
-x,y,-z
-x,-y,-z
x,-y,z
1/2+x,1/2+y,z
1/2-x,1/2+y,-z
1/2-x,1/2-y,-z
1/2+x,1/2-y,z
loop_
_atom_site_type_symbol
_atom_site_label
_atom_site_fract_x
_atom_site_fract_y
_atom_site_fract_z
Si Si1 0.842932 0.327300 0.979905
Si Si2 0.829353 0.164441 0.298782
Si Si3 0.763260 0.165942 0.838859
Si Si4 0.137182 0.837028 0.544998
Si Si5 0.878086 0.339234 0.587022
Si Si6 0.038838 0.335906 0.865210
Si Si7 0.952921 0.161346 0.729406
O O1 0.828857 0.500000 0.973673
O O2 0.834989 0.259651 0.903087
O O3 0.750000 0.250000 0.000000
O O4 0.937134 0.301825 0.050641
O O5 0.754822 0.261584 0.238595
O O6 0.860583 0.229198 0.378578
O O7 0.933193 0.152476 0.277971
O O8 0.789645 0.000000 0.300304
O O9 0.650597 0.165627 0.851546
O O10 0.795170 0.000000 0.842350
O O11 0.087554 0.754423 0.471185
O O12 0.257071 0.849965 0.553738
O O13 0.099127 0.000000 0.543765
O O14 0.921749 0.500000 0.595866
O O15 0.897315 0.261943 0.663105
O O16 0.000540 0.500000 0.852724
O O17 0.969761 0.228995 0.807499
O O18 0.910665 0.000000 0.721596
#
# Coordination Sequence:
#
# PCOD9178199 Si02
#       7
#     8   8   8   8   8   8   8
#     4   9  15  23  37  58  87 123 158 192 230 273
#     4   9  18  32  49  69  94 124 157 193 232 274
#     4   9  16  25  39  62  92 123 154 190 231 276
#     4   9  19  36  54  70  90 120 158 194 229 274
#     4  10  20  34  52  71  93 121 153 192 233 277
#     4   8  15  26  39  59  89 122 155 190 226 267
#     4  10  19  30  47  70  96 124 153 190 233 277
#
# _framework density 23.419723000000001
#
# number of rings (size 3 to 8) (size 9 to 14) (size 15 to 20)
#    0.000    2.857    0.000    2.571    0.000    6.286 
#    0.000    2.857    0.000    0.000    0.000    1.000 
#    0.000    8.000    0.000    0.000    0.000    0.000 
#
# Total GULP energy -156488.912897 kJ/mol
# GULP energy per Si atom -5588.889746 kJ/mol
# Density = 2.336642 g / cm^3
# Si number density = 23.419723 Si / 1000 Ang^3
#
#
#
# Elastic Constant Matrix: (Units=GPa)
#
#
# Indices 1 2 3 4 5 6 
#
# 1 46.7470 1.9316 16.8631 0.0000 -1.3065 0.0000
# 2 1.9316 158.3826 126.9159 0.0000 18.2854 0.0000
# 3 16.8631 126.9159 240.4263 0.0000 -5.5436 0.0000
# 4 0.0000 0.0000 0.0000 40.7848 0.0000 -0.1862
# 5 -1.3065 18.2854 -5.5436 0.0000 44.7668 0.0000
# 6 0.0000 0.0000 0.0000 -0.1862 0.0000 5.3694
#
#
#
# Elastic Compliance Matrix: (Units=1/GPa)
#
#
# Indices 1 2 3 4 5 6 
#
# 1 0.022212 0.001785 -0.002509 0.000000 -0.000392 0.000000
# 2 0.001785 0.012443 -0.006829 0.000000 -0.005876 0.000000
# 3 -0.002509 -0.006829 0.008026 0.000000 0.003710 0.000000
# 4 0.000000 0.000000 0.000000 0.024523 0.000000 0.000850
# 5 -0.000392 -0.005876 0.003710 0.000000 0.025186 0.000000
# 6 0.000000 0.000000 0.000000 0.000850 0.000000 0.186271
#
#
# Mechanical properties :
#
#
# Convention : Reuss Voigt Hill
#
# Bulk Modulus (GPa) = 36.26570 81.88634 59.07602
# Shear Modulus (GPa) = 16.50393 38.17387 27.33890
#
# Velocity S-wave (km/s) = 2.65750 4.04169 3.42035
# Velocity P-wave (km/s) = 4.99351 7.53797 6.39359
#
# Compressibility (1/GPa) = 0.02757426
#
# Stress axis : x y z
#
# Youngs Moduli (GPa) = 45.02030 80.36957 124.60132
#
# Poissons Ratio (x) = -0.14346 0.31265
# Poissons Ratio (y) = -0.08036 0.85088
# Poissons Ratio (z) = 0.11297 0.54883
#
# Static dielectric constant tensor:
#      x y z
#    x 1.991620 0.000000 -0.034620 
#    y 0.000000 1.827970 0.000000 
#    z -0.034620 0.000000 1.860460 
# 
# From -- ./inp_files/319344.got.cif
#   From: 2010.05.17/outbox.cif.g08.bks.cpg/sg12_160_cif.got.tgz:319344.got - 2010.06.03 13:09:07.
