data_PCOD9178567
_publ_section_title
;
Structure prediction by ZEFSAII (Michael W. Deem and Ramdas Pophale) SiO2 
 PCOD9178567
Probable space group: C 2/M
;
_chemical_formula_sum "Si O2"
_cell_formula_units_Z 64
_cell_length_a 29.413150
_cell_length_b 20.799280
_cell_length_c 17.953619
_cell_angle_alpha 90.000000
_cell_angle_beta 159.243209
_cell_angle_gamma 90.000000
_cell_volume 3892.582733
_symmetry_space_group_name_H-M "C 2/M"
_symmetry_group_IT_number 12
_symmetry_cell_setting 'monoclinic'
loop_
_space_group_symop_operation_xyz
x,y,z
-x,y,-z
-x,-y,-z
x,-y,z
1/2+x,1/2+y,z
1/2-x,1/2+y,-z
1/2-x,1/2-y,-z
1/2+x,1/2-y,z
loop_
_atom_site_type_symbol
_atom_site_label
_atom_site_fract_x
_atom_site_fract_y
_atom_site_fract_z
Si Si1 0.485610 0.074557 0.766511
Si Si2 0.618656 0.922373 0.231376
Si Si3 0.293494 0.426427 0.250478
Si Si4 0.513797 0.804394 0.709929
Si Si5 0.598928 0.329225 0.880090
Si Si6 0.686355 0.325355 0.844392
Si Si7 0.623299 0.577356 0.455374
Si Si8 0.877494 0.698487 0.348716
O O1 0.409115 0.089988 0.724825
O O2 0.465101 0.131299 0.675985
O O3 0.457805 0.000000 0.701412
O O4 0.638349 0.076549 0.017953
O O5 0.754925 0.901620 0.407416
O O6 0.617903 0.000000 0.222227
O O7 0.500000 0.897625 0.000000
O O8 0.330349 0.500000 0.293736
O O9 0.335949 0.383350 0.246576
O O10 0.346446 0.406619 0.411888
O O11 0.535425 0.741365 0.794240
O O12 0.420962 0.787819 0.499331
O O13 0.660129 0.819188 0.907502
O O14 0.621683 0.332614 0.825318
O O15 0.504000 0.384594 0.760297
O O16 0.738963 0.334053 0.131417
O O17 0.641501 0.262371 0.730728
O O18 0.609546 0.500000 0.428971
O O19 0.000000 0.662501 0.500000
#
# Coordination Sequence:
#
# PCOD9178567 Si02
#       8
#     8   8   8   8   8   8   8   8
#     4   9  17  31  53  79 102 127 167 212 254 298
#     4   9  15  30  55  79 103 132 162 198 250 316
#     4   9  17  28  46  76 109 132 156 199 256 310
#     4  10  19  33  52  76  99 131 174 211 248 294
#     4  11  21  33  50  76 102 135 173 210 248 297
#     4  10  19  30  50  75 100 133 175 205 244 301
#     4  10  20  32  49  76 108 135 162 203 258 307
#     4  11  18  33  52  69  94 135 178 212 236 290
#
# _framework density 16.441526
#
# number of rings (size 3 to 8) (size 9 to 14) (size 15 to 20)
#    0.000    2.125    3.750    1.500    0.000    0.500 
#    0.000    2.500    0.000    1.500    0.000    2.625 
#    0.000    0.000    0.000    0.000    0.000    0.000 
#
# Total GULP energy -178339.972648 kJ/mol
# GULP energy per Si atom -5573.124145 kJ/mol
# Density = 1.640410 g / cm^3
# Si number density = 16.441526 Si / 1000 Ang^3
#
#
#
# Elastic Constant Matrix: (Units=GPa)
#
#
# Indices 1 2 3 4 5 6 
#
# 1 59.5079 37.5296 40.0662 0.0000 6.5365 0.0000
# 2 37.5296 48.3139 30.0735 0.0000 4.4031 0.0000
# 3 40.0662 30.0735 108.5791 0.0000 4.7442 0.0000
# 4 0.0000 0.0000 0.0000 21.7447 0.0000 6.1832
# 5 6.5365 4.4031 4.7442 0.0000 18.6389 0.0000
# 6 0.0000 0.0000 0.0000 6.1832 0.0000 12.9713
#
#
#
# Elastic Compliance Matrix: (Units=1/GPa)
#
#
# Indices 1 2 3 4 5 6 
#
# 1 0.037264 -0.024200 -0.006802 0.000000 -0.005620 0.000000
# 2 -0.024200 0.041053 -0.002415 0.000000 -0.000597 0.000000
# 3 -0.006802 -0.002415 0.012398 0.000000 -0.000200 0.000000
# 4 0.000000 0.000000 0.000000 0.053199 0.000000 -0.025359
# 5 -0.005620 -0.000597 -0.000200 0.000000 0.055814 0.000000
# 6 0.000000 0.000000 0.000000 -0.025359 0.000000 0.089181
#
#
# Mechanical properties :
#
#
# Convention : Reuss Voigt Hill
#
# Bulk Modulus (GPa) = 41.87403 47.97106 44.92255
# Shear Modulus (GPa) = 13.74752 17.91977 15.83365
#
# Velocity S-wave (km/s) = 2.89476 3.30496 3.10664
# Velocity P-wave (km/s) = 6.05777 6.61844 6.34430
#
# Compressibility (1/GPa) = 0.02388115
#
# Stress axis : x y z
#
# Youngs Moduli (GPa) = 26.83591 24.35854 80.66139
#
# Poissons Ratio (x) = 0.58946 0.54868
# Poissons Ratio (y) = 0.64942 0.19479
# Poissons Ratio (z) = 0.18254 0.05882
#
# Static dielectric constant tensor:
#      x y z
#    x 1.553960 0.000000 0.007520 
#    y 0.000000 1.565560 0.000000 
#    z 0.007520 0.000000 1.571590 
# 
# From -- ./inp_files/297107.got.cif
#   From: 2010.05.17/outbox.cif.g08.bks.cpg/sg12_149_cif.got.tgz:297107.got - 2010.06.03 13:09:07.
