data_PCOD9178316
_publ_section_title
;
Structure prediction by ZEFSAII (Michael W. Deem and Ramdas Pophale) SiO2 
 PCOD9178316
Probable space group: C 2/M
;
_chemical_formula_sum "Si O2"
_cell_formula_units_Z 56
_cell_length_a 29.334058
_cell_length_b 7.505453
_cell_length_c 11.723790
_cell_angle_alpha 90.000000
_cell_angle_beta 72.271245
_cell_angle_gamma 90.000000
_cell_volume 2458.589784
_symmetry_space_group_name_H-M "C 2/M"
_symmetry_group_IT_number 12
_symmetry_cell_setting 'monoclinic'
loop_
_space_group_symop_operation_xyz
x,y,z
-x,y,-z
-x,-y,-z
x,-y,z
1/2+x,1/2+y,z
1/2-x,1/2+y,-z
1/2-x,1/2-y,-z
1/2+x,1/2-y,z
loop_
_atom_site_type_symbol
_atom_site_label
_atom_site_fract_x
_atom_site_fract_y
_atom_site_fract_z
Si Si1 0.158099 0.217165 0.549463
Si Si2 0.600008 0.283095 0.933806
Si Si3 0.056382 0.784014 0.736277
Si Si4 0.026798 0.295106 0.369147
Si Si5 0.617120 0.703692 0.167853
Si Si6 0.798615 0.213938 0.252007
Si Si7 0.807692 0.210512 0.721496
O O1 0.104537 0.265779 0.629843
O O2 0.193903 0.276135 0.623126
O O3 0.173053 0.283151 0.413969
O O4 0.159384 0.000000 0.547166
O O5 0.595631 0.500000 0.934863
O O6 0.564258 0.223705 0.860823
O O7 0.653497 0.234584 0.851728
O O8 0.596196 0.218640 0.066380
O O9 0.010345 0.714021 0.706630
O O10 0.053278 0.000000 0.737607
O O11 0.038779 0.500000 0.386171
O O12 0.000000 0.217948 0.500000
O O13 0.075571 0.204549 0.293700
O O14 0.629571 0.500000 0.127682
O O15 0.663648 0.785977 0.192240
O O16 0.749174 0.271611 0.234620
O O17 0.798203 0.000000 0.254494
O O18 0.818833 0.000000 0.711690
#
# Coordination Sequence:
#
# PCOD9178316 Si02
#       7
#     8   8   8   8   8   8   8
#     4   8  15  29  49  74 101 131 171 214 253 300
#     4   8  17  35  56  79 104 133 175 219 253 295
#     4   9  17  34  60  80  99 135 178 214 251 302
#     4  11  24  39  54  78 110 135 161 207 265 316
#     4  10  21  37  56  76 102 138 178 216 252 300
#     4   9  17  31  51  72 100 137 171 208 258 308
#     4  10  19  30  47  74 104 133 172 218 255 293
#
# _framework density 22.777284999999999
#
# number of rings (size 3 to 8) (size 9 to 14) (size 15 to 20)
#    0.000    2.714    0.000    3.429    0.000    4.000 
#    0.000    7.857    0.000    0.000    0.000    0.000 
#    0.000    0.000    0.000    0.000    0.000    0.000 
#
# Total GULP energy -156344.132014 kJ/mol
# GULP energy per Si atom -5583.719001 kJ/mol
# Density = 2.272544 g / cm^3
# Si number density = 22.777285 Si / 1000 Ang^3
#
#
#
# Elastic Constant Matrix: (Units=GPa)
#
#
# Indices 1 2 3 4 5 6 
#
# 1 100.7549 -7.1825 1.1046 0.0000 22.4784 0.0000
# 2 -7.1825 57.8260 2.4279 0.0000 3.6371 0.0000
# 3 1.1046 2.4279 66.6851 0.0000 21.6223 0.0000
# 4 0.0000 0.0000 0.0000 -9.8216 0.0000 4.8518
# 5 22.4784 3.6371 21.6223 0.0000 22.7591 0.0000
# 6 0.0000 0.0000 0.0000 4.8518 0.0000 19.0598
#
#
#
# Elastic Compliance Matrix: (Units=1/GPa)
#
#
# Indices 1 2 3 4 5 6 
#
# 1 0.014823 0.002908 0.006570 0.000000 -0.021346 0.000000
# 2 0.002908 0.018046 0.001678 0.000000 -0.007350 0.000000
# 3 0.006570 0.001678 0.024593 0.000000 -0.030121 0.000000
# 4 0.000000 0.000000 0.000000 -0.090444 0.000000 0.023023
# 5 -0.021346 -0.007350 -0.030121 0.000000 0.094813 0.000000
# 6 0.000000 0.000000 0.000000 0.023023 0.000000 0.046606
#
#
# Mechanical properties :
#
#
# Convention : Reuss Voigt Hill
#
# Bulk Modulus (GPa) = 12.53548 24.21845 18.37697
# Shear Modulus (GPa) = 44.35934 21.66055 33.00994
#
# Velocity S-wave (km/s) = 4.41786 3.08713 3.81103
# Velocity P-wave (km/s) = 5.61594 4.83352 5.23936
#
# Compressibility (1/GPa) = 0.07977355
#
# Stress axis : x y z
#
# Youngs Moduli (GPa) = 67.46398 55.41312 40.66257
#
# Poissons Ratio (x) = -0.16113 -0.26716
# Poissons Ratio (y) = -0.19618 -0.06823
# Poissons Ratio (z) = -0.44324 -0.09298
#
# Static dielectric constant tensor:
#      x y z
#    x 1.825080 0.000000 0.036700 
#    y 0.000000 2.163120 0.000000 
#    z 0.036700 0.000000 1.856440 
# 
# From -- ./inp_files/186447.got.cif
#   From: 2010.05.17/outbox.cif.g08.bks.cpg/sg12_94_cif.got.tgz:186447.got - 2010.06.03 13:09:07.
