data_PCOD9178948
_publ_section_title
;
Structure prediction by ZEFSAII (Michael W. Deem and Ramdas Pophale) SiO2 
 PCOD9178948
Probable space group: C 2/M
;
_chemical_formula_sum "Si O2"
_cell_formula_units_Z 56
_cell_length_a 8.150636
_cell_length_b 25.067339
_cell_length_c 15.183420
_cell_angle_alpha 90.000000
_cell_angle_beta 120.122542
_cell_angle_gamma 90.000000
_cell_volume 2683.257620
_symmetry_space_group_name_H-M "C 2/M"
_symmetry_group_IT_number 12
_symmetry_cell_setting 'monoclinic'
loop_
_space_group_symop_operation_xyz
x,y,z
-x,y,-z
-x,-y,-z
x,-y,z
1/2+x,1/2+y,z
1/2-x,1/2+y,-z
1/2-x,1/2-y,-z
1/2+x,1/2-y,z
loop_
_atom_site_type_symbol
_atom_site_label
_atom_site_fract_x
_atom_site_fract_y
_atom_site_fract_z
Si Si1 0.461678 0.655413 0.253652
Si Si2 0.120450 0.762352 0.621853
Si Si3 0.509862 0.830459 0.708757
Si Si4 0.951281 0.221174 0.074844
Si Si5 0.814987 0.439310 0.612607
Si Si6 0.571250 0.559424 0.374854
Si Si7 0.549779 0.835483 0.115118
O O1 0.485016 0.696907 0.339762
O O2 0.467635 0.685135 0.163078
O O3 0.588016 0.604644 0.306615
O O4 0.241931 0.635565 0.193866
O O5 0.316207 0.794308 0.657362
O O6 0.000000 0.755908 0.500000
O O7 0.136664 0.705533 0.677138
O O8 0.454490 0.889746 0.664007
O O9 0.576266 0.836706 0.829250
O O10 0.089451 0.271869 0.121231
O O11 0.750000 0.250000 0.000000
O O12 0.000000 0.189849 0.000000
O O13 0.888448 0.500000 0.646595
O O14 0.627351 0.433468 0.624397
O O15 0.733484 0.436165 0.491807
O O16 0.572111 0.500000 0.338042
O O17 0.500000 0.850323 0.000000
#
# Coordination Sequence:
#
# PCOD9178948 Si02
#       7
#     8   8   8   8   8   8   8
#     4  11  19  32  52  74 108 138 170 216 266 313
#     4  11  22  33  47  78 114 139 165 209 273 330
#     4  11  21  34  52  76 110 142 172 217 268 321
#     4  11  20  33  50  73 105 142 176 209 251 313
#     4   9  17  32  54  78 103 139 183 222 257 306
#     4   9  17  30  52  77 102 132 178 224 258 299
#     4  10  19  31  47  72 104 134 171 208 252 304
#
# _framework density 20.870152999999998
#
# number of rings (size 3 to 8) (size 9 to 14) (size 15 to 20)
#    0.000    1.714    7.143    2.143    0.000    0.000 
#    0.000    0.000    0.000    2.571    0.000    2.000 
#    0.000    0.000    0.000    0.000    0.000    1.286 
#
# Total GULP energy -156111.221460 kJ/mol
# GULP energy per Si atom -5575.400766 kJ/mol
# Density = 2.082265 g / cm^3
# Si number density = 20.870153 Si / 1000 Ang^3
#
#
#
# Elastic Constant Matrix: (Units=GPa)
#
#
# Indices 1 2 3 4 5 6 
#
# 1 42.5526 25.3014 27.5362 0.0000 -2.8980 0.0000
# 2 25.3014 148.4344 65.9263 0.0000 0.2373 0.0000
# 3 27.5362 65.9263 158.3346 0.0000 -15.0047 0.0000
# 4 0.0000 0.0000 0.0000 33.6799 0.0000 -0.1446
# 5 -2.8980 0.2373 -15.0047 0.0000 22.5990 0.0000
# 6 0.0000 0.0000 0.0000 -0.1446 0.0000 14.8741
#
#
#
# Elastic Compliance Matrix: (Units=1/GPa)
#
#
# Indices 1 2 3 4 5 6 
#
# 1 0.027677 -0.003239 -0.003335 0.000000 0.001369 0.000000
# 2 -0.003239 0.008782 -0.003353 0.000000 -0.002733 0.000000
# 3 -0.003335 -0.003353 0.008809 0.000000 0.005456 0.000000
# 4 0.000000 0.000000 0.000000 0.029693 0.000000 0.000289
# 5 0.001369 -0.002733 0.005456 0.000000 0.048077 0.000000
# 6 0.000000 0.000000 0.000000 0.000289 0.000000 0.067234
#
#
# Mechanical properties :
#
#
# Convention : Reuss Voigt Hill
#
# Bulk Modulus (GPa) = 39.34565 65.20549 52.27557
# Shear Modulus (GPa) = 22.87321 29.60110 26.23715
#
# Velocity S-wave (km/s) = 3.31415 3.77018 3.54949
# Velocity P-wave (km/s) = 5.79122 7.08968 6.47309
#
# Compressibility (1/GPa) = 0.02541577
#
# Stress axis : x y z
#
# Youngs Moduli (GPa) = 36.13048 113.86388 113.52344
#
# Poissons Ratio (x) = 0.36876 0.37863
# Poissons Ratio (y) = 0.11701 0.38060
# Poissons Ratio (z) = 0.12050 0.38174
#
# Static dielectric constant tensor:
#      x y z
#    x 1.965300 0.000000 -0.011420 
#    y 0.000000 1.742740 0.000000 
#    z -0.011420 0.000000 1.779880 
# 
# From -- ./inp_files/198513.got.cif
#   From: 2010.05.17/outbox.cif.g08.bks.cpg/sg12_100_cif.got.tgz:198513.got - 2010.06.03 13:09:07.
