data_PCOD9178355
_publ_section_title
;
Structure prediction by ZEFSAII (Michael W. Deem and Ramdas Pophale) SiO2 
 PCOD9178355
Probable space group: C 2/M
;
_chemical_formula_sum "Si O2"
_cell_formula_units_Z 64
_cell_length_a 25.625398
_cell_length_b 7.583028
_cell_length_c 18.169992
_cell_angle_alpha 90.000000
_cell_angle_beta 80.538603
_cell_angle_gamma 90.000000
_cell_volume 3482.728117
_symmetry_space_group_name_H-M "C 2/M"
_symmetry_group_IT_number 12
_symmetry_cell_setting 'monoclinic'
loop_
_space_group_symop_operation_xyz
x,y,z
-x,y,-z
-x,-y,-z
x,-y,z
1/2+x,1/2+y,z
1/2-x,1/2+y,-z
1/2-x,1/2-y,-z
1/2+x,1/2-y,z
loop_
_atom_site_type_symbol
_atom_site_label
_atom_site_fract_x
_atom_site_fract_y
_atom_site_fract_z
Si Si1 0.209462 0.786764 0.665796
Si Si2 0.093203 0.791502 0.300087
Si Si3 0.001760 0.794890 0.582035
Si Si4 0.156300 0.212174 0.149430
Si Si5 0.310081 0.711419 0.011282
Si Si6 0.175415 0.286382 0.409454
Si Si7 0.276296 0.287602 0.172014
Si Si8 0.619625 0.207253 0.571614
O O1 0.264212 0.726535 0.615045
O O2 0.209020 0.723151 0.750288
O O3 0.159183 0.733357 0.629930
O O4 0.210913 0.000000 0.666920
O O5 0.113744 0.717578 0.217630
O O6 0.140250 0.769674 0.348271
O O7 0.040739 0.717018 0.351334
O O8 0.084556 0.000000 0.289689
O O9 0.061782 0.787343 0.595226
O O10 0.000000 0.716284 0.500000
O O11 0.985821 0.000000 0.577183
O O12 0.214928 0.247591 0.168359
O O13 0.151128 0.000000 0.147361
O O14 0.155204 0.278916 0.065324
O O15 0.317088 0.500000 0.012582
O O16 0.311474 0.778255 0.094880
O O17 0.250000 0.750000 0.000000
O O18 0.175966 0.500000 0.410874
O O19 0.148038 0.223050 0.490927
O O20 0.280744 0.500000 0.172018
O O21 0.610976 0.000000 0.562606
#
# Coordination Sequence:
#
# PCOD9178355 Si02
#       8
#     8   8   8   8   8   8   8   8
#     4  10  20  33  48  67  94 127 158 187 224 275
#     4  10  19  30  48  71  93 123 157 188 229 274
#     4  10  20  35  52  68  89 121 157 193 235 279
#     4   9  16  26  42  67  96 121 149 187 225 265
#     4   8  14  24  39  62  92 122 149 179 218 266
#     4  10  20  33  48  68  94 123 154 189 230 274
#     4   9  16  27  44  65  92 126 155 179 219 274
#     4  11  23  35  49  69  91 120 158 199 237 269
#
# _framework density 18.3764
#
# number of rings (size 3 to 8) (size 9 to 14) (size 15 to 20)
#    0.000    2.375    2.500    0.750    0.000    2.250 
#    0.000    0.000    0.000    0.000    0.000    0.875 
#    0.000    7.000    0.000    0.000    0.000    0.000 
#
# Total GULP energy -178410.297405 kJ/mol
# GULP energy per Si atom -5575.321794 kJ/mol
# Density = 1.833457 g / cm^3
# Si number density = 18.376400 Si / 1000 Ang^3
#
#
#
# Elastic Constant Matrix: (Units=GPa)
#
#
# Indices 1 2 3 4 5 6 
#
# 1 87.2570 -7.4962 57.0772 0.0000 -21.3552 0.0000
# 2 -7.4962 41.7125 6.9169 0.0000 -4.6441 0.0000
# 3 57.0772 6.9169 152.0340 0.0000 -40.7230 0.0000
# 4 0.0000 0.0000 0.0000 0.0821 0.0000 7.5784
# 5 -21.3552 -4.6441 -40.7230 0.0000 21.9731 0.0000
# 6 0.0000 0.0000 0.0000 7.5784 0.0000 11.2424
#
#
#
# Elastic Compliance Matrix: (Units=1/GPa)
#
#
# Indices 1 2 3 4 5 6 
#
# 1 0.016897 0.004826 -0.003756 0.000000 0.010482 0.000000
# 2 0.004826 0.025952 -0.000530 0.000000 0.009193 0.000000
# 3 -0.003756 -0.000530 0.013908 0.000000 0.022014 0.000000
# 4 0.000000 0.000000 0.000000 -0.198951 0.000000 0.134111
# 5 0.010482 0.009193 0.022014 0.000000 0.098438 0.000000
# 6 0.000000 0.000000 0.000000 0.134111 0.000000 -0.001454
#
#
# Mechanical properties :
#
#
# Convention : Reuss Voigt Hill
#
# Bulk Modulus (GPa) = 17.28957 43.77770 30.53364
# Shear Modulus (GPa) = -185.11113 21.62657 -81.74228
#
# Velocity S-wave (km/s) = -10.04748 3.43427 -6.67673
# Velocity P-wave (km/s) = 11.18809 6.29286 6.54115
#
# Compressibility (1/GPa) = 0.05783832
#
# Stress axis : x y z
#
# Youngs Moduli (GPa) = 59.18257 38.53206 71.90097
#
# Poissons Ratio (x) = -0.18597 0.27003
# Poissons Ratio (y) = -0.28563 0.03812
# Poissons Ratio (z) = 0.22226 0.02043
#
# Static dielectric constant tensor:
#      x y z
#    x 1.584050 0.000000 -0.037960 
#    y 0.000000 1.675670 0.000000 
#    z -0.037960 0.000000 1.698400 
# 
# From -- ./inp_files/287606.got.cif
#   From: 2010.05.17/outbox.cif.g08.bks.cpg/sg12_144_cif.got.tgz:287606.got - 2010.06.03 13:09:07.
