data_PCOD9178137
_publ_section_title
;
Structure prediction by ZEFSAII (Michael W. Deem and Ramdas Pophale) SiO2 
 PCOD9178137
Probable space group: C 2/M
;
_chemical_formula_sum "Si O2"
_cell_formula_units_Z 56
_cell_length_a 15.927141
_cell_length_b 7.609327
_cell_length_c 17.082349
_cell_angle_alpha 90.000000
_cell_angle_beta 95.819374
_cell_angle_gamma 90.000000
_cell_volume 2059.622990
_symmetry_space_group_name_H-M "C 2/M"
_symmetry_group_IT_number 12
_symmetry_cell_setting 'monoclinic'
loop_
_space_group_symop_operation_xyz
x,y,z
-x,y,-z
-x,-y,-z
x,-y,z
1/2+x,1/2+y,z
1/2-x,1/2+y,-z
1/2-x,1/2-y,-z
1/2+x,1/2-y,z
loop_
_atom_site_type_symbol
_atom_site_label
_atom_site_fract_x
_atom_site_fract_y
_atom_site_fract_z
Si Si1 0.708497 0.215344 0.310214
Si Si2 0.055414 0.294160 0.742691
Si Si3 0.170557 0.788971 0.549170
Si Si4 0.772828 0.802287 0.160443
Si Si5 0.455628 0.213467 0.877882
Si Si6 0.869200 0.709103 0.018285
Si Si7 0.448020 0.295130 0.592207
O O1 0.793191 0.274018 0.364522
O O2 0.712863 0.280699 0.221333
O O3 0.631128 0.274323 0.356057
O O4 0.705764 0.000000 0.308858
O O5 0.070473 0.500000 0.759739
O O6 0.977258 0.234446 0.791258
O O7 0.025956 0.274020 0.650607
O O8 0.137960 0.199642 0.783478
O O9 0.250000 0.750000 0.500000
O O10 0.089204 0.721859 0.493368
O O11 0.161268 0.000000 0.554244
O O12 0.796801 0.748266 0.074785
O O13 0.742651 0.000000 0.149055
O O14 0.543541 0.259895 0.930004
O O15 0.449489 0.000000 0.875102
O O16 0.382309 0.277371 0.930470
O O17 0.869968 0.500000 0.013092
O O18 0.464839 0.500000 0.582007
#
# Coordination Sequence:
#
# PCOD9178137 Si02
#       7
#     8   8   8   8   8   8   8
#     4   9  18  33  51  69  93 126 157 185 226 281
#     4  10  19  32  49  68  95 128 157 187 230 280
#     4   8  15  29  48  68  89 117 153 190 227 269
#     4  10  19  30  46  71  99 123 153 192 230 271
#     4   7  12  24  43  64  85 117 157 188 219 269
#     4   8  13  25  44  64  88 118 153 189 227 271
#     4  10  19  31  50  74  95 116 152 199 236 270
#
# _framework density 27.189442
#
# number of rings (size 3 to 8) (size 9 to 14) (size 15 to 20)
#    0.000    3.143    0.000    3.000    0.000    1.714 
#    0.000    7.143    0.000    5.143    0.000    0.000 
#    0.000    0.000    0.000    0.000    0.000    0.000 
#
# Total GULP energy -156407.984565 kJ/mol
# GULP energy per Si atom -5585.999449 kJ/mol
# Density = 2.712756 g / cm^3
# Si number density = 27.189442 Si / 1000 Ang^3
#
#
#
# Elastic Constant Matrix: (Units=GPa)
#
#
# Indices 1 2 3 4 5 6 
#
# 1 129.4286 -4.7323 27.7654 0.0000 -3.8529 0.0000
# 2 -4.7323 59.8503 1.8508 0.0000 1.6332 0.0000
# 3 27.7654 1.8508 234.2416 0.0000 2.5013 0.0000
# 4 0.0000 0.0000 0.0000 11.9524 0.0000 2.5379
# 5 -3.8529 1.6332 2.5013 0.0000 63.9274 0.0000
# 6 0.0000 0.0000 0.0000 2.5379 0.0000 2.4719
#
#
#
# Elastic Compliance Matrix: (Units=1/GPa)
#
#
# Indices 1 2 3 4 5 6 
#
# 1 0.007970 0.000646 -0.000955 0.000000 0.000501 0.000000
# 2 0.000646 0.016776 -0.000205 0.000000 -0.000382 0.000000
# 3 -0.000955 -0.000205 0.004386 0.000000 -0.000224 0.000000
# 4 0.000000 0.000000 0.000000 0.106987 0.000000 -0.109840
# 5 0.000501 -0.000382 -0.000224 0.000000 0.015691 0.000000
# 6 0.000000 0.000000 0.000000 -0.109840 0.000000 0.517308
#
#
# Mechanical properties :
#
#
# Convention : Reuss Voigt Hill
#
# Bulk Modulus (GPa) = 35.58225 52.58756 44.08490
# Shear Modulus (GPa) = 7.35819 42.24614 24.80217
#
# Velocity S-wave (km/s) = 1.64686 3.94607 3.02354
# Velocity P-wave (km/s) = 4.09040 6.33601 5.33275
#
# Compressibility (1/GPa) = 0.02810390
#
# Stress axis : x y z
#
# Youngs Moduli (GPa) = 125.47512 59.60828 227.98139
#
# Poissons Ratio (x) = -0.03851 0.21775
# Poissons Ratio (y) = -0.08106 0.04675
# Poissons Ratio (z) = 0.11985 0.01222
#
# Static dielectric constant tensor:
#      x y z
#    x 2.363900 0.000000 -0.005700 
#    y 0.000000 2.049370 0.000000 
#    z -0.005700 0.000000 2.168100 
# 
# From -- ./inp_files/280343.got.cif
#   From: 2010.05.17/outbox.cif.g08.bks.cpg/sg12_141_cif.got.tgz:280343.got - 2010.06.03 13:09:07.
