data_PCOD9178436
_publ_section_title
;
Structure prediction by ZEFSAII (Michael W. Deem and Ramdas Pophale) SiO2 
 PCOD9178436
Probable space group: C 2/M
;
_chemical_formula_sum "Si O2"
_cell_formula_units_Z 64
_cell_length_a 5.183434
_cell_length_b 24.355426
_cell_length_c 26.875153
_cell_angle_alpha 90.000000
_cell_angle_beta 79.640612
_cell_angle_gamma 90.000000
_cell_volume 3337.540598
_symmetry_space_group_name_H-M "C 2/M"
_symmetry_group_IT_number 12
_symmetry_cell_setting 'monoclinic'
loop_
_space_group_symop_operation_xyz
x,y,z
-x,y,-z
-x,-y,-z
x,-y,z
1/2+x,1/2+y,z
1/2-x,1/2+y,-z
1/2-x,1/2-y,-z
1/2+x,1/2-y,z
loop_
_atom_site_type_symbol
_atom_site_label
_atom_site_fract_x
_atom_site_fract_y
_atom_site_fract_z
Si Si1 0.613017 0.066166 0.443886
Si Si2 0.078095 0.061824 0.887155
Si Si3 0.327381 0.566520 0.619528
Si Si4 0.179834 0.117016 0.272400
Si Si5 0.060604 0.371371 0.897560
Si Si6 0.751638 0.771190 0.943485
Si Si7 0.345533 0.788441 0.198561
Si Si8 0.283925 0.938647 0.767209
O O1 0.500000 0.087868 0.500000
O O2 0.427749 0.080667 0.403990
O O3 0.914194 0.078750 0.421955
O O4 0.599024 0.000000 0.447347
O O5 0.271846 0.103277 0.908862
O O6 0.191482 0.061864 0.827227
O O7 0.780511 0.081835 0.892914
O O8 0.093617 0.000000 0.906543
O O9 0.325483 0.500000 0.630470
O O10 0.337428 0.602104 0.669129
O O11 0.271153 0.176738 0.250515
O O12 0.412656 0.077329 0.244950
O O13 0.903180 0.102199 0.256515
O O14 0.128672 0.330135 0.939832
O O15 0.111227 0.333954 0.846565
O O16 0.556768 0.732082 0.918858
O O17 0.750000 0.750000 0.000000
O O18 0.605012 0.752058 0.195233
O O19 0.248051 0.000000 0.747640
#
# Coordination Sequence:
#
# PCOD9178436 Si02
#       8
#     8   8   8   8   8   8   8   8
#     4   9  17  30  47  70 104 140 175 221 278 334
#     4  11  22  36  56  86 118 154 194 225 269 334
#     4  10  19  30  48  75 103 140 182 221 270 335
#     4  12  22  36  51  76 110 150 192 230 281 323
#     4  12  21  39  60  86 117 155 188 241 280 334
#     4  10  21  38  61  93 119 143 188 239 300 338
#     4  12  24  38  54  76 109 149 193 232 281 335
#     4  11  20  34  52  75 109 149 189 226 264 314
#
# _framework density 19.175798
#
# number of rings (size 3 to 8) (size 9 to 14) (size 15 to 20)
#    0.000    1.125    2.500    5.625    0.000    4.500 
#    0.000    0.000    0.000    0.000    0.000   35.000 
#    0.000   10.000    0.000    0.000    0.000    0.000 
#
# Total GULP energy -178719.895326 kJ/mol
# GULP energy per Si atom -5584.996729 kJ/mol
# Density = 1.913215 g / cm^3
# Si number density = 19.175798 Si / 1000 Ang^3
#
#
#
# Elastic Constant Matrix: (Units=GPa)
#
#
# Indices 1 2 3 4 5 6 
#
# 1 77.2862 16.0605 -13.8967 0.0000 10.6262 0.0000
# 2 16.0605 77.2666 12.3436 0.0000 3.0247 0.0000
# 3 -13.8967 12.3436 48.0570 0.0000 -3.6542 0.0000
# 4 0.0000 0.0000 0.0000 22.8938 0.0000 4.1756
# 5 10.6262 3.0247 -3.6542 0.0000 19.2240 0.0000
# 6 0.0000 0.0000 0.0000 4.1756 0.0000 34.0297
#
#
#
# Elastic Compliance Matrix: (Units=1/GPa)
#
#
# Indices 1 2 3 4 5 6 
#
# 1 0.015578 -0.003748 0.004929 0.000000 -0.007084 0.000000
# 2 -0.003748 0.014550 -0.004909 0.000000 -0.001151 0.000000
# 3 0.004929 -0.004909 0.023689 0.000000 0.002551 0.000000
# 4 0.000000 0.000000 0.000000 0.044680 0.000000 -0.005482
# 5 -0.007084 -0.001151 0.002551 0.000000 0.056600 0.000000
# 6 0.000000 0.000000 0.000000 -0.005482 0.000000 0.030059
#
#
# Mechanical properties :
#
#
# Convention : Reuss Voigt Hill
#
# Bulk Modulus (GPa) = 21.56977 25.73605 23.65291
# Shear Modulus (GPa) = 24.03086 27.76965 25.90026
#
# Velocity S-wave (km/s) = 3.54388 3.80960 3.67914
# Velocity P-wave (km/s) = 5.29323 5.72721 5.51449
#
# Compressibility (1/GPa) = 0.04636117
#
# Stress axis : x y z
#
# Youngs Moduli (GPa) = 64.19287 68.72618 42.21432
#
# Poissons Ratio (x) = 0.25759 -0.20806
# Poissons Ratio (y) = 0.24060 0.20722
# Poissons Ratio (z) = -0.31639 0.33735
#
# Static dielectric constant tensor:
#      x y z
#    x 1.724980 0.000000 -0.028310 
#    y 0.000000 1.682990 0.000000 
#    z -0.028310 0.000000 1.706680 
# 
# From -- ./inp_files/355064.got.cif
#   From: 2010.05.17/outbox.cif.g08.bks.cpg/sg12_178_cif.got.tgz:355064.got - 2010.06.03 13:09:07.
