data_PCOD9178121
_publ_section_title
;
Structure prediction by ZEFSAII (Michael W. Deem and Ramdas Pophale) SiO2 
 PCOD9178121
Probable space group: C 2/M
;
_chemical_formula_sum "Si O2"
_cell_formula_units_Z 64
_cell_length_a 25.806442
_cell_length_b 18.335983
_cell_length_c 14.958699
_cell_angle_alpha 90.000000
_cell_angle_beta 149.177168
_cell_angle_gamma 90.000000
_cell_volume 3626.792062
_symmetry_space_group_name_H-M "C 2/M"
_symmetry_group_IT_number 12
_symmetry_cell_setting 'monoclinic'
loop_
_space_group_symop_operation_xyz
x,y,z
-x,y,-z
-x,-y,-z
x,-y,z
1/2+x,1/2+y,z
1/2-x,1/2+y,-z
1/2-x,1/2-y,-z
1/2+x,1/2-y,z
loop_
_atom_site_type_symbol
_atom_site_label
_atom_site_fract_x
_atom_site_fract_y
_atom_site_fract_z
Si Si1 0.602888 0.417581 0.798580
Si Si2 0.246855 0.416898 0.136495
Si Si3 0.199041 0.736629 0.143982
Si Si4 0.208567 0.271446 0.534393
Si Si5 0.212088 0.621694 0.798960
Si Si6 0.014686 0.773010 0.743891
Si Si7 0.564891 0.121841 0.733260
Si Si8 0.653334 0.077847 0.522890
O O1 0.561706 0.500000 0.744710
O O2 0.651497 0.408471 0.772174
O O3 0.533073 0.350862 0.725053
O O4 0.698208 0.408704 0.007202
O O5 0.244903 0.500000 0.169818
O O6 0.230764 0.347163 0.175711
O O7 0.153310 0.407304 0.928968
O O8 0.214131 0.754503 0.270246
O O9 0.271766 0.791976 0.195916
O O10 0.089691 0.756728 0.939382
O O11 0.250000 0.250000 0.500000
O O12 0.101289 0.234395 0.399404
O O13 0.183021 0.356966 0.502687
O O14 0.108576 0.609257 0.699295
O O15 0.214821 0.585921 0.706138
O O16 0.046382 0.708044 0.722943
O O17 0.461302 0.086204 0.611823
O O18 0.668851 0.000000 0.503387
#
# Coordination Sequence:
#
# PCOD9178121 Si02
#       8
#     8   8   8   8   8   8   8   8
#     4   9  16  27  45  71 103 135 164 193 227 275
#     4   9  16  27  45  71 103 135 164 193 227 275
#     4   9  18  33  52  72  97 130 164 199 241 289
#     4  10  22  39  55  71  91 121 166 211 251 295
#     4   9  16  26  44  71 103 136 162 186 228 291
#     4   9  18  33  52  72  97 130 164 199 241 289
#     4   9  16  26  44  71 103 136 162 186 228 291
#     4  10  19  30  46  71 100 124 154 202 251 289
#
# _framework density 17.646447999999999
#
# number of rings (size 3 to 8) (size 9 to 14) (size 15 to 20)
#    0.000    2.750    0.000    1.875    0.000    5.500 
#    0.000    3.750    0.000    1.500    0.000   10.500 
#    0.000    0.000    0.000    0.000    0.000    0.000 
#
# Total GULP energy -178294.386450 kJ/mol
# GULP energy per Si atom -5571.699577 kJ/mol
# Density = 1.760628 g / cm^3
# Si number density = 17.646448 Si / 1000 Ang^3
#
#
#
# Elastic Constant Matrix: (Units=GPa)
#
#
# Indices 1 2 3 4 5 6 
#
# 1 49.6359 17.7855 -6.7063 0.0000 -1.9189 0.0000
# 2 17.7855 135.5839 -5.5729 0.0000 4.9729 0.0000
# 3 -6.7063 -5.5729 10.9345 0.0000 1.5175 0.0000
# 4 0.0000 0.0000 0.0000 6.0391 0.0000 -1.1621
# 5 -1.9189 4.9729 1.5175 0.0000 13.8263 0.0000
# 6 0.0000 0.0000 0.0000 -1.1621 0.0000 5.7147
#
#
#
# Elastic Compliance Matrix: (Units=1/GPa)
#
#
# Indices 1 2 3 4 5 6 
#
# 1 0.022845 -0.002592 0.012308 0.000000 0.002752 0.000000
# 2 -0.002592 0.007968 0.002964 0.000000 -0.003551 0.000000
# 3 0.012308 0.002964 0.101978 0.000000 -0.010550 0.000000
# 4 0.000000 0.000000 0.000000 0.172331 0.000000 0.035044
# 5 0.002752 -0.003551 -0.010550 0.000000 0.075143 0.000000
# 6 0.000000 0.000000 0.000000 0.035044 0.000000 0.182113
#
#
# Mechanical properties :
#
#
# Convention : Reuss Voigt Hill
#
# Bulk Modulus (GPa) = 6.32307 23.01853 14.67080
# Shear Modulus (GPa) = 8.47843 17.82590 13.15216
#
# Velocity S-wave (km/s) = 2.19432 3.18176 2.73301
# Velocity P-wave (km/s) = 3.16402 5.15468 4.27679
#
# Compressibility (1/GPa) = 0.15815112
#
# Stress axis : x y z
#
# Youngs Moduli (GPa) = 43.77371 125.50928 9.80607
#
# Poissons Ratio (x) = 0.32529 -0.12070
# Poissons Ratio (y) = 0.11345 -0.02906
# Poissons Ratio (z) = -0.53878 -0.37200
#
# Static dielectric constant tensor:
#      x y z
#    x 1.544510 0.000000 -0.011970 
#    y 0.000000 1.638890 0.000000 
#    z -0.011970 0.000000 1.642790 
# 
# From -- ./inp_files/241523.got.cif
#   From: 2010.05.17/outbox.cif.g08.bks.cpg/sg12_121_cif.got.tgz:241523.got - 2010.06.03 13:09:07.
