data_PCOD9178148
_publ_section_title
;
Structure prediction by ZEFSAII (Michael W. Deem and Ramdas Pophale) SiO2 
 PCOD9178148
Probable space group: C 2/M
;
_chemical_formula_sum "Si O2"
_cell_formula_units_Z 56
_cell_length_a 23.976205
_cell_length_b 8.724702
_cell_length_c 20.040562
_cell_angle_alpha 90.000000
_cell_angle_beta 127.157223
_cell_angle_gamma 90.000000
_cell_volume 3341.096030
_symmetry_space_group_name_H-M "C 2/M"
_symmetry_group_IT_number 12
_symmetry_cell_setting 'monoclinic'
loop_
_space_group_symop_operation_xyz
x,y,z
-x,y,-z
-x,-y,-z
x,-y,z
1/2+x,1/2+y,z
1/2-x,1/2+y,-z
1/2-x,1/2-y,-z
1/2+x,1/2-y,z
loop_
_atom_site_type_symbol
_atom_site_label
_atom_site_fract_x
_atom_site_fract_y
_atom_site_fract_z
Si Si1 0.445062 0.170489 0.401830
Si Si2 0.968136 0.816497 0.654002
Si Si3 0.310905 0.685185 0.497888
Si Si4 0.806932 0.820818 0.341220
Si Si5 0.089199 0.315539 0.816503
Si Si6 0.775338 0.317604 0.178465
Si Si7 0.810209 0.682946 0.996157
O O1 0.500000 0.155979 0.500000
O O2 0.487846 0.230551 0.370675
O O3 0.388088 0.292186 0.383181
O O4 0.413797 0.000000 0.366674
O O5 0.887087 0.771615 0.583489
O O6 0.014536 0.764520 0.750726
O O7 0.971891 0.000000 0.649830
O O8 0.308844 0.500000 0.495678
O O9 0.250000 0.750000 0.500000
O O10 0.299389 0.735864 0.412280
O O11 0.772388 0.736379 0.253018
O O12 0.789025 0.000000 0.326249
O O13 0.081638 0.500000 0.805294
O O14 0.151036 0.270753 0.806745
O O15 0.119748 0.279099 0.912041
O O16 0.772867 0.500000 0.172039
O O17 0.710164 0.249475 0.090143
O O18 0.804918 0.500000 0.990008
O O19 0.750000 0.750000 0.000000
#
# Coordination Sequence:
#
# PCOD9178148 Si02
#       7
#     8   8   8   8   8   8   8
#     4  11  21  31  47  73 102 134 168 203 252 304
#     4  11  21  33  51  75 102 133 171 211 253 301
#     4  10  24  41  55  74  98 131 174 216 258 307
#     4  11  21  34  52  74 102 134 171 212 254 302
#     4   9  18  30  45  71 104 137 174 205 243 301
#     4  10  19  30  46  73 105 136 174 207 247 305
#     4   9  17  29  44  65 100 141 175 207 245 295
#
# _framework density 16.760967999999998
#
# number of rings (size 3 to 8) (size 9 to 14) (size 15 to 20)
#    0.000    1.857    2.857    3.000    0.000    5.714 
#    0.000    0.000    0.000    0.000    0.000    1.000 
#    0.000    8.000    0.000    0.000    0.000    0.000 
#
# Total GULP energy -155912.996828 kJ/mol
# GULP energy per Si atom -5568.321315 kJ/mol
# Density = 1.672282 g / cm^3
# Si number density = 16.760968 Si / 1000 Ang^3
#
#
#
# Elastic Constant Matrix: (Units=GPa)
#
#
# Indices 1 2 3 4 5 6 
#
# 1 62.3544 10.4865 42.4540 0.0000 -4.1897 0.0000
# 2 10.4865 36.3601 40.1056 0.0000 -3.8298 0.0000
# 3 42.4540 40.1056 163.7743 0.0000 -14.8887 0.0000
# 4 0.0000 0.0000 0.0000 38.6798 0.0000 -6.4808
# 5 -4.1897 -3.8298 -14.8887 0.0000 8.3367 0.0000
# 6 0.0000 0.0000 0.0000 -6.4808 0.0000 25.0774
#
#
#
# Elastic Compliance Matrix: (Units=1/GPa)
#
#
# Indices 1 2 3 4 5 6 
#
# 1 0.019480 -0.000060 -0.004952 0.000000 0.000920 0.000000
# 2 -0.000060 0.037688 -0.009124 0.000000 0.000989 0.000000
# 3 -0.004952 -0.009124 0.010764 0.000000 0.012544 0.000000
# 4 0.000000 0.000000 0.000000 0.027023 0.000000 0.006984
# 5 0.000920 0.000989 0.012544 0.000000 0.143270 0.000000
# 6 0.000000 0.000000 0.000000 0.006984 0.000000 0.041681
#
#
# Mechanical properties :
#
#
# Convention : Reuss Voigt Hill
#
# Bulk Modulus (GPa) = 25.21295 49.84232 37.52764
# Shear Modulus (GPa) = 15.55705 25.71498 20.63601
#
# Velocity S-wave (km/s) = 3.04990 3.92116 3.51264
# Velocity P-wave (km/s) = 5.24193 7.09241 6.23619
#
# Compressibility (1/GPa) = 0.03966216
#
# Stress axis : x y z
#
# Youngs Moduli (GPa) = 51.33350 26.53396 92.90148
#
# Poissons Ratio (x) = 0.00159 0.46000
# Poissons Ratio (y) = 0.00307 0.84759
# Poissons Ratio (z) = 0.25418 0.24208
#
# Static dielectric constant tensor:
#      x y z
#    x 1.560440 0.000000 -0.066940 
#    y 0.000000 1.583130 0.000000 
#    z -0.066940 0.000000 1.738740 
# 
# From -- ./inp_files/320273.got.cif
#   From: 2010.05.17/outbox.cif.g08.bks.cpg/sg12_161_cif.got.tgz:320273.got - 2010.06.03 13:09:07.
