data_PCOD9178475
_publ_section_title
;
Structure prediction by ZEFSAII (Michael W. Deem and Ramdas Pophale) SiO2 
 PCOD9178475
Probable space group: C 2/M
;
_chemical_formula_sum "Si O2"
_cell_formula_units_Z 56
_cell_length_a 11.247211
_cell_length_b 19.927050
_cell_length_c 24.096180
_cell_angle_alpha 90.000000
_cell_angle_beta 32.979524
_cell_angle_gamma 90.000000
_cell_volume 2939.718379
_symmetry_space_group_name_H-M "C 2/M"
_symmetry_group_IT_number 12
_symmetry_cell_setting 'monoclinic'
loop_
_space_group_symop_operation_xyz
x,y,z
-x,y,-z
-x,-y,-z
x,-y,z
1/2+x,1/2+y,z
1/2-x,1/2+y,-z
1/2-x,1/2-y,-z
1/2+x,1/2-y,z
loop_
_atom_site_type_symbol
_atom_site_label
_atom_site_fract_x
_atom_site_fract_y
_atom_site_fract_z
Si Si1 0.664399 0.669784 0.264538
Si Si2 0.113004 0.859706 0.062748
Si Si3 0.477604 0.926774 0.074849
Si Si4 0.250459 0.255127 0.083825
Si Si5 0.658479 0.833839 0.272866
Si Si6 0.157457 0.315254 0.690173
Si Si7 0.705135 0.168569 0.383938
O O1 0.840524 0.633002 0.156415
O O2 0.688121 0.751633 0.257408
O O3 0.717693 0.649360 0.307571
O O4 0.430368 0.653100 0.328690
O O5 0.146164 0.814027 0.104407
O O6 0.855400 0.868561 0.161694
O O7 0.273298 0.921684 0.001661
O O8 0.209320 0.811149 0.978325
O O9 0.381785 0.000000 0.125653
O O10 0.500000 0.920930 0.000000
O O11 0.072051 0.287025 0.194199
O O12 0.500000 0.239081 0.000000
O O13 0.429940 0.850069 0.331677
O O14 0.680820 0.853026 0.328955
O O15 0.294152 0.249833 0.619913
O O16 0.500000 0.144996 0.500000
#
# Coordination Sequence:
#
# PCOD9178475 Si02
#       7
#     8   8   8   8   8   8   8
#     4  10  19  36  52  70 102 137 170 210 252 309
#     4  11  18  28  49  70 103 137 168 207 240 299
#     4  11  23  33  47  72 103 141 178 213 251 292
#     4  11  18  26  47  77 102 134 164 204 242 297
#     4  10  19  31  51  83 103 136 173 201 251 307
#     4  10  19  30  48  79 103 135 170 198 248 306
#     4  10  21  34  49  74 109 137 160 206 264 315
#
# _framework density 19.049443
#
# number of rings (size 3 to 8) (size 9 to 14) (size 15 to 20)
#    0.000    1.571    5.714    2.143    4.000    5.143 
#    0.000    0.000    0.000    4.286    0.000    0.000 
#    0.000   19.429    0.000    0.000    0.000    0.000 
#
# Total GULP energy -155879.627842 kJ/mol
# GULP energy per Si atom -5567.129566 kJ/mol
# Density = 1.900609 g / cm^3
# Si number density = 19.049443 Si / 1000 Ang^3
#
#
#
# Elastic Constant Matrix: (Units=GPa)
#
#
# Indices 1 2 3 4 5 6 
#
# 1 137.4162 15.0330 26.7303 -0.0002 -3.6628 0.0019
# 2 15.0330 25.9509 9.9442 -0.0017 5.0058 0.0067
# 3 26.7303 9.9442 77.0450 -0.0611 2.1768 0.0091
# 4 -0.0002 -0.0017 -0.0611 -9.1455 0.0168 -0.0070
# 5 -3.6628 5.0058 2.1768 0.0168 17.0356 -0.0050
# 6 0.0019 0.0067 0.0091 -0.0070 -0.0050 1.4148
#
#
#
# Elastic Compliance Matrix: (Units=1/GPa)
#
#
# Indices 1 2 3 4 5 6 
#
# 1 0.008336 -0.004574 -0.002399 0.000023 0.003443 0.000038
# 2 -0.004574 0.045332 -0.003874 -0.000008 -0.013809 -0.000232
# 3 -0.002399 -0.003874 0.014346 -0.000097 -0.001210 -0.000075
# 4 0.000023 -0.000008 -0.000097 -0.109342 0.000127 -0.000539
# 5 0.003443 -0.013809 -0.001210 0.000127 0.063653 0.000293
# 6 0.000038 -0.000232 -0.000075 -0.000539 0.000293 0.706825
#
#
# Mechanical properties :
#
#
# Convention : Reuss Voigt Hill
#
# Bulk Modulus (GPa) = 21.58875 38.20301 29.89588
# Shear Modulus (GPa) = 6.52500 14.44127 10.48313
#
# Velocity S-wave (km/s) = 1.85276 2.75634 2.34842
# Velocity P-wave (km/s) = 3.99181 5.49801 4.80430
#
# Compressibility (1/GPa) = 0.04632042
#
# Stress axis : x y z
#
# Youngs Moduli (GPa) = 119.96235 22.05940 69.70627
#
# Poissons Ratio (x) = 0.10089 0.16723
# Poissons Ratio (y) = 0.54868 0.27004
# Poissons Ratio (z) = 0.28779 0.08546
#
# Static dielectric constant tensor:
#      x y z
#    x 1.831260 0.000000 0.002720 
#    y 0.000000 1.627530 0.000000 
#    z 0.002720 0.000000 1.681840 
# 
# From -- ./inp_files/336748.got.cif
#   From: 2010.05.17/outbox.cif.g08.bks.cpg/sg12_169_cif.got.tgz:336748.got - 2010.06.03 13:09:07.
