data_PCOD9178993
_publ_section_title
;
Structure prediction by ZEFSAII (Michael W. Deem and Ramdas Pophale) SiO2 
 PCOD9178993
Probable space group: C 2/M
;
_chemical_formula_sum "Si O2"
_cell_formula_units_Z 56
_cell_length_a 15.329489
_cell_length_b 9.061012
_cell_length_c 18.655278
_cell_angle_alpha 90.000000
_cell_angle_beta 79.656943
_cell_angle_gamma 90.000000
_cell_volume 2549.124386
_symmetry_space_group_name_H-M "C 2/M"
_symmetry_group_IT_number 12
_symmetry_cell_setting 'monoclinic'
loop_
_space_group_symop_operation_xyz
x,y,z
-x,y,-z
-x,-y,-z
x,-y,z
1/2+x,1/2+y,z
1/2-x,1/2+y,-z
1/2-x,1/2-y,-z
1/2+x,1/2-y,z
loop_
_atom_site_type_symbol
_atom_site_label
_atom_site_fract_x
_atom_site_fract_y
_atom_site_fract_z
Si Si1 0.886713 0.331073 0.453861
Si Si2 0.326618 0.331559 0.745843
Si Si3 0.461157 0.332249 0.311028
Si Si4 0.607808 0.169586 0.973215
Si Si5 0.305369 0.671701 0.594284
Si Si6 0.439090 0.176972 0.172546
Si Si7 0.629171 0.677607 0.111443
O O1 0.915899 0.500000 0.454608
O O2 0.945824 0.239028 0.390381
O O3 0.789427 0.328757 0.430783
O O4 0.872692 0.258947 0.533478
O O5 0.290845 0.500000 0.752972
O O6 0.433481 0.335536 0.719780
O O7 0.294960 0.263585 0.675788
O O8 0.314564 0.270151 0.827672
O O9 0.428374 0.500000 0.314630
O O10 0.415303 0.238759 0.254093
O O11 0.620409 0.211239 0.888283
O O12 0.636412 0.000000 0.978703
O O13 0.500000 0.172353 0.000000
O O14 0.650540 0.268385 0.028558
O O15 0.334377 0.500000 0.596503
O O16 0.532403 0.254115 0.140640
O O17 0.448960 0.000000 0.173930
O O18 0.625856 0.500000 0.114201
#
# Coordination Sequence:
#
# PCOD9178993 Si02
#       7
#     8   8   8   8   8   8   8
#     4  10  20  33  50  71  92 116 149 188 228 268
#     4   8  16  30  47  68  91 120 155 186 222 266
#     4  10  19  31  48  69  94 121 150 186 227 272
#     4   8  14  23  35  54  84 121 152 180 220 266
#     4   9  18  35  54  67  87 120 155 187 219 266
#     4   9  16  26  39  58  88 121 152 185 222 265
#     4   9  15  23  38  61  88 117 151 187 222 264
#
# _framework density 21.968326999999999
#
# number of rings (size 3 to 8) (size 9 to 14) (size 15 to 20)
#    0.000    3.000    0.000    3.429    0.000    4.286 
#    0.000    7.143    0.000    0.000    0.000    1.000 
#    0.000    0.000    0.000    0.000    0.000    0.000 
#
# Total GULP energy -156154.892949 kJ/mol
# GULP energy per Si atom -5576.960462 kJ/mol
# Density = 2.191833 g / cm^3
# Si number density = 21.968327 Si / 1000 Ang^3
#
#
#
# Elastic Constant Matrix: (Units=GPa)
#
#
# Indices 1 2 3 4 5 6 
#
# 1 29.4549 31.3529 80.9582 0.0000 -17.1284 0.0000
# 2 31.3529 73.5846 34.9623 0.0000 14.4925 0.0000
# 3 80.9582 34.9623 88.1332 0.0000 66.2151 0.0000
# 4 0.0000 0.0000 0.0000 37.8058 0.0000 -0.3706
# 5 -17.1284 14.4925 66.2151 0.0000 27.0306 0.0000
# 6 0.0000 0.0000 0.0000 -0.3706 0.0000 -5.2508
#
#
#
# Elastic Compliance Matrix: (Units=1/GPa)
#
#
# Indices 1 2 3 4 5 6 
#
# 1 0.005033 -0.003031 0.008374 0.000000 -0.015698 0.000000
# 2 -0.003031 0.017019 -0.005154 0.000000 0.001580 0.000000
# 3 0.008374 -0.005154 0.000433 0.000000 0.007010 0.000000
# 4 0.000000 0.000000 0.000000 0.026433 0.000000 -0.001865
# 5 -0.015698 0.001580 0.007010 0.000000 0.009029 0.000000
# 6 0.000000 0.000000 0.000000 -0.001865 0.000000 -0.190314
#
#
# Mechanical properties :
#
#
# Convention : Reuss Voigt Hill
#
# Bulk Modulus (GPa) = 43.74213 53.96885 48.85549
# Shear Modulus (GPa) = -39.95999 14.84374 -12.55812
#
# Velocity S-wave (km/s) = -4.26958 2.60222 -2.39351
# Velocity P-wave (km/s) = 2.08592 5.80075 3.82738
#
# Compressibility (1/GPa) = 0.02286125
#
# Stress axis : x y z
#
# Youngs Moduli (GPa) = 198.70209 58.75800 2312.11880
#
# Poissons Ratio (x) = 0.17810 -19.36083
# Poissons Ratio (y) = 0.60229 11.91652
# Poissons Ratio (z) = -1.66386 0.30284
#
# Static dielectric constant tensor:
#      x y z
#    x 1.860790 0.000000 -0.000800 
#    y 0.000000 1.751240 0.000000 
#    z -0.000800 0.000000 1.867170 
# 
# From -- ./inp_files/280158.got.cif
#   From: 2010.05.17/outbox.cif.g08.bks.cpg/sg12_141_cif.got.tgz:280158.got - 2010.06.03 13:09:07.
