data_PCOD9178900
_publ_section_title
;
Structure prediction by ZEFSAII (Michael W. Deem and Ramdas Pophale) SiO2 
 PCOD9178900
Probable space group: C 2/M
;
_chemical_formula_sum "Si O2"
_cell_formula_units_Z 56
_cell_length_a 14.927223
_cell_length_b 16.841865
_cell_length_c 17.985424
_cell_angle_alpha 90.000000
_cell_angle_beta 46.830287
_cell_angle_gamma 90.000000
_cell_volume 3297.723121
_symmetry_space_group_name_H-M "C 2/M"
_symmetry_group_IT_number 12
_symmetry_cell_setting 'monoclinic'
loop_
_space_group_symop_operation_xyz
x,y,z
-x,y,-z
-x,-y,-z
x,-y,z
1/2+x,1/2+y,z
1/2-x,1/2+y,-z
1/2-x,1/2-y,-z
1/2+x,1/2-y,z
loop_
_atom_site_type_symbol
_atom_site_label
_atom_site_fract_x
_atom_site_fract_y
_atom_site_fract_z
Si Si1 0.583008 0.094469 0.380524
Si Si2 0.470179 0.905178 0.752479
Si Si3 0.813860 0.904859 0.075901
Si Si4 0.324416 0.092687 0.070318
Si Si5 0.571696 0.404615 0.144601
Si Si6 0.057459 0.655323 0.854654
Si Si7 0.652883 0.667934 0.786556
O O1 0.500000 0.104774 0.500000
O O2 0.509554 0.113526 0.345949
O O3 0.706772 0.146488 0.312897
O O4 0.618069 0.000000 0.355090
O O5 0.328583 0.880475 0.845981
O O6 0.550380 0.869476 0.772792
O O7 0.476782 0.000000 0.756905
O O8 0.867775 0.876798 0.123121
O O9 0.818072 0.000000 0.073038
O O10 0.878282 0.877559 0.964456
O O11 0.183005 0.115332 0.136831
O O12 0.363596 0.101561 0.133571
O O13 0.338973 0.000000 0.038133
O O14 0.419990 0.145198 0.967797
O O15 0.556904 0.500000 0.153683
O O16 0.439328 0.364616 0.224212
O O17 0.117142 0.741804 0.822801
#
# Coordination Sequence:
#
# PCOD9178900 Si02
#       7
#     8   8   8   8   8   8   8
#     4   9  19  38  62  81  96 122 165 218 267 314
#     4   9  16  32  55  74  95 129 174 211 244 295
#     4   9  17  30  47  67  97 136 171 203 244 297
#     4  10  21  35  49  67 102 151 194 212 221 271
#     4  10  19  31  47  68  99 141 174 204 244 290
#     4  11  21  31  47  72 104 143 175 208 246 282
#     4  11  22  30  47  77 108 129 161 208 263 319
#
# _framework density 16.981413
#
# number of rings (size 3 to 8) (size 9 to 14) (size 15 to 20)
#    0.000    2.143    1.429    4.286    4.000    4.000 
#    0.000    0.714    0.000    0.000    0.000    0.000 
#    0.000    9.714    0.000    0.000    0.000    0.000 
#
# Total GULP energy -156042.761529 kJ/mol
# GULP energy per Si atom -5572.955769 kJ/mol
# Density = 1.694276 g / cm^3
# Si number density = 16.981413 Si / 1000 Ang^3
#
#
#
# Elastic Constant Matrix: (Units=GPa)
#
#
# Indices 1 2 3 4 5 6 
#
# 1 116.7495 16.7398 30.9401 0.0000 9.1510 0.0000
# 2 16.7398 38.1014 19.6854 0.0000 -6.1318 0.0000
# 3 30.9401 19.6854 58.1599 0.0000 12.3737 0.0000
# 4 0.0000 0.0000 0.0000 -7.8528 0.0000 -27.8567
# 5 9.1510 -6.1318 12.3737 0.0000 18.3432 0.0000
# 6 0.0000 0.0000 0.0000 -27.8567 0.0000 -53.8277
#
#
#
# Elastic Compliance Matrix: (Units=1/GPa)
#
#
# Indices 1 2 3 4 5 6 
#
# 1 0.010277 -0.003315 -0.003524 0.000000 -0.003858 0.000000
# 2 -0.003315 0.041622 -0.018256 0.000000 0.027882 0.000000
# 3 -0.003524 -0.018256 0.030558 0.000000 -0.024958 0.000000
# 4 0.000000 0.000000 0.000000 0.152357 0.000000 -0.078847
# 5 -0.003858 0.027882 -0.024958 0.000000 0.082597 0.000000
# 6 0.000000 0.000000 0.000000 -0.078847 0.000000 0.022227
#
#
# Mechanical properties :
#
#
# Convention : Reuss Voigt Hill
#
# Bulk Modulus (GPa) = 30.99307 38.63794 34.81551
# Shear Modulus (GPa) = 12.48177 1.04225 6.76201
#
# Velocity S-wave (km/s) = 2.71408 0.78428 1.99766
# Velocity P-wave (km/s) = 5.30211 4.86031 5.08601
#
# Compressibility (1/GPa) = 0.03226528
#
# Stress axis : x y z
#
# Youngs Moduli (GPa) = 97.30400 24.02594 32.72478
#
# Poissons Ratio (x) = 0.07965 0.11533
# Poissons Ratio (y) = 0.32258 0.59743
# Poissons Ratio (z) = 0.34294 0.43862
#
# Static dielectric constant tensor:
#      x y z
#    x 1.618910 0.000000 -0.001710 
#    y 0.000000 1.587400 0.000000 
#    z -0.001710 0.000000 1.564980 
# 
# From -- ./inp_files/270189.got.cif
#   From: 2010.05.17/outbox.cif.g08.bks.cpg/sg12_136_cif.got.tgz:270189.got - 2010.06.03 13:09:07.
