data_PCOD9178166
_publ_section_title
;
Structure prediction by ZEFSAII (Michael W. Deem and Ramdas Pophale) SiO2 
 PCOD9178166
Probable space group: C 2/M
;
_chemical_formula_sum "Si O2"
_cell_formula_units_Z 56
_cell_length_a 13.848241
_cell_length_b 23.501283
_cell_length_c 10.836106
_cell_angle_alpha 90.000000
_cell_angle_beta 75.910155
_cell_angle_gamma 90.000000
_cell_volume 3420.528280
_symmetry_space_group_name_H-M "C 2/M"
_symmetry_group_IT_number 12
_symmetry_cell_setting 'monoclinic'
loop_
_space_group_symop_operation_xyz
x,y,z
-x,y,-z
-x,-y,-z
x,-y,z
1/2+x,1/2+y,z
1/2-x,1/2+y,-z
1/2-x,1/2-y,-z
1/2+x,1/2-y,z
loop_
_atom_site_type_symbol
_atom_site_label
_atom_site_fract_x
_atom_site_fract_y
_atom_site_fract_z
Si Si1 0.037812 0.065418 0.686616
Si Si2 0.888329 0.732988 0.568054
Si Si3 0.170066 0.725703 0.885999
Si Si4 0.556115 0.332955 0.856556
Si Si5 0.789045 0.673940 0.374622
Si Si6 0.160796 0.065308 0.393434
Si Si7 0.608781 0.754511 0.161659
O O1 0.076305 0.112169 0.769454
O O2 0.102226 0.068335 0.541747
O O3 0.923528 0.078397 0.683158
O O4 0.041857 0.000000 0.729780
O O5 0.850743 0.687730 0.478775
O O6 0.808849 0.784792 0.588446
O O7 0.890240 0.712519 0.709594
O O8 0.000000 0.751965 0.500000
O O9 0.147825 0.792059 0.861965
O O10 0.149958 0.691838 0.766788
O O11 0.287159 0.719933 0.875309
O O12 0.109585 0.713061 0.030072
O O13 0.481137 0.290063 0.809510
O O14 0.500000 0.349111 0.000000
O O15 0.748146 0.610770 0.371153
O O16 0.193069 0.000000 0.365742
#
# Coordination Sequence:
#
# PCOD9178166 Si02
#       7
#     8   8   8   8   8   8   8
#     4   9  18  30  46  67  93 126 161 194 228 275
#     4  10  20  29  44  75 100 120 154 198 235 282
#     4   9  18  31  43  66  93 122 162 183 233 287
#     4  10  19  30  47  66  97 133 155 189 231 276
#     4  10  20  29  49  72  91 127 157 198 235 280
#     4   9  19  32  47  67  92 123 159 197 237 277
#     4   9  18  30  43  62  95 129 149 186 232 281
#
# _framework density 16.371739000000002
#
# number of rings (size 3 to 8) (size 9 to 14) (size 15 to 20)
#    0.000    2.571    0.000    3.429   10.000    0.286 
#    0.000    0.000    0.000    0.429    0.000    0.000 
#    0.000   10.857    0.000    0.000    0.000    0.000 
#
# Total GULP energy -155963.709011 kJ/mol
# GULP energy per Si atom -5570.132465 kJ/mol
# Density = 1.633448 g / cm^3
# Si number density = 16.371739 Si / 1000 Ang^3
#
#
#
# Elastic Constant Matrix: (Units=GPa)
#
#
# Indices 1 2 3 4 5 6 
#
# 1 48.2886 14.4306 20.3475 0.0000 10.3920 0.0000
# 2 14.4306 60.6517 34.5943 0.0000 11.2193 0.0000
# 3 20.3475 34.5943 108.2536 0.0000 18.7480 0.0000
# 4 0.0000 0.0000 0.0000 18.9454 0.0000 -1.9362
# 5 10.3920 11.2193 18.7480 0.0000 23.0853 0.0000
# 6 0.0000 0.0000 0.0000 -1.9362 0.0000 22.5634
#
#
#
# Elastic Compliance Matrix: (Units=1/GPa)
#
#
# Indices 1 2 3 4 5 6 
#
# 1 0.024207 -0.003072 -0.002257 0.000000 -0.007571 0.000000
# 2 -0.003072 0.021129 -0.005395 0.000000 -0.004505 0.000000
# 3 -0.002257 -0.005395 0.012516 0.000000 -0.006527 0.000000
# 4 0.000000 0.000000 0.000000 0.053250 0.000000 0.004570
# 5 -0.007571 -0.004505 -0.006527 0.000000 0.054216 0.000000
# 6 0.000000 0.000000 0.000000 0.004570 0.000000 0.044712
#
#
# Mechanical properties :
#
#
# Convention : Reuss Voigt Hill
#
# Bulk Modulus (GPa) = 27.46855 39.54876 33.50866
# Shear Modulus (GPa) = 20.52451 22.77358 21.64904
#
# Velocity S-wave (km/s) = 3.54454 3.73370 3.64035
# Velocity P-wave (km/s) = 5.79363 6.54190 6.17910
#
# Compressibility (1/GPa) = 0.03640528
#
# Stress axis : x y z
#
# Youngs Moduli (GPa) = 41.30992 47.32935 79.89722
#
# Poissons Ratio (x) = 0.14537 0.18035
# Poissons Ratio (y) = 0.12689 0.43101
# Poissons Ratio (z) = 0.09325 0.25532
#
# Static dielectric constant tensor:
#      x y z
#    x 1.583120 0.000000 0.021820 
#    y 0.000000 1.516400 0.000000 
#    z 0.021820 0.000000 1.610150 
# 
# From -- ./inp_files/147073.got.cif
#   From: 2010.05.17/outbox.cif.g08.bks.cpg/sg12_74_cif.got.tgz:147073.got - 2010.06.03 13:09:07.
