data_PCOD9178968
_publ_section_title
;
Structure prediction by ZEFSAII (Michael W. Deem and Ramdas Pophale) SiO2 
 PCOD9178968
Probable space group: C 2/M
;
_chemical_formula_sum "Si O2"
_cell_formula_units_Z 44
_cell_length_a 23.023206
_cell_length_b 11.932608
_cell_length_c 10.934831
_cell_angle_alpha 90.000000
_cell_angle_beta 38.316604
_cell_angle_gamma 90.000000
_cell_volume 1862.556440
_symmetry_space_group_name_H-M "C 2/M"
_symmetry_group_IT_number 12
_symmetry_cell_setting 'monoclinic'
loop_
_space_group_symop_operation_xyz
x,y,z
-x,y,-z
-x,-y,-z
x,-y,z
1/2+x,1/2+y,z
1/2-x,1/2+y,-z
1/2-x,1/2-y,-z
1/2+x,1/2-y,z
loop_
_atom_site_type_symbol
_atom_site_label
_atom_site_fract_x
_atom_site_fract_y
_atom_site_fract_z
Si Si1 0.000000 0.208238 0.500000
Si Si2 0.106183 0.171645 0.819314
Si Si3 0.839169 0.370101 0.870157
Si Si4 0.744323 0.124212 0.229563
Si Si5 0.411438 0.286599 0.408423
Si Si6 0.421059 0.868428 0.980471
O O1 0.917998 0.289435 0.685167
O O2 0.958067 0.150183 0.447444
O O3 0.164715 0.126407 0.836089
O O4 0.132241 0.150069 0.636238
O O5 0.106026 0.305385 0.850407
O O6 0.000000 0.131204 0.000000
O O7 0.870975 0.500000 0.806651
O O8 0.749617 0.359334 0.928062
O O9 0.837271 0.354134 0.019068
O O10 0.670953 0.210779 0.403826
O O11 0.703090 0.000000 0.312681
O O12 0.492982 0.204031 0.218977
O O13 0.441169 0.000000 0.961370
#
# Coordination Sequence:
#
# PCOD9178968 Si02
#       6
#     4   8   8   8   8   8
#     4   8  13  24  44  66  89 112 136 182 233 268
#     4  10  21  32  44  67  95 122 153 183 220 271
#     4   8  14  25  43  67  90 115 148 179 218 268
#     4  10  19  31  48  67  90 122 156 189 217 251
#     4   9  17  30  48  70  90 112 148 187 228 275
#     4   9  17  30  48  70  96 119 140 179 233 280
#
# _framework density 23.623446000000001
#
# number of rings (size 3 to 8) (size 9 to 14) (size 15 to 20)
#    0.000    2.909    0.000    1.364    0.000    9.455 
#    0.000    0.000    0.000    0.000    0.000    0.636 
#    0.000    0.000    0.000    3.636    0.000    1.091 
#
# Total GULP energy -122575.139629 kJ/mol
# GULP energy per Si atom -5571.597256 kJ/mol
# Density = 2.356968 g / cm^3
# Si number density = 23.623446 Si / 1000 Ang^3
#
#
#
# Elastic Constant Matrix: (Units=GPa)
#
#
# Indices 1 2 3 4 5 6 
#
# 1 259.8814 4.9694 29.4013 0.0000 17.9783 0.0000
# 2 4.9694 49.9659 4.8159 0.0000 3.3388 0.0000
# 3 29.4013 4.8159 33.6340 0.0000 3.5180 0.0000
# 4 0.0000 0.0000 0.0000 -7.1262 0.0000 -1.9322
# 5 17.9783 3.3388 3.5180 0.0000 36.4597 0.0000
# 6 0.0000 0.0000 0.0000 -1.9322 0.0000 16.9639
#
#
#
# Elastic Compliance Matrix: (Units=1/GPa)
#
#
# Indices 1 2 3 4 5 6 
#
# 1 0.004386 0.000037 -0.003649 0.000000 -0.001814 0.000000
# 2 0.000037 0.020386 -0.002782 0.000000 -0.001617 0.000000
# 3 -0.003649 -0.002782 0.033443 0.000000 -0.001173 0.000000
# 4 0.000000 0.000000 0.000000 -0.136123 0.000000 -0.015504
# 5 -0.001814 -0.001617 -0.001173 0.000000 0.028583 0.000000
# 6 0.000000 0.000000 0.000000 -0.015504 0.000000 0.057183
#
#
# Mechanical properties :
#
#
# Convention : Reuss Voigt Hill
#
# Bulk Modulus (GPa) = 22.01405 46.87272 34.44338
# Shear Modulus (GPa) = 139.71386 29.54582 84.62984
#
# Velocity S-wave (km/s) = 7.69873 3.54036 5.99185
# Velocity P-wave (km/s) = 9.40033 6.04953 7.90453
#
# Compressibility (1/GPa) = 0.04542554
#
# Stress axis : x y z
#
# Youngs Moduli (GPa) = 228.02304 49.05292 29.90186
#
# Poissons Ratio (x) = -0.00180 0.10912
# Poissons Ratio (y) = -0.00838 0.08319
# Poissons Ratio (z) = 0.83209 0.13647
#
# Static dielectric constant tensor:
#      x y z
#    x 2.051700 0.000000 0.012780 
#    y 0.000000 1.938080 0.000000 
#    z 0.012780 0.000000 1.876350 
# 
# From -- ./inp_files/153443.got.cif
#   From: 2010.05.17/outbox.cif.g08.bks.cpg/sg12_77_cif.got.tgz:153443.got - 2010.06.03 13:09:07.
