data_PCOD9178975
_publ_section_title
;
Structure prediction by ZEFSAII (Michael W. Deem and Ramdas Pophale) SiO2 
 PCOD9178975
Probable space group: C 2/M
;
_chemical_formula_sum "Si O2"
_cell_formula_units_Z 64
_cell_length_a 25.277962
_cell_length_b 7.610834
_cell_length_c 19.336647
_cell_angle_alpha 90.000000
_cell_angle_beta 117.549097
_cell_angle_gamma 90.000000
_cell_volume 3298.302380
_symmetry_space_group_name_H-M "C 2/M"
_symmetry_group_IT_number 12
_symmetry_cell_setting 'monoclinic'
loop_
_space_group_symop_operation_xyz
x,y,z
-x,y,-z
-x,-y,-z
x,-y,z
1/2+x,1/2+y,z
1/2-x,1/2+y,-z
1/2-x,1/2-y,-z
1/2+x,1/2-y,z
loop_
_atom_site_type_symbol
_atom_site_label
_atom_site_fract_x
_atom_site_fract_y
_atom_site_fract_z
Si Si1 0.388695 0.791154 0.647951
Si Si2 0.008955 0.712788 0.788735
Si Si3 0.280003 0.713193 0.684860
Si Si4 0.356413 0.215884 0.155677
Si Si5 0.827548 0.299455 0.987006
Si Si6 0.195028 0.289819 0.517870
Si Si7 0.254252 0.202847 0.187040
Si Si8 0.538452 0.707171 0.959087
O O1 0.452271 0.721076 0.711615
O O2 0.338563 0.769070 0.677441
O O3 0.361621 0.719959 0.559304
O O4 0.396072 0.000000 0.642940
O O5 0.008788 0.500000 0.787132
O O6 0.074458 0.770080 0.802309
O O7 0.004795 0.767392 0.866265
O O8 0.282273 0.500000 0.684688
O O9 0.220625 0.772007 0.606812
O O10 0.274693 0.776783 0.760561
O O11 0.316030 0.278298 0.194644
O O12 0.355577 0.000000 0.153679
O O13 0.326920 0.273069 0.064814
O O14 0.806571 0.500000 0.976352
O O15 0.790512 0.207353 0.904842
O O16 0.897323 0.295560 0.009290
O O17 0.187816 0.500000 0.519265
O O18 0.250000 0.250000 0.500000
O O19 0.267177 0.000000 0.211664
O O20 0.549552 0.500000 0.976277
O O21 0.500000 0.773401 0.000000
#
# Coordination Sequence:
#
# PCOD9178975 Si02
#       8
#     8   8   8   8   8   8   8   8
#     4   9  17  29  48  70  93 120 151 187 226 271
#     4   9  18  32  49  69  89 118 157 192 227 268
#     4   9  18  29  44  68  96 122 149 183 229 278
#     4   8  16  32  49  64  87 120 158 193 229 270
#     4  10  20  33  49  68  89 119 158 195 230 270
#     4   8  14  27  44  64  91 121 149 180 221 271
#     4  10  19  31  48  68  92 122 154 194 234 271
#     4  10  21  34  47  65  93 125 152 184 228 275
#
# _framework density 19.403922000000001
#
# number of rings (size 3 to 8) (size 9 to 14) (size 15 to 20)
#    0.000    2.875    0.000    1.875    1.750    2.000 
#    0.000    2.500    0.000    0.750    0.000    5.250 
#    0.000    0.000    0.000   24.000    0.000   19.000 
#
# Total GULP energy -178319.936586 kJ/mol
# GULP energy per Si atom -5572.498018 kJ/mol
# Density = 1.935976 g / cm^3
# Si number density = 19.403922 Si / 1000 Ang^3
#
#
#
# Elastic Constant Matrix: (Units=GPa)
#
#
# Indices 1 2 3 4 5 6 
#
# 1 43.1524 -1.3699 34.8781 0.0000 4.8008 0.0000
# 2 -1.3699 43.3863 -3.2359 0.0000 -0.4208 0.0000
# 3 34.8781 -3.2359 100.1592 0.0000 22.5983 0.0000
# 4 0.0000 0.0000 0.0000 6.9812 0.0000 -0.6942
# 5 4.8008 -0.4208 22.5983 0.0000 24.1752 0.0000
# 6 0.0000 0.0000 0.0000 -0.6942 0.0000 6.6510
#
#
#
# Elastic Compliance Matrix: (Units=1/GPa)
#
#
# Indices 1 2 3 4 5 6 
#
# 1 0.032774 0.000146 -0.012597 0.000000 0.005269 0.000000
# 2 0.000146 0.023108 0.000775 0.000000 -0.000351 0.000000
# 3 -0.012597 0.000775 0.017524 0.000000 -0.013866 0.000000
# 4 0.000000 0.000000 0.000000 0.144744 0.000000 0.015108
# 5 0.005269 -0.000351 -0.013866 0.000000 0.053274 0.000000
# 6 0.000000 0.000000 0.000000 0.015108 0.000000 0.151930
#
#
# Mechanical properties :
#
#
# Convention : Reuss Voigt Hill
#
# Bulk Modulus (GPa) = 19.97832 27.47139 23.72485
# Shear Modulus (GPa) = 10.79005 17.98985 14.38995
#
# Velocity S-wave (km/s) = 2.36068 3.04818 2.72619
# Velocity P-wave (km/s) = 4.21293 5.15528 4.70774
#
# Compressibility (1/GPa) = 0.05005427
#
# Stress axis : x y z
#
# Youngs Moduli (GPa) = 30.51244 43.27554 57.06391
#
# Poissons Ratio (x) = -0.00633 0.71882
# Poissons Ratio (y) = -0.00447 -0.04421
# Poissons Ratio (z) = 0.38436 -0.03353
#
# Static dielectric constant tensor:
#      x y z
#    x 1.672020 0.000000 0.005960 
#    y 0.000000 1.729550 0.000000 
#    z 0.005960 0.000000 1.707690 
# 
# From -- ./inp_files/323619.got.cif
#   From: 2010.05.17/outbox.cif.g08.bks.cpg/sg12_162_cif.got.tgz:323619.got - 2010.06.03 13:09:07.
