data_PCOD9178182
_publ_section_title
;
Structure prediction by ZEFSAII (Michael W. Deem and Ramdas Pophale) SiO2 
 PCOD9178182
Probable space group: C 2/M
;
_chemical_formula_sum "Si O2"
_cell_formula_units_Z 56
_cell_length_a 19.540902
_cell_length_b 29.400189
_cell_length_c 10.403788
_cell_angle_alpha 90.000000
_cell_angle_beta 39.510857
_cell_angle_gamma 90.000000
_cell_volume 3802.739364
_symmetry_space_group_name_H-M "C 2/M"
_symmetry_group_IT_number 12
_symmetry_cell_setting 'monoclinic'
loop_
_space_group_symop_operation_xyz
x,y,z
-x,y,-z
-x,-y,-z
x,-y,z
1/2+x,1/2+y,z
1/2-x,1/2+y,-z
1/2-x,1/2-y,-z
1/2+x,1/2-y,z
loop_
_atom_site_type_symbol
_atom_site_label
_atom_site_fract_x
_atom_site_fract_y
_atom_site_fract_z
Si Si1 0.738837 0.812913 0.900434
Si Si2 0.634973 0.000000 0.449921
Si Si3 0.635383 0.716289 0.530025
Si Si4 0.381886 0.281198 0.930636
Si Si5 0.879969 0.400326 0.838319
Si Si6 0.637510 0.899696 0.444631
Si Si7 0.258038 0.689455 0.357955
Si Si8 0.383387 0.000000 0.833842
O O1 0.814043 0.807940 0.667283
O O2 0.811274 0.804257 0.921271
O O3 0.652532 0.771844 0.019142
O O4 0.678153 0.860383 0.002000
O O5 0.679291 0.049676 0.422001
O O6 0.511051 0.000000 0.674032
O O7 0.629886 0.000000 0.301743
O O8 0.507350 0.713521 0.721971
O O9 0.687279 0.695254 0.583105
O O10 0.672462 0.769160 0.468935
O O11 0.345313 0.301921 0.119565
O O12 0.855279 0.395428 0.721286
O O13 0.842965 0.450758 0.936043
O O14 0.009789 0.397356 0.660787
O O15 0.700526 0.858549 0.418405
#
# Coordination Sequence:
#
# PCOD9178182 Si02
#       8
#     8   4   8   8   8   8   8   4
#     4  10  19  30  47  70  90 116 154 184 227 267
#     4   7  12  22  40  69  94 112 141 186 229 265
#     4  10  21  32  44  64  96 123 150 188 219 265
#     4  10  19  32  46  66  90 120 155 189 218 258
#     4   9  15  26  45  71  96 117 145 187 227 270
#     4   9  15  26  46  70  95 118 147 186 226 268
#     4  10  19  32  47  66  89 125 157 176 224 274
#     4   7  12  22  40  67  96 116 137 178 235 275
#
# _framework density 14.726226
#
# number of rings (size 3 to 8) (size 9 to 14) (size 15 to 20)
#    0.000    2.714    1.429    3.429    0.000    0.000 
#    0.000    2.143    0.000    0.857    0.000    9.000 
#    0.000    0.000    0.000    0.000    0.000    0.000 
#
# Total GULP energy -155906.780413 kJ/mol
# GULP energy per Si atom -5568.099300 kJ/mol
# Density = 1.469271 g / cm^3
# Si number density = 14.726226 Si / 1000 Ang^3
#
#
#
# Elastic Constant Matrix: (Units=GPa)
#
#
# Indices 1 2 3 4 5 6 
#
# 1 18.8534 34.4191 27.5859 0.0000 1.1034 0.0000
# 2 34.4191 146.8277 50.8689 0.0000 -4.4524 0.0000
# 3 27.5859 50.8689 81.7576 0.0000 1.0974 0.0000
# 4 0.0000 0.0000 0.0000 20.1981 0.0000 -2.5806
# 5 1.1034 -4.4524 1.0974 0.0000 21.6346 0.0000
# 6 0.0000 0.0000 0.0000 -2.5806 0.0000 18.0740
#
#
#
# Elastic Compliance Matrix: (Units=1/GPa)
#
#
# Indices 1 2 3 4 5 6 
#
# 1 0.145881 -0.022312 -0.035202 0.000000 -0.010246 0.000000
# 2 -0.022312 0.012188 -0.000104 0.000000 0.003651 0.000000
# 3 -0.035202 -0.000104 0.024166 0.000000 0.000548 0.000000
# 4 0.000000 0.000000 0.000000 0.050430 0.000000 0.007200
# 5 -0.010246 0.003651 0.000548 0.000000 0.047468 0.000000
# 6 0.000000 0.000000 0.000000 0.007200 0.000000 0.056356
#
#
# Mechanical properties :
#
#
# Convention : Reuss Voigt Hill
#
# Bulk Modulus (GPa) = 14.92558 52.57628 33.75093
# Shear Modulus (GPa) = 10.54725 20.95231 15.74978
#
# Velocity S-wave (km/s) = 2.67914 3.77608 3.27388
# Velocity P-wave (km/s) = 4.44159 7.40214 6.10407
#
# Compressibility (1/GPa) = 0.06699906
#
# Stress axis : x y z
#
# Youngs Moduli (GPa) = 6.85492 82.04964 41.38050
#
# Poissons Ratio (x) = 1.83069 1.45667
# Poissons Ratio (y) = 0.15295 0.00430
# Poissons Ratio (z) = 0.24131 0.00852
#
# Static dielectric constant tensor:
#      x y z
#    x 1.468550 0.000000 0.008980 
#    y 0.000000 1.504450 0.000000 
#    z 0.008980 0.000000 1.467870 
# 
# From -- ./inp_files/66879.got.cif
#   From: 2010.05.17/outbox.cif.g08.bks.cpg/sg12_34_cif.got.tgz:66879.got - 2010.06.03 13:09:07.
