data_PCOD9178633
_publ_section_title
;
Structure prediction by ZEFSAII (Michael W. Deem and Ramdas Pophale) SiO2 
 PCOD9178633
Probable space group: C 2/M
;
_chemical_formula_sum "Si O2"
_cell_formula_units_Z 56
_cell_length_a 16.976710
_cell_length_b 25.291953
_cell_length_c 7.213780
_cell_angle_alpha 90.000000
_cell_angle_beta 108.561288
_cell_angle_gamma 90.000000
_cell_volume 2936.294821
_symmetry_space_group_name_H-M "C 2/M"
_symmetry_group_IT_number 12
_symmetry_cell_setting 'monoclinic'
loop_
_space_group_symop_operation_xyz
x,y,z
-x,y,-z
-x,-y,-z
x,-y,z
1/2+x,1/2+y,z
1/2-x,1/2+y,-z
1/2-x,1/2-y,-z
1/2+x,1/2-y,z
loop_
_atom_site_type_symbol
_atom_site_label
_atom_site_fract_x
_atom_site_fract_y
_atom_site_fract_z
Si Si1 0.333998 0.757168 0.681615
Si Si2 0.005653 0.291193 0.780161
Si Si3 0.831851 0.440750 0.108466
Si Si4 0.510097 0.914675 0.297446
Si Si5 0.161468 0.220489 0.930022
Si Si6 0.695758 0.061362 0.473348
Si Si7 0.251215 0.140024 0.768596
O O1 0.250000 0.750000 0.500000
O O2 0.421454 0.763672 0.643811
O O3 0.317322 0.814420 0.763788
O O4 0.348790 0.713714 0.854740
O O5 0.004623 0.351719 0.717384
O O6 0.088943 0.258683 0.804372
O O7 0.000000 0.291495 0.000000
O O8 0.801697 0.500000 0.047013
O O9 0.930157 0.438307 0.137963
O O10 0.815712 0.429430 0.315008
O O11 0.786875 0.397060 0.954903
O O12 0.500000 0.934457 0.500000
O O13 0.604044 0.928632 0.316315
O O14 0.174084 0.171125 0.802766
O O15 0.250000 0.250000 0.000000
O O16 0.756466 0.102706 0.417430
O O17 0.718388 0.000000 0.462939
#
# Coordination Sequence:
#
# PCOD9178633 Si02
#       7
#     8   8   8   8   8   8   8
#     4  10  21  35  58  82 111 151 193 237 288 345
#     4  10  19  35  53  77 112 157 191 227 281 343
#     4  10  21  35  53  76 110 149 190 237 287 338
#     4  10  19  30  51  75 109 148 189 230 282 336
#     4   9  20  34  50  77 111 149 196 234 272 337
#     4  10  21  35  52  80 111 146 196 237 280 344
#     4  11  21  36  53  77 110 150 187 234 283 329
#
# _framework density 19.071655
#
# number of rings (size 3 to 8) (size 9 to 14) (size 15 to 20)
#    0.000    2.000    1.429    3.429    2.000    4.000 
#    0.000    1.429    0.000    0.000    0.000    0.000 
#    0.000   29.714    0.000    0.143    0.000    0.000 
#
# Total GULP energy -156121.954333 kJ/mol
# GULP energy per Si atom -5575.784083 kJ/mol
# Density = 1.902825 g / cm^3
# Si number density = 19.071655 Si / 1000 Ang^3
#
#
#
# Elastic Constant Matrix: (Units=GPa)
#
#
# Indices 1 2 3 4 5 6 
#
# 1 64.8525 45.3245 23.7879 0.0000 9.1998 0.0000
# 2 45.3245 92.7229 25.7568 0.0000 -1.4994 0.0000
# 3 23.7879 25.7568 74.0725 0.0000 -4.1988 0.0000
# 4 0.0000 0.0000 0.0000 18.4352 0.0000 -26.2745
# 5 9.1998 -1.4994 -4.1988 0.0000 28.4551 0.0000
# 6 0.0000 0.0000 0.0000 -26.2745 0.0000 -6.3055
#
#
#
# Elastic Compliance Matrix: (Units=1/GPa)
#
#
# Indices 1 2 3 4 5 6 
#
# 1 0.027124 -0.012003 -0.005113 0.000000 -0.010156 0.000000
# 2 -0.012003 0.017249 -0.001888 0.000000 0.004511 0.000000
# 3 -0.005113 -0.001888 0.016021 0.000000 0.003918 0.000000
# 4 0.000000 0.000000 0.000000 0.007817 0.000000 -0.032575
# 5 -0.010156 0.004511 0.003918 0.000000 0.039243 0.000000
# 6 0.000000 0.000000 0.000000 -0.032575 0.000000 -0.022856
#
#
# Mechanical properties :
#
#
# Convention : Reuss Voigt Hill
#
# Bulk Modulus (GPa) = 44.66744 46.82072 45.74408
# Shear Modulus (GPa) = 38.44143 17.23554 27.83848
#
# Velocity S-wave (km/s) = 4.49445 3.00946 3.82472
# Velocity P-wave (km/s) = 7.09966 6.05632 6.59864
#
# Compressibility (1/GPa) = 0.02238767
#
# Stress axis : x y z
#
# Youngs Moduli (GPa) = 36.86721 57.97337 62.41923
#
# Poissons Ratio (x) = 0.69584 0.31914
# Poissons Ratio (y) = 0.44251 0.11783
# Poissons Ratio (z) = 0.18850 0.10943
#
# Static dielectric constant tensor:
#      x y z
#    x 1.752270 0.000000 -0.063320 
#    y 0.000000 1.656400 0.000000 
#    z -0.063320 0.000000 1.747400 
# 
# From -- ./inp_files/78854.got.cif
#   From: 2010.05.17/outbox.cif.g08.bks.cpg/sg12_40_cif.got.tgz:78854.got - 2010.06.03 13:09:07.
