data_PCOD9178049
_publ_section_title
;
Structure prediction by ZEFSAII (Michael W. Deem and Ramdas Pophale) SiO2 
 PCOD9178049
Probable space group: C 2/M
;
_chemical_formula_sum "Si O2"
_cell_formula_units_Z 64
_cell_length_a 17.993921
_cell_length_b 9.329085
_cell_length_c 18.546213
_cell_angle_alpha 90.000000
_cell_angle_beta 105.774064
_cell_angle_gamma 90.000000
_cell_volume 2996.050701
_symmetry_space_group_name_H-M "C 2/M"
_symmetry_group_IT_number 12
_symmetry_cell_setting 'monoclinic'
loop_
_space_group_symop_operation_xyz
x,y,z
-x,y,-z
-x,-y,-z
x,-y,z
1/2+x,1/2+y,z
1/2-x,1/2+y,-z
1/2-x,1/2-y,-z
1/2+x,1/2-y,z
loop_
_atom_site_type_symbol
_atom_site_label
_atom_site_fract_x
_atom_site_fract_y
_atom_site_fract_z
Si Si1 0.055496 0.663423 0.860784
Si Si2 0.168620 0.337247 0.769049
Si Si3 0.063362 0.165775 0.082433
Si Si4 0.380101 0.828436 0.611006
Si Si5 0.319551 0.164038 0.979276
Si Si6 0.842621 0.165607 0.462971
Si Si7 0.449193 0.838096 0.394670
Si Si8 0.777880 0.333597 0.703078
O O1 0.033748 0.500000 0.832665
O O2 0.113330 0.727016 0.815950
O O3 0.111099 0.652883 0.944651
O O4 0.980969 0.752959 0.864666
O O5 0.188955 0.500000 0.796803
O O6 0.113320 0.342398 0.685189
O O7 0.242587 0.252690 0.760007
O O8 0.080459 0.000000 0.103410
O O9 0.139536 0.248948 0.074748
O O10 0.000000 0.165730 0.000000
O O11 0.333554 0.755906 0.533492
O O12 0.469234 0.801035 0.618308
O O13 0.355397 0.780456 0.684414
O O14 0.367416 0.000000 0.604642
O O15 0.296528 0.000000 0.954220
O O16 0.250000 0.250000 0.000000
O O17 0.919212 0.228838 0.445933
O O18 0.779982 0.176115 0.381938
O O19 0.849337 0.000000 0.484287
O O20 0.451439 0.000000 0.425170
O O21 0.784415 0.500000 0.725151
#
# Coordination Sequence:
#
# PCOD9178049 Si02
#       8
#     8   8   8   8   8   8   8   8
#     4   9  18  33  53  74  98 131 167 202 241 287
#     4   9  18  34  53  70  91 124 163 195 229 281
#     4   9  17  30  50  76 103 131 165 200 235 281
#     4  10  19  31  47  67  91 119 152 193 241 287
#     4  10  19  32  51  76 107 136 162 199 246 289
#     4  10  19  30  46  68  92 119 153 193 238 287
#     4   9  18  32  49  67  90 121 155 192 234 282
#     4   9  19  33  47  66  94 125 157 195 236 280
#
# _framework density 21.361453000000001
#
# number of rings (size 3 to 8) (size 9 to 14) (size 15 to 20)
#    0.000    2.625    0.000    1.875    0.000    5.500 
#    0.000    1.250    0.000    1.500    0.000    0.000 
#    0.000    0.000    0.000    0.000    0.000    0.000 
#
# Total GULP energy -178522.547558 kJ/mol
# GULP energy per Si atom -5578.829611 kJ/mol
# Density = 2.131283 g / cm^3
# Si number density = 21.361453 Si / 1000 Ang^3
#
#
#
# Elastic Constant Matrix: (Units=GPa)
#
#
# Indices 1 2 3 4 5 6 
#
# 1 103.5305 64.5724 21.5995 0.0000 -43.6260 0.0000
# 2 64.5724 81.6076 23.7346 0.0000 -40.9098 0.0000
# 3 21.5995 23.7346 58.9745 0.0000 -30.0192 0.0000
# 4 0.0000 0.0000 0.0000 11.8402 0.0000 -19.3300
# 5 -43.6260 -40.9098 -30.0192 0.0000 53.7052 0.0000
# 6 0.0000 0.0000 0.0000 -19.3300 0.0000 18.8057
#
#
#
# Elastic Compliance Matrix: (Units=1/GPa)
#
#
# Indices 1 2 3 4 5 6 
#
# 1 0.020679 -0.012875 0.001630 0.000000 0.007901 0.000000
# 2 -0.012875 0.027847 -0.001423 0.000000 0.009959 0.000000
# 3 0.001630 -0.001423 0.023836 0.000000 0.013564 0.000000
# 4 0.000000 0.000000 0.000000 -0.124552 0.000000 -0.128025
# 5 0.007901 0.009959 0.013564 0.000000 0.040206 0.000000
# 6 0.000000 0.000000 0.000000 -0.128025 0.000000 -0.078419
#
#
# Mechanical properties :
#
#
# Convention : Reuss Voigt Hill
#
# Bulk Modulus (GPa) = 21.26458 51.54727 36.40592
# Shear Modulus (GPa) = -101.23293 25.81731 -37.70781
#
# Velocity S-wave (km/s) = -6.89154 3.48025 -4.20602
# Velocity P-wave (km/s) = 7.30399 6.35082 2.55101
#
# Compressibility (1/GPa) = 0.04702656
#
# Stress axis : x y z
#
# Youngs Moduli (GPa) = 48.35868 35.90991 41.95263
#
# Poissons Ratio (x) = 0.46236 -0.06838
# Poissons Ratio (y) = 0.62264 0.05968
# Poissons Ratio (z) = -0.07882 0.05109
#
# Static dielectric constant tensor:
#      x y z
#    x 1.822470 0.000000 0.016360 
#    y 0.000000 1.749340 0.000000 
#    z 0.016360 0.000000 1.801000 
# 
# From -- ./inp_files/313973.got.cif
#   From: 2010.05.17/outbox.cif.g08.bks.cpg/sg12_157_cif.got.tgz:313973.got - 2010.06.03 13:09:07.
