data_PCOD9178635
_publ_section_title
;
Structure prediction by ZEFSAII (Michael W. Deem and Ramdas Pophale) SiO2 
 PCOD9178635
Probable space group: C 2/M
;
_chemical_formula_sum "Si O2"
_cell_formula_units_Z 48
_cell_length_a 8.646185
_cell_length_b 24.649084
_cell_length_c 11.565622
_cell_angle_alpha 90.000000
_cell_angle_beta 70.412439
_cell_angle_gamma 90.000000
_cell_volume 2322.230125
_symmetry_space_group_name_H-M "C 2/M"
_symmetry_group_IT_number 12
_symmetry_cell_setting 'monoclinic'
loop_
_space_group_symop_operation_xyz
x,y,z
-x,y,-z
-x,-y,-z
x,-y,z
1/2+x,1/2+y,z
1/2-x,1/2+y,-z
1/2-x,1/2-y,-z
1/2+x,1/2-y,z
loop_
_atom_site_type_symbol
_atom_site_label
_atom_site_fract_x
_atom_site_fract_y
_atom_site_fract_z
Si Si1 0.558279 0.250816 0.201404
Si Si2 0.123484 0.597021 0.882323
Si Si3 0.762571 0.823124 0.679352
Si Si4 0.167971 0.828810 0.833593
Si Si5 0.713832 0.059518 0.095693
Si Si6 0.303320 0.808791 0.540916
O O1 0.407105 0.210206 0.257482
O O2 0.600472 0.281239 0.311634
O O3 0.710128 0.212926 0.132349
O O4 0.507300 0.299163 0.128733
O O5 0.248658 0.629269 0.774477
O O6 0.984425 0.568193 0.838674
O O7 0.217463 0.562015 0.954516
O O8 0.000000 0.631304 0.000000
O O9 0.765130 0.844252 0.548686
O O10 0.190903 0.889152 0.875375
O O11 0.230020 0.824877 0.683351
O O12 0.764887 0.000000 0.123476
O O13 0.500000 0.813281 0.500000
O O14 0.250000 0.750000 0.500000
#
# Coordination Sequence:
#
# PCOD9178635 Si02
#       6
#     8   8   8   8   8   8
#     4  10  19  30  51  76 115 140 167 213 263 316
#     4   8  17  33  54  74  93 131 183 216 261 297
#     4  11  18  32  48  78 110 139 175 209 257 323
#     4  11  19  33  50  84 106 143 176 208 267 314
#     4   9  18  35  58  75  98 138 184 220 256 313
#     4  12  18  27  50  74 113 140 167 207 255 322
#
# _framework density 20.669785999999998
#
# number of rings (size 3 to 8) (size 9 to 14) (size 15 to 20)
#    1.000    0.667    6.667    1.000    0.000    0.000 
#    0.000   10.000    0.000    8.500    0.000    1.167 
#    0.000    0.000    0.000    0.000    0.000    0.000 
#
# Total GULP energy -133614.214820 kJ/mol
# GULP energy per Si atom -5567.258951 kJ/mol
# Density = 2.062274 g / cm^3
# Si number density = 20.669786 Si / 1000 Ang^3
#
#
#
# Elastic Constant Matrix: (Units=GPa)
#
#
# Indices 1 2 3 4 5 6 
#
# 1 63.9470 28.1226 17.8526 0.0000 18.0323 0.0000
# 2 28.1226 127.3938 38.4748 0.0000 16.6298 0.0000
# 3 17.8526 38.4748 72.7489 0.0000 4.8881 0.0000
# 4 0.0000 0.0000 0.0000 -42.1179 0.0000 -28.3947
# 5 18.0323 16.6298 4.8881 0.0000 31.8653 0.0000
# 6 0.0000 0.0000 0.0000 -28.3947 0.0000 -5.7486
#
#
#
# Elastic Compliance Matrix: (Units=1/GPa)
#
#
# Indices 1 2 3 4 5 6 
#
# 1 0.020267 -0.002249 -0.003125 0.000000 -0.009816 0.000000
# 2 -0.002249 0.010171 -0.004604 0.000000 -0.003329 0.000000
# 3 -0.003125 -0.004604 0.016841 0.000000 0.001587 0.000000
# 4 0.000000 0.000000 0.000000 0.010190 0.000000 -0.050333
# 5 -0.009816 -0.003329 0.001587 0.000000 0.038431 0.000000
# 6 0.000000 0.000000 0.000000 -0.050333 0.000000 0.074659
#
#
# Mechanical properties :
#
#
# Convention : Reuss Voigt Hill
#
# Bulk Modulus (GPa) = 36.59687 48.10999 42.35343
# Shear Modulus (GPa) = 25.04741 8.77574 16.91157
#
# Velocity S-wave (km/s) = 3.48485 2.06274 2.86349
# Velocity P-wave (km/s) = 5.82548 5.38510 5.60961
#
# Compressibility (1/GPa) = 0.02732474
#
# Stress axis : x y z
#
# Youngs Moduli (GPa) = 49.34038 98.31775 59.37977
#
# Poissons Ratio (x) = 0.22112 0.18554
# Poissons Ratio (y) = 0.11097 0.27336
# Poissons Ratio (z) = 0.15417 0.45262
#
# Static dielectric constant tensor:
#      x y z
#    x 1.823150 0.000000 0.015450 
#    y 0.000000 1.764870 0.000000 
#    z 0.015450 0.000000 1.882510 
# 
# From -- ./inp_files/122045.got.cif
#   From: 2010.05.17/outbox.cif.g08.bks.cpg/sg12_62_cif.got.tgz:122045.got - 2010.06.03 13:09:07.
