data_PCOD9178560
_publ_section_title
;
Structure prediction by ZEFSAII (Michael W. Deem and Ramdas Pophale) SiO2 
 PCOD9178560
Probable space group: C 2/M
;
_chemical_formula_sum "Si O2"
_cell_formula_units_Z 56
_cell_length_a 8.354988
_cell_length_b 18.679255
_cell_length_c 21.094827
_cell_angle_alpha 90.000000
_cell_angle_beta 58.754156
_cell_angle_gamma 90.000000
_cell_volume 2814.633233
_symmetry_space_group_name_H-M "C 2/M"
_symmetry_group_IT_number 12
_symmetry_cell_setting 'monoclinic'
loop_
_space_group_symop_operation_xyz
x,y,z
-x,y,-z
-x,-y,-z
x,-y,z
1/2+x,1/2+y,z
1/2-x,1/2+y,-z
1/2-x,1/2-y,-z
1/2+x,1/2-y,z
loop_
_atom_site_type_symbol
_atom_site_label
_atom_site_fract_x
_atom_site_fract_y
_atom_site_fract_z
Si Si1 0.766974 0.691544 0.236991
Si Si2 0.335302 0.297529 0.326008
Si Si3 0.452503 0.918404 0.615572
Si Si4 0.642224 0.642020 0.923714
Si Si5 0.217698 0.187719 0.455331
Si Si6 0.502444 0.793834 0.072696
Si Si7 0.935687 0.419956 0.770763
O O1 0.548504 0.680469 0.291882
O O2 0.807852 0.769631 0.259523
O O3 0.822847 0.685976 0.151895
O O4 0.904877 0.635874 0.242223
O O5 0.279872 0.227657 0.378128
O O6 0.202842 0.361903 0.374870
O O7 0.650201 0.880352 0.561135
O O8 0.422111 0.919779 0.697856
O O9 0.439739 0.000000 0.594901
O O10 0.515401 0.707782 0.924908
O O11 0.744382 0.600541 0.846302
O O12 0.815811 0.677028 0.927840
O O13 0.500000 0.601010 0.000000
O O14 0.250000 0.250000 0.500000
O O15 0.000000 0.168708 0.500000
O O16 0.500000 0.817756 0.000000
O O17 0.989768 0.500000 0.780017
#
# Coordination Sequence:
#
# PCOD9178560 Si02
#       7
#     8   8   8   8   8   8   8
#     4  11  20  35  63  86 118 160 208 250 302 367
#     4  12  21  39  64  94 117 159 207 244 302 367
#     4  11  24  42  63  94 130 159 202 256 309 358
#     4  10  19  32  53  79 114 154 198 250 307 360
#     4  12  23  41  67  93 122 156 201 251 295 370
#     4  10  19  30  49  85 117 143 192 259 304 346
#     4  10  22  39  57  84 120 160 207 257 305 365
#
# _framework density 19.896021000000001
#
# number of rings (size 3 to 8) (size 9 to 14) (size 15 to 20)
#    0.000    1.143    4.286    4.286    0.000    2.286 
#    0.000    1.429    0.000    6.857    0.000    0.000 
#    0.000    0.571    0.000    0.000    0.000    0.000 
#
# Total GULP energy -156299.366990 kJ/mol
# GULP energy per Si atom -5582.120250 kJ/mol
# Density = 1.985074 g / cm^3
# Si number density = 19.896021 Si / 1000 Ang^3
#
#
#
# Elastic Constant Matrix: (Units=GPa)
#
#
# Indices 1 2 3 4 5 6 
#
# 1 41.3335 8.4221 21.4383 0.0002 -25.7444 0.0000
# 2 8.4221 97.2286 13.9564 -0.0004 -15.2531 0.0000
# 3 21.4383 13.9564 105.9050 0.0000 -19.1005 0.0000
# 4 0.0002 -0.0004 0.0000********** -0.0007 -302.5250
# 5 -25.7444 -15.2531 -19.1005 -0.0007 50.9173 0.0000
# 6 0.0000 0.0000 0.0000 -302.5250 0.0000 11.1955
#
#
#
# Elastic Compliance Matrix: (Units=1/GPa)
#
#
# Indices 1 2 3 4 5 6 
#
# 1 0.037160 0.000110 -0.004443 0.000000 0.017155 0.000000
# 2 0.000110 0.010873 -0.000920 0.000000 0.002968 0.000000
# 3 -0.004443 -0.000920 0.010734 0.000000 0.001505 0.000000
# 4 0.000000 0.000000 0.000000 -0.000048 0.000000 -0.001286
# 5 0.017155 0.002968 0.001505 0.000000 0.029767 0.000000
# 6 0.000000 0.000000 0.000000 -0.001286 0.000000 0.054566
#
#
# Mechanical properties :
#
#
# Convention : Reuss Voigt Hill
#
# Bulk Modulus (GPa) = 20.72000 36.90007 28.81004
# Shear Modulus (GPa) = 29.47304 -2541.13388 -1255.83042
#
# Velocity S-wave (km/s) = 3.85301 -35.77681 -25.15089
# Velocity P-wave (km/s) = 5.49827 41.08592 28.79081
#
# Compressibility (1/GPa) = 0.04826255
#
# Stress axis : x y z
#
# Youngs Moduli (GPa) = 26.91041 91.96978 93.15822
#
# Poissons Ratio (x) = -0.01013 0.41389
# Poissons Ratio (y) = -0.00296 0.08570
# Poissons Ratio (z) = 0.11956 0.08460
#
# Static dielectric constant tensor:
#      x y z
#    x 1.717080 0.000000 0.052630 
#    y 0.000000 1.688430 0.000000 
#    z 0.052630 0.000000 1.796900 
# 
# From -- ./inp_files/333299.got.cif
#   From: 2010.05.17/outbox.cif.g08.bks.cpg/sg12_167_cif.got.tgz:333299.got - 2010.06.03 13:09:07.
