data_PCOD9178152
_publ_section_title
;
Structure prediction by ZEFSAII (Michael W. Deem and Ramdas Pophale) SiO2 
 PCOD9178152
Probable space group: C 2/M
;
_chemical_formula_sum "Si O2"
_cell_formula_units_Z 48
_cell_length_a 7.767677
_cell_length_b 18.740030
_cell_length_c 16.541663
_cell_angle_alpha 90.000000
_cell_angle_beta 120.426162
_cell_angle_gamma 90.000000
_cell_volume 2076.300411
_symmetry_space_group_name_H-M "C 2/M"
_symmetry_group_IT_number 12
_symmetry_cell_setting 'monoclinic'
loop_
_space_group_symop_operation_xyz
x,y,z
-x,y,-z
-x,-y,-z
x,-y,z
1/2+x,1/2+y,z
1/2-x,1/2+y,-z
1/2-x,1/2-y,-z
1/2+x,1/2-y,z
loop_
_atom_site_type_symbol
_atom_site_label
_atom_site_fract_x
_atom_site_fract_y
_atom_site_fract_z
Si Si1 0.237502 0.810674 0.123069
Si Si2 0.755088 0.820880 0.695637
Si Si3 0.733266 0.346793 0.653755
Si Si4 0.648147 0.580261 0.786334
Si Si5 0.744220 0.334737 0.480985
Si Si6 0.276584 0.343046 0.050929
O O1 0.333687 0.825475 0.234197
O O2 0.229215 0.727749 0.092929
O O3 0.010473 0.834998 0.084274
O O4 0.322995 0.845266 0.061239
O O5 0.776796 0.735565 0.687952
O O6 0.665797 0.845485 0.587484
O O7 0.962303 0.864466 0.746833
O O8 0.777496 0.397026 0.739888
O O9 0.810311 0.367185 0.582880
O O10 0.491312 0.351546 0.585816
O O11 0.575275 0.500000 0.759334
O O12 0.754684 0.591369 0.897403
O O13 0.750000 0.250000 0.500000
#
# Coordination Sequence:
#
# PCOD9178152 Si02
#       6
#     8   8   8   8   8   8
#     4   9  16  28  47  71  96 125 170 208 243 291
#     4   9  16  28  44  66  93 126 163 204 243 296
#     4   9  15  28  45  66  92 127 163 200 244 302
#     4  10  19  30  46  74 104 129 162 211 260 296
#     4   8  15  25  43  69  93 118 160 208 249 280
#     4   9  17  29  46  72  98 127 164 208 249 296
#
# _framework density 23.118041000000002
#
# number of rings (size 3 to 8) (size 9 to 14) (size 15 to 20)
#    0.000    3.000    1.667    0.000    0.000    0.000 
#    0.000   13.333    0.000    0.000    0.000   59.500 
#    0.000    0.000    0.000    0.000    0.000    0.000 
#
# Total GULP energy -133653.564585 kJ/mol
# GULP energy per Si atom -5568.898524 kJ/mol
# Density = 2.306542 g / cm^3
# Si number density = 23.118041 Si / 1000 Ang^3
#
#
#
# Elastic Constant Matrix: (Units=GPa)
#
#
# Indices 1 2 3 4 5 6 
#
# 1 83.3201 13.9050 57.0642 0.0000 -30.3248 0.0000
# 2 13.9050 44.6097 41.5285 0.0000 -13.5190 0.0000
# 3 57.0642 41.5285 249.7537 0.0000 -60.5090 0.0000
# 4 0.0000 0.0000 0.0000 6.3753 0.0000 -7.1113
# 5 -30.3248 -13.5190 -60.5090 0.0000 48.5726 0.0000
# 6 0.0000 0.0000 0.0000 -7.1113 0.0000 6.1192
#
#
#
# Elastic Compliance Matrix: (Units=1/GPa)
#
#
# Indices 1 2 3 4 5 6 
#
# 1 0.016115 -0.001180 -0.001615 0.000000 0.007720 0.000000
# 2 -0.001180 0.026859 -0.003672 0.000000 0.002165 0.000000
# 3 -0.001615 -0.003672 0.006433 0.000000 0.005984 0.000000
# 4 0.000000 0.000000 0.000000 -0.529406 0.000000 -0.615233
# 5 0.007720 0.002165 0.005984 0.000000 0.033464 0.000000
# 6 0.000000 0.000000 0.000000 -0.615233 0.000000 -0.551556
#
#
# Mechanical properties :
#
#
# Convention : Reuss Voigt Hill
#
# Bulk Modulus (GPa) = 27.41777 66.96432 47.19105
# Shear Modulus (GPa) = -5.13875 29.89249 12.37687
#
# Velocity S-wave (km/s) = -1.49253 3.59978 2.31633
# Velocity P-wave (km/s) = 2.98587 6.80493 5.25464
#
# Compressibility (1/GPa) = 0.03647269
#
# Stress axis : x y z
#
# Youngs Moduli (GPa) = 62.05433 37.23183 155.44071
#
# Poissons Ratio (x) = 0.04392 0.25110
# Poissons Ratio (y) = 0.07320 0.57079
# Poissons Ratio (z) = 0.10024 0.13672
#
# Static dielectric constant tensor:
#      x y z
#    x 2.040530 0.000000 0.000220 
#    y 0.000000 1.775150 0.000000 
#    z 0.000220 0.000000 2.082950 
# 
# From -- ./inp_files/262536.got.cif
#   From: 2010.05.17/outbox.cif.g08.bks.cpg/sg12_132_cif.got.tgz:262536.got - 2010.06.03 13:09:07.
