data_PCOD9178723
_publ_section_title
;
Structure prediction by ZEFSAII (Michael W. Deem and Ramdas Pophale) SiO2 
 PCOD9178723
Probable space group: C 2/M
;
_chemical_formula_sum "Si O2"
_cell_formula_units_Z 44
_cell_length_a 23.144091
_cell_length_b 15.179495
_cell_length_c 16.871993
_cell_angle_alpha 90.000000
_cell_angle_beta 158.230689
_cell_angle_gamma 90.000000
_cell_volume 2198.295569
_symmetry_space_group_name_H-M "C 2/M"
_symmetry_group_IT_number 12
_symmetry_cell_setting 'monoclinic'
loop_
_space_group_symop_operation_xyz
x,y,z
-x,y,-z
-x,-y,-z
x,-y,z
1/2+x,1/2+y,z
1/2-x,1/2+y,-z
1/2-x,1/2-y,-z
1/2+x,1/2-y,z
loop_
_atom_site_type_symbol
_atom_site_label
_atom_site_fract_x
_atom_site_fract_y
_atom_site_fract_z
Si Si1 0.107038 0.216779 0.564313
Si Si2 0.000000 0.147370 0.000000
Si Si3 0.629775 0.905048 0.357201
Si Si4 0.048131 0.895298 0.329320
Si Si5 0.436768 0.739677 0.064908
Si Si6 0.337886 0.906915 0.413953
O O1 0.080100 0.154516 0.453677
O O2 0.073600 0.319185 0.499515
O O3 0.000000 0.186328 0.500000
O O4 0.280364 0.228076 0.821464
O O5 0.151499 0.098682 0.159574
O O6 0.048737 0.206268 0.136491
O O7 0.789235 0.892526 0.512017
O O8 0.515164 0.825021 0.200230
O O9 0.660385 0.909469 0.489200
O O10 0.563061 0.000000 0.246571
O O11 0.931034 0.836583 0.125046
O O12 0.006350 0.000000 0.284407
O O13 0.399570 0.000000 0.461418
#
# Coordination Sequence:
#
# PCOD9178723 Si02
#       6
#     8   4   8   8   8   8
#     4  11  26  43  61  84 124 169 217 258 291 349
#     4  10  19  30  59  94 124 154 189 248 313 378
#     4  10  19  35  62  93 123 149 189 248 317 379
#     4  11  23  41  65  94 127 162 199 251 316 375
#     4  11  21  38  63  91 125 162 203 249 310 369
#     4  10  19  34  59  90 121 151 191 249 310 366
#
# _framework density 20.015506999999999
#
# number of rings (size 3 to 8) (size 9 to 14) (size 15 to 20)
#    0.000    1.455    3.636    3.000    0.000    5.091 
#    0.000    2.273    0.000    0.000    0.000    0.000 
#    0.000    0.000    0.000    0.000    0.000    0.000 
#
# Total GULP energy -122537.245935 kJ/mol
# GULP energy per Si atom -5569.874815 kJ/mol
# Density = 1.996995 g / cm^3
# Si number density = 20.015507 Si / 1000 Ang^3
#
#
#
# Elastic Constant Matrix: (Units=GPa)
#
#
# Indices 1 2 3 4 5 6 
#
# 1 80.2777 24.9230 16.2536 0.0000 -25.6829 0.0000
# 2 24.9230 132.9164 35.6515 0.0000 -26.7104 0.0000
# 3 16.2536 35.6515 54.3609 0.0000 -28.6370 0.0000
# 4 0.0000 0.0000 0.0000 -14.5402 0.0000 -7.6813
# 5 -25.6829 -26.7104 -28.6370 0.0000 24.0320 0.0000
# 6 0.0000 0.0000 0.0000 -7.6813 0.0000 9.5326
#
#
#
# Elastic Compliance Matrix: (Units=1/GPa)
#
#
# Indices 1 2 3 4 5 6 
#
# 1 0.023449 0.000208 0.016590 0.000000 0.045060 0.000000
# 2 0.000208 0.009757 -0.001695 0.000000 0.009047 0.000000
# 3 0.016590 -0.001695 0.061501 0.000000 0.089130 0.000000
# 4 0.000000 0.000000 0.000000 -0.048240 -0.000001 -0.038871
# 5 0.045060 0.009047 0.089130 -0.000001 0.206032 0.000000
# 6 0.000000 0.000000 0.000000 -0.038871 0.000000 0.073581
#
#
# Mechanical properties :
#
#
# Convention : Reuss Voigt Hill
#
# Bulk Modulus (GPa) = 8.00563 46.80126 27.40345
# Shear Modulus (GPa) = 14.81431 16.52002 15.66716
#
# Velocity S-wave (km/s) = 2.72351 2.87603 2.80080
# Velocity P-wave (km/s) = 3.72805 5.87043 4.91733
#
# Compressibility (1/GPa) = 0.12491204
#
# Stress axis : x y z
#
# Youngs Moduli (GPa) = 42.64561 102.48759 16.26002
#
# Poissons Ratio (x) = -0.02136 -0.26975
# Poissons Ratio (y) = -0.00889 0.02757
# Poissons Ratio (z) = -0.70747 0.17376
#
# Static dielectric constant tensor:
#      x y z
#    x 1.684660 0.000000 -0.011340 
#    y 0.000000 1.806410 0.000000 
#    z -0.011340 0.000000 1.742140 
# 
# From -- ./inp_files/189132.got.cif
#   From: 2010.05.17/outbox.cif.g08.bks.cpg/sg12_95_cif.got.tgz:189132.got - 2010.06.03 13:09:07.
