data_PCOD9178226
_publ_section_title
;
Structure prediction by ZEFSAII (Michael W. Deem and Ramdas Pophale) SiO2 
 PCOD9178226
Probable space group: C 2/M
;
_chemical_formula_sum "Si O2"
_cell_formula_units_Z 56
_cell_length_a 20.040566
_cell_length_b 8.818894
_cell_length_c 23.992708
_cell_angle_alpha 90.000000
_cell_angle_beta 50.837224
_cell_angle_gamma 90.000000
_cell_volume 3287.788968
_symmetry_space_group_name_H-M "C 2/M"
_symmetry_group_IT_number 12
_symmetry_cell_setting 'monoclinic'
loop_
_space_group_symop_operation_xyz
x,y,z
-x,y,-z
-x,-y,-z
x,-y,z
1/2+x,1/2+y,z
1/2-x,1/2+y,-z
1/2-x,1/2-y,-z
1/2+x,1/2-y,z
loop_
_atom_site_type_symbol
_atom_site_label
_atom_site_fract_x
_atom_site_fract_y
_atom_site_fract_z
Si Si1 0.417945 0.825347 0.001379
Si Si2 0.998095 0.184504 0.437701
Si Si3 0.034111 0.816971 0.850564
Si Si4 0.342880 0.316952 0.439257
Si Si5 0.377363 0.683237 0.725379
Si Si6 0.308185 0.318744 0.152171
Si Si7 0.466561 0.684350 0.276644
O O1 0.452640 0.747436 0.927214
O O2 0.395405 0.000000 0.003447
O O3 0.500000 0.820359 0.000000
O O4 0.342761 0.742064 0.074686
O O5 0.911339 0.227999 0.450877
O O6 0.000000 0.239596 0.500000
O O7 0.078466 0.229545 0.356475
O O8 0.999069 0.000000 0.438336
O O9 0.120376 0.773195 0.839091
O O10 0.037099 0.764152 0.785115
O O11 0.029395 0.000000 0.853928
O O12 0.337870 0.500000 0.441716
O O13 0.250000 0.250000 0.500000
O O14 0.386386 0.268576 0.357750
O O15 0.370897 0.500000 0.729309
O O16 0.284527 0.753071 0.784192
O O17 0.446001 0.727439 0.737159
O O18 0.305400 0.500000 0.152301
O O19 0.465356 0.500000 0.276638
#
# Coordination Sequence:
#
# PCOD9178226 Si02
#       7
#     8   8   8   8   8   8   8
#     4   9  17  30  48  70  95 120 150 190 230 268
#     4   8  15  29  48  68  91 122 158 192 227 270
#     4   9  17  31  50  69  91 121 155 189 228 275
#     4   9  17  30  48  69  93 122 155 190 230 274
#     4   9  17  31  50  68  90 123 159 192 226 268
#     4  10  19  30  47  71  96 121 150 187 232 278
#     4   8  16  32  50  66  90 126 159 186 225 276
#
# _framework density 17.032723000000001
#
# number of rings (size 3 to 8) (size 9 to 14) (size 15 to 20)
#    0.000    3.143    0.000    2.571    0.000    3.429 
#    0.000    5.000    0.000    0.857    0.000    0.000 
#    0.000    0.000    0.000    0.000    0.000    0.000 
#
# Total GULP energy -155973.061267 kJ/mol
# GULP energy per Si atom -5570.466474 kJ/mol
# Density = 1.699396 g / cm^3
# Si number density = 17.032723 Si / 1000 Ang^3
#
#
#
# Elastic Constant Matrix: (Units=GPa)
#
#
# Indices 1 2 3 4 5 6 
#
# 1 80.3691 27.6709 110.8807 0.0000 -0.9201 0.0002
# 2 27.6709 21.8200 41.9008 0.0000 -3.9243 0.0005
# 3 110.8807 41.9008 206.7689 0.0000 0.3152 0.0000
# 4 0.0000 0.0000 0.0000 28.2833 0.0000 -10.1222
# 5 -0.9201 -3.9243 0.3152 0.0000 36.2542 0.0000
# 6 0.0002 0.0005 0.0000 -10.1222 0.0000 16.7889
#
#
#
# Elastic Compliance Matrix: (Units=1/GPa)
#
#
# Indices 1 2 3 4 5 6 
#
# 1 0.052986 -0.020888 -0.024180 0.000000 -0.000706 0.000000
# 2 -0.020888 0.085812 -0.006201 -0.000001 0.008813 -0.000003
# 3 -0.024180 -0.006201 0.019062 0.000000 -0.001451 0.000001
# 4 0.000000 -0.000001 0.000000 0.045085 0.000000 0.027182
# 5 -0.000706 0.008813 -0.001451 0.000000 0.028532 0.000000
# 6 0.000000 -0.000003 0.000001 0.027182 0.000000 0.075952
#
#
# Mechanical properties :
#
#
# Convention : Reuss Voigt Hill
#
# Bulk Modulus (GPa) = 18.07642 74.42920 46.25281
# Shear Modulus (GPa) = 11.67110 24.83231 18.25171
#
# Velocity S-wave (km/s) = 2.62050 3.82241 3.27703
# Velocity P-wave (km/s) = 4.44880 7.95448 6.44459
#
# Compressibility (1/GPa) = 0.05532068
#
# Stress axis : x y z
#
# Youngs Moduli (GPa) = 18.87283 11.65333 52.46073
#
# Poissons Ratio (x) = 0.24342 1.26850
# Poissons Ratio (y) = 0.39422 0.32533
# Poissons Ratio (z) = 0.45635 0.07227
#
# Static dielectric constant tensor:
#      x y z
#    x 1.564380 0.000000 0.017400 
#    y 0.000000 1.572570 0.000000 
#    z 0.017400 0.000000 1.569600 
# 
# From -- ./inp_files/345490.got.cif
#   From: 2010.05.17/outbox.cif.g08.bks.cpg/sg12_173_cif.got.tgz:345490.got - 2010.06.03 13:09:07.
