data_PCOD9178147
_publ_section_title
;
Structure prediction by ZEFSAII (Michael W. Deem and Ramdas Pophale) SiO2 
 PCOD9178147
Probable space group: C 2/M
;
_chemical_formula_sum "Si O2"
_cell_formula_units_Z 64
_cell_length_a 25.665717
_cell_length_b 8.921671
_cell_length_c 18.144191
_cell_angle_alpha 90.000000
_cell_angle_beta 103.283811
_cell_angle_gamma 90.000000
_cell_volume 4043.513295
_symmetry_space_group_name_H-M "C 2/M"
_symmetry_group_IT_number 12
_symmetry_cell_setting 'monoclinic'
loop_
_space_group_symop_operation_xyz
x,y,z
-x,y,-z
-x,-y,-z
x,-y,z
1/2+x,1/2+y,z
1/2-x,1/2+y,-z
1/2-x,1/2-y,-z
1/2+x,1/2-y,z
loop_
_atom_site_type_symbol
_atom_site_label
_atom_site_fract_x
_atom_site_fract_y
_atom_site_fract_z
Si Si1 0.320410 0.680310 0.914635
Si Si2 0.217510 0.179461 0.665339
Si Si3 0.296574 0.180310 0.182813
Si Si4 0.902211 0.179788 0.808451
Si Si5 0.338914 0.820725 0.656787
Si Si6 0.127488 0.320247 0.924544
Si Si7 0.513403 0.680332 0.919775
Si Si8 0.808164 0.820135 0.502259
O O1 0.321606 0.500000 0.925438
O O2 0.261071 0.725041 0.869781
O O3 0.362210 0.716602 0.863016
O O4 0.338897 0.758301 0.995359
O O5 0.198583 0.253963 0.734156
O O6 0.279567 0.222668 0.668470
O O7 0.183107 0.216933 0.580995
O O8 0.216913 0.000000 0.673404
O O9 0.342821 0.226056 0.141091
O O10 0.296363 0.000000 0.187729
O O11 0.881705 0.261999 0.729140
O O12 0.962137 0.218194 0.853235
O O13 0.899171 0.000000 0.796522
O O14 0.345010 0.747901 0.578003
O O15 0.339885 0.000000 0.650849
O O16 0.126653 0.500000 0.927375
O O17 0.067813 0.256719 0.911812
O O18 0.520449 0.500000 0.920984
O O19 0.500000 0.722003 0.000000
O O20 0.750000 0.750000 0.500000
O O21 0.805858 0.000000 0.508232
#
# Coordination Sequence:
#
# PCOD9178147 Si02
#       8
#     8   8   8   8   8   8   8   8
#     4  10  19  34  52  70  96 133 168 202 245 293
#     4   9  18  30  46  71 100 131 165 199 237 286
#     4  10  21  34  49  71 100 133 168 200 243 299
#     4  10  19  32  53  74  95 129 168 205 247 292
#     4  10  19  30  46  73 104 131 163 200 245 297
#     4  11  23  35  49  73  99 128 167 210 251 291
#     4  10  20  37  55  71  92 126 171 209 247 298
#     4   9  17  29  45  69 100 132 166 200 240 292
#
# _framework density 15.827819999999999
#
# number of rings (size 3 to 8) (size 9 to 14) (size 15 to 20)
#    0.000    2.125    2.500    2.250    0.000    5.250 
#    0.000    0.000    0.000    0.000    0.000    0.875 
#    0.000    7.000    0.000    0.000    0.000    0.000 
#
# Total GULP energy -178485.793304 kJ/mol
# GULP energy per Si atom -5577.681041 kJ/mol
# Density = 1.579180 g / cm^3
# Si number density = 15.827820 Si / 1000 Ang^3
#
#
#
# Elastic Constant Matrix: (Units=GPa)
#
#
# Indices 1 2 3 4 5 6 
#
# 1 87.3381 34.3970 74.7832 0.0000 -13.1789 0.0000
# 2 34.3970 33.7776 57.6840 0.0000 0.0492 0.0000
# 3 74.7832 57.6840 173.8479 0.0000 3.0671 0.0000
# 4 0.0000 0.0000 0.0000 31.2455 0.0000 1.3697
# 5 -13.1789 0.0492 3.0671 0.0000 14.8255 0.0000
# 6 0.0000 0.0000 0.0000 1.3697 0.0000 19.8547
#
#
#
# Elastic Compliance Matrix: (Units=1/GPa)
#
#
# Indices 1 2 3 4 5 6 
#
# 1 0.027913 -0.016534 -0.006985 0.000000 0.026313 0.000000
# 2 -0.016534 0.078408 -0.018708 0.000000 -0.011087 0.000000
# 3 -0.006985 -0.018708 0.015128 0.000000 -0.009277 0.000000
# 4 0.000000 0.000000 0.000000 0.032102 0.000000 -0.002215
# 5 0.026313 -0.011087 -0.009277 0.000000 0.092798 0.000000
# 6 0.000000 0.000000 0.000000 -0.002215 0.000000 0.050519
#
#
# Mechanical properties :
#
#
# Convention : Reuss Voigt Hill
#
# Bulk Modulus (GPa) = 27.03137 69.85466 48.44301
# Shear Modulus (GPa) = 12.70147 21.72511 17.21329
#
# Velocity S-wave (km/s) = 2.83588 3.70887 3.30136
# Velocity P-wave (km/s) = 5.27621 7.91017 6.72344
#
# Compressibility (1/GPa) = 0.03699406
#
# Stress axis : x y z
#
# Youngs Moduli (GPa) = 35.82540 12.75373 66.10138
#
# Poissons Ratio (x) = 0.21087 0.46174
# Poissons Ratio (y) = 0.59234 1.23666
# Poissons Ratio (z) = 0.25025 0.23860
#
# Static dielectric constant tensor:
#      x y z
#    x 1.508140 0.000000 0.005430 
#    y 0.000000 1.528710 0.000000 
#    z 0.005430 0.000000 1.535780 
# 
# From -- ./inp_files/244015.got.cif
#   From: 2010.05.17/outbox.cif.g08.bks.cpg/sg12_123_cif.got.tgz:244015.got - 2010.06.03 13:09:07.
