data_PCOD9178361
_publ_section_title
;
Structure prediction by ZEFSAII (Michael W. Deem and Ramdas Pophale) SiO2 
 PCOD9178361
Probable space group: C 2/M
;
_chemical_formula_sum "Si O2"
_cell_formula_units_Z 64
_cell_length_a 30.536343
_cell_length_b 14.130694
_cell_length_c 8.927727
_cell_angle_alpha 90.000000
_cell_angle_beta 74.744157
_cell_angle_gamma 90.000000
_cell_volume 3716.558133
_symmetry_space_group_name_H-M "C 2/M"
_symmetry_group_IT_number 12
_symmetry_cell_setting 'monoclinic'
loop_
_space_group_symop_operation_xyz
x,y,z
-x,y,-z
-x,-y,-z
x,-y,z
1/2+x,1/2+y,z
1/2-x,1/2+y,-z
1/2-x,1/2-y,-z
1/2+x,1/2-y,z
loop_
_atom_site_type_symbol
_atom_site_label
_atom_site_fract_x
_atom_site_fract_y
_atom_site_fract_z
Si Si1 0.376120 0.716460 0.118706
Si Si2 0.452604 0.782062 0.474506
Si Si3 0.129189 0.250858 0.222980
Si Si4 0.332592 0.392906 0.582971
Si Si5 0.711801 0.384941 0.675206
Si Si6 0.616853 0.112015 0.664198
Si Si7 0.072042 0.891807 0.687421
Si Si8 0.686995 0.887698 0.335270
O O1 0.328211 0.666523 0.199598
O O2 0.378145 0.818050 0.200043
O O3 0.414524 0.651592 0.163870
O O4 0.380979 0.727326 0.937969
O O5 0.500000 0.813520 0.500000
O O6 0.416765 0.764278 0.640428
O O7 0.428433 0.856059 0.384372
O O8 0.457878 0.683709 0.376881
O O9 0.158481 0.171062 0.282503
O O10 0.160502 0.342507 0.220428
O O11 0.322704 0.500000 0.637056
O O12 0.295459 0.361540 0.494387
O O13 0.379781 0.392020 0.445801
O O14 0.706516 0.500000 0.690694
O O15 0.761211 0.357373 0.689275
O O16 0.657547 0.135140 0.510649
O O17 0.617224 0.000000 0.696304
O O18 0.055672 0.000000 0.708523
O O19 0.686912 0.000000 0.321331
#
# Coordination Sequence:
#
# PCOD9178361 Si02
#       8
#     8   8   8   8   8   8   8   8
#     4  10  19  30  48  72 101 131 154 190 243 292
#     4   9  18  34  55  74  92 122 165 205 238 281
#     4  10  20  31  47  73 100 125 156 200 249 287
#     4   8  15  28  46  67  91 123 162 196 226 272
#     4   9  17  31  51  72  95 128 167 199 231 280
#     4   9  19  35  52  70  94 127 164 199 239 284
#     4   8  15  30  49  69  96 127 156 188 232 285
#     4   9  18  33  51  69  92 126 168 207 237 274
#
# _framework density 17.220233
#
# number of rings (size 3 to 8) (size 9 to 14) (size 15 to 20)
#    0.000    3.000    0.000    3.375    0.000    4.500 
#    0.000    2.500    0.000    4.500    0.000    0.000 
#    0.000    0.000    0.000    0.000    0.000    0.000 
#
# Total GULP energy -178276.071716 kJ/mol
# GULP energy per Si atom -5571.127241 kJ/mol
# Density = 1.718104 g / cm^3
# Si number density = 17.220233 Si / 1000 Ang^3
#
#
#
# Elastic Constant Matrix: (Units=GPa)
#
#
# Indices 1 2 3 4 5 6 
#
# 1 77.3242 10.6647 20.4444 0.0000 9.1671 0.0000
# 2 10.6647 63.4237 27.6643 0.0000 2.6485 0.0000
# 3 20.4444 27.6643 88.5207 0.0000 23.8846 0.0000
# 4 0.0000 0.0000 0.0000 7.4003 0.0000 4.3256
# 5 9.1671 2.6485 23.8846 0.0000 12.7203 0.0000
# 6 0.0000 0.0000 0.0000 4.3256 0.0000 14.3177
#
#
#
# Elastic Compliance Matrix: (Units=1/GPa)
#
#
# Indices 1 2 3 4 5 6 
#
# 1 0.014389 -0.001993 -0.000029 0.000000 -0.009900 0.000000
# 2 -0.001993 0.019852 -0.010167 0.000000 0.016394 0.000000
# 3 -0.000029 -0.010167 0.028182 0.000000 -0.050780 0.000000
# 4 0.000000 0.000000 0.000000 0.164110 0.000000 -0.049580
# 5 -0.009900 0.016394 -0.050780 0.000000 0.177684 0.000000
# 6 0.000000 0.000000 0.000000 -0.049580 0.000000 0.084822
#
#
# Mechanical properties :
#
#
# Convention : Reuss Voigt Hill
#
# Bulk Modulus (GPa) = 26.28520 38.53503 32.41012
# Shear Modulus (GPa) = 9.50388 18.25400 13.87894
#
# Velocity S-wave (km/s) = 2.35181 3.25935 2.84204
# Velocity P-wave (km/s) = 4.76151 6.04903 5.44347
#
# Compressibility (1/GPa) = 0.03804422
#
# Stress axis : x y z
#
# Youngs Moduli (GPa) = 69.49816 50.37182 35.48336
#
# Poissons Ratio (x) = 0.10041 0.00103
# Poissons Ratio (y) = 0.13854 0.36077
# Poissons Ratio (z) = 0.00201 0.51214
#
# Static dielectric constant tensor:
#      x y z
#    x 1.574200 0.000000 0.003830 
#    y 0.000000 1.618420 0.000000 
#    z 0.003830 0.000000 1.561720 
# 
# From -- ./inp_files/111171.got.cif
#   From: 2010.05.17/outbox.cif.g08.bks.cpg/sg12_56_cif.got.tgz:111171.got - 2010.06.03 13:09:07.
