data_PCOD9178307
_publ_section_title
;
Structure prediction by ZEFSAII (Michael W. Deem and Ramdas Pophale) SiO2 
 PCOD9178307
Probable space group: C 2/M
;
_chemical_formula_sum "Si O2"
_cell_formula_units_Z 56
_cell_length_a 30.134754
_cell_length_b 13.130480
_cell_length_c 25.269286
_cell_angle_alpha 90.000000
_cell_angle_beta 160.078100
_cell_angle_gamma 90.000000
_cell_volume 3406.928175
_symmetry_space_group_name_H-M "C 2/M"
_symmetry_group_IT_number 12
_symmetry_cell_setting 'monoclinic'
loop_
_space_group_symop_operation_xyz
x,y,z
-x,y,-z
-x,-y,-z
x,-y,z
1/2+x,1/2+y,z
1/2-x,1/2+y,-z
1/2-x,1/2-y,-z
1/2+x,1/2-y,z
loop_
_atom_site_type_symbol
_atom_site_label
_atom_site_fract_x
_atom_site_fract_y
_atom_site_fract_z
Si Si1 0.089543 0.622981 0.651961
Si Si2 0.862173 0.122753 0.910083
Si Si3 0.833373 0.620858 0.046962
Si Si4 0.151223 0.122462 0.228672
Si Si5 0.813832 0.248611 0.488960
Si Si6 0.616899 0.879179 0.330375
Si Si7 0.087948 0.261616 0.759022
O O1 0.082713 0.500000 0.651940
O O2 0.237761 0.654440 0.803909
O O3 0.056898 0.680017 0.669682
O O4 0.000000 0.645516 0.500000
O O5 0.843813 0.148444 0.827800
O O6 0.863090 0.000000 0.912892
O O7 0.007861 0.153437 0.089337
O O8 0.810438 0.500000 0.021733
O O9 0.869521 0.659355 0.146881
O O10 0.961732 0.641763 0.155145
O O11 0.707328 0.683433 0.887377
O O12 0.259662 0.181461 0.381701
O O13 0.165129 0.000000 0.249081
O O14 0.706143 0.165633 0.383964
O O15 0.833571 0.322653 0.561324
O O16 0.956034 0.208622 0.632232
O O17 0.633535 0.000000 0.353694
#
# Coordination Sequence:
#
# PCOD9178307 Si02
#       7
#     8   8   8   8   8   8   8
#     4  10  19  30  47  73 106 136 162 198 246 299
#     4   8  16  28  42  67  98 129 161 192 232 284
#     4   9  19  36  53  70  98 135 167 205 248 289
#     4   9  16  28  46  68  99 131 159 192 236 288
#     4  10  19  30  49  73  96 127 160 197 244 282
#     4   9  19  34  49  69  96 125 164 203 240 287
#     4  10  20  32  51  77 102 129 168 202 243 301
#
# _framework density 16.437094999999999
#
# number of rings (size 3 to 8) (size 9 to 14) (size 15 to 20)
#    0.000    2.714    0.000    2.571    2.000    3.429 
#    0.000    0.000    0.000    0.429    0.000    3.000 
#    0.000    0.000    0.000    0.000    0.000    0.000 
#
# Total GULP energy -155945.240700 kJ/mol
# GULP energy per Si atom -5569.472882 kJ/mol
# Density = 1.639968 g / cm^3
# Si number density = 16.437095 Si / 1000 Ang^3
#
#
#
# Elastic Constant Matrix: (Units=GPa)
#
#
# Indices 1 2 3 4 5 6 
#
# 1 77.2329 30.8075 40.5643 0.0001 22.7172 0.0001
# 2 30.8075 58.1811 38.1747 0.0001 17.8776 0.0000
# 3 40.5643 38.1747 90.2990 0.0002 17.2527 0.0002
# 4 0.0001 0.0001 0.0002 22.4210 0.0001 2.5450
# 5 22.7172 17.8776 17.2527 0.0001 29.0984 0.0001
# 6 0.0001 0.0000 0.0002 2.5450 0.0001 20.2857
#
#
#
# Elastic Compliance Matrix: (Units=1/GPa)
#
#
# Indices 1 2 3 4 5 6 
#
# 1 0.020480 -0.004085 -0.005523 0.000000 -0.010204 0.000000
# 2 -0.004085 0.027339 -0.008033 0.000000 -0.008845 0.000000
# 3 -0.005523 -0.008033 0.017125 0.000000 -0.000906 0.000000
# 4 0.000000 0.000000 0.000000 0.045245 0.000000 -0.005676
# 5 -0.010204 -0.008845 -0.000906 0.000000 0.048304 0.000000
# 6 0.000000 0.000000 0.000000 -0.005676 0.000000 0.050008
#
#
# Mechanical properties :
#
#
# Convention : Reuss Voigt Hill
#
# Bulk Modulus (GPa) = 33.71396 49.42288 41.56842
# Shear Modulus (GPa) = 19.71065 22.10545 20.90805
#
# Velocity S-wave (km/s) = 3.46664 3.67120 3.57039
# Velocity P-wave (km/s) = 6.04805 6.93567 6.50701
#
# Compressibility (1/GPa) = 0.02966131
#
# Stress axis : x y z
#
# Youngs Moduli (GPa) = 48.82906 36.57760 58.39526
#
# Poissons Ratio (x) = 0.14940 0.32255
# Poissons Ratio (y) = 0.19944 0.46909
# Poissons Ratio (z) = 0.26971 0.29383
#
# Static dielectric constant tensor:
#      x y z
#    x 1.574920 0.000000 0.035640 
#    y 0.000000 1.508430 0.000000 
#    z 0.035640 0.000000 1.573310 
# 
# From -- ./inp_files/353984.got.cif
#   From: 2010.05.17/outbox.cif.g08.bks.cpg/sg12_177_cif.got.tgz:353984.got - 2010.06.03 13:09:07.
