data_PCOD9178899
_publ_section_title
;
Structure prediction by ZEFSAII (Michael W. Deem and Ramdas Pophale) SiO2 
 PCOD9178899
Probable space group: C 2/M
;
_chemical_formula_sum "Si O2"
_cell_formula_units_Z 56
_cell_length_a 29.652199
_cell_length_b 8.636890
_cell_length_c 19.752366
_cell_angle_alpha 90.000000
_cell_angle_beta 39.674082
_cell_angle_gamma 90.000000
_cell_volume 3229.532846
_symmetry_space_group_name_H-M "C 2/M"
_symmetry_group_IT_number 12
_symmetry_cell_setting 'monoclinic'
loop_
_space_group_symop_operation_xyz
x,y,z
-x,y,-z
-x,-y,-z
x,-y,z
1/2+x,1/2+y,z
1/2-x,1/2+y,-z
1/2-x,1/2-y,-z
1/2+x,1/2-y,z
loop_
_atom_site_type_symbol
_atom_site_label
_atom_site_fract_x
_atom_site_fract_y
_atom_site_fract_z
Si Si1 0.067481 0.826812 0.372489
Si Si2 0.159147 0.682099 0.377946
Si Si3 0.532016 0.813827 0.619610
Si Si4 0.043643 0.313069 0.162438
Si Si5 0.450749 0.188320 0.996398
Si Si6 0.200512 0.815248 0.997204
Si Si7 0.790359 0.684356 0.162170
O O1 0.120038 0.716532 0.351893
O O2 0.000000 0.838927 0.500000
O O3 0.034673 0.756624 0.343098
O O4 0.097176 0.000000 0.328649
O O5 0.170536 0.500000 0.373286
O O6 0.104579 0.737628 0.499318
O O7 0.232661 0.768594 0.284159
O O8 0.518031 0.773794 0.713480
O O9 0.529961 0.000000 0.614053
O O10 0.052263 0.500000 0.153120
O O11 0.119308 0.243218 0.096529
O O12 0.026533 0.264928 0.105556
O O13 0.368523 0.233106 0.095738
O O14 0.452941 0.000000 0.995963
O O15 0.500000 0.246202 0.000000
O O16 0.202287 0.000000 0.997832
O O17 0.250000 0.750000 0.000000
O O18 0.224077 0.759099 0.894886
O O19 0.709662 0.000000 0.847362
#
# Coordination Sequence:
#
# PCOD9178899 Si02
#       7
#     8   8   8   8   8   8   8
#     4   9  17  28  42  62  90 128 172 210 240 276
#     4  10  19  31  47  68  98 136 172 207 245 293
#     4   9  18  31  47  68  98 135 172 206 245 292
#     4   9  18  33  52  75 101 129 167 209 249 299
#     4   8  15  31  56  80  97 118 158 212 262 306
#     4  11  22  35  50  70 100 136 169 205 250 297
#     4  10  20  34  52  75 100 128 167 210 252 301
#
# _framework density 17.339967999999999
#
# number of rings (size 3 to 8) (size 9 to 14) (size 15 to 20)
#    0.000    2.571    0.000    3.429    2.000    2.857 
#    0.000    0.000    0.000   11.571    0.000    0.000 
#    0.000    0.000    0.000    0.000    0.000    1.000 
#
# Total GULP energy -156035.062231 kJ/mol
# GULP energy per Si atom -5572.680794 kJ/mol
# Density = 1.730050 g / cm^3
# Si number density = 17.339968 Si / 1000 Ang^3
#
#
#
# Elastic Constant Matrix: (Units=GPa)
#
#
# Indices 1 2 3 4 5 6 
#
# 1 121.6624 22.7866 62.0234 0.0030 12.1400 -0.0017
# 2 22.7866 41.8841 26.6189 0.0110 2.7935 -0.0076
# 3 62.0234 26.6189 133.6156 0.0044 8.5849 -0.0037
# 4 0.0030 0.0110 0.0044 22.2626 -0.0016 -3.6588
# 5 12.1400 2.7935 8.5849 -0.0016 13.2318 0.0012
# 6 -0.0017 -0.0076 -0.0037 -3.6588 0.0012 12.7703
#
#
#
# Elastic Compliance Matrix: (Units=1/GPa)
#
#
# Indices 1 2 3 4 5 6 
#
# 1 0.011761 -0.003137 -0.004365 0.000000 -0.007295 -0.000001
# 2 -0.003137 0.028243 -0.004145 -0.000011 -0.000395 0.000012
# 3 -0.004365 -0.004145 0.010459 0.000000 -0.001905 0.000000
# 4 0.000000 -0.000011 0.000000 0.047138 0.000006 0.013506
# 5 -0.007295 -0.000395 -0.001905 0.000006 0.083589 -0.000008
# 6 -0.000001 0.000012 0.000000 0.013506 -0.000008 0.082176
#
#
# Mechanical properties :
#
#
# Convention : Reuss Voigt Hill
#
# Bulk Modulus (GPa) = 36.80941 57.77999 47.29470
# Shear Modulus (GPa) = 16.90813 22.03514 19.47164
#
# Velocity S-wave (km/s) = 3.12604 3.56866 3.35466
# Velocity P-wave (km/s) = 5.85693 7.09751 6.50685
#
# Compressibility (1/GPa) = 0.02716697
#
# Stress axis : x y z
#
# Youngs Moduli (GPa) = 85.03036 35.40734 95.61403
#
# Poissons Ratio (x) = 0.11108 0.41739
# Poissons Ratio (y) = 0.26676 0.39631
# Poissons Ratio (z) = 0.37119 0.14676
#
# Static dielectric constant tensor:
#      x y z
#    x 1.569370 0.000000 0.000920 
#    y 0.000000 1.598320 0.000000 
#    z 0.000920 0.000000 1.631600 
# 
# From -- ./inp_files/291793.got.cif
#   From: 2010.05.17/outbox.cif.g08.bks.cpg/sg12_146_cif.got.tgz:291793.got - 2010.06.03 13:09:07.
