data_PCOD9178245
_publ_section_title
;
Structure prediction by ZEFSAII (Michael W. Deem and Ramdas Pophale) SiO2 
 PCOD9178245
Probable space group: C 2/M
;
_chemical_formula_sum "Si O2"
_cell_formula_units_Z 48
_cell_length_a 12.976932
_cell_length_b 21.514591
_cell_length_c 17.090240
_cell_angle_alpha 90.000000
_cell_angle_beta 157.584363
_cell_angle_gamma 90.000000
_cell_volume 1819.474315
_symmetry_space_group_name_H-M "C 2/M"
_symmetry_group_IT_number 12
_symmetry_cell_setting 'monoclinic'
loop_
_space_group_symop_operation_xyz
x,y,z
-x,y,-z
-x,-y,-z
x,-y,z
1/2+x,1/2+y,z
1/2-x,1/2+y,-z
1/2-x,1/2-y,-z
1/2+x,1/2-y,z
loop_
_atom_site_type_symbol
_atom_site_label
_atom_site_fract_x
_atom_site_fract_y
_atom_site_fract_z
Si Si1 0.732145 0.567825 0.597961
Si Si2 0.962450 0.668754 0.659489
Si Si3 0.261147 0.431120 0.768119
Si Si4 0.744556 0.243439 0.233662
Si Si5 0.048825 0.837455 0.871921
Si Si6 0.035800 0.619820 0.939788
O O1 0.500000 0.567164 0.500000
O O2 0.733431 0.500000 0.558437
O O3 0.994060 0.574019 0.838312
O O4 0.736135 0.628206 0.545549
O O5 0.058546 0.618389 0.662372
O O6 0.993479 0.731921 0.629576
O O7 0.194437 0.674195 0.889916
O O8 0.154832 0.500000 0.683283
O O9 0.397933 0.400801 0.788636
O O10 0.500000 0.433549 0.000000
O O11 0.662574 0.284239 0.251890
O O12 0.696077 0.172951 0.224532
O O13 0.500000 0.254528 0.000000
O O14 0.184543 0.843885 0.882501
O O15 0.000000 0.590753 0.000000
#
# Coordination Sequence:
#
# PCOD9178245 Si02
#       6
#     8   8   8   8   8   8
#     4  10  21  36  51  68  94 129 165 197 233 280
#     4   8  14  26  45  67  90 120 157 197 237 276
#     4   8  12  19  35  61  89 115 149 196 239 268
#     4   8  14  26  45  71  97 121 153 195 241 281
#     4   8  14  23  39  65  97 125 150 185 233 285
#     4  10  19  30  47  71  98 128 156 189 233 284
#
# _framework density 26.381246999999998
#
# number of rings (size 3 to 8) (size 9 to 14) (size 15 to 20)
#    0.000    3.333    0.000    3.000    0.000    5.667 
#    0.000    0.833    0.000    0.000    0.000    3.500 
#    0.000   12.000    0.000    0.000    0.000    0.000 
#
# Total GULP energy -133871.119174 kJ/mol
# GULP energy per Si atom -5577.963299 kJ/mol
# Density = 2.632120 g / cm^3
# Si number density = 26.381247 Si / 1000 Ang^3
#
#
#
# Elastic Constant Matrix: (Units=GPa)
#
#
# Indices 1 2 3 4 5 6 
#
# 1 136.2960 16.2911 42.8112 0.0130 28.8768 0.0070
# 2 16.2911 88.4942 -4.5073 -0.0078 6.6657 0.0080
# 3 42.8112 -4.5073 44.7171 0.1135 -10.6393 0.0045
# 4 0.0130 -0.0078 0.1135 -12.0649 -0.0139 14.2308
# 5 28.8768 6.6657 -10.6393 -0.0139 56.6016 -0.0166
# 6 0.0070 0.0080 0.0045 14.2308 -0.0166 11.6947
#
#
#
# Elastic Compliance Matrix: (Units=1/GPa)
#
#
# Indices 1 2 3 4 5 6 
#
# 1 0.015637 -0.002962 -0.017883 -0.000064 -0.010990 0.000062
# 2 -0.002962 0.011995 0.004258 0.000008 0.000899 -0.000017
# 3 -0.017883 0.004258 0.043929 0.000160 0.016879 -0.000180
# 4 -0.000064 0.000008 0.000160 -0.034034 0.000066 0.041415
# 5 -0.010990 0.000899 0.016879 0.000066 0.026341 -0.000043
# 6 0.000062 -0.000017 -0.000180 0.041415 -0.000043 0.035113
#
#
# Mechanical properties :
#
#
# Convention : Reuss Voigt Hill
#
# Bulk Modulus (GPa) = 26.05083 42.07746 34.06414
# Shear Modulus (GPa) = 34.49477 25.57377 30.03427
#
# Velocity S-wave (km/s) = 3.61993 3.11688 3.37778
# Velocity P-wave (km/s) = 5.23145 5.37937 5.30593
#
# Compressibility (1/GPa) = 0.03838650
#
# Stress axis : x y z
#
# Youngs Moduli (GPa) = 63.95198 83.37105 22.76404
#
# Poissons Ratio (x) = 0.24692 0.40710
# Poissons Ratio (y) = 0.18940 -0.09693
# Poissons Ratio (z) = 1.14368 -0.35501
#
# Static dielectric constant tensor:
#      x y z
#    x 2.064730 0.000000 0.001460 
#    y 0.000000 2.083540 0.000000 
#    z 0.001460 0.000000 2.207920 
# 
# From -- ./inp_files/265891.got.cif
#   From: 2010.05.17/outbox.cif.g08.bks.cpg/sg12_133_cif.got.tgz:265891.got - 2010.06.03 13:09:07.
