data_PCOD9178231
_publ_section_title
;
Structure prediction by ZEFSAII (Michael W. Deem and Ramdas Pophale) SiO2 
 PCOD9178231
Probable space group: C 2/M
;
_chemical_formula_sum "Si O2"
_cell_formula_units_Z 56
_cell_length_a 33.074377
_cell_length_b 7.667608
_cell_length_c 19.517935
_cell_angle_alpha 90.000000
_cell_angle_beta 146.511668
_cell_angle_gamma 90.000000
_cell_volume 2731.123178
_symmetry_space_group_name_H-M "C 2/M"
_symmetry_group_IT_number 12
_symmetry_cell_setting 'monoclinic'
loop_
_space_group_symop_operation_xyz
x,y,z
-x,y,-z
-x,-y,-z
x,-y,z
1/2+x,1/2+y,z
1/2-x,1/2+y,-z
1/2-x,1/2-y,-z
1/2+x,1/2-y,z
loop_
_atom_site_type_symbol
_atom_site_label
_atom_site_fract_x
_atom_site_fract_y
_atom_site_fract_z
Si Si1 0.166161 0.790649 0.593090
Si Si2 0.416845 0.287132 0.387841
Si Si3 0.334319 0.203747 0.556325
Si Si4 0.436396 0.196181 0.955996
Si Si5 0.186967 0.286235 0.124369
Si Si6 0.331991 0.701345 0.695696
Si Si7 0.228249 0.209206 0.891500
O O1 0.114250 0.738969 0.581896
O O2 0.136085 0.729144 0.477799
O O3 0.247776 0.730783 0.731163
O O4 0.169261 0.000000 0.595166
O O5 0.500000 0.224742 0.500000
O O6 0.418659 0.500000 0.386437
O O7 0.353820 0.229218 0.245227
O O8 0.367896 0.290333 0.670903
O O9 0.250594 0.269131 0.429938
O O10 0.331906 0.000000 0.568502
O O11 0.392465 0.271965 0.959224
O O12 0.373120 0.188523 0.809675
O O13 0.462446 0.000000 0.011168
O O14 0.500000 0.284972 0.000000
O O15 0.184574 0.500000 0.121997
O O16 0.214910 0.231680 0.088150
O O17 0.329546 0.500000 0.714226
O O18 0.227127 0.000000 0.883642
O O19 0.250000 0.250000 0.000000
#
# Coordination Sequence:
#
# PCOD9178231 Si02
#       7
#     8   8   8   8   8   8   8
#     4   9  15  27  50  72  93 125 161 201 241 285
#     4   8  15  29  50  75 100 128 164 203 246 300
#     4  10  19  30  47  71  96 122 156 201 244 285
#     4  10  19  32  51  71  95 130 166 201 242 290
#     4   8  15  29  48  69  94 125 164 198 233 288
#     4  10  20  32  47  68  95 126 158 198 243 284
#     4   9  17  31  52  75  98 128 163 203 248 294
#
# _framework density 20.504384999999999
#
# number of rings (size 3 to 8) (size 9 to 14) (size 15 to 20)
#    0.000    2.857    1.429    2.571    0.000    1.429 
#    0.000    5.000    0.000    5.143    0.000    0.000 
#    0.000    0.000    0.000    0.000    0.000    0.000 
#
# Total GULP energy -155906.250038 kJ/mol
# GULP energy per Si atom -5568.080358 kJ/mol
# Density = 2.045772 g / cm^3
# Si number density = 20.504385 Si / 1000 Ang^3
#
#
#
# Elastic Constant Matrix: (Units=GPa)
#
#
# Indices 1 2 3 4 5 6 
#
# 1 157.6835 5.4314 62.1216 0.0000 6.1281 0.0000
# 2 5.4314 43.1186 0.5205 0.0000 0.4517 0.0000
# 3 62.1216 0.5205 51.8446 0.0000 -7.2329 0.0000
# 4 0.0000 0.0000 0.0000 -24.9240 0.0000 8.2230
# 5 6.1281 0.4517 -7.2329 0.0000 42.4061 0.0000
# 6 0.0000 0.0000 0.0000 8.2230 0.0000 4.8873
#
#
#
# Elastic Compliance Matrix: (Units=1/GPa)
#
#
# Indices 1 2 3 4 5 6 
#
# 1 0.012909 -0.001384 -0.016095 0.000000 -0.004596 0.000000
# 2 -0.001384 0.023347 0.001451 0.000000 0.000199 0.000000
# 3 -0.016095 0.001451 0.039830 0.000000 0.009104 0.000000
# 4 0.000000 0.000000 0.000000 -0.025800 0.000000 0.043409
# 5 -0.004596 0.000199 0.009104 0.000000 0.025796 0.000000
# 6 0.000000 0.000000 0.000000 0.043409 0.000000 0.131574
#
#
# Mechanical properties :
#
#
# Convention : Reuss Voigt Hill
#
# Bulk Modulus (GPa) = 22.71178 43.19929 32.95554
# Shear Modulus (GPa) = 19.65508 16.77876 18.21692
#
# Velocity S-wave (km/s) = 3.09945 2.86370 2.98391
# Velocity P-wave (km/s) = 4.88972 5.66113 5.28951
#
# Compressibility (1/GPa) = 0.04403002
#
# Stress axis : x y z
#
# Youngs Moduli (GPa) = 77.46508 42.83287 25.10686
#
# Poissons Ratio (x) = 0.05926 0.40410
# Poissons Ratio (y) = 0.10718 -0.03644
# Poissons Ratio (z) = 1.24682 -0.06216
#
# Static dielectric constant tensor:
#      x y z
#    x 1.817870 0.000000 0.011130 
#    y 0.000000 1.800130 0.000000 
#    z 0.011130 0.000000 1.727140 
# 
# From -- ./inp_files/295148.got.cif
#   From: 2010.05.17/outbox.cif.g08.bks.cpg/sg12_148_cif.got.tgz:295148.got - 2010.06.03 13:09:07.
