data_PCOD9178101
_publ_section_title
;
Structure prediction by ZEFSAII (Michael W. Deem and Ramdas Pophale) SiO2 
 PCOD9178101
Probable space group: C 2/M
;
_chemical_formula_sum "Si O2"
_cell_formula_units_Z 64
_cell_length_a 29.912847
_cell_length_b 8.344420
_cell_length_c 17.116264
_cell_angle_alpha 90.000000
_cell_angle_beta 65.773608
_cell_angle_gamma 90.000000
_cell_volume 3896.053884
_symmetry_space_group_name_H-M "C 2/M"
_symmetry_group_IT_number 12
_symmetry_cell_setting 'monoclinic'
loop_
_space_group_symop_operation_xyz
x,y,z
-x,y,-z
-x,-y,-z
x,-y,z
1/2+x,1/2+y,z
1/2-x,1/2+y,-z
1/2-x,1/2-y,-z
1/2+x,1/2-y,z
loop_
_atom_site_type_symbol
_atom_site_label
_atom_site_fract_x
_atom_site_fract_y
_atom_site_fract_z
Si Si1 0.324589 0.694427 0.910386
Si Si2 0.223934 0.308472 0.899326
Si Si3 0.270737 0.309438 0.274460
Si Si4 0.407704 0.312703 0.742427
Si Si5 0.157023 0.311702 0.346938
Si Si6 0.108120 0.688800 0.551448
Si Si7 0.298842 0.809913 0.420498
Si Si8 0.997158 0.807874 0.411882
O O1 0.324672 0.500000 0.910524
O O2 0.278588 0.745445 0.888301
O O3 0.375966 0.753426 0.837534
O O4 0.312024 0.754717 0.005620
O O5 0.224641 0.500000 0.893744
O O6 0.210856 0.238577 0.824407
O O7 0.273583 0.500000 0.282277
O O8 0.213292 0.263211 0.316378
O O9 0.295532 0.230274 0.331594
O O10 0.416282 0.500000 0.753320
O O11 0.370677 0.293940 0.696381
O O12 0.458736 0.242459 0.673919
O O13 0.155523 0.500000 0.324285
O O14 0.130219 0.297555 0.448715
O O15 0.100560 0.500000 0.573454
O O16 0.150693 0.753747 0.577740
O O17 0.055457 0.771263 0.587242
O O18 0.250000 0.750000 0.500000
O O19 0.299532 0.000000 0.431847
O O20 0.000000 0.746694 0.500000
O O21 0.003706 0.000000 0.412010
#
# Coordination Sequence:
#
# PCOD9178101 Si02
#       8
#     8   8   8   8   8   8   8   8
#     4   9  18  31  47  69 100 134 165 203 248 294
#     4  10  19  31  49  73  99 131 167 204 249 298
#     4  11  21  34  50  73 102 134 170 206 247 297
#     4  10  19  32  48  71 100 133 172 205 243 292
#     4  10  19  30  46  69  99 132 168 204 242 287
#     4  10  21  36  49  68  99 133 169 208 246 288
#     4  11  22  36  52  73 100 132 171 210 249 295
#     4  10  20  32  49  73  99 130 169 208 244 289
#
# _framework density 16.426879
#
# number of rings (size 3 to 8) (size 9 to 14) (size 15 to 20)
#    0.000    1.875    3.750    1.125    0.000    3.250 
#    0.000    0.000    0.000    0.000    0.000    0.875 
#    0.000    7.000    0.000    0.000    0.000    0.000 
#
# Total GULP energy -178466.813645 kJ/mol
# GULP energy per Si atom -5577.087926 kJ/mol
# Density = 1.638949 g / cm^3
# Si number density = 16.426879 Si / 1000 Ang^3
#
#
#
# Elastic Constant Matrix: (Units=GPa)
#
#
# Indices 1 2 3 4 5 6 
#
# 1 91.2004 5.7048 51.0723 0.0000 -14.7570 0.0000
# 2 5.7048 4.5985 5.8683 0.0000 -4.3712 0.0000
# 3 51.0723 5.8683 96.8483 0.0000 -15.0350 0.0000
# 4 0.0000 0.0000 0.0000 19.4619 0.0000 3.0474
# 5 -14.7570 -4.3712 -15.0350 0.0000 25.3683 0.0000
# 6 0.0000 0.0000 0.0000 3.0474 0.0000 19.9458
#
#
#
# Elastic Compliance Matrix: (Units=1/GPa)
#
#
# Indices 1 2 3 4 5 6 
#
# 1 0.016242 -0.006912 -0.007560 0.000000 0.003777 0.000000
# 2 -0.006912 0.271531 -0.006794 0.000000 0.038740 0.000000
# 3 -0.007560 -0.006794 0.015264 0.000000 0.003478 0.000000
# 4 0.000000 0.000000 0.000000 0.052642 0.000000 -0.008043
# 5 0.003777 0.038740 0.003478 0.000000 0.050353 0.000000
# 6 0.000000 0.000000 0.000000 -0.008043 0.000000 0.051365
#
#
# Mechanical properties :
#
#
# Convention : Reuss Voigt Hill
#
# Bulk Modulus (GPa) = 3.83869 35.32644 19.58257
# Shear Modulus (GPa) = 8.52134 21.62200 15.07167
#
# Velocity S-wave (km/s) = 2.28007 3.63196 3.03231
# Velocity P-wave (km/s) = 3.04524 6.25621 4.92004
#
# Compressibility (1/GPa) = 0.26050549
#
# Stress axis : x y z
#
# Youngs Moduli (GPa) = 61.56925 3.68282 65.51491
#
# Poissons Ratio (x) = 0.02546 0.49529
# Poissons Ratio (y) = 0.42557 0.44508
# Poissons Ratio (z) = 0.46546 0.02502
#
# Static dielectric constant tensor:
#      x y z
#    x 1.544400 0.000000 -0.017170 
#    y 0.000000 1.574530 0.000000 
#    z -0.017170 0.000000 1.560780 
# 
# From -- ./inp_files/243798.got.cif
#   From: 2010.05.17/outbox.cif.g08.bks.cpg/sg12_122_cif.got.tgz:243798.got - 2010.06.03 13:09:07.
