data_PCOD9178151
_publ_section_title
;
Structure prediction by ZEFSAII (Michael W. Deem and Ramdas Pophale) SiO2 
 PCOD9178151
Probable space group: C 2/M
;
_chemical_formula_sum "Si O2"
_cell_formula_units_Z 56
_cell_length_a 9.875900
_cell_length_b 25.609024
_cell_length_c 14.929952
_cell_angle_alpha 90.000000
_cell_angle_beta 121.175440
_cell_angle_gamma 90.000000
_cell_volume 3230.664886
_symmetry_space_group_name_H-M "C 2/M"
_symmetry_group_IT_number 12
_symmetry_cell_setting 'monoclinic'
loop_
_space_group_symop_operation_xyz
x,y,z
-x,y,-z
-x,-y,-z
x,-y,z
1/2+x,1/2+y,z
1/2-x,1/2+y,-z
1/2-x,1/2-y,-z
1/2+x,1/2-y,z
loop_
_atom_site_type_symbol
_atom_site_label
_atom_site_fract_x
_atom_site_fract_y
_atom_site_fract_z
Si Si1 0.375667 0.937996 0.877373
Si Si2 0.052462 0.804402 0.418159
Si Si3 0.490826 0.138011 0.217066
Si Si4 0.424375 0.184280 0.566971
Si Si5 0.368214 0.661954 0.877454
Si Si6 0.133273 0.717062 0.121292
Si Si7 0.593967 0.640910 0.799842
O O1 0.445643 0.913689 0.810012
O O2 0.209854 0.908642 0.838045
O O3 0.357990 0.000000 0.867532
O O4 0.500000 0.925004 0.000000
O O5 0.240185 0.809877 0.482059
O O6 0.012863 0.743032 0.388865
O O7 0.000000 0.817366 0.500000
O O8 0.971322 0.841868 0.318906
O O9 0.543316 0.148012 0.336911
O O10 0.300420 0.139744 0.150053
O O11 0.569390 0.184256 0.184003
O O12 0.500000 0.166103 0.500000
O O13 0.339181 0.722964 0.845706
O O14 0.449290 0.636371 0.818601
O O15 0.500000 0.658617 0.000000
O O16 0.289745 0.689397 0.135672
O O17 0.000000 0.714669 0.000000
#
# Coordination Sequence:
#
# PCOD9178151 Si02
#       7
#     8   8   8   8   8   8   8
#     4  10  22  41  61  78  99 133 179 228 280 334
#     4  10  19  31  49  75 107 143 181 214 244 294
#     4  11  20  34  54  74 105 144 178 211 260 317
#     4  10  20  32  48  75 111 146 175 205 250 307
#     4  11  20  29  47  79 111 136 167 208 258 319
#     4  10  19  30  46  73 110 146 173 200 249 322
#     4  11  20  33  53  76 106 140 179 221 264 306
#
# _framework density 17.333894000000001
#
# number of rings (size 3 to 8) (size 9 to 14) (size 15 to 20)
#    0.000    1.571    0.000    8.571    0.000    4.571 
#    0.000    0.714    0.000    6.857    0.000    0.000 
#    0.000    0.000    0.000    0.000    0.000    0.000 
#
# Total GULP energy -156383.571749 kJ/mol
# GULP energy per Si atom -5585.127562 kJ/mol
# Density = 1.729444 g / cm^3
# Si number density = 17.333894 Si / 1000 Ang^3
#
#
#
# Elastic Constant Matrix: (Units=GPa)
#
#
# Indices 1 2 3 4 5 6 
#
# 1 66.9621 13.3818 -7.2592 0.0000 -11.5291 0.0000
# 2 13.3818 75.1548 24.7618 0.0000 -6.6674 0.0000
# 3 -7.2592 24.7618 74.3344 0.0000 -10.7139 0.0000
# 4 0.0000 0.0000 0.0000 22.6721 0.0000 22.0381
# 5 -11.5291 -6.6674 -10.7139 0.0000 31.1668 0.0000
# 6 0.0000 0.0000 0.0000 22.0381 0.0000 4.1246
#
#
#
# Elastic Compliance Matrix: (Units=1/GPa)
#
#
# Indices 1 2 3 4 5 6 
#
# 1 0.017312 -0.003766 0.003948 0.000000 0.006955 0.000000
# 2 -0.003766 0.015838 -0.005635 0.000000 0.000058 0.000000
# 3 0.003948 -0.005635 0.016573 0.000000 0.005952 0.000000
# 4 0.000000 0.000000 0.000000 -0.010517 0.000000 0.056196
# 5 0.006955 0.000058 0.005952 0.000000 0.036717 0.000000
# 6 0.000000 0.000000 0.000000 0.056196 0.000000 -0.057812
#
#
# Mechanical properties :
#
#
# Convention : Reuss Voigt Hill
#
# Bulk Modulus (GPa) = 25.76270 30.91335 28.33802
# Shear Modulus (GPa) = 119.17023 23.96384 71.56703
#
# Velocity S-wave (km/s) = 8.30055 3.72221 6.43249
# Velocity P-wave (km/s) = 10.33249 6.02876 8.45891
#
# Compressibility (1/GPa) = 0.03881581
#
# Stress axis : x y z
#
# Youngs Moduli (GPa) = 57.76367 63.13805 60.33795
#
# Poissons Ratio (x) = 0.23778 -0.23819
# Poissons Ratio (y) = 0.21754 0.34003
# Poissons Ratio (z) = -0.22803 0.35581
#
# Static dielectric constant tensor:
#      x y z
#    x 1.582950 0.000000 -0.004210 
#    y 0.000000 1.564650 0.000000 
#    z -0.004210 0.000000 1.593370 
# 
# From -- ./inp_files/199705.got.cif
#   From: 2010.05.17/outbox.cif.g08.bks.cpg/sg12_100_cif.got.tgz:199705.got - 2010.06.03 13:09:07.
