data_PCOD9178741
_publ_section_title
;
Structure prediction by ZEFSAII (Michael W. Deem and Ramdas Pophale) SiO2 
 PCOD9178741
Probable space group: C 2/M
;
_chemical_formula_sum "Si O2"
_cell_formula_units_Z 64
_cell_length_a 32.320247
_cell_length_b 7.768308
_cell_length_c 14.849061
_cell_angle_alpha 90.000000
_cell_angle_beta 90.677001
_cell_angle_gamma 90.000000
_cell_volume 3727.947442
_symmetry_space_group_name_H-M "C 2/M"
_symmetry_group_IT_number 12
_symmetry_cell_setting 'monoclinic'
loop_
_space_group_symop_operation_xyz
x,y,z
-x,y,-z
-x,-y,-z
x,-y,z
1/2+x,1/2+y,z
1/2-x,1/2+y,-z
1/2-x,1/2-y,-z
1/2+x,1/2-y,z
loop_
_atom_site_type_symbol
_atom_site_label
_atom_site_fract_x
_atom_site_fract_y
_atom_site_fract_z
Si Si1 0.829440 0.211255 0.789561
Si Si2 0.700208 0.293983 0.400936
Si Si3 0.247368 0.294462 0.894864
Si Si4 0.499863 0.204842 0.897185
Si Si5 0.203169 0.208739 0.600640
Si Si6 0.409851 0.706458 0.898701
Si Si7 0.665946 0.296584 0.783444
Si Si8 0.410548 0.705153 0.104929
O O1 0.824642 0.270341 0.686348
O O2 0.788705 0.265185 0.844122
O O3 0.871135 0.269699 0.839812
O O4 0.829592 0.000000 0.789600
O O5 0.695052 0.500000 0.403095
O O6 0.748770 0.257653 0.386124
O O7 0.689949 0.228630 0.500959
O O8 0.245472 0.500000 0.885635
O O9 0.206189 0.222209 0.847520
O O10 0.250000 0.250000 0.000000
O O11 0.454972 0.253826 0.859047
O O12 0.543124 0.265640 0.857246
O O13 0.501752 0.000000 0.901029
O O14 0.500000 0.276018 0.000000
O O15 0.177377 0.274532 0.685245
O O16 0.201498 0.000000 0.600357
O O17 0.406469 0.500000 0.903344
O O18 0.408284 0.774091 0.001949
O O19 0.658390 0.500000 0.770516
O O20 0.625867 0.223795 0.833323
O O21 0.404326 0.500000 0.097823
#
# Coordination Sequence:
#
# PCOD9178741 Si02
#       8
#     8   8   8   8   8   8   8   8
#     4   9  17  29  45  64  87 118 154 184 215 263
#     4   9  16  29  46  64  87 117 151 187 226 266
#     4  11  21  32  44  61  89 125 158 186 217 258
#     4   9  17  29  44  64  88 109 137 181 226 263
#     4   9  17  28  45  66  89 115 147 190 231 261
#     4   9  16  28  45  62  82 114 150 179 213 261
#     4  10  19  31  45  66  92 119 152 187 223 263
#     4   9  17  29  45  62  86 118 149 179 214 264
#
# _framework density 17.167622999999999
#
# number of rings (size 3 to 8) (size 9 to 14) (size 15 to 20)
#    0.000    2.625    1.250    1.500    0.000    4.000 
#    0.000    4.375    0.000    0.000    0.000    0.875 
#    0.000    7.000    0.000    0.000    0.000    0.000 
#
# Total GULP energy -178349.949673 kJ/mol
# GULP energy per Si atom -5573.435927 kJ/mol
# Density = 1.712855 g / cm^3
# Si number density = 17.167623 Si / 1000 Ang^3
#
#
#
# Elastic Constant Matrix: (Units=GPa)
#
#
# Indices 1 2 3 4 5 6 
#
# 1 142.9109 -5.7468 75.8562 0.0000 -9.7097 0.0000
# 2 -5.7468 19.6758 1.0391 0.0000 -0.3130 0.0000
# 3 75.8562 1.0391 127.2505 0.0000 -8.9593 0.0000
# 4 0.0000 0.0000 0.0000 8.6475 0.0000 1.4305
# 5 -9.7097 -0.3130 -8.9593 0.0000 10.6016 0.0000
# 6 0.0000 0.0000 0.0000 1.4305 0.0000 16.4245
#
#
#
# Elastic Compliance Matrix: (Units=1/GPa)
#
#
# Indices 1 2 3 4 5 6 
#
# 1 0.010678 0.003515 -0.006059 0.000000 0.004764 0.000000
# 2 0.003515 0.052018 -0.002323 0.000000 0.002791 0.000000
# 3 -0.006059 -0.002323 0.011796 0.000000 0.004351 0.000000
# 4 0.000000 0.000000 0.000000 0.117331 0.000000 -0.010219
# 5 0.004764 0.002791 0.004351 0.000000 0.102447 0.000000
# 6 0.000000 0.000000 0.000000 -0.010219 0.000000 0.061775
#
#
# Mechanical properties :
#
#
# Convention : Reuss Voigt Hill
#
# Bulk Modulus (GPa) = 15.44252 48.01493 31.72872
# Shear Modulus (GPa) = 12.90771 21.71395 17.31083
#
# Velocity S-wave (km/s) = 2.74499 3.56029 3.17888
# Velocity P-wave (km/s) = 4.36592 6.70298 5.65646
#
# Compressibility (1/GPa) = 0.06475627
#
# Stress axis : x y z
#
# Youngs Moduli (GPa) = 93.64740 19.22429 84.77748
#
# Poissons Ratio (x) = -0.06757 0.51366
# Poissons Ratio (y) = -0.32914 0.19697
# Poissons Ratio (z) = 0.56740 0.04467
#
# Static dielectric constant tensor:
#      x y z
#    x 1.579470 0.000000 -0.013070 
#    y 0.000000 1.633340 0.000000 
#    z -0.013070 0.000000 1.598310 
# 
# From -- ./inp_files/248372.got.cif
#   From: 2010.05.17/outbox.cif.g08.bks.cpg/sg12_125_cif.got.tgz:248372.got - 2010.06.03 13:09:07.
