data_PCOD9178390
_publ_section_title
;
Structure prediction by ZEFSAII (Michael W. Deem and Ramdas Pophale) SiO2 
 PCOD9178390
Probable space group: C 2/M
;
_chemical_formula_sum "Si O2"
_cell_formula_units_Z 64
_cell_length_a 5.085147
_cell_length_b 14.564690
_cell_length_c 40.295306
_cell_angle_alpha 90.000000
_cell_angle_beta 82.787103
_cell_angle_gamma 90.000000
_cell_volume 2960.797734
_symmetry_space_group_name_H-M "C 2/M"
_symmetry_group_IT_number 12
_symmetry_cell_setting 'monoclinic'
loop_
_space_group_symop_operation_xyz
x,y,z
-x,y,-z
-x,-y,-z
x,-y,z
1/2+x,1/2+y,z
1/2-x,1/2+y,-z
1/2-x,1/2-y,-z
1/2+x,1/2-y,z
loop_
_atom_site_type_symbol
_atom_site_label
_atom_site_fract_x
_atom_site_fract_y
_atom_site_fract_z
Si Si1 0.681287 0.390012 0.925564
Si Si2 0.584217 0.689690 0.855407
Si Si3 0.904735 0.186077 0.535131
Si Si4 0.313008 0.389863 0.285762
Si Si5 0.282100 0.189596 0.784467
Si Si6 0.142017 0.612451 0.964061
Si Si7 0.957151 0.189264 0.605790
Si Si8 0.275178 0.110228 0.323727
O O1 0.684664 0.500000 0.927333
O O2 0.622847 0.363190 0.888916
O O3 0.441983 0.357762 0.953065
O O4 0.961083 0.358316 0.935806
O O5 0.284003 0.723256 0.855502
O O6 0.683350 0.641583 0.819953
O O7 0.612434 0.228145 0.534965
O O8 0.927424 0.139011 0.570667
O O9 0.000000 0.136607 0.500000
O O10 0.318748 0.500000 0.287454
O O11 0.256275 0.363615 0.248978
O O12 0.589557 0.356358 0.296483
O O13 0.073074 0.356305 0.312958
O O14 0.582200 0.223394 0.784311
O O15 0.146470 0.500000 0.965060
O O16 0.000000 0.642641 0.000000
O O17 0.756687 0.276156 0.605643
O O18 0.854220 0.137061 0.639529
O O19 0.283948 0.000000 0.322210
#
# Coordination Sequence:
#
# PCOD9178390 Si02
#       8
#     8   8   8   8   8   8   8   8
#     4  10  19  32  54  79  99 129 172 207 238 285
#     4  10  21  37  54  74 104 136 161 196 251 298
#     4   8  14  25  41  63  91 119 151 197 245 281
#     4  10  21  36  53  73  99 131 163 198 244 292
#     4  10  21  36  55  77  99 128 165 202 243 290
#     4   9  17  30  50  77 105 130 163 209 250 281
#     4  10  19  30  48  73  95 123 166 205 237 283
#     4  10  21  35  49  70 102 133 157 192 248 298
#
# _framework density 21.615796
#
# number of rings (size 3 to 8) (size 9 to 14) (size 15 to 20)
#    0.000    2.375    0.000    2.625    0.000    5.000 
#    0.000    0.000    0.000   16.875    0.000    0.000 
#    0.000   13.000    0.000    0.000    0.000    2.000 
#
# Total GULP energy -178651.559370 kJ/mol
# GULP energy per Si atom -5582.861230 kJ/mol
# Density = 2.156660 g / cm^3
# Si number density = 21.615796 Si / 1000 Ang^3
#
#
#
# Elastic Constant Matrix: (Units=GPa)
#
#
# Indices 1 2 3 4 5 6 
#
# 1 80.7539 -3.0441 -5.6377 0.0000 1.6594 0.0000
# 2 -3.0441 27.3936 -3.7242 0.0000 -1.6334 0.0000
# 3 -5.6377 -3.7242 109.9717 0.0000 -4.4630 0.0000
# 4 0.0000 0.0000 0.0000 -58.3681 0.0000 8.1094
# 5 1.6594 -1.6334 -4.4630 0.0000 38.2820 0.0000
# 6 0.0000 0.0000 0.0000 8.1094 0.0000 3.5955
#
#
#
# Elastic Compliance Matrix: (Units=1/GPa)
#
#
# Indices 1 2 3 4 5 6 
#
# 1 0.012493 0.001456 0.000674 0.000000 -0.000401 0.000000
# 2 0.001456 0.036956 0.001394 0.000000 0.001676 0.000000
# 3 0.000674 0.001394 0.009220 0.000000 0.001105 0.000000
# 4 0.000000 0.000000 0.000000 -0.013045 0.000000 0.029422
# 5 -0.000401 0.001676 0.001105 0.000000 0.026340 0.000000
# 6 0.000000 0.000000 0.000000 0.029422 0.000000 0.211769
#
#
# Mechanical properties :
#
#
# Convention : Reuss Voigt Hill
#
# Bulk Modulus (GPa) = 15.21679 21.47858 18.34768
# Shear Modulus (GPa) = 16.74529 12.07022 14.40775
#
# Velocity S-wave (km/s) = 2.78632 2.36561 2.58454
# Velocity P-wave (km/s) = 4.17210 4.17367 4.17289
#
# Compressibility (1/GPa) = 0.06571688
#
# Stress axis : x y z
#
# Youngs Moduli (GPa) = 80.04198 27.05906 108.46168
#
# Poissons Ratio (x) = -0.03940 -0.07305
# Poissons Ratio (y) = -0.11654 -0.15122
# Poissons Ratio (z) = -0.05391 -0.03773
#
# Static dielectric constant tensor:
#      x y z
#    x 1.762440 0.000000 -0.006530 
#    y 0.000000 1.770950 0.000000 
#    z -0.006530 0.000000 1.825460 
# 
# From -- ./inp_files/371608.got.cif
#   From: 2010.05.17/outbox.cif.g08.bks.cpg/sg12_186_cif.got.tgz:371608.got - 2010.06.03 13:09:07.
