data_PCOD9178120
_publ_section_title
;
Structure prediction by ZEFSAII (Michael W. Deem and Ramdas Pophale) SiO2 
 PCOD9178120
Probable space group: C 2/M
;
_chemical_formula_sum "Si O2"
_cell_formula_units_Z 56
_cell_length_a 28.660020
_cell_length_b 8.561258
_cell_length_c 14.183806
_cell_angle_alpha 90.000000
_cell_angle_beta 58.894495
_cell_angle_gamma 90.000000
_cell_volume 2979.826186
_symmetry_space_group_name_H-M "C 2/M"
_symmetry_group_IT_number 12
_symmetry_cell_setting 'monoclinic'
loop_
_space_group_symop_operation_xyz
x,y,z
-x,y,-z
-x,-y,-z
x,-y,z
1/2+x,1/2+y,z
1/2-x,1/2+y,-z
1/2-x,1/2-y,-z
1/2+x,1/2-y,z
loop_
_atom_site_type_symbol
_atom_site_label
_atom_site_fract_x
_atom_site_fract_y
_atom_site_fract_z
Si Si1 0.721457 0.686956 0.435139
Si Si2 0.688814 0.813677 0.163257
Si Si3 0.478561 0.310384 0.376548
Si Si4 0.189372 0.315021 0.951786
Si Si5 0.884474 0.190241 0.351929
Si Si6 0.084663 0.811485 0.364898
Si Si7 0.821545 0.185765 0.231071
O O1 0.724230 0.500000 0.426981
O O2 0.750000 0.750000 0.500000
O O3 0.658763 0.730502 0.519713
O O4 0.759719 0.755664 0.314491
O O5 0.746960 0.732801 0.116302
O O6 0.643034 0.761336 0.284066
O O7 0.696909 0.000000 0.158387
O O8 0.669418 0.770265 0.077167
O O9 0.480496 0.500000 0.371233
O O10 0.444041 0.255919 0.322404
O O11 0.540217 0.259699 0.332577
O O12 0.443098 0.271297 0.506501
O O13 0.184935 0.500000 0.946573
O O14 0.161486 0.237564 0.890565
O O15 0.859775 0.244261 0.277548
O O16 0.885181 0.000000 0.347066
O O17 0.090007 0.000000 0.356906
O O18 0.820622 0.000000 0.237509
#
# Coordination Sequence:
#
# PCOD9178120 Si02
#       7
#     8   8   8   8   8   8   8
#     4   9  16  26  41  63  93 132 168 200 240 288
#     4  10  21  36  53  74 100 126 159 206 254 298
#     4   8  15  29  48  75 103 131 169 202 235 289
#     4  10  21  36  53  72  96 130 166 201 247 303
#     4   8  15  27  44  67  99 133 164 200 240 284
#     4   9  17  30  53  77  99 130 167 204 242 290
#     4  10  19  30  46  70  99 130 164 207 250 294
#
# _framework density 18.793042
#
# number of rings (size 3 to 8) (size 9 to 14) (size 15 to 20)
#    0.000    2.857    0.000    3.429    2.000    1.714 
#    0.000    1.429    0.000    6.857    0.000    6.000 
#    0.000    0.000    0.000    0.000    0.000    0.000 
#
# Total GULP energy -155983.944099 kJ/mol
# GULP energy per Si atom -5570.855146 kJ/mol
# Density = 1.875027 g / cm^3
# Si number density = 18.793042 Si / 1000 Ang^3
#
#
#
# Elastic Constant Matrix: (Units=GPa)
#
#
# Indices 1 2 3 4 5 6 
#
# 1 72.4527 1.0479 -5.1725 0.0000 10.5185 0.0000
# 2 1.0479 18.5336 1.3032 0.0000 6.2362 0.0000
# 3 -5.1725 1.3032 30.9500 0.0000 8.7391 0.0000
# 4 0.0000 0.0000 0.0000 21.7955 0.0000 5.8543
# 5 10.5185 6.2362 8.7391 0.0000 29.1011 0.0000
# 6 0.0000 0.0000 0.0000 5.8543 0.0000 12.6000
#
#
#
# Elastic Compliance Matrix: (Units=1/GPa)
#
#
# Indices 1 2 3 4 5 6 
#
# 1 0.015131 0.001209 0.004475 0.000000 -0.007072 0.000000
# 2 0.001209 0.058284 0.001528 0.000000 -0.013386 0.000000
# 3 0.004475 0.001528 0.036651 0.000000 -0.012951 0.000000
# 4 0.000000 0.000000 0.000000 0.052424 0.000000 -0.024358
# 5 -0.007072 -0.013386 -0.012951 0.000000 0.043677 0.000000
# 6 0.000000 0.000000 0.000000 -0.024358 0.000000 0.090682
#
#
# Mechanical properties :
#
#
# Convention : Reuss Voigt Hill
#
# Bulk Modulus (GPa) = 8.03284 12.92150 10.47717
# Shear Modulus (GPa) = 15.43586 21.01650 18.22618
#
# Velocity S-wave (km/s) = 2.86905 3.34775 3.11760
# Velocity P-wave (km/s) = 3.90626 4.67267 4.30655
#
# Compressibility (1/GPa) = 0.12448903
#
# Stress axis : x y z
#
# Youngs Moduli (GPa) = 66.09062 17.15725 27.28474
#
# Poissons Ratio (x) = -0.02075 -0.12209
# Poissons Ratio (y) = -0.07993 -0.04168
# Poissons Ratio (z) = -0.29573 -0.02621
#
# Static dielectric constant tensor:
#      x y z
#    x 1.699720 0.000000 0.027370 
#    y 0.000000 1.639280 0.000000 
#    z 0.027370 0.000000 1.655830 
# 
# From -- ./inp_files/248919.got.cif
#   From: 2010.05.17/outbox.cif.g08.bks.cpg/sg12_125_cif.got.tgz:248919.got - 2010.06.03 13:09:07.
