data_PCOD9178094
_publ_section_title
;
Structure prediction by ZEFSAII (Michael W. Deem and Ramdas Pophale) SiO2 
 PCOD9178094
Probable space group: C 2/M
;
_chemical_formula_sum "Si O2"
_cell_formula_units_Z 64
_cell_length_a 30.587638
_cell_length_b 7.696789
_cell_length_c 15.917480
_cell_angle_alpha 90.000000
_cell_angle_beta 119.192178
_cell_angle_gamma 90.000000
_cell_volume 3271.436114
_symmetry_space_group_name_H-M "C 2/M"
_symmetry_group_IT_number 12
_symmetry_cell_setting 'monoclinic'
loop_
_space_group_symop_operation_xyz
x,y,z
-x,y,-z
-x,-y,-z
x,-y,z
1/2+x,1/2+y,z
1/2-x,1/2+y,-z
1/2-x,1/2-y,-z
1/2+x,1/2-y,z
loop_
_atom_site_type_symbol
_atom_site_label
_atom_site_fract_x
_atom_site_fract_y
_atom_site_fract_z
Si Si1 0.236623 0.200551 0.126888
Si Si2 0.075050 0.199246 0.743370
Si Si3 0.374273 0.701599 0.671187
Si Si4 0.962581 0.211924 0.639481
Si Si5 0.678428 0.202001 0.913375
Si Si6 0.601523 0.204173 0.582869
Si Si7 0.704709 0.286579 0.278261
Si Si8 0.809267 0.710357 0.451924
O O1 0.286600 0.274407 0.129474
O O2 0.216372 0.274976 0.194987
O O3 0.249071 0.000000 0.158476
O O4 0.194813 0.209124 0.015106
O O5 0.120923 0.285564 0.834646
O O6 0.086881 0.205856 0.655246
O O7 0.019366 0.272479 0.703617
O O8 0.074197 0.000000 0.770605
O O9 0.385261 0.500000 0.699358
O O10 0.424593 0.775506 0.676419
O O11 0.346331 0.776728 0.726146
O O12 0.333337 0.712103 0.558041
O O13 0.939420 0.268392 0.528580
O O14 0.962171 0.000000 0.638400
O O15 0.692238 0.000000 0.936792
O O16 0.654128 0.260808 0.590891
O O17 0.605548 0.000000 0.605766
O O18 0.702421 0.500000 0.276217
O O19 0.752799 0.238002 0.379403
O O20 0.811747 0.500000 0.461183
#
# Coordination Sequence:
#
# PCOD9178094 Si02
#       8
#     8   8   8   8   8   8   8   8
#     4   9  18  34  53  73  98 123 147 183 234 284
#     4  11  21  32  48  68  93 126 160 194 234 276
#     4   9  17  30  47  67  92 124 161 195 226 265
#     4   9  19  33  46  65  95 127 160 198 233 267
#     4  10  20  34  52  74  98 121 149 187 230 281
#     4  10  19  30  46  69  97 127 159 194 232 278
#     4   9  16  28  49  71  92 122 156 189 228 275
#     4   9  17  29  44  67  99 128 153 186 230 274
#
# _framework density 19.563272999999999
#
# number of rings (size 3 to 8) (size 9 to 14) (size 15 to 20)
#    0.000    2.500    0.000    2.625    0.000    5.500 
#    0.000    1.250    0.000    0.750    0.000    5.250 
#    0.000    0.000    0.000    0.000    0.000    0.000 
#
# Total GULP energy -178549.930315 kJ/mol
# GULP energy per Si atom -5579.685322 kJ/mol
# Density = 1.951875 g / cm^3
# Si number density = 19.563273 Si / 1000 Ang^3
#
#
#
# Elastic Constant Matrix: (Units=GPa)
#
#
# Indices 1 2 3 4 5 6 
#
# 1 106.6060 -4.3162 34.5580 0.0000 4.9479 0.0000
# 2 -4.3162 33.7203 -10.5516 0.0000 -0.9337 0.0000
# 3 34.5580 -10.5516 25.7420 0.0000 4.4268 0.0000
# 4 0.0000 0.0000 0.0000 16.7212 0.0000 5.2828
# 5 4.9479 -0.9337 4.4268 0.0000 30.9986 0.0000
# 6 0.0000 0.0000 0.0000 5.2828 0.0000 7.1884
#
#
#
# Elastic Compliance Matrix: (Units=1/GPa)
#
#
# Indices 1 2 3 4 5 6 
#
# 1 0.017588 -0.005915 -0.026165 0.000000 0.000751 0.000000
# 2 -0.005915 0.036038 0.022927 0.000000 -0.001244 0.000000
# 3 -0.026165 0.022927 0.084611 0.000000 -0.007216 0.000000
# 4 0.000000 0.000000 0.000000 0.077889 0.000000 -0.057241
# 5 0.000751 -0.001244 -0.007216 0.000000 0.033133 0.000000
# 6 0.000000 0.000000 0.000000 -0.057241 0.000000 0.181180
#
#
# Mechanical properties :
#
#
# Convention : Reuss Voigt Hill
#
# Bulk Modulus (GPa) = 8.33810 22.82764 15.58287
# Shear Modulus (GPa) = 10.23076 20.74017 15.48546
#
# Velocity S-wave (km/s) = 2.28931 3.25954 2.81652
# Velocity P-wave (km/s) = 3.35548 5.08528 4.30809
#
# Compressibility (1/GPa) = 0.11993136
#
# Stress axis : x y z
#
# Youngs Moduli (GPa) = 56.85781 27.74818 11.81876
#
# Poissons Ratio (x) = 0.16414 0.30924
# Poissons Ratio (y) = 0.33633 -0.27097
# Poissons Ratio (z) = 1.48768 -0.63619
#
# Static dielectric constant tensor:
#      x y z
#    x 1.722850 0.000000 -0.015330 
#    y 0.000000 1.744840 0.000000 
#    z -0.015330 0.000000 1.645140 
# 
# From -- ./inp_files/249133.got.cif
#   From: 2010.05.17/outbox.cif.g08.bks.cpg/sg12_125_cif.got.tgz:249133.got - 2010.06.03 13:09:07.
