data_PCOD9178402
_publ_section_title
;
Structure prediction by ZEFSAII (Michael W. Deem and Ramdas Pophale) SiO2 
 PCOD9178402
Probable space group: C 2/M
;
_chemical_formula_sum "Si O2"
_cell_formula_units_Z 64
_cell_length_a 17.606721
_cell_length_b 9.707766
_cell_length_c 24.543171
_cell_angle_alpha 90.000000
_cell_angle_beta 59.623740
_cell_angle_gamma 90.000000
_cell_volume 3619.094849
_symmetry_space_group_name_H-M "C 2/M"
_symmetry_group_IT_number 12
_symmetry_cell_setting 'monoclinic'
loop_
_space_group_symop_operation_xyz
x,y,z
-x,y,-z
-x,-y,-z
x,-y,z
1/2+x,1/2+y,z
1/2-x,1/2+y,-z
1/2-x,1/2-y,-z
1/2+x,1/2-y,z
loop_
_atom_site_type_symbol
_atom_site_label
_atom_site_fract_x
_atom_site_fract_y
_atom_site_fract_z
Si Si1 0.898374 0.338257 0.182625
Si Si2 0.356350 0.158870 0.567792
Si Si3 0.573425 0.838973 0.191524
Si Si4 0.768477 0.839650 0.685839
Si Si5 0.536898 0.159786 0.573801
Si Si6 0.584005 0.337104 0.932898
Si Si7 0.242500 0.662311 0.057281
Si Si8 0.053114 0.839022 0.307069
O O1 0.884376 0.500000 0.174051
O O2 0.815125 0.291569 0.248937
O O3 0.909163 0.250398 0.124314
O O4 0.985915 0.328198 0.187061
O O5 0.288041 0.253277 0.624541
O O6 0.446670 0.162524 0.570764
O O7 0.385950 0.200459 0.496238
O O8 0.327477 0.000000 0.576822
O O9 0.656899 0.801449 0.123931
O O10 0.565770 0.741725 0.246354
O O11 0.583790 0.000000 0.204571
O O12 0.855078 0.830884 0.692596
O O13 0.754707 0.000000 0.676866
O O14 0.519800 0.260876 0.630040
O O15 0.549690 0.000000 0.585932
O O16 0.575903 0.500000 0.922837
O O17 0.671426 0.317667 0.936983
O O18 0.500000 0.297688 0.000000
O O19 0.236083 0.500000 0.045915
O O20 0.250000 0.750000 0.000000
O O21 0.032535 0.000000 0.306680
#
# Coordination Sequence:
#
# PCOD9178402 Si02
#       8
#     8   8   8   8   8   8   8   8
#     4  10  21  36  53  73  98 132 171 205 243 292
#     4   8  14  25  44  70  97 128 164 199 242 296
#     4  10  21  36  52  71  98 132 169 206 243 289
#     4   9  18  31  47  71 101 128 159 204 252 294
#     4   8  14  26  44  68  99 130 161 200 244 293
#     4  10  21  36  54  78 106 132 161 202 250 294
#     4  10  21  36  55  79 104 132 166 202 244 292
#     4  10  19  30  48  74 100 128 163 203 250 298
#
# _framework density 17.683980999999999
#
# number of rings (size 3 to 8) (size 9 to 14) (size 15 to 20)
#    0.000    2.625    0.000    2.625    0.000    3.250 
#    0.000    2.500    0.000    0.750    0.000    0.000 
#    0.000    0.000    0.000    0.000    0.000    0.000 
#
# Total GULP energy -178492.493931 kJ/mol
# GULP energy per Si atom -5577.890435 kJ/mol
# Density = 1.764373 g / cm^3
# Si number density = 17.683981 Si / 1000 Ang^3
#
#
#
# Elastic Constant Matrix: (Units=GPa)
#
#
# Indices 1 2 3 4 5 6 
#
# 1 23.5781 33.5933 50.5385 0.0000 -6.6210 0.0000
# 2 33.5933 97.5759 119.3097 0.0000 6.1303 0.0000
# 3 50.5385 119.3097 215.4813 0.0000 -7.8330 0.0000
# 4 0.0000 0.0000 0.0000 41.7520 0.0000 1.5844
# 5 -6.6210 6.1303 -7.8330 0.0000 21.7997 0.0000
# 6 0.0000 0.0000 0.0000 1.5844 0.0000 7.2294
#
#
#
# Elastic Compliance Matrix: (Units=1/GPa)
#
#
# Indices 1 2 3 4 5 6 
#
# 1 0.120825 -0.036299 -0.006621 0.000000 0.044525 0.000000
# 2 -0.036299 0.048751 -0.019635 0.000000 -0.031789 0.000000
# 3 -0.006621 -0.019635 0.017421 0.000000 0.009770 0.000000
# 4 0.000000 0.000000 0.000000 0.024152 0.000000 -0.005293
# 5 0.044525 -0.031789 0.009770 0.000000 0.071845 0.000000
# 6 0.000000 0.000000 0.000000 -0.005293 0.000000 0.139484
#
#
# Mechanical properties :
#
#
# Convention : Reuss Voigt Hill
#
# Bulk Modulus (GPa) = 16.15867 82.61313 49.38590
# Shear Modulus (GPa) = 8.79946 23.03582 15.91764
#
# Velocity S-wave (km/s) = 2.23310 3.61312 3.00345
# Velocity P-wave (km/s) = 3.97571 8.01399 6.32575
#
# Compressibility (1/GPa) = 0.06188629
#
# Stress axis : x y z
#
# Youngs Moduli (GPa) = 8.27645 20.51239 57.40350
#
# Poissons Ratio (x) = 0.74458 0.38007
# Poissons Ratio (y) = 0.30043 1.12712
# Poissons Ratio (z) = 0.05480 0.40276
#
# Static dielectric constant tensor:
#      x y z
#    x 1.593050 0.000000 -0.014920 
#    y 0.000000 1.593680 0.000000 
#    z -0.014920 0.000000 1.583420 
# 
# From -- ./inp_files/345988.got.cif
#   From: 2010.05.17/outbox.cif.g08.bks.cpg/sg12_173_cif.got.tgz:345988.got - 2010.06.03 13:09:07.
