data_PCOD9178788
_publ_section_title
;
Structure prediction by ZEFSAII (Michael W. Deem and Ramdas Pophale) SiO2 
 PCOD9178788
Probable space group: C 2/M
;
_chemical_formula_sum "Si O2"
_cell_formula_units_Z 64
_cell_length_a 24.308024
_cell_length_b 7.523287
_cell_length_c 16.547607
_cell_angle_alpha 90.000000
_cell_angle_beta 74.116974
_cell_angle_gamma 90.000000
_cell_volume 2910.632566
_symmetry_space_group_name_H-M "C 2/M"
_symmetry_group_IT_number 12
_symmetry_cell_setting 'monoclinic'
loop_
_space_group_symop_operation_xyz
x,y,z
-x,y,-z
-x,-y,-z
x,-y,z
1/2+x,1/2+y,z
1/2-x,1/2+y,-z
1/2-x,1/2-y,-z
1/2+x,1/2-y,z
loop_
_atom_site_type_symbol
_atom_site_label
_atom_site_fract_x
_atom_site_fract_y
_atom_site_fract_z
Si Si1 0.879811 0.781704 0.875039
Si Si2 0.504420 0.293623 0.245636
Si Si3 0.217476 0.203853 0.212123
Si Si4 0.699710 0.710830 0.956062
Si Si5 0.642381 0.215879 0.478676
Si Si6 0.457756 0.214697 0.589981
Si Si7 0.256873 0.703052 0.368636
Si Si8 0.617557 0.708165 0.668071
O O1 0.943036 0.718512 0.827221
O O2 0.833875 0.725940 0.824368
O O3 0.878578 0.000000 0.874285
O O4 0.856215 0.727380 0.972582
O O5 0.499440 0.500000 0.223694
O O6 0.524979 0.287966 0.330539
O O7 0.440419 0.214948 0.270283
O O8 0.275858 0.209678 0.135880
O O9 0.229378 0.299789 0.290765
O O10 0.204031 0.000000 0.236480
O O11 0.695122 0.500000 0.945219
O O12 0.750000 0.750000 0.000000
O O13 0.604712 0.268058 0.416610
O O14 0.707187 0.282448 0.444512
O O15 0.613231 0.278005 0.572759
O O16 0.642985 0.000000 0.480571
O O17 0.500000 0.265636 0.500000
O O18 0.460010 0.000000 0.595854
O O19 0.265409 0.500000 0.392321
O O20 0.319767 0.786996 0.339154
O O21 0.618997 0.500000 0.690704
#
# Coordination Sequence:
#
# PCOD9178788 Si02
#       8
#     8   8   8   8   8   8   8   8
#     4   8  16  30  49  75 102 124 152 191 235 284
#     4  10  19  32  50  71  96 127 161 197 237 283
#     4  10  19  32  51  76 101 126 158 197 241 290
#     4   9  16  29  50  75 104 132 156 190 237 289
#     4  10  20  34  51  68  93 127 162 202 246 289
#     4  10  19  31  46  67  95 124 157 195 238 287
#     4  10  21  35  49  69  95 126 164 204 243 283
#     4  10  21  34  49  69  94 125 165 206 240 280
#
# _framework density 21.988347999999998
#
# number of rings (size 3 to 8) (size 9 to 14) (size 15 to 20)
#    0.000    2.375    1.250    2.625    0.000    1.750 
#    0.000    3.125    0.000    0.750    0.000    5.250 
#    0.000    0.000    0.000    0.000    0.000    0.000 
#
# Total GULP energy -178568.992571 kJ/mol
# GULP energy per Si atom -5580.281018 kJ/mol
# Density = 2.193830 g / cm^3
# Si number density = 21.988348 Si / 1000 Ang^3
#
#
#
# Elastic Constant Matrix: (Units=GPa)
#
#
# Indices 1 2 3 4 5 6 
#
# 1 138.5830 7.2015 23.8686 0.0000 -47.7810 0.0000
# 2 7.2015 64.2595 -3.4511 0.0000 -2.1483 0.0000
# 3 23.8686 -3.4511 56.1949 0.0000 -36.8328 0.0000
# 4 0.0000 0.0000 0.0000 10.7312 0.0000 2.6598
# 5 -47.7810 -2.1483 -36.8328 0.0000 46.2434 0.0000
# 6 0.0000 0.0000 0.0000 2.6598 0.0000 3.8761
#
#
#
# Elastic Compliance Matrix: (Units=1/GPa)
#
#
# Indices 1 2 3 4 5 6 
#
# 1 0.012249 -0.000437 0.006387 0.000000 0.017724 0.000000
# 2 -0.000437 0.015847 0.002815 0.000000 0.002526 0.000000
# 3 0.006387 0.002815 0.041149 0.000000 0.039505 0.000000
# 4 0.000000 0.000000 0.000000 0.112284 0.000000 -0.077052
# 5 0.017724 0.002526 0.039505 0.000000 0.071521 0.000000
# 6 0.000000 0.000000 0.000000 -0.077052 0.000000 0.310867
#
#
# Mechanical properties :
#
#
# Convention : Reuss Voigt Hill
#
# Bulk Modulus (GPa) = 11.52414 34.91949 23.22182
# Shear Modulus (GPa) = 8.69093 27.59803 18.14448
#
# Velocity S-wave (km/s) = 1.99025 3.54661 2.87572
# Velocity P-wave (km/s) = 3.24559 5.71722 4.64868
#
# Compressibility (1/GPa) = 0.08677434
#
# Stress axis : x y z
#
# Youngs Moduli (GPa) = 81.63686 63.10530 24.30215
#
# Poissons Ratio (x) = 0.02759 -0.15522
# Poissons Ratio (y) = 0.03569 -0.06841
# Poissons Ratio (z) = -0.52144 -0.17763
#
# Static dielectric constant tensor:
#      x y z
#    x 1.863590 0.000000 -0.051870 
#    y 0.000000 1.851920 0.000000 
#    z -0.051870 0.000000 1.791440 
# 
# From -- ./inp_files/287536.got.cif
#   From: 2010.05.17/outbox.cif.g08.bks.cpg/sg12_144_cif.got.tgz:287536.got - 2010.06.03 13:09:07.
