data_PCOD9178353
_publ_section_title
;
Structure prediction by ZEFSAII (Michael W. Deem and Ramdas Pophale) SiO2 
 PCOD9178353
Probable space group: C 2/M
;
_chemical_formula_sum "Si O2"
_cell_formula_units_Z 64
_cell_length_a 26.056914
_cell_length_b 24.249386
_cell_length_c 5.367475
_cell_angle_alpha 90.000000
_cell_angle_beta 108.876058
_cell_angle_gamma 90.000000
_cell_volume 3209.121568
_symmetry_space_group_name_H-M "C 2/M"
_symmetry_group_IT_number 12
_symmetry_cell_setting 'monoclinic'
loop_
_space_group_symop_operation_xyz
x,y,z
-x,y,-z
-x,-y,-z
x,-y,z
1/2+x,1/2+y,z
1/2-x,1/2+y,-z
1/2-x,1/2-y,-z
1/2+x,1/2-y,z
loop_
_atom_site_type_symbol
_atom_site_label
_atom_site_fract_x
_atom_site_fract_y
_atom_site_fract_z
Si Si1 0.791851 0.360676 0.841413
Si Si2 0.742845 0.560676 0.115041
Si Si3 0.631359 0.562055 0.655033
Si Si4 0.969638 0.933527 0.199708
Si Si5 0.286555 0.255114 0.806736
Si Si6 0.377098 0.066222 0.738644
Si Si7 0.439880 0.066791 0.338103
Si Si8 0.816406 0.135357 0.611399
O O1 0.785020 0.393743 0.086992
O O2 0.820843 0.301487 0.881092
O O3 0.821483 0.402591 0.704784
O O4 0.730205 0.348664 0.660529
O O5 0.767364 0.500000 0.182175
O O6 0.693572 0.556904 0.839149
O O7 0.710578 0.582722 0.299108
O O8 0.614321 0.500000 0.538517
O O9 0.593386 0.577082 0.830774
O O10 0.631946 0.610827 0.452522
O O11 0.000000 0.915772 0.500000
O O12 0.973367 0.000000 0.191634
O O13 0.000000 0.912285 0.000000
O O14 0.250000 0.250000 0.500000
O O15 0.317944 0.313105 0.807425
O O16 0.250000 0.250000 0.000000
O O17 0.402017 0.081065 0.511994
O O18 0.370244 0.000000 0.739962
O O19 0.416243 0.082792 0.032030
O O20 0.500000 0.086938 0.500000
O O21 0.442441 0.000000 0.334910
#
# Coordination Sequence:
#
# PCOD9178353 Si02
#       8
#     8   8   8   8   8   8   8   8
#     4  10  21  34  48  74 107 136 180 215 263 307
#     4  10  19  30  48  71 106 144 170 203 255 320
#     4   9  19  32  47  74 105 138 177 216 263 328
#     4   9  18  31  48  70  99 133 167 211 261 307
#     4  10  20  36  54  71  98 139 181 223 255 294
#     4  10  20  31  50  77 107 137 169 212 262 315
#     4   9  18  33  51  73 104 140 172 206 253 314
#     4  10  20  33  51  71 102 144 181 221 260 315
#
# _framework density 19.943152999999999
#
# number of rings (size 3 to 8) (size 9 to 14) (size 15 to 20)
#    0.000    2.375    1.250    1.125    3.500    3.000 
#    0.000    0.000    0.000    0.000    0.000    0.875 
#    3.750    0.000    0.000    0.000    0.000    0.000 
#
# Total GULP energy -178154.843541 kJ/mol
# GULP energy per Si atom -5567.338861 kJ/mol
# Density = 1.989776 g / cm^3
# Si number density = 19.943153 Si / 1000 Ang^3
#
#
#
# Elastic Constant Matrix: (Units=GPa)
#
#
# Indices 1 2 3 4 5 6 
#
# 1 84.2319 31.0773 29.9470 0.0000 -19.2934 0.0000
# 2 31.0773 86.6015 27.6033 0.0000 -17.3396 0.0000
# 3 29.9470 27.6033 93.0939 0.0000 -20.7500 0.0000
# 4 0.0000 0.0000 0.0000 13.2689 0.0000 -2.9981
# 5 -19.2934 -17.3396 -20.7500 0.0000 34.2140 0.0000
# 6 0.0000 0.0000 0.0000 -2.9981 0.0000 6.1079
#
#
#
# Elastic Compliance Matrix: (Units=1/GPa)
#
#
# Indices 1 2 3 4 5 6 
#
# 1 0.015355 -0.003607 -0.002714 0.000000 0.005185 0.000000
# 2 -0.003607 0.014327 -0.002223 0.000000 0.003878 0.000000
# 3 -0.002714 -0.002223 0.013508 0.000000 0.005535 0.000000
# 4 0.000000 0.000000 0.000000 0.084765 0.000000 0.041608
# 5 0.005185 0.003878 0.005535 0.000000 0.037474 0.000000
# 6 0.000000 0.000000 0.000000 0.041608 0.000000 0.184147
#
#
# Mechanical properties :
#
#
# Convention : Reuss Voigt Hill
#
# Bulk Modulus (GPa) = 38.31334 49.02029 43.66682
# Shear Modulus (GPa) = 13.32034 22.40481 17.86258
#
# Velocity S-wave (km/s) = 2.58721 3.35540 2.99603
# Velocity P-wave (km/s) = 5.30828 6.29643 5.82335
#
# Compressibility (1/GPa) = 0.02610057
#
# Stress axis : x y z
#
# Youngs Moduli (GPa) = 65.12352 69.79963 74.03066
#
# Poissons Ratio (x) = 0.25177 0.20095
# Poissons Ratio (y) = 0.23491 0.16459
# Poissons Ratio (z) = 0.17678 0.15518
#
# Static dielectric constant tensor:
#      x y z
#    x 1.751760 0.000000 0.014020 
#    y 0.000000 1.784480 0.000000 
#    z 0.014020 0.000000 1.898700 
# 
# From -- ./inp_files/26087.got.cif
#   From: 2010.05.17/outbox.cif.g08.bks.cpg/sg12_14_cif.got.tgz:26087.got - 2010.06.03 13:09:07.
