data_PCOD9178869
_publ_section_title
;
Structure prediction by ZEFSAII (Michael W. Deem and Ramdas Pophale) SiO2 
 PCOD9178869
Probable space group: C 2/M
;
_chemical_formula_sum "Si O2"
_cell_formula_units_Z 56
_cell_length_a 27.338024
_cell_length_b 9.038830
_cell_length_c 14.801595
_cell_angle_alpha 90.000000
_cell_angle_beta 103.268649
_cell_angle_gamma 90.000000
_cell_volume 3559.890454
_symmetry_space_group_name_H-M "C 2/M"
_symmetry_group_IT_number 12
_symmetry_cell_setting 'monoclinic'
loop_
_space_group_symop_operation_xyz
x,y,z
-x,y,-z
-x,-y,-z
x,-y,z
1/2+x,1/2+y,z
1/2-x,1/2+y,-z
1/2-x,1/2-y,-z
1/2+x,1/2-y,z
loop_
_atom_site_type_symbol
_atom_site_label
_atom_site_fract_x
_atom_site_fract_y
_atom_site_fract_z
Si Si1 0.316001 0.824011 0.726522
Si Si2 0.623705 0.171550 0.714505
Si Si3 0.636004 0.822094 0.435543
Si Si4 0.441324 0.676508 0.462304
Si Si5 0.716822 0.171239 0.614121
Si Si6 0.708101 0.675363 0.103393
Si Si7 0.315482 0.324544 0.111117
O O1 0.356523 0.786345 0.666280
O O2 0.262356 0.773227 0.663319
O O3 0.320976 0.742323 0.823942
O O4 0.316141 0.000000 0.739602
O O5 0.580826 0.251422 0.638247
O O6 0.673268 0.176647 0.671548
O O7 0.639930 0.251826 0.813093
O O8 0.611335 0.000000 0.724337
O O9 0.591273 0.742113 0.468882
O O10 0.687775 0.784218 0.510551
O O11 0.630105 0.000000 0.443199
O O12 0.500000 0.709613 0.500000
O O13 0.434509 0.500000 0.455804
O O14 0.733808 0.000000 0.613758
O O15 0.715597 0.500000 0.118940
O O16 0.762696 0.752406 0.119862
O O17 0.681787 0.699993 0.995496
O O18 0.313504 0.500000 0.127077
#
# Coordination Sequence:
#
# PCOD9178869 Si02
#       7
#     8   8   8   8   8   8   8
#     4  11  20  29  44  67  95 130 167 199 235 279
#     4  10  19  31  50  73  98 128 161 198 243 291
#     4   9  20  34  47  67  94 126 163 198 237 288
#     4  10  21  36  54  76  98 122 157 199 242 290
#     4   9  17  29  43  63  93 127 162 197 232 277
#     4  10  20  31  44  65  96 133 169 203 239 278
#     4  10  19  31  47  67  93 129 170 206 238 277
#
# _framework density 15.730822
#
# number of rings (size 3 to 8) (size 9 to 14) (size 15 to 20)
#    0.000    2.143    1.429    3.429    0.000    6.286 
#    0.000    0.000    0.000    0.000    0.000    1.000 
#    0.000    8.000    0.000    0.000    0.000    0.000 
#
# Total GULP energy -156212.289971 kJ/mol
# GULP energy per Si atom -5579.010356 kJ/mol
# Density = 1.569502 g / cm^3
# Si number density = 15.730822 Si / 1000 Ang^3
#
#
#
# Elastic Constant Matrix: (Units=GPa)
#
#
# Indices 1 2 3 4 5 6 
#
# 1 56.7179 45.2960 54.6714 0.0000 3.3626 0.0000
# 2 45.2960 84.5907 75.1611 0.0000 -0.1555 0.0000
# 3 54.6714 75.1611 133.4115 0.0000 -8.8834 0.0000
# 4 0.0000 0.0000 0.0000 28.4706 0.0000 -1.4490
# 5 3.3626 -0.1555 -8.8834 0.0000 22.0674 0.0000
# 6 0.0000 0.0000 0.0000 -1.4490 0.0000 18.5347
#
#
#
# Elastic Compliance Matrix: (Units=1/GPa)
#
#
# Indices 1 2 3 4 5 6 
#
# 1 0.035743 -0.011217 -0.008935 0.000000 -0.009123 0.000000
# 2 -0.011217 0.027820 -0.011252 0.000000 -0.002624 0.000000
# 3 -0.008935 -0.011252 0.018066 0.000000 0.008555 0.000000
# 4 0.000000 0.000000 0.000000 0.035264 0.000000 0.002757
# 5 -0.009123 -0.002624 0.008555 0.000000 0.050131 0.000000
# 6 0.000000 0.000000 0.000000 0.002757 0.000000 0.054168
#
#
# Mechanical properties :
#
#
# Convention : Reuss Voigt Hill
#
# Bulk Modulus (GPa) = 53.13038 69.44189 61.28614
# Shear Modulus (GPa) = 17.22512 20.45399 18.83955
#
# Velocity S-wave (km/s) = 3.31266 3.60981 3.46442
# Velocity P-wave (km/s) = 6.96273 7.84946 7.41935
#
# Compressibility (1/GPa) = 0.01882162
#
# Stress axis : x y z
#
# Youngs Moduli (GPa) = 27.97766 35.94495 55.35317
#
# Poissons Ratio (x) = 0.40318 0.49460
# Poissons Ratio (y) = 0.31382 0.62281
# Poissons Ratio (z) = 0.24999 0.40444
#
# Static dielectric constant tensor:
#      x y z
#    x 1.498110 0.000000 -0.021890 
#    y 0.000000 1.526490 0.000000 
#    z -0.021890 0.000000 1.549990 
# 
# From -- ./inp_files/244311.got.cif
#   From: 2010.05.17/outbox.cif.g08.bks.cpg/sg12_123_cif.got.tgz:244311.got - 2010.06.03 13:09:07.
