data_PCOD9178546
_publ_section_title
;
Structure prediction by ZEFSAII (Michael W. Deem and Ramdas Pophale) SiO2 
 PCOD9178546
Probable space group: C 2/M
;
_chemical_formula_sum "Si O2"
_cell_formula_units_Z 64
_cell_length_a 14.506031
_cell_length_b 19.346591
_cell_length_c 11.660389
_cell_angle_alpha 90.000000
_cell_angle_beta 70.132559
_cell_angle_gamma 90.000000
_cell_volume 3077.629255
_symmetry_space_group_name_H-M "C 2/M"
_symmetry_group_IT_number 12
_symmetry_cell_setting 'monoclinic'
loop_
_space_group_symop_operation_xyz
x,y,z
-x,y,-z
-x,-y,-z
x,-y,z
1/2+x,1/2+y,z
1/2-x,1/2+y,-z
1/2-x,1/2-y,-z
1/2+x,1/2-y,z
loop_
_atom_site_type_symbol
_atom_site_label
_atom_site_fract_x
_atom_site_fract_y
_atom_site_fract_z
Si Si1 0.777182 0.146260 0.835769
Si Si2 0.118690 0.803191 0.624812
Si Si3 0.909257 0.299114 0.959329
Si Si4 0.105530 0.132436 0.008857
Si Si5 0.217972 0.659137 0.623435
Si Si6 0.585025 0.234337 0.295419
Si Si7 0.192843 0.922967 0.753523
Si Si8 0.390596 0.890930 0.548646
O O1 0.737599 0.117998 0.732006
O O2 0.821631 0.219111 0.772576
O O3 0.687494 0.162392 0.957845
O O4 0.861845 0.110991 0.876600
O O5 0.164717 0.733477 0.660541
O O6 0.181432 0.823213 0.486527
O O7 0.133568 0.866294 0.705381
O O8 0.006968 0.784633 0.648408
O O9 0.931901 0.308113 0.815319
O O10 0.894384 0.216290 0.985643
O O11 0.000000 0.320211 0.000000
O O12 0.184306 0.102974 0.886795
O O13 0.000000 0.112015 0.000000
O O14 0.150704 0.618252 0.561545
O O15 0.599345 0.184534 0.396219
O O16 0.303769 0.923789 0.659556
O O17 0.151919 0.000000 0.760177
O O18 0.500000 0.920567 0.500000
#
# Coordination Sequence:
#
# PCOD9178546 Si02
#       8
#     8   8   8   8   8   8   8   8
#     4  11  20  30  51  81 118 150 186 239 308 371
#     4  10  19  34  55  84 117 153 196 240 307 361
#     4  10  19  30  49  78 118 151 182 236 298 370
#     4  10  20  37  55  79 108 152 202 250 299 354
#     4  10  20  33  53  87 122 149 190 249 311 372
#     4  11  19  31  54  83 118 153 191 245 309 361
#     4  11  23  39  59  83 119 162 211 256 292 358
#     4  11  22  36  58  88 121 161 200 247 307 369
#
# _framework density 20.795227000000001
#
# number of rings (size 3 to 8) (size 9 to 14) (size 15 to 20)
#    0.000    1.500    1.250    9.000    0.000    0.500 
#    0.000    0.000    0.000    3.000    0.000   30.625 
#    0.000    0.000    0.000    0.000    0.000    0.000 
#
# Total GULP energy -178732.037370 kJ/mol
# GULP energy per Si atom -5585.376168 kJ/mol
# Density = 2.074790 g / cm^3
# Si number density = 20.795227 Si / 1000 Ang^3
#
#
#
# Elastic Constant Matrix: (Units=GPa)
#
#
# Indices 1 2 3 4 5 6 
#
# 1 126.4122 7.0542 54.8402 0.0000 12.6271 0.0000
# 2 7.0542 35.9206 16.8601 0.0000 0.6465 0.0000
# 3 54.8402 16.8601 107.9422 0.0000 28.3194 0.0000
# 4 0.0000 0.0000 0.0000 -45.3232 0.0000 -29.0632
# 5 12.6271 0.6465 28.3194 0.0000 37.1128 0.0000
# 6 0.0000 0.0000 0.0000 -29.0632 0.0000 -18.4480
#
#
#
# Elastic Compliance Matrix: (Units=1/GPa)
#
#
# Indices 1 2 3 4 5 6 
#
# 1 0.010167 0.000538 -0.005426 0.000000 0.000672 0.000000
# 2 0.000538 0.030510 -0.006066 0.000000 0.003914 0.000000
# 3 -0.005426 -0.006066 0.015574 0.000000 -0.009932 0.000000
# 4 0.000000 0.000000 0.000000 2.158762 0.000000 -3.400938
# 5 0.000672 0.003914 -0.009932 0.000000 0.034227 0.000000
# 6 0.000000 0.000000 0.000000 -3.400938 0.000000 5.303670
#
#
# Mechanical properties :
#
#
# Convention : Reuss Voigt Hill
#
# Bulk Modulus (GPa) = 29.11677 47.53155 38.32416
# Shear Modulus (GPa) = 0.65909 7.43635 4.04772
#
# Velocity S-wave (km/s) = 0.56359 1.89308 1.39667
# Velocity P-wave (km/s) = 3.80205 5.26164 4.59023
#
# Compressibility (1/GPa) = 0.03434446
#
# Stress axis : x y z
#
# Youngs Moduli (GPa) = 98.35432 32.77594 64.20961
#
# Poissons Ratio (x) = -0.01763 0.34838
# Poissons Ratio (y) = -0.05291 0.38948
# Poissons Ratio (z) = 0.53364 0.19881
#
# Static dielectric constant tensor:
#      x y z
#    x 1.813470 0.000000 0.029450 
#    y 0.000000 1.701300 0.000000 
#    z 0.029450 0.000000 1.796460 
# 
# From -- ./inp_files/147617.got.cif
#   From: 2010.05.17/outbox.cif.g08.bks.cpg/sg12_74_cif.got.tgz:147617.got - 2010.06.03 13:09:07.
