data_PCOD9178653
_publ_section_title
;
Structure prediction by ZEFSAII (Michael W. Deem and Ramdas Pophale) SiO2 
 PCOD9178653
Probable space group: C 2/M
;
_chemical_formula_sum "Si O2"
_cell_formula_units_Z 64
_cell_length_a 25.564740
_cell_length_b 7.687026
_cell_length_c 15.877275
_cell_angle_alpha 90.000000
_cell_angle_beta 69.644878
_cell_angle_gamma 90.000000
_cell_volume 2925.312893
_symmetry_space_group_name_H-M "C 2/M"
_symmetry_group_IT_number 12
_symmetry_cell_setting 'monoclinic'
loop_
_space_group_symop_operation_xyz
x,y,z
-x,y,-z
-x,-y,-z
x,-y,z
1/2+x,1/2+y,z
1/2-x,1/2+y,-z
1/2-x,1/2-y,-z
1/2+x,1/2-y,z
loop_
_atom_site_type_symbol
_atom_site_label
_atom_site_fract_x
_atom_site_fract_y
_atom_site_fract_z
Si Si1 0.465599 0.707786 0.138461
Si Si2 0.706522 0.709087 0.951160
Si Si3 0.915820 0.787375 0.994002
Si Si4 0.915097 0.700175 0.503018
Si Si5 0.400544 0.212778 0.699397
Si Si6 0.015898 0.708783 0.691431
Si Si7 0.709372 0.702603 0.446286
Si Si8 0.725244 0.210445 0.245978
O O1 0.467827 0.500000 0.130026
O O2 0.424850 0.764780 0.086671
O O3 0.451703 0.750426 0.241514
O O4 0.528250 0.774473 0.083833
O O5 0.703125 0.500000 0.947161
O O6 0.644039 0.774490 0.004164
O O7 0.730263 0.771843 0.847783
O O8 0.750000 0.750000 0.000000
O O9 0.916154 0.000000 0.989292
O O10 0.933241 0.500000 0.502101
O O11 0.917141 0.773376 0.595922
O O12 0.850099 0.702426 0.514265
O O13 0.952663 0.778573 0.408586
O O14 0.451443 0.270242 0.729774
O O15 0.336890 0.269357 0.748550
O O16 0.398840 0.000000 0.701088
O O17 0.014293 0.500000 0.685725
O O18 0.696614 0.500000 0.458858
O O19 0.750000 0.750000 0.500000
O O20 0.733222 0.737858 0.338998
O O21 0.725337 0.000000 0.245240
#
# Coordination Sequence:
#
# PCOD9178653 Si02
#       8
#     8   8   8   8   8   8   8   8
#     4   9  18  34  54  73  99 143 185 221 267 325
#     4  10  21  36  57  84 111 144 185 233 282 333
#     4   8  17  36  55  71 101 142 182 219 269 328
#     4   9  18  34  52  74 106 143 179 215 259 316
#     4   8  15  30  51  72 102 142 176 209 260 322
#     4  10  19  30  51  81 108 136 175 221 267 314
#     4  11  22  37  58  81 108 143 181 225 275 329
#     4   9  19  36  55  78 109 146 187 227 274 330
#
# _framework density 21.878
#
# number of rings (size 3 to 8) (size 9 to 14) (size 15 to 20)
#    0.000    2.750    0.000    3.000    1.750    3.500 
#    0.000    5.625    0.000    3.750    0.000    0.000 
#    0.000    0.000    0.000    0.000    0.000    0.000 
#
# Total GULP energy -178534.935149 kJ/mol
# GULP energy per Si atom -5579.216723 kJ/mol
# Density = 2.182820 g / cm^3
# Si number density = 21.878000 Si / 1000 Ang^3
#
#
#
# Elastic Constant Matrix: (Units=GPa)
#
#
# Indices 1 2 3 4 5 6 
#
# 1 94.8164 -3.7244 9.8358 0.0000 12.3209 0.0000
# 2 -3.7244 42.5521 -3.6164 0.0000 -4.9504 0.0000
# 3 9.8358 -3.6164 25.1398 0.0000 -0.3330 0.0000
# 4 0.0000 0.0000 0.0000 18.1346 0.0000 7.1304
# 5 12.3209 -4.9504 -0.3330 0.0000 25.4163 0.0000
# 6 0.0000 0.0000 0.0000 7.1304 0.0000 10.4835
#
#
#
# Elastic Compliance Matrix: (Units=1/GPa)
#
#
# Indices 1 2 3 4 5 6 
#
# 1 0.011783 -0.000040 -0.004692 0.000000 -0.005781 0.000000
# 2 -0.000040 0.024361 0.003584 0.000000 0.004811 0.000000
# 3 -0.004692 0.003584 0.042176 0.000000 0.003525 0.000000
# 4 0.000000 0.000000 0.000000 0.075274 0.000000 -0.051198
# 5 -0.005781 0.004811 0.003525 0.000000 0.043131 0.000000
# 6 0.000000 0.000000 0.000000 -0.051198 0.000000 0.130210
#
#
# Mechanical properties :
#
#
# Convention : Reuss Voigt Hill
#
# Bulk Modulus (GPa) = 13.15396 18.61094 15.88245
# Shear Modulus (GPa) = 14.10148 21.47445 17.78797
#
# Velocity S-wave (km/s) = 2.54155 3.13638 2.85450
# Velocity P-wave (km/s) = 3.82598 4.65199 4.25905
#
# Compressibility (1/GPa) = 0.07602276
#
# Stress axis : x y z
#
# Youngs Moduli (GPa) = 84.86695 41.04858 23.71038
#
# Poissons Ratio (x) = 0.00164 0.11126
# Poissons Ratio (y) = 0.00340 -0.08497
# Poissons Ratio (z) = 0.39823 -0.14711
#
# Static dielectric constant tensor:
#      x y z
#    x 1.825400 0.000000 -0.009490 
#    y 0.000000 1.820000 0.000000 
#    z -0.009490 0.000000 1.798860 
# 
# From -- ./inp_files/243805.got.cif
#   From: 2010.05.17/outbox.cif.g08.bks.cpg/sg12_122_cif.got.tgz:243805.got - 2010.06.03 13:09:07.
