data_PCOD9178841
_publ_section_title
;
Structure prediction by ZEFSAII (Michael W. Deem and Ramdas Pophale) SiO2 
 PCOD9178841
Probable space group: C 2/M
;
_chemical_formula_sum "Si O2"
_cell_formula_units_Z 64
_cell_length_a 34.111520
_cell_length_b 7.269938
_cell_length_c 12.368141
_cell_angle_alpha 90.000000
_cell_angle_beta 112.035854
_cell_angle_gamma 90.000000
_cell_volume 2843.100204
_symmetry_space_group_name_H-M "C 2/M"
_symmetry_group_IT_number 12
_symmetry_cell_setting 'monoclinic'
loop_
_space_group_symop_operation_xyz
x,y,z
-x,y,-z
-x,-y,-z
x,-y,z
1/2+x,1/2+y,z
1/2-x,1/2+y,-z
1/2-x,1/2-y,-z
1/2+x,1/2-y,z
loop_
_atom_site_type_symbol
_atom_site_label
_atom_site_fract_x
_atom_site_fract_y
_atom_site_fract_z
Si Si1 0.196209 0.285253 0.203200
Si Si2 0.318188 0.776454 0.570439
Si Si3 0.584412 0.223135 0.322716
Si Si4 0.548543 0.775884 0.055101
Si Si5 0.045288 0.724274 0.503228
Si Si6 0.373576 0.775594 0.272615
Si Si7 0.121414 0.724536 0.970500
Si Si8 0.710421 0.778976 0.688536
O O1 0.185447 0.500000 0.203504
O O2 0.194294 0.209163 0.323412
O O3 0.161167 0.212929 0.084432
O O4 0.244403 0.270255 0.214928
O O5 0.367223 0.726271 0.604394
O O6 0.292423 0.712846 0.439006
O O7 0.315383 0.000000 0.567791
O O8 0.569522 0.283440 0.189539
O O9 0.554834 0.281920 0.390491
O O10 0.583728 0.000000 0.320210
O O11 0.578392 0.720034 0.986789
O O12 0.548378 0.000000 0.054746
O O13 0.500000 0.716567 0.000000
O O14 0.044965 0.500000 0.503572
O O15 0.084705 0.780736 0.618535
O O16 0.000000 0.784907 0.500000
O O17 0.330613 0.716158 0.287874
O O18 0.373291 0.000000 0.273661
O O19 0.375493 0.716617 0.150186
O O20 0.121861 0.500000 0.969024
O O21 0.708389 0.000000 0.683961
#
# Coordination Sequence:
#
# PCOD9178841 Si02
#       8
#     8   8   8   8   8   8   8   8
#     4  10  19  31  47  66  88 117 151 185 223 264
#     4   9  15  27  44  62  86 116 148 181 221 266
#     4   9  14  23  37  54  80 114 147 177 215 262
#     4   9  16  23  35  56  82 114 148 179 213 260
#     4   9  16  23  35  56  82 114 148 179 213 260
#     4   9  17  28  40  57  84 116 147 180 219 263
#     4   9  17  28  40  57  84 116 147 180 219 263
#     4  10  19  31  47  66  88 117 151 185 223 264
#
# _framework density 22.510638
#
# number of rings (size 3 to 8) (size 9 to 14) (size 15 to 20)
#    0.000    2.750    2.500    0.375    1.750    0.500 
#    0.000    0.000    0.000    0.000    0.000    0.000 
#    0.000    1.000    0.000    1.500    0.000    1.000 
#
# Total GULP energy -178822.603599 kJ/mol
# GULP energy per Si atom -5588.206362 kJ/mol
# Density = 2.245940 g / cm^3
# Si number density = 22.510638 Si / 1000 Ang^3
#
#
#
# Elastic Constant Matrix: (Units=GPa)
#
#
# Indices 1 2 3 4 5 6 
#
# 1 111.6744 -11.0810 26.7279 0.0000 -11.5407 0.0000
# 2 -11.0810 97.6851 -2.2337 0.0000 -3.7853 0.0000
# 3 26.7279 -2.2337 90.9956 0.0000 -22.1257 0.0000
# 4 0.0000 0.0000 0.0000 -11.0946 0.0000 10.6465
# 5 -11.5407 -3.7853 -22.1257 0.0000 37.9283 0.0000
# 6 0.0000 0.0000 0.0000 10.6465 0.0000 -5.4468
#
#
#
# Elastic Compliance Matrix: (Units=1/GPa)
#
#
# Indices 1 2 3 4 5 6 
#
# 1 0.009826 0.001123 -0.002452 0.000000 0.001671 0.000000
# 2 0.001123 0.010432 0.000306 0.000000 0.001561 0.000000
# 3 -0.002452 0.000306 0.013451 0.000000 0.007131 0.000000
# 4 0.000000 0.000000 0.000000 0.102929 0.000000 0.201187
# 5 0.001671 0.001561 0.007131 0.000000 0.031190 0.000000
# 6 0.000000 0.000000 0.000000 0.201187 0.000000 0.209654
#
#
# Mechanical properties :
#
#
# Convention : Reuss Voigt Hill
#
# Bulk Modulus (GPa) = 31.58287 36.35350 33.96819
# Shear Modulus (GPa) = 12.81782 23.40683 18.11233
#
# Velocity S-wave (km/s) = 2.38882 3.22811 2.83965
# Velocity P-wave (km/s) = 4.65503 5.48441 5.08665
#
# Compressibility (1/GPa) = 0.03166274
#
# Stress axis : x y z
#
# Youngs Moduli (GPa) = 101.77425 95.85991 74.34231
#
# Poissons Ratio (x) = -0.10768 0.18229
# Poissons Ratio (y) = -0.11432 -0.02273
# Poissons Ratio (z) = 0.24956 -0.02931
#
# Static dielectric constant tensor:
#      x y z
#    x 1.785050 0.000000 -0.004310 
#    y 0.000000 1.990020 0.000000 
#    z -0.004310 0.000000 1.781170 
# 
# From -- ./inp_files/188385.got.cif
#   From: 2010.05.17/outbox.cif.g08.bks.cpg/sg12_95_cif.got.tgz:188385.got - 2010.06.03 13:09:07.
