data_PCOD9178215
_publ_section_title
;
Structure prediction by ZEFSAII (Michael W. Deem and Ramdas Pophale) SiO2 
 PCOD9178215
Probable space group: C 2/M
;
_chemical_formula_sum "Si O2"
_cell_formula_units_Z 56
_cell_length_a 5.063705
_cell_length_b 34.688883
_cell_length_c 18.314408
_cell_angle_alpha 90.000000
_cell_angle_beta 70.544033
_cell_angle_gamma 90.000000
_cell_volume 3033.305809
_symmetry_space_group_name_H-M "C 2/M"
_symmetry_group_IT_number 12
_symmetry_cell_setting 'monoclinic'
loop_
_space_group_symop_operation_xyz
x,y,z
-x,y,-z
-x,-y,-z
x,-y,z
1/2+x,1/2+y,z
1/2-x,1/2+y,-z
1/2-x,1/2-y,-z
1/2+x,1/2-y,z
loop_
_atom_site_type_symbol
_atom_site_label
_atom_site_fract_x
_atom_site_fract_y
_atom_site_fract_z
Si Si1 0.308210 0.044842 0.446202
Si Si2 0.716715 0.854208 0.170256
Si Si3 0.763963 0.955694 0.801929
Si Si4 0.312486 0.115112 0.088898
Si Si5 0.843829 0.276120 0.580740
Si Si6 0.363443 0.075328 0.718713
Si Si7 0.711762 0.722924 0.751856
O O1 0.500000 0.045191 0.500000
O O2 0.451716 0.070074 0.370255
O O3 0.000000 0.057152 0.500000
O O4 0.289319 0.000000 0.421663
O O5 0.459466 0.859068 0.138395
O O6 0.657275 0.881967 0.245237
O O7 0.778492 0.811450 0.191885
O O8 0.996654 0.870606 0.106584
O O9 0.707539 0.927661 0.875228
O O10 0.512990 0.949564 0.768182
O O11 0.049890 0.940696 0.737692
O O12 0.792963 0.000000 0.819647
O O13 0.500000 0.116341 0.000000
O O14 0.546271 0.260707 0.579220
O O15 0.811603 0.293792 0.663693
O O16 0.000000 0.297530 0.500000
O O17 0.419580 0.743576 0.760696
#
# Coordination Sequence:
#
# PCOD9178215 Si02
#       7
#     8   8   8   8   8   8   8
#     4  10  19  30  47  71 101 140 182 221 255 288
#     4  10  21  37  57  79 104 137 173 210 262 323
#     4  10  19  32  54  80 104 135 173 214 257 304
#     4  10  21  37  57  79 106 139 168 205 260 318
#     4   8  14  25  43  69  98 125 155 195 244 293
#     4  10  20  34  51  74 107 141 178 217 259 309
#     4  10  19  33  56  80 103 133 173 218 257 304
#
# _framework density 18.461706
#
# number of rings (size 3 to 8) (size 9 to 14) (size 15 to 20)
#    0.000    2.286    0.000    3.429    0.000    1.429 
#    0.000    0.714    0.000   20.571    0.000    0.000 
#    0.000    0.000    0.000    0.000    0.000    0.000 
#
# Total GULP energy -156141.429890 kJ/mol
# GULP energy per Si atom -5576.479639 kJ/mol
# Density = 1.841969 g / cm^3
# Si number density = 18.461706 Si / 1000 Ang^3
#
#
#
# Elastic Constant Matrix: (Units=GPa)
#
#
# Indices 1 2 3 4 5 6 
#
# 1 63.7173 -7.1875 -11.9470 0.0000 -4.9250 0.0000
# 2 -7.1875 44.6421 24.0039 0.0000 4.3107 0.0000
# 3 -11.9470 24.0039 84.3592 0.0000 -16.5452 0.0000
# 4 0.0000 0.0000 0.0000 7.8113 0.0000 0.6622
# 5 -4.9250 4.3107 -16.5452 0.0000 22.6987 0.0000
# 6 0.0000 0.0000 0.0000 0.6622 0.0000 14.1603
#
#
#
# Elastic Compliance Matrix: (Units=1/GPa)
#
#
# Indices 1 2 3 4 5 6 
#
# 1 0.016862 0.000210 0.003545 0.000000 0.006203 0.000000
# 2 0.000210 0.029737 -0.011120 0.000000 -0.013707 0.000000
# 3 0.003545 -0.011120 0.018768 0.000000 0.016561 0.000000
# 4 0.000000 0.000000 0.000000 0.128529 0.000000 -0.006011
# 5 0.006203 -0.013707 0.016561 0.000000 0.060076 0.000000
# 6 0.000000 0.000000 0.000000 -0.006011 0.000000 0.070901
#
#
# Mechanical properties :
#
#
# Convention : Reuss Voigt Hill
#
# Bulk Modulus (GPa) = 19.74857 22.49526 21.12192
# Shear Modulus (GPa) = 14.02590 21.45734 17.74162
#
# Velocity S-wave (km/s) = 2.75931 3.41289 3.10336
# Velocity P-wave (km/s) = 4.56859 5.26704 4.93020
#
# Compressibility (1/GPa) = 0.05063657
#
# Stress axis : x y z
#
# Youngs Moduli (GPa) = 59.30465 33.62811 53.28096
#
# Poissons Ratio (x) = -0.00706 -0.18887
# Poissons Ratio (y) = -0.01245 0.59249
# Poissons Ratio (z) = -0.21022 0.37395
#
# Static dielectric constant tensor:
#      x y z
#    x 1.607390 0.000000 -0.006260 
#    y 0.000000 1.612960 0.000000 
#    z -0.006260 0.000000 1.643190 
# 
# From -- ./inp_files/253964.got.cif
#   From: 2010.05.17/outbox.cif.g08.bks.cpg/sg12_127_cif.got.tgz:253964.got - 2010.06.03 13:09:07.
