data_PCOD9178454
_publ_section_title
;
Structure prediction by ZEFSAII (Michael W. Deem and Ramdas Pophale) SiO2 
 PCOD9178454
Probable space group: C 2/M
;
_chemical_formula_sum "Si O2"
_cell_formula_units_Z 40
_cell_length_a 25.247017
_cell_length_b 8.635387
_cell_length_c 12.475319
_cell_angle_alpha 90.000000
_cell_angle_beta 117.674827
_cell_angle_gamma 90.000000
_cell_volume 2408.685241
_symmetry_space_group_name_H-M "C 2/M"
_symmetry_group_IT_number 12
_symmetry_cell_setting 'monoclinic'
loop_
_space_group_symop_operation_xyz
x,y,z
-x,y,-z
-x,-y,-z
x,-y,z
1/2+x,1/2+y,z
1/2-x,1/2+y,-z
1/2-x,1/2-y,-z
1/2+x,1/2-y,z
loop_
_atom_site_type_symbol
_atom_site_label
_atom_site_fract_x
_atom_site_fract_y
_atom_site_fract_z
Si Si1 0.156451 0.815141 0.918725
Si Si2 0.547112 0.187103 0.698117
Si Si3 0.581539 0.811996 0.487761
Si Si4 0.214984 0.314293 0.568779
Si Si5 0.254687 0.185044 0.832163
O O1 0.090464 0.759013 0.826749
O O2 0.200051 0.768911 0.860350
O O3 0.158571 0.000000 0.930168
O O4 0.185618 0.740087 0.051161
O O5 0.477542 0.235675 0.633235
O O6 0.571492 0.232334 0.602634
O O7 0.549912 0.000000 0.707731
O O8 0.645734 0.759002 0.506653
O O9 0.581598 0.000000 0.486942
O O10 0.214808 0.500000 0.564899
O O11 0.250000 0.250000 0.500000
O O12 0.244760 0.260061 0.707666
O O13 0.254460 0.000000 0.822100
#
# Coordination Sequence:
#
# PCOD9178454 Si02
#       5
#     8   8   8   8   8
#     4  10  19  30  48  76 106 132 160 206 259 301
#     4   9  15  29  51  74  99 131 165 203 248 299
#     4   8  16  29  49  73  99 131 169 203 243 297
#     4  11  21  35  53  74 102 136 171 209 246 291
#     4  10  20  33  49  72 101 135 172 205 246 300
#
# _framework density 16.606570000000001
#
# number of rings (size 3 to 8) (size 9 to 14) (size 15 to 20)
#    0.000    2.400    2.000    3.000    0.000    1.600 
#    0.000    4.000    0.000    1.200    0.000    8.400 
#    0.000    0.000    0.000    0.000    0.000    0.000 
#
# Total GULP energy -111524.415570 kJ/mol
# GULP energy per Si atom -5576.220779 kJ/mol
# Density = 1.656877 g / cm^3
# Si number density = 16.606570 Si / 1000 Ang^3
#
#
#
# Elastic Constant Matrix: (Units=GPa)
#
#
# Indices 1 2 3 4 5 6 
#
# 1 108.9605 26.8884 78.0382 0.0000 13.2005 0.0000
# 2 26.8884 33.2528 33.7791 0.0000 0.4193 0.0000
# 3 78.0382 33.7791 134.0271 0.0000 22.9534 0.0000
# 4 0.0000 0.0000 0.0000 29.7551 0.0000 1.1325
# 5 13.2005 0.4193 22.9534 0.0000 29.9639 0.0000
# 6 0.0000 0.0000 0.0000 1.1325 0.0000 20.1497
#
#
#
# Elastic Compliance Matrix: (Units=1/GPa)
#
#
# Indices 1 2 3 4 5 6 
#
# 1 0.016304 -0.004958 -0.008086 0.000000 -0.000919 0.000000
# 2 -0.004958 0.043820 -0.009699 0.000000 0.009001 0.000000
# 3 -0.008086 -0.009699 0.016092 0.000000 -0.008629 0.000000
# 4 0.000000 0.000000 0.000000 0.033680 0.000000 -0.001893
# 5 -0.000919 0.009001 -0.008629 0.000000 0.040262 0.000000
# 6 0.000000 0.000000 0.000000 -0.001893 0.000000 0.049735
#
#
# Mechanical properties :
#
#
# Convention : Reuss Voigt Hill
#
# Bulk Modulus (GPa) = 32.54116 61.51687 47.02902
# Shear Modulus (GPa) = 19.56020 25.14273 22.35146
#
# Velocity S-wave (km/s) = 3.43572 3.89527 3.67269
# Velocity P-wave (km/s) = 5.94784 7.57330 6.80925
#
# Compressibility (1/GPa) = 0.03073031
#
# Stress axis : x y z
#
# Youngs Moduli (GPa) = 61.33602 22.82043 62.14443
#
# Poissons Ratio (x) = 0.11313 0.50250
# Poissons Ratio (y) = 0.30408 0.60274
# Poissons Ratio (z) = 0.49597 0.22134
#
# Static dielectric constant tensor:
#      x y z
#    x 1.559430 0.000000 0.027360 
#    y 0.000000 1.559670 0.000000 
#    z 0.027360 0.000000 1.545600 
# 
# From -- ./inp_files/171380.got.cif
#   From: 2010.05.17/outbox.cif.g08.bks.cpg/sg12_86_cif.got.tgz:171380.got - 2010.06.03 13:09:07.
