data_PCOD9178379
_publ_section_title
;
Structure prediction by ZEFSAII (Michael W. Deem and Ramdas Pophale) SiO2 
 PCOD9178379
Probable space group: C 2/M
;
_chemical_formula_sum "Si O2"
_cell_formula_units_Z 56
_cell_length_a 23.443632
_cell_length_b 9.219978
_cell_length_c 27.606214
_cell_angle_alpha 90.000000
_cell_angle_beta 33.369716
_cell_angle_gamma 90.000000
_cell_volume 3282.127365
_symmetry_space_group_name_H-M "C 2/M"
_symmetry_group_IT_number 12
_symmetry_cell_setting 'monoclinic'
loop_
_space_group_symop_operation_xyz
x,y,z
-x,y,-z
-x,-y,-z
x,-y,z
1/2+x,1/2+y,z
1/2-x,1/2+y,-z
1/2-x,1/2-y,-z
1/2+x,1/2-y,z
loop_
_atom_site_type_symbol
_atom_site_label
_atom_site_fract_x
_atom_site_fract_y
_atom_site_fract_z
Si Si1 0.160609 0.327416 0.673646
Si Si2 0.978581 0.672591 0.320508
Si Si3 0.325014 0.665118 0.791337
Si Si4 0.104006 0.173339 0.524952
Si Si5 0.886157 0.326151 0.101044
Si Si6 0.603181 0.665823 0.372761
Si Si7 0.693895 0.327428 0.746033
O O1 0.153136 0.500000 0.689279
O O2 0.084148 0.292535 0.683693
O O3 0.278793 0.297622 0.573364
O O4 0.141040 0.235891 0.735535
O O5 0.978475 0.500000 0.326919
O O6 0.923424 0.745323 0.405996
O O7 0.095594 0.732716 0.237166
O O8 0.333262 0.500000 0.803403
O O9 0.204983 0.709262 0.872775
O O10 0.362426 0.663798 0.708477
O O11 0.017197 0.210538 0.545859
O O12 0.092673 0.000000 0.540793
O O13 0.876969 0.500000 0.117094
O O14 0.860668 0.240038 0.167952
O O15 0.000000 0.296687 0.000000
O O16 0.612202 0.500000 0.385044
O O17 0.687450 0.767842 0.337615
O O18 0.692919 0.500000 0.748205
#
# Coordination Sequence:
#
# PCOD9178379 Si02
#       7
#     8   8   8   8   8   8   8
#     4  10  21  35  48  65  95 136 174 204 239 285
#     4  10  19  30  48  72  98 130 167 207 244 278
#     4   8  15  29  50  74  98 125 156 191 234 285
#     4   9  18  32  50  69  91 127 173 213 245 279
#     4   9  18  35  59  81  99 123 154 188 233 294
#     4   8  15  30  49  67  92 128 165 200 241 290
#     4  11  22  33  48  73 102 129 157 197 248 291
#
# _framework density 17.062104000000001
#
# number of rings (size 3 to 8) (size 9 to 14) (size 15 to 20)
#    0.000    2.714    0.000    3.857    0.000    7.714 
#    0.000    2.857    0.000    0.857    0.000    0.000 
#    0.000    0.000    0.000    0.000    0.000    0.000 
#
# Total GULP energy -156175.818096 kJ/mol
# GULP energy per Si atom -5577.707789 kJ/mol
# Density = 1.702327 g / cm^3
# Si number density = 17.062104 Si / 1000 Ang^3
#
#
#
# Elastic Constant Matrix: (Units=GPa)
#
#
# Indices 1 2 3 4 5 6 
#
# 1 129.7730 69.4582 59.5856 0.0000 -4.4134 0.0000
# 2 69.4582 70.6113 47.5439 0.0002 4.8265 -0.0002
# 3 59.5856 47.5439 75.6494 0.0000 -15.9817 0.0000
# 4 0.0000 0.0002 0.0000 15.2930 0.0000 0.0597
# 5 -4.4134 4.8265 -15.9817 0.0000 24.7705 0.0000
# 6 0.0000 -0.0002 0.0000 0.0597 0.0000 29.2188
#
#
#
# Elastic Compliance Matrix: (Units=1/GPa)
#
#
# Indices 1 2 3 4 5 6 
#
# 1 0.017571 -0.015220 -0.003458 0.000000 0.003865 0.000000
# 2 -0.015220 0.046084 -0.022513 -0.000001 -0.026216 0.000000
# 3 -0.003458 -0.022513 0.035763 0.000000 0.026844 0.000000
# 4 0.000000 -0.000001 0.000000 0.065390 0.000000 -0.000134
# 5 0.003865 -0.026216 0.026844 0.000000 0.063487 0.000000
# 6 0.000000 0.000000 0.000000 -0.000134 0.000000 0.034225
#
#
# Mechanical properties :
#
#
# Convention : Reuss Voigt Hill
#
# Bulk Modulus (GPa) = 58.70065 69.91214 64.30640
# Shear Modulus (GPa) = 14.26206 20.48618 17.37412
#
# Velocity S-wave (km/s) = 2.89431 3.46885 3.19452
# Velocity P-wave (km/s) = 6.75635 7.55698 7.16785
#
# Compressibility (1/GPa) = 0.01703559
#
# Stress axis : x y z
#
# Youngs Moduli (GPa) = 56.91118 21.69945 27.96223
#
# Poissons Ratio (x) = 0.33027 0.09669
# Poissons Ratio (y) = 0.86620 0.62951
# Poissons Ratio (z) = 0.19679 0.48852
#
# Static dielectric constant tensor:
#      x y z
#    x 1.594770 0.000000 -0.016950 
#    y 0.000000 1.563930 0.000000 
#    z -0.016950 0.000000 1.584340 
# 
# From -- ./inp_files/348456.got.cif
#   From: 2010.05.17/outbox.cif.g08.bks.cpg/sg12_175_cif.got.tgz:348456.got - 2010.06.03 13:09:07.
