data_PCOD9178782
_publ_section_title
;
Structure prediction by ZEFSAII (Michael W. Deem and Ramdas Pophale) SiO2 
 PCOD9178782
Probable space group: C 2/M
;
_chemical_formula_sum "Si O2"
_cell_formula_units_Z 60
_cell_length_a 23.105710
_cell_length_b 29.502903
_cell_length_c 5.368782
_cell_angle_alpha 90.000000
_cell_angle_beta 63.480331
_cell_angle_gamma 90.000000
_cell_volume 3274.738744
_symmetry_space_group_name_H-M "C 2/M"
_symmetry_group_IT_number 12
_symmetry_cell_setting 'monoclinic'
loop_
_space_group_symop_operation_xyz
x,y,z
-x,y,-z
-x,-y,-z
x,-y,z
1/2+x,1/2+y,z
1/2-x,1/2+y,-z
1/2-x,1/2-y,-z
1/2+x,1/2-y,z
loop_
_atom_site_type_symbol
_atom_site_label
_atom_site_fract_x
_atom_site_fract_y
_atom_site_fract_z
Si Si1 0.148215 0.250708 0.328764
Si Si2 0.731218 0.803061 0.829689
Si Si3 0.016311 0.280382 0.734788
Si Si4 0.097047 0.049856 0.544256
Si Si5 0.581829 0.692373 0.100730
Si Si6 0.500000 0.381511 0.500000
Si Si7 0.320428 0.448917 0.116152
Si Si8 0.780391 0.847225 0.254099
O O1 0.216529 0.237444 0.310184
O O2 0.093127 0.272815 0.596049
O O3 0.112352 0.205467 0.308788
O O4 0.165212 0.279292 0.046732
O O5 0.735659 0.832196 0.572018
O O6 0.754817 0.829181 0.035447
O O7 0.000000 0.299725 0.500000
O O8 0.967779 0.235331 0.848012
O O9 0.000000 0.310393 0.000000
O O10 0.126640 0.053351 0.762819
O O11 0.047178 0.088109 0.571187
O O12 0.066591 0.000000 0.582192
O O13 0.150036 0.052841 0.219455
O O14 0.537692 0.649613 0.232125
O O15 0.647619 0.675728 0.834206
O O16 0.290717 0.500000 0.199308
O O17 0.283304 0.401637 0.228685
#
# Coordination Sequence:
#
# PCOD9178782 Si02
#       8
#     8   8   8   8   8   4   8   8
#     4   9  19  35  47  70  97 123 166 200 249 283
#     4  10  22  33  53  67  94 127 157 208 243 285
#     4  10  19  31  46  66  92 122 157 196 236 278
#     4  10  22  36  50  69  95 126 159 203 260 302
#     4  10  20  32  51  70  96 127 165 207 244 285
#     4  12  19  34  50  74  92 132 160 214 247 292
#     4  10  21  37  54  70  94 123 157 207 254 296
#     4  11  21  36  52  73  92 122 169 201 247 294
#
# _framework density 18.322071000000001
#
# number of rings (size 3 to 8) (size 9 to 14) (size 15 to 20)
#    0.000    1.867    3.333    1.800    1.867    8.533 
#    0.000    2.000    0.000    0.000    0.000    0.000 
#    0.000    0.000    0.000    0.000    0.000   56.000 
#
# Total GULP energy -167014.166884 kJ/mol
# GULP energy per Si atom -5567.138896 kJ/mol
# Density = 1.828037 g / cm^3
# Si number density = 18.322071 Si / 1000 Ang^3
#
#
#
# Elastic Constant Matrix: (Units=GPa)
#
#
# Indices 1 2 3 4 5 6 
#
# 1 40.2748 10.7874 20.2054 0.0000 6.3512 0.0000
# 2 10.7874 68.8360 11.1965 0.0000 -2.4753 0.0000
# 3 20.2054 11.1965 101.0872 0.0000 -1.0193 0.0000
# 4 0.0000 0.0000 0.0000 15.5259 0.0000 -1.5872
# 5 6.3512 -2.4753 -1.0193 0.0000 29.1270 0.0000
# 6 0.0000 0.0000 0.0000 -1.5872 0.0000 21.7059
#
#
#
# Elastic Compliance Matrix: (Units=1/GPa)
#
#
# Indices 1 2 3 4 5 6 
#
# 1 0.029818 -0.004017 -0.005586 0.000000 -0.007039 0.000000
# 2 -0.004017 0.015377 -0.000878 0.000000 0.002152 0.000000
# 3 -0.005586 -0.000878 0.011122 0.000000 0.001533 0.000000
# 4 0.000000 0.000000 0.000000 0.064894 0.000000 0.004745
# 5 -0.007039 0.002152 0.001533 0.000000 0.036104 0.000000
# 6 0.000000 0.000000 0.000000 0.004745 0.000000 0.046417
#
#
# Mechanical properties :
#
#
# Convention : Reuss Voigt Hill
#
# Bulk Modulus (GPa) = 28.28613 32.73074 30.50843
# Shear Modulus (GPa) = 21.14349 24.47235 22.80792
#
# Velocity S-wave (km/s) = 3.40073 3.65865 3.53205
# Velocity P-wave (km/s) = 5.55803 5.97918 5.77245
#
# Compressibility (1/GPa) = 0.03535302
#
# Stress axis : x y z
#
# Youngs Moduli (GPa) = 33.53696 65.03174 89.91393
#
# Poissons Ratio (x) = 0.26125 0.50226
# Poissons Ratio (y) = 0.13473 0.07899
# Poissons Ratio (z) = 0.18734 0.05713
#
# Static dielectric constant tensor:
#      x y z
#    x 1.713890 0.000000 0.015210 
#    y 0.000000 1.654220 0.000000 
#    z 0.015210 0.000000 1.721670 
# 
# From -- ./inp_files/26639.got.cif
#   From: 2010.05.17/outbox.cif.g08.bks.cpg/sg12_14_cif.got.tgz:26639.got - 2010.06.03 13:09:07.
