data_PCOD9178732
_publ_section_title
;
Structure prediction by ZEFSAII (Michael W. Deem and Ramdas Pophale) SiO2 
 PCOD9178732
Probable space group: C 2/M
;
_chemical_formula_sum "Si O2"
_cell_formula_units_Z 64
_cell_length_a 25.738984
_cell_length_b 9.221729
_cell_length_c 18.121578
_cell_angle_alpha 90.000000
_cell_angle_beta 87.046249
_cell_angle_gamma 90.000000
_cell_volume 4295.585865
_symmetry_space_group_name_H-M "C 2/M"
_symmetry_group_IT_number 12
_symmetry_cell_setting 'monoclinic'
loop_
_space_group_symop_operation_xyz
x,y,z
-x,y,-z
-x,-y,-z
x,-y,z
1/2+x,1/2+y,z
1/2-x,1/2+y,-z
1/2-x,1/2-y,-z
1/2+x,1/2-y,z
loop_
_atom_site_type_symbol
_atom_site_label
_atom_site_fract_x
_atom_site_fract_y
_atom_site_fract_z
Si Si1 0.563385 0.333552 0.490585
Si Si2 0.859883 0.171772 0.919447
Si Si3 0.642419 0.327556 0.906201
Si Si4 0.057827 0.666493 0.344764
Si Si5 0.954022 0.827261 0.803128
Si Si6 0.931557 0.334420 0.365005
Si Si7 0.742038 0.172533 0.079313
Si Si8 0.065125 0.325561 0.800763
O O1 0.500000 0.330868 0.500000
O O2 0.579057 0.500000 0.480465
O O3 0.578086 0.239159 0.418239
O O4 0.583324 0.266414 0.565729
O O5 0.912770 0.197824 0.871265
O O6 0.811706 0.260109 0.888588
O O7 0.847789 0.000000 0.916610
O O8 0.865200 0.207303 0.006141
O O9 0.632209 0.500000 0.898127
O O10 0.703374 0.301120 0.883392
O O11 0.604519 0.235351 0.858206
O O12 0.074777 0.500000 0.335360
O O13 0.068168 0.760683 0.271293
O O14 0.994741 0.664664 0.356673
O O15 0.008772 0.748585 0.814419
O O16 0.962235 0.000000 0.794358
O O17 0.914947 0.500000 0.380082
O O18 0.915439 0.289056 0.283842
O O19 0.737086 0.000000 0.069991
O O20 0.750000 0.250000 0.000000
O O21 0.059802 0.500000 0.804580
#
# Coordination Sequence:
#
# PCOD9178732 Si02
#       8
#     8   8   8   8   8   8   8   8
#     4   9  15  22  36  57  77 103 141 176 209 251
#     4   9  19  33  48  66  87 114 147 183 224 263
#     4   9  18  32  47  64  86 113 145 180 221 263
#     4   9  16  26  39  56  81 111 142 176 213 253
#     4  10  19  31  45  61  87 120 150 182 218 258
#     4   8  15  26  37  52  78 109 140 175 213 250
#     4   9  17  30  49  69  87 108 138 180 226 266
#     4  10  20  31  43  62  88 119 151 181 216 258
#
# _framework density 14.899013999999999
#
# number of rings (size 3 to 8) (size 9 to 14) (size 15 to 20)
#    0.000    2.875    0.000    3.375    0.000    9.000 
#    0.000    2.500    0.000    0.000    0.000    0.000 
#    0.000    1.000    0.000    3.250    0.000    5.875 
#
# Total GULP energy -178143.795071 kJ/mol
# GULP energy per Si atom -5566.993596 kJ/mol
# Density = 1.486510 g / cm^3
# Si number density = 14.899014 Si / 1000 Ang^3
#
#
#
# Elastic Constant Matrix: (Units=GPa)
#
#
# Indices 1 2 3 4 5 6 
#
# 1 61.4870 49.0703 47.2991 0.0000 8.8473 0.0000
# 2 49.0703 84.9778 59.2323 0.0000 9.6938 0.0000
# 3 47.2991 59.2323 95.6118 0.0000 12.8589 0.0000
# 4 0.0000 0.0000 0.0000 27.2688 0.0000 3.0618
# 5 8.8473 9.6938 12.8589 0.0000 0.8983 0.0000
# 6 0.0000 0.0000 0.0000 3.0618 0.0000 19.1537
#
#
#
# Elastic Compliance Matrix: (Units=1/GPa)
#
#
# Indices 1 2 3 4 5 6 
#
# 1 0.029817 -0.014333 -0.013859 0.000000 0.059396 0.000000
# 2 -0.014333 0.026167 -0.010670 0.000000 0.011523 0.000000
# 3 -0.013859 -0.010670 0.010720 0.000000 0.098190 0.000000
# 4 0.000000 0.000000 0.000000 0.037342 0.000000 -0.005969
# 5 0.059396 0.011523 0.098190 0.000000 -1.001649 0.000000
# 6 0.000000 0.000000 0.000000 -0.005969 0.000000 0.053163
#
#
# Mechanical properties :
#
#
# Convention : Reuss Voigt Hill
#
# Bulk Modulus (GPa) = -90.73855 61.47556 -14.63149
# Shear Modulus (GPa) = -6.49023 15.22917 4.36947
#
# Velocity S-wave (km/s) = -2.08940 3.20059 1.71438
# Velocity P-wave (km/s) = 8.17652 7.41684 2.43372
#
# Compressibility (1/GPa) = -0.01102067
#
# Stress axis : x y z
#
# Youngs Moduli (GPa) = 33.53772 38.21576 93.28669
#
# Poissons Ratio (x) = 0.54775 1.29289
# Poissons Ratio (y) = 0.48070 0.99536
# Poissons Ratio (z) = 0.46481 0.40776
#
# Static dielectric constant tensor:
#      x y z
#    x 1.481380 0.000000 -0.000800 
#    y 0.000000 1.500550 0.000000 
#    z -0.000800 0.000000 1.496920 
# 
# From -- ./inp_files/287616.got.cif
#   From: 2010.05.17/outbox.cif.g08.bks.cpg/sg12_144_cif.got.tgz:287616.got - 2010.06.03 13:09:07.
