data_PCOD9178396
_publ_section_title
;
Structure prediction by ZEFSAII (Michael W. Deem and Ramdas Pophale) SiO2 
 PCOD9178396
Probable space group: C 2/M
;
_chemical_formula_sum "Si O2"
_cell_formula_units_Z 64
_cell_length_a 17.194011
_cell_length_b 25.153542
_cell_length_c 9.529768
_cell_angle_alpha 90.000000
_cell_angle_beta 114.303408
_cell_angle_gamma 90.000000
_cell_volume 3756.276888
_symmetry_space_group_name_H-M "C 2/M"
_symmetry_group_IT_number 12
_symmetry_cell_setting 'monoclinic'
loop_
_space_group_symop_operation_xyz
x,y,z
-x,y,-z
-x,-y,-z
x,-y,z
1/2+x,1/2+y,z
1/2-x,1/2+y,-z
1/2-x,1/2-y,-z
1/2+x,1/2-y,z
loop_
_atom_site_type_symbol
_atom_site_label
_atom_site_fract_x
_atom_site_fract_y
_atom_site_fract_z
Si Si1 0.277157 0.227761 0.671457
Si Si2 0.671947 0.234457 0.839408
Si Si3 0.904562 0.789039 0.975366
Si Si4 0.661079 0.938342 0.646669
Si Si5 0.470180 0.060874 0.199670
Si Si6 0.261687 0.627656 0.921059
Si Si7 0.645224 0.887112 0.337260
Si Si8 0.301913 0.940170 0.889527
O O1 0.250000 0.250000 0.500000
O O2 0.194423 0.235113 0.712565
O O3 0.350487 0.259926 0.811545
O O4 0.315900 0.169460 0.675975
O O5 0.686562 0.171459 0.834943
O O6 0.750000 0.250000 0.000000
O O7 0.595140 0.253795 0.880284
O O8 0.849923 0.842086 0.965244
O O9 0.000000 0.799258 0.000000
O O10 0.579046 0.933391 0.688602
O O11 0.740931 0.920007 0.800264
O O12 0.657533 0.901758 0.508159
O O13 0.666438 0.000000 0.610158
O O14 0.544378 0.103524 0.236886
O O15 0.505089 0.000000 0.219797
O O16 0.396729 0.064765 0.027837
O O17 0.251821 0.604173 0.068759
O O18 0.691605 0.928666 0.268972
O O19 0.272614 0.000000 0.897749
#
# Coordination Sequence:
#
# PCOD9178396 Si02
#       8
#     8   8   8   8   8   8   8   8
#     4  10  21  36  52  74 103 134 170 209 245 295
#     4   8  16  33  52  70  97 130 164 201 244 296
#     4  10  20  35  55  77 100 128 166 210 254 297
#     4  10  20  32  47  67  97 136 168 196 237 294
#     4   9  19  32  43  65 103 136 162 196 238 287
#     4   9  17  34  52  67  94 131 162 193 241 292
#     4  12  19  28  48  71  97 129 165 204 245 284
#     4  10  19  30  48  73  99 129 164 201 241 293
#
# _framework density 17.038149000000001
#
# number of rings (size 3 to 8) (size 9 to 14) (size 15 to 20)
#    0.000    2.500    0.000    6.750    0.000    5.000 
#    0.000    1.875    0.000    1.500    0.000    0.000 
#    0.000    4.000    0.000    0.000    0.000    0.000 
#
# Total GULP energy -178245.956348 kJ/mol
# GULP energy per Si atom -5570.186136 kJ/mol
# Density = 1.699937 g / cm^3
# Si number density = 17.038149 Si / 1000 Ang^3
#
#
#
# Elastic Constant Matrix: (Units=GPa)
#
#
# Indices 1 2 3 4 5 6 
#
# 1 89.4299 39.5929 19.4822 0.0000 -16.7899 0.0000
# 2 39.5929 84.6632 14.3288 0.0000 -11.9252 0.0000
# 3 19.4822 14.3288 80.6942 0.0000 -24.7804 0.0000
# 4 0.0000 0.0000 0.0000 27.3552 0.0000 -4.1706
# 5 -16.7899 -11.9252 -24.7804 0.0000 22.5309 0.0000
# 6 0.0000 0.0000 0.0000 -4.1706 0.0000 18.5754
#
#
#
# Elastic Compliance Matrix: (Units=1/GPa)
#
#
# Indices 1 2 3 4 5 6 
#
# 1 0.015413 -0.006038 -0.000156 0.000000 0.008119 0.000000
# 2 -0.006038 0.015133 -0.000229 0.000000 0.003258 0.000000
# 3 -0.000156 -0.000229 0.018721 0.000000 0.020353 0.000000
# 4 0.000000 0.000000 0.000000 0.037852 0.000000 0.008498
# 5 0.008119 0.003258 0.020353 0.000000 0.074543 0.000000
# 6 0.000000 0.000000 0.000000 0.008498 0.000000 0.055743
#
#
# Mechanical properties :
#
#
# Convention : Reuss Voigt Hill
#
# Bulk Modulus (GPa) = 27.45627 44.62168 36.03897
# Shear Modulus (GPa) = 20.62786 25.78454 23.20620
#
# Velocity S-wave (km/s) = 3.48327 3.89439 3.69455
# Velocity P-wave (km/s) = 5.68569 6.81673 6.27674
#
# Compressibility (1/GPa) = 0.03642156
#
# Stress axis : x y z
#
# Youngs Moduli (GPa) = 64.87869 66.08108 53.41634
#
# Poissons Ratio (x) = 0.39901 0.00833
# Poissons Ratio (y) = 0.39175 0.01222
# Poissons Ratio (z) = 0.01012 0.01511
#
# Static dielectric constant tensor:
#      x y z
#    x 1.594690 0.000000 -0.033790 
#    y 0.000000 1.653400 0.000000 
#    z -0.033790 0.000000 1.605660 
# 
# From -- ./inp_files/78816.got.cif
#   From: 2010.05.17/outbox.cif.g08.bks.cpg/sg12_40_cif.got.tgz:78816.got - 2010.06.03 13:09:07.
