data_PCOD9178617
_publ_section_title
;
Structure prediction by ZEFSAII (Michael W. Deem and Ramdas Pophale) SiO2 
 PCOD9178617
Probable space group: C 2/M
;
_chemical_formula_sum "Si O2"
_cell_formula_units_Z 56
_cell_length_a 25.294380
_cell_length_b 9.576932
_cell_length_c 12.289746
_cell_angle_alpha 90.000000
_cell_angle_beta 73.087954
_cell_angle_gamma 90.000000
_cell_volume 2848.347225
_symmetry_space_group_name_H-M "C 2/M"
_symmetry_group_IT_number 12
_symmetry_cell_setting 'monoclinic'
loop_
_space_group_symop_operation_xyz
x,y,z
-x,y,-z
-x,-y,-z
x,-y,z
1/2+x,1/2+y,z
1/2-x,1/2+y,-z
1/2-x,1/2-y,-z
1/2+x,1/2-y,z
loop_
_atom_site_type_symbol
_atom_site_label
_atom_site_fract_x
_atom_site_fract_y
_atom_site_fract_z
Si Si1 0.599921 0.661322 0.867323
Si Si2 0.907713 0.165446 0.879491
Si Si3 0.708842 0.160931 0.341959
Si Si4 0.020976 0.835455 0.707058
Si Si5 0.686252 0.160743 0.697000
Si Si6 0.106506 0.660714 0.533436
Si Si7 0.703102 0.161294 0.087377
O O1 0.619039 0.500000 0.846579
O O2 0.554842 0.683906 0.800059
O O3 0.651379 0.761652 0.811755
O O4 0.576501 0.679587 0.002271
O O5 0.854838 0.261043 0.894325
O O6 0.958402 0.206029 0.771415
O O7 0.895545 0.000000 0.869649
O O8 0.757213 0.257617 0.358181
O O9 0.647357 0.208295 0.412997
O O10 0.714602 0.160914 0.209185
O O11 0.714756 0.000000 0.377809
O O12 0.053507 0.751635 0.595314
O O13 0.022077 0.000000 0.681719
O O14 0.646947 0.165810 0.614706
O O15 0.696991 0.000000 0.718121
O O16 0.090342 0.500000 0.524521
O O17 0.701866 0.000000 0.050712
O O18 0.750000 0.250000 0.000000
#
# Coordination Sequence:
#
# PCOD9178617 Si02
#       7
#     8   8   8   8   8   8   8
#     4   9  17  31  52  77 107 141 171 202 250 312
#     4  10  20  35  55  78 105 138 174 212 254 301
#     4  10  21  37  54  72 100 140 178 209 251 309
#     4   9  18  33  54  80 107 135 170 210 253 304
#     4  10  19  30  50  81 109 132 165 213 262 303
#     4   9  19  35  53  76 106 136 169 210 255 306
#     4  11  24  40  57  77 102 135 174 214 255 301
#
# _framework density 19.660525
#
# number of rings (size 3 to 8) (size 9 to 14) (size 15 to 20)
#    0.000    2.286    0.000    2.571    0.000    8.571 
#    0.000    0.714    0.000    8.571    0.000    0.000 
#    0.000    0.000    0.000    0.000    0.000    0.000 
#
# Total GULP energy -156328.796713 kJ/mol
# GULP energy per Si atom -5583.171311 kJ/mol
# Density = 1.961578 g / cm^3
# Si number density = 19.660525 Si / 1000 Ang^3
#
#
#
# Elastic Constant Matrix: (Units=GPa)
#
#
# Indices 1 2 3 4 5 6 
#
# 1 82.0987 64.6030 32.5180 0.0000 -46.7016 0.0000
# 2 64.6030 94.2171 44.3582 0.0000 -39.2506 0.0000
# 3 32.5180 44.3582 79.0005 0.0000 -45.1735 0.0000
# 4 0.0000 0.0000 0.0000 25.6975 0.0000 -9.8588
# 5 -46.7016 -39.2506 -45.1735 0.0000 41.9406 0.0000
# 6 0.0000 0.0000 0.0000 -9.8588 0.0000 28.8781
#
#
#
# Elastic Compliance Matrix: (Units=1/GPa)
#
#
# Indices 1 2 3 4 5 6 
#
# 1 0.089742 -0.034614 0.054967 0.000000 0.126740 0.000000
# 2 -0.034614 0.030790 -0.022398 0.000000 -0.033852 0.000000
# 3 0.054967 -0.022398 0.066704 0.000000 0.112092 0.000000
# 4 0.000000 0.000000 0.000000 0.044779 0.000000 0.015287
# 5 0.126740 -0.033852 0.112092 0.000000 0.254022 0.000000
# 6 0.000000 0.000000 0.000000 0.015287 0.000000 0.039847
#
#
# Mechanical properties :
#
#
# Convention : Reuss Voigt Hill
#
# Bulk Modulus (GPa) = 5.46007 59.80829 32.63418
# Shear Modulus (GPa) = 8.45991 26.89238 17.67614
#
# Velocity S-wave (km/s) = 2.07662 3.70244 3.00170
# Velocity P-wave (km/s) = 2.92113 6.98312 5.35243
#
# Compressibility (1/GPa) = 0.18314787
#
# Stress axis : x y z
#
# Youngs Moduli (GPa) = 11.14307 32.47766 14.99151
#
# Poissons Ratio (x) = 1.12418 -0.82405
# Poissons Ratio (y) = 0.38571 0.33578
# Poissons Ratio (z) = -0.61251 0.72743
#
# Static dielectric constant tensor:
#      x y z
#    x 1.682420 0.000000 0.012040 
#    y 0.000000 1.669960 0.000000 
#    z 0.012040 0.000000 1.710330 
# 
# From -- ./inp_files/180774.got.cif
#   From: 2010.05.17/outbox.cif.g08.bks.cpg/sg12_91_cif.got.tgz:180774.got - 2010.06.03 13:09:07.
