data_PCOD9178358
_publ_section_title
;
Structure prediction by ZEFSAII (Michael W. Deem and Ramdas Pophale) SiO2 
 PCOD9178358
Probable space group: C 2/M
;
_chemical_formula_sum "Si O2"
_cell_formula_units_Z 64
_cell_length_a 30.020192
_cell_length_b 9.046229
_cell_length_c 14.332541
_cell_angle_alpha 90.000000
_cell_angle_beta 92.207837
_cell_angle_gamma 90.000000
_cell_volume 3889.392033
_symmetry_space_group_name_H-M "C 2/M"
_symmetry_group_IT_number 12
_symmetry_cell_setting 'monoclinic'
loop_
_space_group_symop_operation_xyz
x,y,z
-x,y,-z
-x,-y,-z
x,-y,z
1/2+x,1/2+y,z
1/2-x,1/2+y,-z
1/2-x,1/2-y,-z
1/2+x,1/2-y,z
loop_
_atom_site_type_symbol
_atom_site_label
_atom_site_fract_x
_atom_site_fract_y
_atom_site_fract_z
Si Si1 0.297465 0.322076 0.983608
Si Si2 0.552122 0.321796 0.508905
Si Si3 0.907696 0.670775 0.667244
Si Si4 0.578574 0.675191 0.718802
Si Si5 0.142832 0.174642 0.180169
Si Si6 0.873291 0.674295 0.117146
Si Si7 0.431273 0.174157 0.949950
Si Si8 0.503305 0.830602 0.197128
O O1 0.296337 0.500000 0.992177
O O2 0.314297 0.286570 0.879454
O O3 0.250000 0.250000 0.000000
O O4 0.333780 0.255537 0.058460
O O5 0.500000 0.274019 0.500000
O O6 0.552272 0.500000 0.502211
O O7 0.579710 0.255008 0.425926
O O8 0.572894 0.280090 0.610521
O O9 0.898135 0.500000 0.647414
O O10 0.868030 0.741719 0.724972
O O11 0.952282 0.676613 0.735273
O O12 0.585534 0.500000 0.724017
O O13 0.616115 0.757932 0.781609
O O14 0.532065 0.718659 0.764295
O O15 0.102393 0.220643 0.108440
O O16 0.142523 0.000000 0.196672
O O17 0.863954 0.500000 0.121552
O O18 0.917913 0.693306 0.056351
O O19 0.478961 0.198788 0.905959
O O20 0.421128 0.000000 0.927968
O O21 0.485996 0.000000 0.200386
#
# Coordination Sequence:
#
# PCOD9178358 Si02
#       8
#     8   8   8   8   8   8   8   8
#     4  10  20  35  57  84 109 134 163 197 242 299
#     4  10  20  34  49  67  94 132 177 223 266 301
#     4  10  19  30  48  71  97 130 171 217 258 297
#     4  11  22  33  46  66  95 130 172 216 257 301
#     4   9  17  29  48  74 103 131 161 199 245 296
#     4  10  20  35  52  70  99 133 165 205 250 299
#     4   8  16  30  46  65  91 127 167 204 244 290
#     4   9  17  29  44  64  90 125 168 209 251 294
#
# _framework density 16.455015
#
# number of rings (size 3 to 8) (size 9 to 14) (size 15 to 20)
#    0.000    2.375    1.250    2.625    0.000    5.750 
#    0.000    2.500    0.000    0.000    0.000    0.875 
#    0.000    0.000    0.000    0.000    0.000    0.000 
#
# Total GULP energy -178390.829747 kJ/mol
# GULP energy per Si atom -5574.713430 kJ/mol
# Density = 1.641756 g / cm^3
# Si number density = 16.455015 Si / 1000 Ang^3
#
#
#
# Elastic Constant Matrix: (Units=GPa)
#
#
# Indices 1 2 3 4 5 6 
#
# 1 81.6750 38.8551 47.6345 0.0000 -14.2884 0.0000
# 2 38.8551 54.7120 52.2244 0.0000 -10.4316 0.0000
# 3 47.6345 52.2244 134.8133 0.0000 -14.8615 0.0000
# 4 0.0000 0.0000 0.0000 25.1584 0.0000 -1.5664
# 5 -14.2884 -10.4316 -14.8615 0.0000 19.7055 0.0000
# 6 0.0000 0.0000 0.0000 -1.5664 0.0000 24.2130
#
#
#
# Elastic Compliance Matrix: (Units=1/GPa)
#
#
# Indices 1 2 3 4 5 6 
#
# 1 0.019796 -0.010748 -0.002046 0.000000 0.007121 0.000000
# 2 -0.010748 0.035891 -0.009675 0.000000 0.003910 0.000000
# 3 -0.002046 -0.009675 0.012172 0.000000 0.002575 0.000000
# 4 0.000000 0.000000 0.000000 0.039909 0.000000 0.002582
# 5 0.007121 0.003910 0.002575 0.000000 0.059923 0.000000
# 6 0.000000 0.000000 0.000000 0.002582 0.000000 0.041467
#
#
# Mechanical properties :
#
#
# Convention : Reuss Voigt Hill
#
# Bulk Modulus (GPa) = 43.62696 60.95869 52.29283
# Shear Modulus (GPa) = 19.10329 22.64781 20.87555
#
# Velocity S-wave (km/s) = 3.41095 3.71394 3.56567
# Velocity P-wave (km/s) = 6.48716 7.45099 6.98572
#
# Compressibility (1/GPa) = 0.02292161
#
# Stress axis : x y z
#
# Youngs Moduli (GPa) = 50.51599 27.86239 82.15336
#
# Poissons Ratio (x) = 0.29945 0.16809
# Poissons Ratio (y) = 0.54292 0.79482
# Poissons Ratio (z) = 0.10336 0.26957
#
# Static dielectric constant tensor:
#      x y z
#    x 1.551440 0.000000 -0.005560 
#    y 0.000000 1.547860 0.000000 
#    z -0.005560 0.000000 1.571700 
# 
# From -- ./inp_files/248520.got.cif
#   From: 2010.05.17/outbox.cif.g08.bks.cpg/sg12_125_cif.got.tgz:248520.got - 2010.06.03 13:09:07.
