data_PCOD9178765
_publ_section_title
;
Structure prediction by ZEFSAII (Michael W. Deem and Ramdas Pophale) SiO2 
 PCOD9178765
Probable space group: C 2/M
;
_chemical_formula_sum "Si O2"
_cell_formula_units_Z 64
_cell_length_a 25.828719
_cell_length_b 30.932013
_cell_length_c 5.266381
_cell_angle_alpha 90.000000
_cell_angle_beta 103.822225
_cell_angle_gamma 90.000000
_cell_volume 4085.650362
_symmetry_space_group_name_H-M "C 2/M"
_symmetry_group_IT_number 12
_symmetry_cell_setting 'monoclinic'
loop_
_space_group_symop_operation_xyz
x,y,z
-x,y,-z
-x,-y,-z
x,-y,z
1/2+x,1/2+y,z
1/2-x,1/2+y,-z
1/2-x,1/2-y,-z
1/2+x,1/2-y,z
loop_
_atom_site_type_symbol
_atom_site_label
_atom_site_fract_x
_atom_site_fract_y
_atom_site_fract_z
Si Si1 0.261721 0.818209 0.610718
Si Si2 0.104865 0.950917 0.549668
Si Si3 0.835007 0.242319 0.573739
Si Si4 0.323506 0.451097 0.868385
Si Si5 0.055434 0.215246 0.532296
Si Si6 0.549346 0.374506 0.238934
Si Si7 0.873270 0.171856 0.998390
Si Si8 0.231270 0.133481 0.048946
O O1 0.214562 0.782908 0.617225
O O2 0.313780 0.789106 0.623247
O O3 0.247203 0.842331 0.329761
O O4 0.266405 0.851111 0.852283
O O5 0.149790 0.946530 0.379624
O O6 0.062514 0.912648 0.450874
O O7 0.082901 0.000000 0.496452
O O8 0.131501 0.947716 0.857675
O O9 0.892014 0.240493 0.499741
O O10 0.846134 0.211827 0.826706
O O11 0.302335 0.500000 0.858397
O O12 0.278755 0.415918 0.886001
O O13 0.041683 0.173507 0.343541
O O14 0.076351 0.191959 0.807359
O O15 0.000000 0.240125 0.500000
O O16 0.500000 0.385706 0.000000
O O17 0.604490 0.365481 0.154853
O O18 0.827906 0.149564 0.109838
#
# Coordination Sequence:
#
# PCOD9178765 Si02
#       8
#     8   8   8   8   8   8   8   8
#     4  10  21  32  49  72  94 119 151 189 239 280
#     4  10  21  34  49  65  87 118 153 197 250 297
#     4   9  21  31  45  68  94 118 149 197 233 279
#     4  10  20  34  51  70  91 117 153 193 235 287
#     4  11  20  32  49  66  88 122 161 197 238 281
#     4  11  21  31  44  65  86 115 157 207 249 287
#     4  10  19  31  46  64  90 118 153 197 237 279
#     4  11  19  32  52  70  90 121 152 188 238 283
#
# _framework density 15.664581
#
# number of rings (size 3 to 8) (size 9 to 14) (size 15 to 20)
#    0.000    1.750    3.750    1.500    3.500    1.750 
#    0.000    0.000    0.000    2.625    0.000    0.000 
#    0.000    0.000    0.000    0.000    0.000    3.750 
#
# Total GULP energy -178206.145025 kJ/mol
# GULP energy per Si atom -5568.942032 kJ/mol
# Density = 1.562893 g / cm^3
# Si number density = 15.664581 Si / 1000 Ang^3
#
#
#
# Elastic Constant Matrix: (Units=GPa)
#
#
# Indices 1 2 3 4 5 6 
#
# 1 71.6612 35.2919 9.0273 0.0000 1.1821 0.0000
# 2 35.2919 65.3164 9.0041 0.0000 6.6565 0.0000
# 3 9.0273 9.0041 40.6801 0.0000 -9.5053 0.0000
# 4 0.0000 0.0000 0.0000 120.4125 0.0000 -19.0936
# 5 1.1821 6.6565 -9.5053 0.0000 14.6858 0.0000
# 6 0.0000 0.0000 0.0000 -19.0936 0.0000 13.9202
#
#
#
# Elastic Compliance Matrix: (Units=1/GPa)
#
#
# Indices 1 2 3 4 5 6 
#
# 1 0.019231 -0.010422 -0.001436 0.000000 0.002247 0.000000
# 2 -0.010422 0.023141 -0.005966 0.000000 -0.013512 0.000000
# 3 -0.001436 -0.005966 0.031670 0.000000 0.023318 0.000000
# 4 0.000000 0.000000 0.000000 0.010613 0.000000 0.014557
# 5 0.002247 -0.013512 0.023318 0.000000 0.089128 0.000000
# 6 0.000000 0.000000 0.000000 0.014557 0.000000 0.091806
#
#
# Mechanical properties :
#
#
# Convention : Reuss Voigt Hill
#
# Bulk Modulus (GPa) = 26.04625 31.58935 28.81780
# Shear Modulus (GPa) = 15.92179 38.09267 27.00723
#
# Velocity S-wave (km/s) = 3.19159 4.93665 4.15673
# Velocity P-wave (km/s) = 5.49957 7.25974 6.44008
#
# Compressibility (1/GPa) = 0.03839325
#
# Stress axis : x y z
#
# Youngs Moduli (GPa) = 51.99939 43.21375 31.57591
#
# Poissons Ratio (x) = 0.45037 0.04534
# Poissons Ratio (y) = 0.54194 0.18839
# Poissons Ratio (z) = 0.07466 0.25783
#
# Static dielectric constant tensor:
#      x y z
#    x 1.621000 0.000000 -0.034130 
#    y 0.000000 1.538000 0.000000 
#    z -0.034130 0.000000 1.598160 
# 
# From -- ./inp_files/26663.got.cif
#   From: 2010.05.17/outbox.cif.g08.bks.cpg/sg12_14_cif.got.tgz:26663.got - 2010.06.03 13:09:07.
