data_PCOD9178493
_publ_section_title
;
Structure prediction by ZEFSAII (Michael W. Deem and Ramdas Pophale) SiO2 
 PCOD9178493
Probable space group: C 2/M
;
_chemical_formula_sum "Si O2"
_cell_formula_units_Z 64
_cell_length_a 25.834711
_cell_length_b 7.771084
_cell_length_c 24.714084
_cell_angle_alpha 90.000000
_cell_angle_beta 133.473950
_cell_angle_gamma 90.000000
_cell_volume 3600.636085
_symmetry_space_group_name_H-M "C 2/M"
_symmetry_group_IT_number 12
_symmetry_cell_setting 'monoclinic'
loop_
_space_group_symop_operation_xyz
x,y,z
-x,y,-z
-x,-y,-z
x,-y,z
1/2+x,1/2+y,z
1/2-x,1/2+y,-z
1/2-x,1/2-y,-z
1/2+x,1/2-y,z
loop_
_atom_site_type_symbol
_atom_site_label
_atom_site_fract_x
_atom_site_fract_y
_atom_site_fract_z
Si Si1 0.227443 0.199266 0.083025
Si Si2 0.913567 0.207184 0.076897
Si Si3 0.886762 0.292542 0.179524
Si Si4 0.466370 0.708108 0.918581
Si Si5 0.833046 0.708137 0.338656
Si Si6 0.452713 0.789123 0.337459
Si Si7 0.062617 0.298355 0.499502
Si Si8 0.805700 0.302219 0.821306
O O1 0.305552 0.274904 0.127808
O O2 0.210775 0.202236 0.134961
O O3 0.231901 0.000000 0.068966
O O4 0.160167 0.275505 0.002499
O O5 0.915486 0.248631 0.141282
O O6 0.981573 0.269292 0.091653
O O7 0.912633 0.000000 0.069974
O O8 0.883802 0.500000 0.182422
O O9 0.935207 0.231625 0.264402
O O10 0.466085 0.500000 0.918331
O O11 0.384816 0.765024 0.857351
O O12 0.500000 0.764170 0.000000
O O13 0.834740 0.500000 0.341525
O O14 0.886122 0.760188 0.327966
O O15 0.868269 0.773566 0.419940
O O16 0.754168 0.763095 0.266259
O O17 0.525017 0.726458 0.418764
O O18 0.455250 0.000000 0.340165
O O19 0.077357 0.500000 0.499472
O O20 0.000000 0.292759 0.500000
O O21 0.800427 0.500000 0.833199
#
# Coordination Sequence:
#
# PCOD9178493 Si02
#       8
#     8   8   8   8   8   8   8   8
#     4  10  19  35  52  68  94 133 170 195 232 283
#     4  10  21  35  52  70  92 124 165 206 238 284
#     4  10  19  30  49  73 102 133 159 194 236 285
#     4  10  20  38  58  69  86 123 166 204 246 292
#     4   9  15  28  48  68  96 129 163 196 230 284
#     4   8  13  24  44  71  98 126 161 195 231 275
#     4   7  11  20  41  70  93 120 160 200 227 264
#     4  12  23  31  47  75 102 126 157 204 249 286
#
# _framework density 17.774636999999998
#
# number of rings (size 3 to 8) (size 9 to 14) (size 15 to 20)
#    0.000    2.500    2.500    3.000    0.000    1.750 
#    0.000    0.000    0.000    4.125    0.000    0.875 
#    0.000    0.000    0.000    0.000    0.000    0.000 
#
# Total GULP energy -178383.974635 kJ/mol
# GULP energy per Si atom -5574.499207 kJ/mol
# Density = 1.773418 g / cm^3
# Si number density = 17.774637 Si / 1000 Ang^3
#
#
#
# Elastic Constant Matrix: (Units=GPa)
#
#
# Indices 1 2 3 4 5 6 
#
# 1 96.7071 -2.7463 76.2576 0.0004 -5.2368 0.0005
# 2 -2.7463 23.5678 1.5927 0.0008 0.7352 0.0015
# 3 76.2576 1.5927 182.3501 0.0000 9.1820 0.0000
# 4 0.0004 0.0008 0.0000 76.7562 0.0001 97.3926
# 5 -5.2368 0.7352 9.1820 0.0001 14.6948 0.0001
# 6 0.0005 0.0015 0.0000 97.3926 0.0001 150.5541
#
#
#
# Elastic Compliance Matrix: (Units=1/GPa)
#
#
# Indices 1 2 3 4 5 6 
#
# 1 0.017051 0.002171 -0.007692 0.000000 0.010774 0.000000
# 2 0.002171 0.042786 -0.001252 0.000000 -0.000585 -0.000001
# 3 -0.007692 -0.001252 0.009134 0.000000 -0.008386 0.000000
# 4 0.000000 0.000000 0.000000 0.072709 0.000000 -0.047035
# 5 0.010774 -0.000585 -0.008386 0.000000 0.077160 0.000000
# 6 0.000000 -0.000001 0.000000 -0.047035 0.000000 0.037069
#
#
# Mechanical properties :
#
#
# Convention : Reuss Voigt Hill
#
# Bulk Modulus (GPa) = 18.04255 50.31481 34.17868
# Shear Modulus (GPa) = 17.36522 63.56907 40.46715
#
# Velocity S-wave (km/s) = 3.12904 5.98678 4.77663
# Velocity P-wave (km/s) = 4.81947 8.72681 7.04927
#
# Compressibility (1/GPa) = 0.05542453
#
# Stress axis : x y z
#
# Youngs Moduli (GPa) = 58.64690 23.37186 109.48134
#
# Poissons Ratio (x) = -0.05073 0.84215
# Poissons Ratio (y) = -0.12730 0.13707
# Poissons Ratio (z) = 0.45112 0.02926
#
# Static dielectric constant tensor:
#      x y z
#    x 1.568980 0.000000 0.006060 
#    y 0.000000 1.657910 0.000000 
#    z 0.006060 0.000000 1.646280 
# 
# From -- ./inp_files/348586.got.cif
#   From: 2010.05.17/outbox.cif.g08.bks.cpg/sg12_175_cif.got.tgz:348586.got - 2010.06.03 13:09:07.
