data_PCOD9178728
_publ_section_title
;
Structure prediction by ZEFSAII (Michael W. Deem and Ramdas Pophale) SiO2 
 PCOD9178728
Probable space group: C 2/M
;
_chemical_formula_sum "Si O2"
_cell_formula_units_Z 56
_cell_length_a 9.213533
_cell_length_b 25.469755
_cell_length_c 18.243510
_cell_angle_alpha 90.000000
_cell_angle_beta 51.916670
_cell_angle_gamma 90.000000
_cell_volume 3369.746898
_symmetry_space_group_name_H-M "C 2/M"
_symmetry_group_IT_number 12
_symmetry_cell_setting 'monoclinic'
loop_
_space_group_symop_operation_xyz
x,y,z
-x,y,-z
-x,-y,-z
x,-y,z
1/2+x,1/2+y,z
1/2-x,1/2+y,-z
1/2-x,1/2-y,-z
1/2+x,1/2-y,z
loop_
_atom_site_type_symbol
_atom_site_label
_atom_site_fract_x
_atom_site_fract_y
_atom_site_fract_z
Si Si1 0.668736 0.862602 0.002436
Si Si2 0.501232 0.562020 0.087345
Si Si3 0.937683 0.779757 0.861280
Si Si4 0.044297 0.662313 0.798167
Si Si5 0.270140 0.859622 0.760590
Si Si6 0.823444 0.301684 0.606397
Si Si7 0.089731 0.207965 0.304711
O O1 0.776382 0.807070 0.958147
O O2 0.820938 0.906685 0.938436
O O3 0.500000 0.862729 0.000000
O O4 0.574847 0.873326 0.110144
O O5 0.512585 0.500000 0.095123
O O6 0.322661 0.587225 0.181880
O O7 0.500000 0.572558 0.000000
O O8 0.889205 0.784285 0.789860
O O9 0.997465 0.719587 0.847447
O O10 0.113979 0.815622 0.825859
O O11 0.265326 0.660735 0.725701
O O12 0.952903 0.655298 0.747875
O O13 0.306593 0.852930 0.663261
O O14 0.848356 0.253355 0.657113
O O15 0.631746 0.297432 0.621360
O O16 0.000000 0.302409 0.500000
#
# Coordination Sequence:
#
# PCOD9178728 Si02
#       7
#     8   8   8   8   8   8   8
#     4  11  22  30  48  77 107 145 178 209 253 306
#     4  10  21  39  57  76 102 137 181 220 258 310
#     4  10  19  31  44  70 108 146 175 206 243 298
#     4  12  18  32  46  73 110 146 172 214 245 305
#     4  10  20  34  54  74 103 138 179 217 261 300
#     4  11  21  35  52  73 104 141 181 217 258 309
#     4  11  19  30  48  70 104 143 175 212 247 297
#
# _framework density 16.618459999999999
#
# number of rings (size 3 to 8) (size 9 to 14) (size 15 to 20)
#    0.000    1.286    7.143    0.857    0.000    0.286 
#    0.000    0.000    0.000    0.429    0.000    0.000 
#    0.000    1.143    0.000    0.000    0.000    0.000 
#
# Total GULP energy -155876.741818 kJ/mol
# GULP energy per Si atom -5567.026493 kJ/mol
# Density = 1.658064 g / cm^3
# Si number density = 16.618460 Si / 1000 Ang^3
#
#
#
# Elastic Constant Matrix: (Units=GPa)
#
#
# Indices 1 2 3 4 5 6 
#
# 1 102.0730 4.4368 21.3981 0.0000 -33.0745 0.0000
# 2 4.4368 43.2275 13.8113 0.0000 -8.5872 0.0000
# 3 21.3981 13.8113 86.4335 0.0000 -23.1838 0.0000
# 4 0.0000 0.0000 0.0000 11.9520 0.0000 0.5603
# 5 -33.0745 -8.5872 -23.1838 0.0000 23.2619 0.0000
# 6 0.0000 0.0000 0.0000 0.5603 0.0000 9.1831
#
#
#
# Elastic Compliance Matrix: (Units=1/GPa)
#
#
# Indices 1 2 3 4 5 6 
#
# 1 0.019319 0.003322 0.003253 0.000000 0.031937 0.000000
# 2 0.003322 0.025810 -0.001534 0.000000 0.012722 0.000000
# 3 0.003253 -0.001534 0.016512 0.000000 0.020515 0.000000
# 4 0.000000 0.000000 0.000000 0.083908 0.000000 -0.005119
# 5 0.031937 0.012722 0.020515 0.000000 0.113540 0.000000
# 6 0.000000 0.000000 0.000000 -0.005119 0.000000 0.109208
#
#
# Mechanical properties :
#
#
# Convention : Reuss Voigt Hill
#
# Bulk Modulus (GPa) = 13.94265 34.55850 24.25058
# Shear Modulus (GPa) = 13.08479 21.68525 17.38502
#
# Velocity S-wave (km/s) = 2.80905 3.61624 3.23790
# Velocity P-wave (km/s) = 4.35075 6.18682 5.34817
#
# Compressibility (1/GPa) = 0.07172236
#
# Stress axis : x y z
#
# Youngs Moduli (GPa) = 51.76255 38.74475 60.56130
#
# Poissons Ratio (x) = -0.12872 -0.19698
# Poissons Ratio (y) = -0.17196 0.09291
# Poissons Ratio (z) = -0.16836 0.05944
#
# Static dielectric constant tensor:
#      x y z
#    x 1.599930 0.000000 -0.002650 
#    y 0.000000 1.560740 0.000000 
#    z -0.002650 0.000000 1.600520 
# 
# From -- ./inp_files/199321.got.cif
#   From: 2010.05.17/outbox.cif.g08.bks.cpg/sg12_100_cif.got.tgz:199321.got - 2010.06.03 13:09:07.
