data_PCOD9178214
_publ_section_title
;
Structure prediction by ZEFSAII (Michael W. Deem and Ramdas Pophale) SiO2 
 PCOD9178214
Probable space group: C 2/M
;
_chemical_formula_sum "Si O2"
_cell_formula_units_Z 56
_cell_length_a 26.911820
_cell_length_b 9.488958
_cell_length_c 13.690991
_cell_angle_alpha 90.000000
_cell_angle_beta 61.184400
_cell_angle_gamma 90.000000
_cell_volume 3063.286195
_symmetry_space_group_name_H-M "C 2/M"
_symmetry_group_IT_number 12
_symmetry_cell_setting 'monoclinic'
loop_
_space_group_symop_operation_xyz
x,y,z
-x,y,-z
-x,-y,-z
x,-y,z
1/2+x,1/2+y,z
1/2-x,1/2+y,-z
1/2-x,1/2-y,-z
1/2+x,1/2-y,z
loop_
_atom_site_type_symbol
_atom_site_label
_atom_site_fract_x
_atom_site_fract_y
_atom_site_fract_z
Si Si1 0.570128 0.664823 0.038954
Si Si2 0.262399 0.837029 0.839831
Si Si3 0.565769 0.665717 0.821046
Si Si4 0.933350 0.666861 0.365628
Si Si5 0.129989 0.333400 0.371502
Si Si6 0.833241 0.663395 0.973502
Si Si7 0.533206 0.339804 0.365172
O O1 0.582725 0.500000 0.040891
O O2 0.502711 0.682421 0.112893
O O3 0.607383 0.756510 0.076193
O O4 0.585210 0.701682 0.912175
O O5 0.304143 0.802741 0.710863
O O6 0.302858 0.825756 0.897193
O O7 0.243611 0.000000 0.850469
O O8 0.209591 0.737217 0.909817
O O9 0.577418 0.500000 0.792297
O O10 0.588544 0.762364 0.712858
O O11 0.942714 0.500000 0.345678
O O12 0.891553 0.688362 0.497650
O O13 0.991821 0.746318 0.338124
O O14 0.121089 0.500000 0.356802
O O15 0.091092 0.238781 0.337874
O O16 0.841061 0.500000 0.988293
O O17 0.500000 0.349206 0.500000
O O18 0.540803 0.500000 0.320661
#
# Coordination Sequence:
#
# PCOD9178214 Si02
#       7
#     8   8   8   8   8   8   8
#     4   9  19  36  55  73  99 133 166 205 252 298
#     4   9  19  35  52  72 101 135 168 200 245 301
#     4   9  19  35  53  75 100 131 170 204 244 301
#     4  10  19  30  47  71 101 133 164 204 249 291
#     4   9  18  32  48  69  99 134 168 202 244 297
#     4  10  20  33  52  78 102 126 165 211 251 293
#     4   9  17  28  42  64  95 131 168 201 236 284
#
# _framework density 18.281022
#
# number of rings (size 3 to 8) (size 9 to 14) (size 15 to 20)
#    0.000    2.714    0.000    2.143    2.000    4.571 
#    0.000    1.429    0.000    0.857    0.000    0.000 
#    0.000    0.000    0.000    0.000    0.000    0.000 
#
# Total GULP energy -156202.098875 kJ/mol
# GULP energy per Si atom -5578.646388 kJ/mol
# Density = 1.823941 g / cm^3
# Si number density = 18.281022 Si / 1000 Ang^3
#
#
#
# Elastic Constant Matrix: (Units=GPa)
#
#
# Indices 1 2 3 4 5 6 
#
# 1 24.2422 15.8191 0.5040 0.0000 0.7229 0.0000
# 2 15.8191 62.0328 31.8250 0.0000 3.0964 0.0000
# 3 0.5040 31.8250 76.7647 0.0000 6.2385 0.0000
# 4 0.0000 0.0000 0.0000 22.0252 0.0000 -0.3615
# 5 0.7229 3.0964 6.2385 0.0000 24.8402 0.0000
# 6 0.0000 0.0000 0.0000 -0.3615 0.0000 21.2165
#
#
#
# Elastic Compliance Matrix: (Units=1/GPa)
#
#
# Indices 1 2 3 4 5 6 
#
# 1 0.051979 -0.016602 0.006632 0.000000 -0.001109 0.000000
# 2 -0.016602 0.025783 -0.010574 0.000000 -0.000075 0.000000
# 3 0.006632 -0.010574 0.017635 0.000000 -0.003304 0.000000
# 4 0.000000 0.000000 0.000000 0.045415 0.000000 0.000774
# 5 -0.001109 -0.000075 -0.003304 0.000000 0.041129 0.000000
# 6 0.000000 0.000000 0.000000 0.000774 0.000000 0.047146
#
#
# Mechanical properties :
#
#
# Convention : Reuss Voigt Hill
#
# Bulk Modulus (GPa) = 18.41322 28.81507 23.61415
# Shear Modulus (GPa) = 17.34429 21.27585 19.31007
#
# Velocity S-wave (km/s) = 3.08353 3.41518 3.25359
# Velocity P-wave (km/s) = 4.77198 5.59891 5.20190
#
# Compressibility (1/GPa) = 0.05430880
#
# Stress axis : x y z
#
# Youngs Moduli (GPa) = 19.23843 38.78554 56.70389
#
# Poissons Ratio (x) = 0.64393 -0.37605
# Poissons Ratio (y) = 0.31940 0.59958
# Poissons Ratio (z) = -0.12759 0.41011
#
# Static dielectric constant tensor:
#      x y z
#    x 1.608390 0.000000 0.006840 
#    y 0.000000 1.611650 0.000000 
#    z 0.006840 0.000000 1.673350 
# 
# From -- ./inp_files/242992.got.cif
#   From: 2010.05.17/outbox.cif.g08.bks.cpg/sg12_122_cif.got.tgz:242992.got - 2010.06.03 13:09:07.
