data_PCOD9178447
_publ_section_title
;
Structure prediction by ZEFSAII (Michael W. Deem and Ramdas Pophale) SiO2 
 PCOD9178447
Probable space group: C 2/M
;
_chemical_formula_sum "Si O2"
_cell_formula_units_Z 56
_cell_length_a 31.536662
_cell_length_b 7.987708
_cell_length_c 14.734818
_cell_angle_alpha 90.000000
_cell_angle_beta 62.388358
_cell_angle_gamma 90.000000
_cell_volume 3289.046661
_symmetry_space_group_name_H-M "C 2/M"
_symmetry_group_IT_number 12
_symmetry_cell_setting 'monoclinic'
loop_
_space_group_symop_operation_xyz
x,y,z
-x,y,-z
-x,-y,-z
x,-y,z
1/2+x,1/2+y,z
1/2-x,1/2+y,-z
1/2-x,1/2-y,-z
1/2+x,1/2-y,z
loop_
_atom_site_type_symbol
_atom_site_label
_atom_site_fract_x
_atom_site_fract_y
_atom_site_fract_z
Si Si1 0.387863 0.187487 0.780864
Si Si2 0.285049 0.189996 0.199118
Si Si3 0.624607 0.803188 0.548506
Si Si4 0.052494 0.000000 0.330668
Si Si5 0.061229 0.000000 0.539336
Si Si6 0.802065 0.192846 0.985541
Si Si7 0.184990 0.312658 0.309256
Si Si8 0.204441 0.298688 0.607140
O O1 0.425953 0.336069 0.739560
O O2 0.358885 0.202868 0.715279
O O3 0.408409 0.000000 0.766578
O O4 0.346034 0.209751 0.896492
O O5 0.303420 0.284591 0.092481
O O6 0.227509 0.188177 0.247072
O O7 0.293409 0.263988 0.291319
O O8 0.303572 0.000000 0.177665
O O9 0.585551 0.666269 0.558149
O O10 0.664571 0.797056 0.429724
O O11 0.654519 0.754339 0.608205
O O12 0.608706 0.000000 0.569433
O O13 0.067337 0.000000 0.423295
O O14 0.995251 0.000000 0.386005
O O15 0.807767 0.000000 0.954469
O O16 0.750000 0.250000 0.000000
O O17 0.205265 0.500000 0.276322
O O18 0.206200 0.500000 0.610239
O O19 0.250000 0.250000 0.500000
#
# Coordination Sequence:
#
# PCOD9178447 Si02
#       8
#     8   8   8   4   4   8   8   8
#     4  11  22  38  57  79 113 154 188 232 287 335
#     4  11  22  32  48  77 113 153 195 232 272 324
#     4  10  21  37  55  80 113 153 193 231 283 337
#     4  11  24  40  58  89 113 145 199 240 285 347
#     4  11  24  38  62  85 113 151 193 242 287 339
#     4  12  23  35  52  78 112 152 196 232 274 340
#     4  10  19  30  48  75 111 152 189 224 272 328
#     4  10  21  33  50  77 112 152 194 231 272 337
#
# _framework density 17.026209999999999
#
# number of rings (size 3 to 8) (size 9 to 14) (size 15 to 20)
#    0.000    1.286    5.000    1.714    3.000    1.143 
#    0.000    1.429    0.000    0.000    0.000    2.000 
#    0.000    4.571    0.000    0.000    0.000    0.000 
#
# Total GULP energy -156203.632817 kJ/mol
# GULP energy per Si atom -5578.701172 kJ/mol
# Density = 1.698746 g / cm^3
# Si number density = 17.026210 Si / 1000 Ang^3
#
#
#
# Elastic Constant Matrix: (Units=GPa)
#
#
# Indices 1 2 3 4 5 6 
#
# 1 64.1675 42.1162 27.5321 0.0000 -2.0014 0.0000
# 2 42.1162 96.6062 25.8209 0.0000 -12.2160 0.0000
# 3 27.5321 25.8209 78.0290 0.0000 2.5676 0.0000
# 4 0.0000 0.0000 0.0000 21.9414 0.0000 0.7882
# 5 -2.0014 -12.2160 2.5676 0.0000 25.8071 0.0000
# 6 0.0000 0.0000 0.0000 0.7882 0.0000 18.5006
#
#
#
# Elastic Compliance Matrix: (Units=1/GPa)
#
#
# Indices 1 2 3 4 5 6 
#
# 1 0.023857 -0.009238 -0.005295 0.000000 -0.001996 0.000000
# 2 -0.009238 0.015858 -0.002219 0.000000 0.007011 0.000000
# 3 -0.005295 -0.002219 0.015517 0.000000 -0.003005 0.000000
# 4 0.000000 0.000000 0.000000 0.045646 0.000000 -0.001945
# 5 -0.001996 0.007011 -0.003005 0.000000 0.042212 0.000000
# 6 0.000000 0.000000 0.000000 -0.001945 0.000000 0.054135
#
#
# Mechanical properties :
#
#
# Convention : Reuss Voigt Hill
#
# Bulk Modulus (GPa) = 46.02198 47.74903 46.88551
# Shear Modulus (GPa) = 21.01086 22.80540 21.90813
#
# Velocity S-wave (km/s) = 3.51669 3.66379 3.59099
# Velocity P-wave (km/s) = 6.60138 6.78256 6.69258
#
# Compressibility (1/GPa) = 0.02172875
#
# Stress axis : x y z
#
# Youngs Moduli (GPa) = 41.91612 63.05894 64.44413
#
# Poissons Ratio (x) = 0.58252 0.34125
# Poissons Ratio (y) = 0.38721 0.14300
# Poissons Ratio (z) = 0.22196 0.13992
#
# Static dielectric constant tensor:
#      x y z
#    x 1.566880 0.000000 0.035670 
#    y 0.000000 1.622120 0.000000 
#    z 0.035670 0.000000 1.581580 
# 
# From -- ./inp_files/248182.got.cif
#   From: 2010.05.17/outbox.cif.g08.bks.cpg/sg12_125_cif.got.tgz:248182.got - 2010.06.03 13:09:07.
