data_PCOD9178828
_publ_section_title
;
Structure prediction by ZEFSAII (Michael W. Deem and Ramdas Pophale) SiO2 
 PCOD9178828
Probable space group: C 2/M
;
_chemical_formula_sum "Si O2"
_cell_formula_units_Z 56
_cell_length_a 14.442041
_cell_length_b 11.904089
_cell_length_c 13.560577
_cell_angle_alpha 90.000000
_cell_angle_beta 81.509209
_cell_angle_gamma 90.000000
_cell_volume 2305.773225
_symmetry_space_group_name_H-M "C 2/M"
_symmetry_group_IT_number 12
_symmetry_cell_setting 'monoclinic'
loop_
_space_group_symop_operation_xyz
x,y,z
-x,y,-z
-x,-y,-z
x,-y,z
1/2+x,1/2+y,z
1/2-x,1/2+y,-z
1/2-x,1/2-y,-z
1/2+x,1/2-y,z
loop_
_atom_site_type_symbol
_atom_site_label
_atom_site_fract_x
_atom_site_fract_y
_atom_site_fract_z
Si Si1 0.733062 0.124852 0.275639
Si Si2 0.709630 0.367015 0.935528
Si Si3 0.464696 0.786053 0.105029
Si Si4 0.071215 0.868116 0.361493
Si Si5 0.637500 0.632046 0.144970
Si Si6 0.606213 0.828831 0.476746
Si Si7 0.603592 0.787170 0.683871
O O1 0.711374 0.145757 0.162483
O O2 0.652989 0.126512 0.370405
O O3 0.812459 0.208659 0.296721
O O4 0.773983 0.000000 0.273059
O O5 0.686845 0.500000 0.935443
O O6 0.620714 0.295261 0.913737
O O7 0.720420 0.347080 0.052022
O O8 0.549455 0.704584 0.123695
O O9 0.432826 0.847720 0.210758
O O10 0.500000 0.847821 0.000000
O O11 0.147021 0.853663 0.261057
O O12 0.106667 0.805775 0.453818
O O13 0.982027 0.793830 0.339493
O O14 0.051493 0.000000 0.376818
O O15 0.612739 0.500000 0.140266
O O16 0.500000 0.868195 0.500000
O O17 0.641000 0.851894 0.581389
#
# Coordination Sequence:
#
# PCOD9178828 Si02
#       7
#     8   8   8   8   8   8   8
#     4  10  19  31  47  65  86 115 150 185 218 250
#     4   8  13  21  36  59  84 109 139 175 211 247
#     4   8  12  19  35  60  86 108 130 162 211 264
#     4   9  17  29  46  67  91 118 143 170 213 266
#     4   8  12  20  36  59  86 112 137 167 206 255
#     4  10  21  33  44  62  90 119 148 181 214 255
#     4   9  17  29  46  67  89 110 139 181 220 256
#
# _framework density 24.286864000000001
#
# number of rings (size 3 to 8) (size 9 to 14) (size 15 to 20)
#    0.000    3.143    0.000    1.286    0.000    8.571 
#    0.000    0.714    0.000    0.000    0.000    0.000 
#    0.000    0.571    0.000    0.000    0.000   38.429 
#
# Total GULP energy -156009.855309 kJ/mol
# GULP energy per Si atom -5571.780547 kJ/mol
# Density = 2.423159 g / cm^3
# Si number density = 24.286864 Si / 1000 Ang^3
#
#
#
# Elastic Constant Matrix: (Units=GPa)
#
#
# Indices 1 2 3 4 5 6 
#
# 1 46.7320 15.3112 24.5574 0.0000 -5.5476 0.0000
# 2 15.3112 48.0869 11.9452 0.0000 3.5494 0.0000
# 3 24.5574 11.9452 289.8692 0.0000 -6.6881 0.0000
# 4 0.0000 0.0000 0.0000 20.5237 0.0000 -5.1165
# 5 -5.5476 3.5494 -6.6881 0.0000 33.3857 0.0000
# 6 0.0000 0.0000 0.0000 -5.1165 0.0000 -8.7879
#
#
#
# Elastic Compliance Matrix: (Units=1/GPa)
#
#
# Indices 1 2 3 4 5 6 
#
# 1 0.025501 -0.008043 -0.001719 0.000000 0.004748 0.000000
# 2 -0.008043 0.023744 -0.000388 0.000000 -0.003939 0.000000
# 3 -0.001719 -0.000388 0.003623 0.000000 0.000481 0.000000
# 4 0.000000 0.000000 0.000000 0.042548 0.000000 -0.024773
# 5 0.004748 -0.003939 0.000481 0.000000 0.031257 0.000000
# 6 0.000000 0.000000 0.000000 -0.024773 0.000000 -0.099370
#
#
# Mechanical properties :
#
#
# Convention : Reuss Voigt Hill
#
# Bulk Modulus (GPa) = 30.70636 54.25731 42.48183
# Shear Modulus (GPa) = 85.52969 31.21591 58.37280
#
# Velocity S-wave (km/s) = 5.94078 3.58900 4.90784
# Velocity P-wave (km/s) = 7.72838 6.28993 7.04596
#
# Compressibility (1/GPa) = 0.03256655
#
# Stress axis : x y z
#
# Youngs Moduli (GPa) = 39.21406 42.11635 276.04565
#
# Poissons Ratio (x) = 0.33874 0.47464
# Poissons Ratio (y) = 0.31540 0.10709
# Poissons Ratio (z) = 0.06743 0.01634
#
# Static dielectric constant tensor:
#      x y z
#    x 1.906170 0.000000 -0.011730 
#    y 0.000000 1.988790 0.000000 
#    z -0.011730 0.000000 2.113310 
# 
# From -- ./inp_files/224670.got.cif
#   From: 2010.05.17/outbox.cif.g08.bks.cpg/sg12_113_cif.got.tgz:224670.got - 2010.06.03 13:09:07.
