data_PCOD9178678
_publ_section_title
;
Structure prediction by ZEFSAII (Michael W. Deem and Ramdas Pophale) SiO2 
 PCOD9178678
Probable space group: C 2/M
;
_chemical_formula_sum "Si O2"
_cell_formula_units_Z 36
_cell_length_a 5.360246
_cell_length_b 32.730717
_cell_length_c 11.943787
_cell_angle_alpha 90.000000
_cell_angle_beta 58.875296
_cell_angle_gamma 90.000000
_cell_volume 1793.818616
_symmetry_space_group_name_H-M "C 2/M"
_symmetry_group_IT_number 12
_symmetry_cell_setting 'monoclinic'
loop_
_space_group_symop_operation_xyz
x,y,z
-x,y,-z
-x,-y,-z
x,-y,z
1/2+x,1/2+y,z
1/2-x,1/2+y,-z
1/2-x,1/2-y,-z
1/2+x,1/2-y,z
loop_
_atom_site_type_symbol
_atom_site_label
_atom_site_fract_x
_atom_site_fract_y
_atom_site_fract_z
Si Si1 0.037296 0.148020 0.614989
Si Si2 0.867583 0.596567 0.146295
Si Si3 0.218547 0.047282 0.784736
Si Si4 0.630661 0.266344 0.648181
Si Si5 0.500000 0.923161 0.500000
O O1 0.752901 0.131770 0.743998
O O2 0.000000 0.165755 0.500000
O O3 0.182921 0.185189 0.648281
O O4 0.232122 0.108033 0.550321
O O5 0.586939 0.568751 0.177250
O O6 0.110698 0.570544 0.156146
O O7 0.000000 0.612525 0.000000
O O8 0.428680 0.051253 0.626908
O O9 0.171507 0.000000 0.823049
O O10 0.750000 0.250000 0.500000
O O11 0.289574 0.257477 0.710355
#
# Coordination Sequence:
#
# PCOD9178678 Si02
#       5
#     8   8   8   8   4
#     4  11  20  36  60  83 117 150 190 236 284 339
#     4  11  25  41  59  85 116 155 197 234 285 345
#     4  11  23  39  62  85 116 151 194 245 292 340
#     4  10  19  30  52  85 113 139 182 231 279 326
#     4  10  21  36  56  92 118 148 190 244 296 342
#
# _framework density 20.068916999999999
#
# number of rings (size 3 to 8) (size 9 to 14) (size 15 to 20)
#    0.000    1.333    4.444    3.000    0.000    2.667 
#    0.000    3.333    0.000    1.333    0.000    0.000 
#    0.000    0.000    0.000    0.000    0.000    0.000 
#
# Total GULP energy -100409.704668 kJ/mol
# GULP energy per Si atom -5578.316926 kJ/mol
# Density = 2.002324 g / cm^3
# Si number density = 20.068917 Si / 1000 Ang^3
#
#
#
# Elastic Constant Matrix: (Units=GPa)
#
#
# Indices 1 2 3 4 5 6 
#
# 1 108.0019 10.5862 0.5919 0.0000 10.4655 0.0000
# 2 10.5862 84.8605 6.5586 0.0000 -3.2941 0.0000
# 3 0.5919 6.5586 81.7647 0.0000 7.9999 0.0000
# 4 0.0000 0.0000 0.0000 1.1347 0.0000 2.1201
# 5 10.4655 -3.2941 7.9999 0.0000 18.5997 0.0000
# 6 0.0000 0.0000 0.0000 2.1201 0.0000 27.5215
#
#
#
# Elastic Compliance Matrix: (Units=1/GPa)
#
#
# Indices 1 2 3 4 5 6 
#
# 1 0.010006 -0.001539 0.000656 0.000000 -0.006185 0.000000
# 2 -0.001539 0.012218 -0.001321 0.000000 0.003598 0.000000
# 3 0.000656 -0.001321 0.012935 0.000000 -0.006166 0.000000
# 4 0.000000 0.000000 0.000000 1.029499 0.000000 -0.079305
# 5 -0.006185 0.003598 -0.006166 0.000000 0.060534 0.000000
# 6 0.000000 0.000000 0.000000 -0.079305 0.000000 0.042444
#
#
# Mechanical properties :
#
#
# Convention : Reuss Voigt Hill
#
# Bulk Modulus (GPa) = 32.51962 34.45560 33.48761
# Shear Modulus (GPa) = 4.22907 26.57719 15.40313
#
# Velocity S-wave (km/s) = 1.45322 3.64304 2.77341
# Velocity P-wave (km/s) = 4.36520 5.90775 5.19406
#
# Compressibility (1/GPa) = 0.03075067
#
# Stress axis : x y z
#
# Youngs Moduli (GPa) = 99.94360 81.84799 77.31118
#
# Poissons Ratio (x) = 0.12596 -0.05073
# Poissons Ratio (y) = 0.15381 0.10212
# Poissons Ratio (z) = -0.06557 0.10811
#
# Static dielectric constant tensor:
#      x y z
#    x 1.818650 0.000000 -0.011750 
#    y 0.000000 1.675710 0.000000 
#    z -0.011750 0.000000 1.705180 
# 
# From -- ./inp_files/115805.got.cif
#   From: 2010.05.17/outbox.cif.g08.bks.cpg/sg12_58_cif.got.tgz:115805.got - 2010.06.03 13:09:07.
