data_PCOD9178165
_publ_section_title
;
Structure prediction by ZEFSAII (Michael W. Deem and Ramdas Pophale) SiO2 
 PCOD9178165
Probable space group: C 2/M
;
_chemical_formula_sum "Si O2"
_cell_formula_units_Z 58
_cell_length_a 29.870022
_cell_length_b 8.235267
_cell_length_c 32.172072
_cell_angle_alpha 90.000000
_cell_angle_beta 159.177923
_cell_angle_gamma 90.000000
_cell_volume 2813.142411
_symmetry_space_group_name_H-M "C 2/M"
_symmetry_group_IT_number 12
_symmetry_cell_setting 'monoclinic'
loop_
_space_group_symop_operation_xyz
x,y,z
-x,y,-z
-x,-y,-z
x,-y,z
1/2+x,1/2+y,z
1/2-x,1/2+y,-z
1/2-x,1/2-y,-z
1/2+x,1/2-y,z
loop_
_atom_site_type_symbol
_atom_site_label
_atom_site_fract_x
_atom_site_fract_y
_atom_site_fract_z
Si Si1 0.372766 0.691378 0.662192
Si Si2 0.437797 0.314362 0.337337
Si Si3 0.009630 0.687570 0.953148
Si Si4 0.286214 0.313755 0.280016
Si Si5 0.409657 0.809220 0.604761
Si Si6 0.000000 0.000000 0.000000
Si Si7 0.093001 0.687189 0.222056
Si Si8 0.858535 0.318733 0.427683
O O1 0.371818 0.500000 0.669560
O O2 0.430036 0.725010 0.666651
O O3 0.226082 0.748817 0.531269
O O4 0.440192 0.777873 0.759198
O O5 0.415465 0.500000 0.305798
O O6 0.321293 0.255579 0.264392
O O7 0.483196 0.221169 0.336133
O O8 0.552777 0.300936 0.470006
O O9 0.057543 0.500000 0.003964
O O10 0.860619 0.683892 0.836294
O O11 0.009193 0.711595 0.902896
O O12 0.049063 0.852430 0.010548
O O13 0.330398 0.500000 0.321354
O O14 0.353796 0.211710 0.374419
O O15 0.395419 0.000000 0.600184
O O16 0.133779 0.500000 0.253029
O O17 0.215087 0.795692 0.318099
O O18 0.901827 0.500000 0.475048
#
# Coordination Sequence:
#
# PCOD9178165 Si02
#       8
#     8   8   8   8   8   2   8   8
#     4  10  19  30  47  65  94 132 176 218 250 290
#     4  11  20  31  46  63  93 136 178 213 247 288
#     4   9  21  38  55  81 108 133 165 202 256 317
#     4   9  20  35  48  66  96 133 167 209 247 293
#     4  10  20  31  42  65  94 134 178 217 255 281
#     4  12  22  36  64  82 102 136 154 208 260 334
#     4  10  19  32  50  70  99 136 168 210 253 295
#     4  11  20  28  42  66  94 130 177 213 244 280
#
# _framework density 20.617512000000001
#
# number of rings (size 3 to 8) (size 9 to 14) (size 15 to 20)
#    0.000    1.931    1.379    4.345    4.828    3.862 
#    0.000    0.000    0.000    0.000    0.000    0.000 
#    0.000    1.103    2.207    0.552    0.000    0.000 
#
# Total GULP energy -161516.882104 kJ/mol
# GULP energy per Si atom -5569.547659 kJ/mol
# Density = 2.057059 g / cm^3
# Si number density = 20.617512 Si / 1000 Ang^3
#
#
#
# Elastic Constant Matrix: (Units=GPa)
#
#
# Indices 1 2 3 4 5 6 
#
# 1 123.2075 26.5784 11.1839 0.0011 -24.9037 0.0006
# 2 26.5784 82.5894 25.4853 -0.0004 -19.2086 -0.0004
# 3 11.1839 25.4853 18.9147 0.0017 -12.4425 0.0000
# 4 0.0011 -0.0004 0.0017 9.0423 0.0007 -6.4762
# 5 -24.9037 -19.2086 -12.4425 0.0007 32.2889 0.0000
# 6 0.0006 -0.0004 0.0000 -6.4762 0.0000 31.4973
#
#
#
# Elastic Compliance Matrix: (Units=1/GPa)
#
#
# Indices 1 2 3 4 5 6 
#
# 1 0.009818 -0.001990 0.001445 -0.000003 0.006946 -0.000001
# 2 -0.001990 0.021235 -0.026972 0.000007 0.000704 0.000002
# 3 0.001445 -0.026972 0.105203 -0.000027 0.025609 -0.000006
# 4 -0.000003 0.000007 -0.000027 0.129690 -0.000011 0.026666
# 5 0.006946 0.000704 0.025609 -0.000011 0.046615 -0.000002
# 6 -0.000001 0.000002 -0.000006 0.026666 -0.000002 0.037232
#
#
# Mechanical properties :
#
#
# Convention : Reuss Voigt Hill
#
# Bulk Modulus (GPa) = 12.31196 39.02297 25.66747
# Shear Modulus (GPa) = 11.57671 25.32995 18.45333
#
# Velocity S-wave (km/s) = 2.37217 3.50889 2.99495
# Velocity P-wave (km/s) = 3.67253 5.94850 4.94328
#
# Compressibility (1/GPa) = 0.08122184
#
# Stress axis : x y z
#
# Youngs Moduli (GPa) = 101.84903 47.09113 9.50546
#
# Poissons Ratio (x) = 0.09372 -0.01374
# Poissons Ratio (y) = 0.20270 0.25638
# Poissons Ratio (z) = -0.14719 1.27016
#
# Static dielectric constant tensor:
#      x y z
#    x 1.771740 0.000000 -0.009940 
#    y 0.000000 1.723020 0.000000 
#    z -0.009940 0.000000 1.767550 
# 
# From -- ./inp_files/383595.got.cif
#   From: 2010.05.17/outbox.cif.g08.bks.cpg/sg12_192_cif.got.tgz:383595.got - 2010.06.03 13:09:07.
