data_PCOD9178878
_publ_section_title
;
Structure prediction by ZEFSAII (Michael W. Deem and Ramdas Pophale) SiO2 
 PCOD9178878
Probable space group: C 2/M
;
_chemical_formula_sum "Si O2"
_cell_formula_units_Z 64
_cell_length_a 25.255875
_cell_length_b 15.898016
_cell_length_c 8.644290
_cell_angle_alpha 90.000000
_cell_angle_beta 111.674347
_cell_angle_gamma 90.000000
_cell_volume 3225.445377
_symmetry_space_group_name_H-M "C 2/M"
_symmetry_group_IT_number 12
_symmetry_cell_setting 'monoclinic'
loop_
_space_group_symop_operation_xyz
x,y,z
-x,y,-z
-x,-y,-z
x,-y,z
1/2+x,1/2+y,z
1/2-x,1/2+y,-z
1/2-x,1/2-y,-z
1/2+x,1/2-y,z
loop_
_atom_site_type_symbol
_atom_site_label
_atom_site_fract_x
_atom_site_fract_y
_atom_site_fract_z
Si Si1 0.140375 0.590362 0.052196
Si Si2 0.885323 0.764421 0.995370
Si Si3 0.555931 0.403498 0.457977
Si Si4 0.573210 0.588839 0.127595
Si Si5 0.814256 0.593804 0.249852
Si Si6 0.650677 0.281781 0.689753
Si Si7 0.799605 0.863232 0.726081
Si Si8 0.257804 0.400989 0.345741
O O1 0.112234 0.500000 0.037292
O O2 0.098751 0.668766 0.014594
O O3 0.191826 0.596638 0.229010
O O4 0.170054 0.594790 0.914492
O O5 0.931173 0.830792 0.985250
O O6 0.827267 0.780442 0.832474
O O7 0.869358 0.781803 0.154411
O O8 0.500000 0.388558 0.500000
O O9 0.575802 0.500000 0.514509
O O10 0.544529 0.401977 0.262496
O O11 0.602830 0.332380 0.542771
O O12 0.558842 0.500000 0.036655
O O13 0.641489 0.587037 0.233081
O O14 0.832451 0.500000 0.329127
O O15 0.838771 0.683102 0.341715
O O16 0.746683 0.599929 0.206773
O O17 0.706810 0.339116 0.728016
O O18 0.769177 0.863149 0.528142
O O19 0.276792 0.500000 0.361797
#
# Coordination Sequence:
#
# PCOD9178878 Si02
#       8
#     8   8   8   8   8   8   8   8
#     4   9  19  33  45  65 100 141 176 205 232 277
#     4   9  20  31  47  72 100 131 168 204 245 286
#     4  10  21  39  59  76  97 126 160 201 253 307
#     4   9  18  33  50  71 101 131 159 197 245 291
#     4  10  20  33  48  69 102 140 172 201 239 282
#     4  11  20  33  51  74  97 128 171 208 242 295
#     4  10  19  31  47  68 108 139 169 201 239 282
#     4  11  20  29  44  67  98 135 174 204 236 286
#
# _framework density 19.842220999999999
#
# number of rings (size 3 to 8) (size 9 to 14) (size 15 to 20)
#    0.750    1.375    1.250    3.000    0.000    6.000 
#    0.000    0.625    0.000    2.625    0.000    0.000 
#    0.000    4.000    0.000    0.000    0.000    0.000 
#
# Total GULP energy -178164.620174 kJ/mol
# GULP energy per Si atom -5567.644380 kJ/mol
# Density = 1.979706 g / cm^3
# Si number density = 19.842221 Si / 1000 Ang^3
#
#
#
# Elastic Constant Matrix: (Units=GPa)
#
#
# Indices 1 2 3 4 5 6 
#
# 1 57.2415 30.9666 5.8162 0.0000 -8.3683 0.0000
# 2 30.9666 166.3349 44.0275 0.0000 -5.7458 0.0000
# 3 5.8162 44.0275 33.2195 0.0000 0.4576 0.0000
# 4 0.0000 0.0000 0.0000 13.7622 0.0000 5.7248
# 5 -8.3683 -5.7458 0.4576 0.0000 21.7403 0.0000
# 6 0.0000 0.0000 0.0000 5.7248 0.0000 -10.8907
#
#
#
# Elastic Compliance Matrix: (Units=1/GPa)
#
#
# Indices 1 2 3 4 5 6 
#
# 1 0.020464 -0.004009 0.001637 0.000000 0.006783 0.000000
# 2 -0.004009 0.010208 -0.012847 0.000000 0.001425 0.000000
# 3 0.001637 -0.012847 0.046895 0.000000 -0.003752 0.000000
# 4 0.000000 0.000000 0.000000 0.059625 0.000000 0.031343
# 5 0.006783 0.001425 -0.003752 0.000000 0.049064 0.000000
# 6 0.000000 0.000000 0.000000 0.031343 0.000000 -0.075346
#
#
# Mechanical properties :
#
#
# Convention : Reuss Voigt Hill
#
# Bulk Modulus (GPa) = 21.21865 46.49071 33.85468
# Shear Modulus (GPa) = 31.83561 16.65474 24.24518
#
# Velocity S-wave (km/s) = 4.00989 2.90031 3.49936
# Velocity P-wave (km/s) = 5.67061 5.89040 5.78155
#
# Compressibility (1/GPa) = 0.04712836
#
# Stress axis : x y z
#
# Youngs Moduli (GPa) = 48.86689 97.96277 21.32438
#
# Poissons Ratio (x) = 0.39269 -0.03490
# Poissons Ratio (y) = 0.19589 0.27395
# Poissons Ratio (z) = -0.07997 1.25852
#
# Static dielectric constant tensor:
#      x y z
#    x 1.677870 0.000000 -0.006790 
#    y 0.000000 1.777750 0.000000 
#    z -0.006790 0.000000 1.699190 
# 
# From -- ./inp_files/104631.got.cif
#   From: 2010.05.17/outbox.cif.g08.bks.cpg/sg12_53_cif.got.tgz:104631.got - 2010.06.03 13:09:07.
