data_PCOD9178174
_publ_section_title
;
Structure prediction by ZEFSAII (Michael W. Deem and Ramdas Pophale) SiO2 
 PCOD9178174
Probable space group: C 2/M
;
_chemical_formula_sum "Si O2"
_cell_formula_units_Z 48
_cell_length_a 5.133472
_cell_length_b 14.729060
_cell_length_c 31.803721
_cell_angle_alpha 90.000000
_cell_angle_beta 80.496264
_cell_angle_gamma 90.000000
_cell_volume 2371.712907
_symmetry_space_group_name_H-M "C 2/M"
_symmetry_group_IT_number 12
_symmetry_cell_setting 'monoclinic'
loop_
_space_group_symop_operation_xyz
x,y,z
-x,y,-z
-x,-y,-z
x,-y,z
1/2+x,1/2+y,z
1/2-x,1/2+y,-z
1/2-x,1/2-y,-z
1/2+x,1/2-y,z
loop_
_atom_site_type_symbol
_atom_site_label
_atom_site_fract_x
_atom_site_fract_y
_atom_site_fract_z
Si Si1 0.500000 0.815804 0.000000
Si Si2 0.447880 0.609153 0.639223
Si Si3 0.496216 0.108641 0.591564
Si Si4 0.768922 0.312546 0.180732
Si Si5 0.500000 0.813092 0.500000
Si Si6 0.793917 0.310038 0.271045
Si Si7 0.024490 0.313425 0.909108
O O1 0.530073 0.863969 0.953965
O O2 0.250000 0.750000 0.000000
O O3 0.458650 0.500000 0.637318
O O4 0.744828 0.643404 0.624588
O O5 0.314333 0.636283 0.686333
O O6 0.265941 0.642144 0.605475
O O7 0.466965 0.130787 0.543564
O O8 0.500099 0.000000 0.595425
O O9 0.478440 0.271262 0.180550
O O10 0.779239 0.359239 0.226019
O O11 0.873444 0.361705 0.135962
O O12 0.750000 0.750000 0.500000
O O13 0.589214 0.225771 0.271171
O O14 0.235662 0.230097 0.908974
#
# Coordination Sequence:
#
# PCOD9178174 Si02
#       7
#     4   8   8   8   4   8   8
#     4   8  12  16  24  38  56  86 125 162 199 240
#     4  10  21  36  54  74  96 125 158 189 222 264
#     4  10  22  40  57  73  99 132 157 180 222 274
#     4   8  14  23  34  51  75 103 134 169 212 260
#     4  12  25  38  57  84 106 124 154 194 227 256
#     4  10  19  30  47  69  92 119 150 186 228 269
#     4   8  12  18  27  40  62  91 126 164 201 247
#
# _framework density 20.238536
#
# number of rings (size 3 to 8) (size 9 to 14) (size 15 to 20)
#    0.000    2.667    0.000    2.250    0.000    4.000 
#    0.000    3.333    0.000    0.000    0.000    0.000 
#    0.000    0.000    0.000    0.750    0.000    1.667 
#
# Total GULP energy -133707.644489 kJ/mol
# GULP energy per Si atom -5571.151854 kJ/mol
# Density = 2.019247 g / cm^3
# Si number density = 20.238536 Si / 1000 Ang^3
#
#
#
# Elastic Constant Matrix: (Units=GPa)
#
#
# Indices 1 2 3 4 5 6 
#
# 1 105.0555 1.2438 -12.1271 0.0000 1.4668 0.0000
# 2 1.2438 16.8244 -8.2792 0.0000 1.0013 0.0000
# 3 -12.1271 -8.2792 129.4852 0.0000 1.5128 0.0000
# 4 0.0000 0.0000 0.0000 -15.2953 0.0000 2.4632
# 5 1.4668 1.0013 1.5128 0.0000 33.0184 0.0000
# 6 0.0000 0.0000 0.0000 2.4632 0.0000 3.7901
#
#
#
# Elastic Compliance Matrix: (Units=1/GPa)
#
#
# Indices 1 2 3 4 5 6 
#
# 1 0.009631 -0.000246 0.000892 0.000000 -0.000461 0.000000
# 2 -0.000246 0.061513 0.003934 0.000000 -0.002035 0.000000
# 3 0.000892 0.003934 0.008064 0.000000 -0.000528 0.000000
# 4 0.000000 0.000000 0.000000 -0.059185 0.000000 0.038464
# 5 -0.000461 -0.002035 -0.000528 0.000000 0.030393 0.000000
# 6 0.000000 0.000000 0.000000 0.038464 0.000000 0.238847
#
#
# Mechanical properties :
#
#
# Convention : Reuss Voigt Hill
#
# Bulk Modulus (GPa) = 11.31642 23.67113 17.49378
# Shear Modulus (GPa) = 16.15206 22.33781 19.24494
#
# Velocity S-wave (km/s) = 2.82810 3.32584 3.08702
# Velocity P-wave (km/s) = 4.03335 5.14488 4.62264
#
# Compressibility (1/GPa) = 0.08836714
#
# Stress axis : x y z
#
# Youngs Moduli (GPa) = 103.83073 16.25684 124.00636
#
# Poissons Ratio (x) = 0.00400 -0.11057
# Poissons Ratio (y) = 0.02552 -0.48782
# Poissons Ratio (z) = -0.09258 -0.06395
#
# Static dielectric constant tensor:
#      x y z
#    x 1.710030 0.000000 0.002910 
#    y 0.000000 1.672580 0.000000 
#    z 0.002910 0.000000 1.826400 
# 
# From -- ./inp_files/371440.got.cif
#   From: 2010.05.17/outbox.cif.g08.bks.cpg/sg12_186_cif.got.tgz:371440.got - 2010.06.03 13:09:07.
