data_PCOD9178039
_publ_section_title
;
Structure prediction by ZEFSAII (Michael W. Deem and Ramdas Pophale) SiO2 
 PCOD9178039
Probable space group: C 2/M
;
_chemical_formula_sum "Si O2"
_cell_formula_units_Z 64
_cell_length_a 14.734199
_cell_length_b 9.063472
_cell_length_c 23.554809
_cell_angle_alpha 90.000000
_cell_angle_beta 70.404006
_cell_angle_gamma 90.000000
_cell_volume 2963.390720
_symmetry_space_group_name_H-M "C 2/M"
_symmetry_group_IT_number 12
_symmetry_cell_setting 'monoclinic'
loop_
_space_group_symop_operation_xyz
x,y,z
-x,y,-z
-x,-y,-z
x,-y,z
1/2+x,1/2+y,z
1/2-x,1/2+y,-z
1/2-x,1/2-y,-z
1/2+x,1/2-y,z
loop_
_atom_site_type_symbol
_atom_site_label
_atom_site_fract_x
_atom_site_fract_y
_atom_site_fract_z
Si Si1 0.178673 0.675974 0.189157
Si Si2 0.665190 0.671466 0.683554
Si Si3 0.612247 0.828753 0.317794
Si Si4 0.902070 0.824823 0.182516
Si Si5 0.731329 0.165165 0.562620
Si Si6 0.947847 0.834313 0.564292
Si Si7 0.753225 0.326206 0.939021
Si Si8 0.928181 0.669277 0.068400
O O1 0.160465 0.500000 0.190034
O O2 0.115013 0.737264 0.253758
O O3 0.289477 0.690363 0.187058
O O4 0.175802 0.733311 0.125414
O O5 0.642413 0.500000 0.678218
O O6 0.776654 0.675746 0.682817
O O7 0.600765 0.723420 0.750779
O O8 0.665607 0.757987 0.624283
O O9 0.548644 0.746572 0.376998
O O10 0.584931 0.000000 0.320842
O O11 0.959353 0.727349 0.124178
O O12 0.925783 0.000000 0.174452
O O13 0.750000 0.250000 0.500000
O O14 0.836580 0.156031 0.569573
O O15 0.696617 0.000000 0.557747
O O16 0.000000 0.759728 0.500000
O O17 0.988173 0.000000 0.561908
O O18 0.769757 0.500000 0.942617
O O19 0.649258 0.289471 0.935196
O O20 0.750000 0.250000 0.000000
O O21 0.891142 0.500000 0.082570
O O22 0.000000 0.664305 0.000000
#
# Coordination Sequence:
#
# PCOD9178039 Si02
#       8
#     8   8   8   8   8   8   8   8
#     4   7  12  24  42  64  89 115 143 181 226 267
#     4   8  14  26  44  66  91 116 146 187 232 273
#     4   8  13  24  43  65  87 112 145 182 220 263
#     4   8  14  26  45  67  90 118 151 188 231 276
#     4  10  19  30  46  67  91 120 152 186 226 271
#     4   9  18  31  45  64  91 119 145 178 222 265
#     4  10  19  32  50  71  96 125 158 194 236 284
#     4  10  20  32  47  70  99 128 158 194 235 277
#
# _framework density 21.596882999999998
#
# number of rings (size 3 to 8) (size 9 to 14) (size 15 to 20)
#    0.000    3.250    0.000    3.375    0.000    2.250 
#    0.000    6.875    0.000    1.500    0.000    3.500 
#    0.000    0.000    0.000    0.000    0.000    0.000 
#
# Total GULP energy -178184.195218 kJ/mol
# GULP energy per Si atom -5568.256101 kJ/mol
# Density = 2.154773 g / cm^3
# Si number density = 21.596883 Si / 1000 Ang^3
#
#
#
# Elastic Constant Matrix: (Units=GPa)
#
#
# Indices 1 2 3 4 5 6 
#
# 1 34.8921 -3.6779 3.2116 0.0000 4.6736 0.0000
# 2 -3.6779 61.9983 86.2248 0.0000 13.0011 0.0000
# 3 3.2116 86.2248 276.8890 0.0000 19.1927 0.0000
# 4 0.0000 0.0000 0.0000 34.5334 0.0000 -0.6138
# 5 4.6736 13.0011 19.1927 0.0000 16.5797 0.0000
# 6 0.0000 0.0000 0.0000 -0.6138 0.0000 6.0068
#
#
#
# Elastic Compliance Matrix: (Units=1/GPa)
#
#
# Indices 1 2 3 4 5 6 
#
# 1 0.031117 0.006561 -0.001565 0.000000 -0.012105 0.000000
# 2 0.006561 0.032720 -0.009088 0.000000 -0.016987 0.000000
# 3 -0.001565 -0.009088 0.006453 0.000000 0.000097 0.000000
# 4 0.000000 0.000000 0.000000 0.029010 0.000000 0.002964
# 5 -0.012105 -0.016987 0.000097 0.000000 0.076935 0.000000
# 6 0.000000 0.000000 0.000000 0.002964 0.000000 0.166781
#
#
# Mechanical properties :
#
#
# Convention : Reuss Voigt Hill
#
# Bulk Modulus (GPa) = 16.10162 60.58848 38.34505
# Shear Modulus (GPa) = 13.44444 30.62537 22.03490
#
# Velocity S-wave (km/s) = 2.49774 3.76978 3.19765
# Velocity P-wave (km/s) = 3.97366 6.86028 5.60596
#
# Compressibility (1/GPa) = 0.06210555
#
# Stress axis : x y z
#
# Youngs Moduli (GPa) = 32.13702 30.56258 154.96835
#
# Poissons Ratio (x) = -0.20051 0.24251
# Poissons Ratio (y) = -0.21084 1.40831
# Poissons Ratio (z) = 0.05029 0.27775
#
# Static dielectric constant tensor:
#      x y z
#    x 1.879240 0.000000 0.019200 
#    y 0.000000 1.755550 0.000000 
#    z 0.019200 0.000000 1.869900 
# 
# From -- ./inp_files/345542.got.cif
#   From: 2010.05.17/outbox.cif.g08.bks.cpg/sg12_173_cif.got.tgz:345542.got - 2010.06.03 13:09:07.
