data_PCOD9178414
_publ_section_title
;
Structure prediction by ZEFSAII (Michael W. Deem and Ramdas Pophale) SiO2 
 PCOD9178414
Probable space group: C 2/M
;
_chemical_formula_sum "Si O2"
_cell_formula_units_Z 64
_cell_length_a 25.449397
_cell_length_b 9.351253
_cell_length_c 12.178930
_cell_angle_alpha 90.000000
_cell_angle_beta 90.983435
_cell_angle_gamma 90.000000
_cell_volume 2897.960498
_symmetry_space_group_name_H-M "C 2/M"
_symmetry_group_IT_number 12
_symmetry_cell_setting 'monoclinic'
loop_
_space_group_symop_operation_xyz
x,y,z
-x,y,-z
-x,-y,-z
x,-y,z
1/2+x,1/2+y,z
1/2-x,1/2+y,-z
1/2-x,1/2-y,-z
1/2+x,1/2-y,z
loop_
_atom_site_type_symbol
_atom_site_label
_atom_site_fract_x
_atom_site_fract_y
_atom_site_fract_z
Si Si1 0.909333 0.829729 0.813352
Si Si2 0.269533 0.163935 0.172399
Si Si3 0.140676 0.170818 0.418698
Si Si4 0.910431 0.165083 0.253706
Si Si5 0.487297 0.833782 0.128579
Si Si6 0.443168 0.158466 0.448451
Si Si7 0.296790 0.665432 0.371819
Si Si8 0.830163 0.834800 0.994369
O O1 0.867879 0.809443 0.711589
O O2 0.963458 0.743059 0.809323
O O3 0.879747 0.789096 0.924572
O O4 0.920760 0.000000 0.817059
O O5 0.261803 0.238256 0.290193
O O6 0.217679 0.167799 0.095180
O O7 0.284618 0.000000 0.191672
O O8 0.312478 0.242808 0.097570
O O9 0.096032 0.271943 0.466520
O O10 0.190444 0.204469 0.500770
O O11 0.131621 0.000000 0.439068
O O12 0.946297 0.230459 0.350283
O O13 0.853116 0.176853 0.308867
O O14 0.932019 0.256689 0.153176
O O15 0.919899 0.000000 0.231611
O O16 0.484577 0.000000 0.161094
O O17 0.500000 0.824901 0.000000
O O18 0.500000 0.144708 0.500000
O O19 0.424197 0.000000 0.412834
O O20 0.279669 0.500000 0.367712
O O21 0.836826 0.000000 0.030810
#
# Coordination Sequence:
#
# PCOD9178414 Si02
#       8
#     8   8   8   8   8   8   8   8
#     4  10  21  39  62  82 109 149 192 233 275 333
#     4  10  20  35  58  86 115 144 183 231 281 335
#     4   9  19  35  54  79 107 143 188 231 275 328
#     4  10  21  36  54  76 103 143 190 229 267 320
#     4  11  25  40  53  78 116 150 184 231 285 337
#     4  10  19  30  48  74 104 138 176 225 279 323
#     4   9  19  35  56  82 113 146 184 232 280 326
#     4   9  20  38  59  85 113 146 185 230 281 332
#
# _framework density 22.084498
#
# number of rings (size 3 to 8) (size 9 to 14) (size 15 to 20)
#    0.000    2.250    0.000    3.000    1.750    8.000 
#    0.000    0.625    0.000    0.000    0.000    0.000 
#    0.000    0.000    0.000    0.000    0.000    0.000 
#
# Total GULP energy -178560.955816 kJ/mol
# GULP energy per Si atom -5580.029869 kJ/mol
# Density = 2.203423 g / cm^3
# Si number density = 22.084498 Si / 1000 Ang^3
#
#
#
# Elastic Constant Matrix: (Units=GPa)
#
#
# Indices 1 2 3 4 5 6 
#
# 1 49.4632 20.7384 15.3822 0.0000 2.0340 0.0000
# 2 20.7384 55.9485 45.5250 0.0000 9.2531 0.0000
# 3 15.3822 45.5250 129.8124 0.0000 16.9331 0.0000
# 4 0.0000 0.0000 0.0000 19.6358 0.0000 8.2224
# 5 2.0340 9.2531 16.9331 0.0000 39.0428 0.0000
# 6 0.0000 0.0000 0.0000 8.2224 0.0000 52.2781
#
#
#
# Elastic Compliance Matrix: (Units=1/GPa)
#
#
# Indices 1 2 3 4 5 6 
#
# 1 0.023975 -0.009268 0.000303 0.000000 0.000816 0.000000
# 2 -0.009268 0.028782 -0.008658 0.000000 -0.002583 0.000000
# 3 0.000303 -0.008658 0.011064 0.000000 -0.002762 0.000000
# 4 0.000000 0.000000 0.000000 0.054518 0.000000 -0.008575
# 5 0.000816 -0.002583 -0.002762 0.000000 0.027381 0.000000
# 6 0.000000 0.000000 0.000000 -0.008575 0.000000 0.020477
#
#
# Mechanical properties :
#
#
# Convention : Reuss Voigt Hill
#
# Bulk Modulus (GPa) = 34.99748 44.27948 39.63848
# Shear Modulus (GPa) = 23.70013 32.42991 28.06502
#
# Velocity S-wave (km/s) = 3.27946 3.83619 3.56870
# Velocity P-wave (km/s) = 5.49739 6.30201 5.91340
#
# Compressibility (1/GPa) = 0.02857349
#
# Stress axis : x y z
#
# Youngs Moduli (GPa) = 41.70979 34.74434 90.38012
#
# Poissons Ratio (x) = 0.32202 -0.02739
# Poissons Ratio (y) = 0.38658 0.78255
# Poissons Ratio (z) = -0.01264 0.30083
#
# Static dielectric constant tensor:
#      x y z
#    x 1.850660 0.000000 0.019790 
#    y 0.000000 1.760550 0.000000 
#    z 0.019790 0.000000 1.857510 
# 
# From -- ./inp_files/187415.got.cif
#   From: 2010.05.17/outbox.cif.g08.bks.cpg/sg12_94_cif.got.tgz:187415.got - 2010.06.03 13:09:07.
