data_PCOD9178200
_publ_section_title
;
Structure prediction by ZEFSAII (Michael W. Deem and Ramdas Pophale) SiO2 
 PCOD9178200
Probable space group: C 2/M
;
_chemical_formula_sum "Si O2"
_cell_formula_units_Z 56
_cell_length_a 15.759828
_cell_length_b 21.132631
_cell_length_c 7.149606
_cell_angle_alpha 90.000000
_cell_angle_beta 64.369205
_cell_angle_gamma 90.000000
_cell_volume 2146.847192
_symmetry_space_group_name_H-M "C 2/M"
_symmetry_group_IT_number 12
_symmetry_cell_setting 'monoclinic'
loop_
_space_group_symop_operation_xyz
x,y,z
-x,y,-z
-x,-y,-z
x,-y,z
1/2+x,1/2+y,z
1/2-x,1/2+y,-z
1/2-x,1/2-y,-z
1/2+x,1/2-y,z
loop_
_atom_site_type_symbol
_atom_site_label
_atom_site_fract_x
_atom_site_fract_y
_atom_site_fract_z
Si Si1 0.489790 0.779230 0.259603
Si Si2 0.336018 0.866199 0.327379
Si Si3 0.870382 0.167254 0.442797
Si Si4 0.349969 0.318955 0.013518
Si Si5 0.586714 0.000000 0.701122
Si Si6 0.156369 0.361131 0.229458
Si Si7 0.875795 0.500000 0.786355
Si Si8 0.524381 0.428431 0.200341
O O1 0.414816 0.815228 0.197544
O O2 0.420717 0.733207 0.449901
O O3 0.553517 0.836096 0.276856
O O4 0.568084 0.729512 0.117953
O O5 0.231330 0.845153 0.372954
O O6 0.337740 0.864067 0.552349
O O7 0.367936 0.937181 0.254367
O O8 0.856924 0.175075 0.231666
O O9 0.939501 0.107272 0.387430
O O10 0.239121 0.315221 0.081270
O O11 0.385698 0.383348 0.881161
O O12 0.473892 0.000000 0.805643
O O13 0.607177 0.000000 0.456456
O O14 0.171850 0.432066 0.138081
O O15 0.538663 0.500000 0.248208
O O16 0.500000 0.430125 0.000000
#
# Coordination Sequence:
#
# PCOD9178200 Si02
#       8
#     8   8   8   8   4   8   4   8
#     4  11  18  30  45  64  97 129 155 188 222 270
#     4  10  19  30  47  70  96 124 154 187 227 278
#     4   9  19  31  44  66  94 125 158 187 223 271
#     4   9  19  31  44  66  94 125 158 187 223 271
#     4   9  16  28  44  67  95 123 148 181 231 280
#     4  10  19  30  47  70  96 124 154 187 227 278
#     4   9  16  28  44  67  95 123 148 181 231 280
#     4   8  14  25  41  61  87 120 150 178 217 266
#
# _framework density 26.084762999999999
#
# number of rings (size 3 to 8) (size 9 to 14) (size 15 to 20)
#    0.000    2.571    1.429    2.571    2.000    0.000 
#    0.000    0.000    0.000    0.000    0.000    8.000 
#    0.000   36.571    0.000    0.000    0.000    0.000 
#
# Total GULP energy -156650.301712 kJ/mol
# GULP energy per Si atom -5594.653633 kJ/mol
# Density = 2.602539 g / cm^3
# Si number density = 26.084763 Si / 1000 Ang^3
#
#
#
# Elastic Constant Matrix: (Units=GPa)
#
#
# Indices 1 2 3 4 5 6 
#
# 1 110.3348 39.7936 58.1220 0.0000 -30.7400 0.0000
# 2 39.7936 215.8199 46.6341 0.0000 -38.5203 0.0000
# 3 58.1220 46.6341 110.7206 0.0000 -23.6127 0.0000
# 4 0.0000 0.0000 0.0000 32.2239 0.0000 -8.1024
# 5 -30.7400 -38.5203 -23.6127 0.0000 65.6837 0.0000
# 6 0.0000 0.0000 0.0000 -8.1024 0.0000 21.0796
#
#
#
# Elastic Compliance Matrix: (Units=1/GPa)
#
#
# Indices 1 2 3 4 5 6 
#
# 1 0.013508 -0.000493 -0.006061 0.000000 0.003853 0.000000
# 2 -0.000493 0.005491 -0.001534 0.000000 0.002438 0.000000
# 3 -0.006061 -0.001534 0.013064 0.000000 0.000960 0.000000
# 4 0.000000 0.000000 0.000000 0.034353 0.000000 0.013204
# 5 0.003853 0.002438 0.000960 0.000000 0.018803 0.000000
# 6 0.000000 0.000000 0.000000 0.013204 0.000000 0.052515
#
#
# Mechanical properties :
#
#
# Convention : Reuss Voigt Hill
#
# Bulk Modulus (GPa) = 62.94661 80.66388 71.80525
# Shear Modulus (GPa) = 31.40588 43.28581 37.34585
#
# Velocity S-wave (km/s) = 3.47363 4.07803 3.78790
# Velocity P-wave (km/s) = 6.34603 7.29141 6.83508
#
# Compressibility (1/GPa) = 0.01588648
#
# Stress axis : x y z
#
# Youngs Moduli (GPa) = 74.03170 182.11589 76.54358
#
# Poissons Ratio (x) = 0.08980 0.46395
# Poissons Ratio (y) = 0.03651 0.11741
# Poissons Ratio (z) = 0.44873 0.27936
#
# Static dielectric constant tensor:
#      x y z
#    x 2.026680 0.000000 0.093890 
#    y 0.000000 1.994730 0.000000 
#    z 0.093890 0.000000 2.117750 
# 
# From -- ./inp_files/159209.got.cif
#   From: 2010.05.17/outbox.cif.g08.bks.cpg/sg12_80_cif.got.tgz:159209.got - 2010.06.03 13:09:07.
