data_PCOD9178398
_publ_section_title
;
Structure prediction by ZEFSAII (Michael W. Deem and Ramdas Pophale) SiO2 
 PCOD9178398
Probable space group: C 2/M
;
_chemical_formula_sum "Si O2"
_cell_formula_units_Z 64
_cell_length_a 19.576595
_cell_length_b 8.854247
_cell_length_c 21.251815
_cell_angle_alpha 90.000000
_cell_angle_beta 89.687039
_cell_angle_gamma 90.000000
_cell_volume 3683.649813
_symmetry_space_group_name_H-M "C 2/M"
_symmetry_group_IT_number 12
_symmetry_cell_setting 'monoclinic'
loop_
_space_group_symop_operation_xyz
x,y,z
-x,y,-z
-x,-y,-z
x,-y,z
1/2+x,1/2+y,z
1/2-x,1/2+y,-z
1/2-x,1/2-y,-z
1/2+x,1/2-y,z
loop_
_atom_site_type_symbol
_atom_site_label
_atom_site_fract_x
_atom_site_fract_y
_atom_site_fract_z
Si Si1 0.674125 0.183681 0.744505
Si Si2 0.582989 0.325073 0.498224
Si Si3 0.668495 0.682104 0.112240
Si Si4 0.420899 0.182761 0.997987
Si Si5 0.921950 0.319758 0.632799
Si Si6 0.081620 0.317889 0.629346
Si Si7 0.667775 0.318292 0.256891
Si Si8 0.173643 0.316191 0.886313
O O1 0.625509 0.235625 0.688671
O O2 0.753028 0.224409 0.732747
O O3 0.655466 0.233555 0.815429
O O4 0.671170 0.000000 0.745041
O O5 0.500000 0.315247 0.500000
O O6 0.602336 0.500000 0.496866
O O7 0.604389 0.245217 0.433552
O O8 0.606447 0.248114 0.562728
O O9 0.665615 0.500000 0.107110
O O10 0.618112 0.755593 0.062691
O O11 0.651213 0.722186 0.184612
O O12 0.747741 0.727991 0.100436
O O13 0.419402 0.000000 0.996477
O O14 0.500000 0.230100 0.000000
O O15 0.378692 0.233675 0.059888
O O16 0.918217 0.500000 0.631136
O O17 0.880183 0.256522 0.691565
O O18 0.001987 0.276569 0.638430
O O19 0.085271 0.500000 0.625922
O O20 0.663049 0.500000 0.262035
O O21 0.173121 0.500000 0.885820
#
# Coordination Sequence:
#
# PCOD9178398 Si02
#       8
#     8   8   8   8   8   8   8   8
#     4   8  15  30  51  70  91 124 162 197 234 280
#     4   9  17  30  48  69  96 130 163 195 233 281
#     4   9  18  33  52  69  90 127 167 197 229 279
#     4  10  20  31  47  74 103 126 153 197 245 284
#     4  10  19  30  48  74 100 125 156 198 243 285
#     4   9  17  30  50  74  96 121 157 199 240 283
#     4   9  18  33  51  70  93 124 162 198 234 282
#     4   8  15  30  50  70  93 125 163 195 230 283
#
# _framework density 17.374072999999999
#
# number of rings (size 3 to 8) (size 9 to 14) (size 15 to 20)
#    0.000    3.000    0.000    2.625    0.000    3.750 
#    0.000    3.750    0.000    2.250    0.000    0.000 
#    0.000    0.000    0.000    0.000    0.000    0.000 
#
# Total GULP energy -178331.781039 kJ/mol
# GULP energy per Si atom -5572.868157 kJ/mol
# Density = 1.733453 g / cm^3
# Si number density = 17.374073 Si / 1000 Ang^3
#
#
#
# Elastic Constant Matrix: (Units=GPa)
#
#
# Indices 1 2 3 4 5 6 
#
# 1 95.1967 29.3900 114.2810 0.0000 0.3021 0.0000
# 2 29.3900 14.5838 41.9952 0.0000 -2.8898 0.0000
# 3 114.2810 41.9952 195.3890 0.0000 0.1750 0.0000
# 4 0.0000 0.0000 0.0000 30.2799 0.0000 -1.1315
# 5 0.3021 -2.8898 0.1750 0.0000 39.5011 0.0000
# 6 0.0000 0.0000 0.0000 -1.1315 0.0000 8.8472
#
#
#
# Elastic Compliance Matrix: (Units=1/GPa)
#
#
# Indices 1 2 3 4 5 6 
#
# 1 0.041730 -0.037835 -0.016273 0.000000 -0.003015 0.000000
# 2 -0.037835 0.221543 -0.025502 0.000000 0.016610 0.000000
# 3 -0.016273 -0.025502 0.020119 0.000000 -0.001830 0.000000
# 4 0.000000 0.000000 0.000000 0.033184 0.000000 0.004244
# 5 -0.003015 0.016610 -0.001830 0.000000 0.026562 0.000000
# 6 0.000000 0.000000 0.000000 0.004244 0.000000 0.113573
#
#
# Mechanical properties :
#
#
# Convention : Reuss Voigt Hill
#
# Bulk Modulus (GPa) = 8.05335 75.16687 41.61011
# Shear Modulus (GPa) = 7.60662 23.69252 15.64957
#
# Velocity S-wave (km/s) = 2.09467 3.69680 3.00449
# Velocity P-wave (km/s) = 3.23968 7.84726 6.00313
#
# Compressibility (1/GPa) = 0.12417196
#
# Stress axis : x y z
#
# Youngs Moduli (GPa) = 23.96354 4.51379 49.70519
#
# Poissons Ratio (x) = 0.17078 0.80884
# Poissons Ratio (y) = 0.90667 1.26758
# Poissons Ratio (z) = 0.38995 0.11511
#
# Static dielectric constant tensor:
#      x y z
#    x 1.578620 0.000000 0.000240 
#    y 0.000000 1.584020 0.000000 
#    z 0.000240 0.000000 1.583270 
# 
# From -- ./inp_files/314100.got.cif
#   From: 2010.05.17/outbox.cif.g08.bks.cpg/sg12_158_cif.got.tgz:314100.got - 2010.06.03 13:09:07.
