data_PCOD9178971
_publ_section_title
;
Structure prediction by ZEFSAII (Michael W. Deem and Ramdas Pophale) SiO2 
 PCOD9178971
Probable space group: C 2/M
;
_chemical_formula_sum "Si O2"
_cell_formula_units_Z 48
_cell_length_a 19.019873
_cell_length_b 7.336615
_cell_length_c 25.759152
_cell_angle_alpha 90.000000
_cell_angle_beta 31.808010
_cell_angle_gamma 90.000000
_cell_volume 1894.554037
_symmetry_space_group_name_H-M "C 2/M"
_symmetry_group_IT_number 12
_symmetry_cell_setting 'monoclinic'
loop_
_space_group_symop_operation_xyz
x,y,z
-x,y,-z
-x,-y,-z
x,-y,z
1/2+x,1/2+y,z
1/2-x,1/2+y,-z
1/2-x,1/2-y,-z
1/2+x,1/2-y,z
loop_
_atom_site_type_symbol
_atom_site_label
_atom_site_fract_x
_atom_site_fract_y
_atom_site_fract_z
Si Si1 0.341831 0.206358 0.214879
Si Si2 0.789636 0.285007 0.138787
Si Si3 0.970550 0.281418 0.352688
Si Si4 0.463117 0.778222 0.581165
Si Si5 0.790290 0.216835 0.916010
Si Si6 0.907870 0.295873 0.284565
O O1 0.362596 0.289767 0.144404
O O2 0.182123 0.199216 0.317409
O O3 0.374779 0.294171 0.249934
O O4 0.400374 0.000000 0.179026
O O5 0.819621 0.500000 0.121616
O O6 0.628831 0.260755 0.246226
O O7 0.809936 0.221194 0.066863
O O8 0.956497 0.500000 0.359045
O O9 0.943133 0.223249 0.429186
O O10 0.889132 0.210744 0.353706
O O11 0.500000 0.724891 0.500000
O O12 0.454496 0.000000 0.587866
O O13 0.932451 0.307908 0.818536
O O14 0.807788 0.000000 0.898152
O O15 0.750000 0.250000 0.000000
O O16 0.847846 0.500000 0.321276
#
# Coordination Sequence:
#
# PCOD9178971 Si02
#       6
#     8   8   8   8   8   8
#     4   9  17  30  48  68  89 114 146 184 223 261
#     4   8  15  28  45  64  85 112 146 179 213 257
#     4   8  14  26  44  63  84 114 149 180 213 257
#     4   9  17  29  45  65  90 120 151 182 217 259
#     4  10  19  31  48  68  90 116 146 180 217 259
#     4   9  17  30  48  68  89 114 146 184 223 261
#
# _framework density 25.335778000000001
#
# number of rings (size 3 to 8) (size 9 to 14) (size 15 to 20)
#    0.000    3.167    0.000    0.500    0.000    1.667 
#    0.000    1.667    0.000    5.000    0.000    0.000 
#    0.000    0.000    0.000    0.000    0.000    0.000 
#
# Total GULP energy -133667.666605 kJ/mol
# GULP energy per Si atom -5569.486109 kJ/mol
# Density = 2.527811 g / cm^3
# Si number density = 25.335778 Si / 1000 Ang^3
#
#
#
# Elastic Constant Matrix: (Units=GPa)
#
#
# Indices 1 2 3 4 5 6 
#
# 1 251.4352 11.7731 57.0448 0.0000 96.9800 0.0003
# 2 11.7731 113.0035 -0.0817 0.0006 10.3302 0.0033
# 3 57.0448 -0.0817 53.1058 -0.0001 39.4780 0.0000
# 4 0.0000 0.0006 -0.0001 -89.7081 0.0001 -123.1246
# 5 96.9800 10.3302 39.4780 0.0001 75.9499 -0.0004
# 6 0.0003 0.0033 0.0000 -123.1246 -0.0004 -154.7262
#
#
#
# Elastic Compliance Matrix: (Units=1/GPa)
#
#
# Indices 1 2 3 4 5 6 
#
# 1 0.007921 0.000022 -0.001609 0.000001 -0.009281 -0.000001
# 2 0.000022 0.009035 0.001507 0.000002 -0.002040 -0.000002
# 3 -0.001609 0.001507 0.031268 0.000001 -0.014403 -0.000001
# 4 0.000001 0.000002 0.000001 0.120931 -0.000003 -0.096232
# 5 -0.009281 -0.002040 -0.014403 -0.000003 0.032781 0.000002
# 6 -0.000001 -0.000002 -0.000001 -0.096232 0.000002 0.070114
#
#
# Mechanical properties :
#
#
# Convention : Reuss Voigt Hill
#
# Bulk Modulus (GPa) = 20.80601 61.66853 41.23727
# Shear Modulus (GPa) = 17.34717 -10.44300 3.45209
#
# Velocity S-wave (km/s) = 2.61950 -2.03243 1.16854
# Velocity P-wave (km/s) = 4.16881 4.34576 4.25820
#
# Compressibility (1/GPa) = 0.04806303
#
# Stress axis : x y z
#
# Youngs Moduli (GPa) = 126.24991 110.68574 31.98124
#
# Poissons Ratio (x) = -0.00244 0.05147
# Poissons Ratio (y) = -0.00278 -0.04819
# Poissons Ratio (z) = 0.20317 -0.16680
#
# Static dielectric constant tensor:
#      x y z
#    x 2.093750 0.000000 0.123340 
#    y 0.000000 2.007580 0.000000 
#    z 0.123340 0.000000 2.093290 
# 
# From -- ./inp_files/229300.got.cif
#   From: 2010.05.17/outbox.cif.g08.bks.cpg/sg12_115_cif.got.tgz:229300.got - 2010.06.03 13:09:07.
