data_PCOD9178012
_publ_section_title
;
Structure prediction by ZEFSAII (Michael W. Deem and Ramdas Pophale) SiO2 
 PCOD9178012
Probable space group: C 2/M
;
_chemical_formula_sum "Si O2"
_cell_formula_units_Z 48
_cell_length_a 24.313712
_cell_length_b 7.979966
_cell_length_c 27.548395
_cell_angle_alpha 90.000000
_cell_angle_beta 28.679369
_cell_angle_gamma 90.000000
_cell_volume 2565.111575
_symmetry_space_group_name_H-M "C 2/M"
_symmetry_group_IT_number 12
_symmetry_cell_setting 'monoclinic'
loop_
_space_group_symop_operation_xyz
x,y,z
-x,y,-z
-x,-y,-z
x,-y,z
1/2+x,1/2+y,z
1/2-x,1/2+y,-z
1/2-x,1/2-y,-z
1/2+x,1/2-y,z
loop_
_atom_site_type_symbol
_atom_site_label
_atom_site_fract_x
_atom_site_fract_y
_atom_site_fract_z
Si Si1 0.315154 0.199078 0.498164
Si Si2 0.051497 0.798334 0.884405
Si Si3 0.678362 0.294806 0.884238
Si Si4 0.113925 0.193093 0.380535
Si Si5 0.072184 0.307927 0.307990
Si Si6 0.703349 0.198709 0.685419
O O1 0.250000 0.250000 0.500000
O O2 0.446229 0.269761 0.396661
O O3 0.239982 0.244825 0.603692
O O4 0.327338 0.000000 0.490078
O O5 0.139023 0.742389 0.860041
O O6 0.085237 0.739509 0.804428
O O7 0.054105 0.000000 0.882667
O O8 0.925590 0.745657 0.000032
O O9 0.682527 0.500000 0.880036
O O10 0.804096 0.234185 0.803446
O O11 0.089125 0.301368 0.352771
O O12 0.206665 0.269203 0.345052
O O13 0.000000 0.182318 0.500000
O O14 0.143333 0.000000 0.343322
O O15 0.068707 0.500000 0.292914
O O16 0.717692 0.000000 0.673917
#
# Coordination Sequence:
#
# PCOD9178012 Si02
#       6
#     8   8   8   8   8   8
#     4  11  24  39  56  76  99 133 175 220 265 307
#     4   9  16  29  50  75 107 143 172 202 246 302
#     4   8  15  28  48  76 108 139 170 205 247 300
#     4  10  19  30  45  72 108 141 166 199 255 306
#     4  10  19  32  53  77 102 134 173 211 249 304
#     4  11  21  33  51  76 109 141 171 210 253 304
#
# _framework density 18.712636
#
# number of rings (size 3 to 8) (size 9 to 14) (size 15 to 20)
#    0.000    2.167    3.333    2.000    0.000    1.667 
#    0.000    2.500    0.000    1.000    0.000    0.000 
#    0.000    0.000    0.000    0.000    0.000    0.000 
#
# Total GULP energy -133637.245661 kJ/mol
# GULP energy per Si atom -5568.218569 kJ/mol
# Density = 1.867005 g / cm^3
# Si number density = 18.712636 Si / 1000 Ang^3
#
#
#
# Elastic Constant Matrix: (Units=GPa)
#
#
# Indices 1 2 3 4 5 6 
#
# 1 98.7222 4.8328 73.1791 0.0014 -0.5117 -0.0018
# 2 4.8328 22.5295 9.3357 0.0016 -3.2470 -0.0060
# 3 73.1791 9.3357 166.4466 0.0007 -3.9564 -0.0015
# 4 0.0014 0.0016 0.0007 11.6851 -0.0011 2.8956
# 5 -0.5117 -3.2470 -3.9564 -0.0011 12.1824 0.0005
# 6 -0.0018 -0.0060 -0.0015 2.8956 0.0005 -2.0584
#
#
#
# Elastic Compliance Matrix: (Units=1/GPa)
#
#
# Indices 1 2 3 4 5 6 
#
# 1 0.015066 -0.000734 -0.006624 0.000000 -0.001714 -0.000007
# 2 -0.000734 0.047097 -0.002037 0.000021 0.011861 -0.000104
# 3 -0.006624 -0.002037 0.009085 -0.000001 0.002129 0.000005
# 4 0.000000 0.000021 -0.000001 0.063458 0.000007 0.089269
# 5 -0.001714 0.011861 0.002129 0.000007 0.085866 -0.000003
# 6 -0.000007 -0.000104 0.000005 0.089269 -0.000003 -0.360242
#
#
# Mechanical properties :
#
#
# Convention : Reuss Voigt Hill
#
# Bulk Modulus (GPa) = 19.06255 51.37707 35.21981
# Shear Modulus (GPa) = -48.35861 17.71855 -15.32003
#
# Velocity S-wave (km/s) = -5.08909 3.08047 -2.86440
# Velocity P-wave (km/s) = 4.93181 6.33781 2.81471
#
# Compressibility (1/GPa) = 0.05245889
#
# Stress axis : x y z
#
# Youngs Moduli (GPa) = 66.37340 21.23276 110.07327
#
# Poissons Ratio (x) = 0.01559 0.72907
# Poissons Ratio (y) = 0.04874 0.22420
# Poissons Ratio (z) = 0.43963 0.04325
#
# Static dielectric constant tensor:
#      x y z
#    x 1.531030 0.000000 -0.017800 
#    y 0.000000 1.681370 0.000000 
#    z -0.017800 0.000000 1.745540 
# 
# From -- ./inp_files/229316.got.cif
#   From: 2010.05.17/outbox.cif.g08.bks.cpg/sg12_115_cif.got.tgz:229316.got - 2010.06.03 13:09:07.
