data_PCOD9178622
_publ_section_title
;
Structure prediction by ZEFSAII (Michael W. Deem and Ramdas Pophale) SiO2 
 PCOD9178622
Probable space group: C 2/M
;
_chemical_formula_sum "Si O2"
_cell_formula_units_Z 64
_cell_length_a 18.670230
_cell_length_b 10.226442
_cell_length_c 15.954932
_cell_angle_alpha 90.000000
_cell_angle_beta 78.888154
_cell_angle_gamma 90.000000
_cell_volume 2989.166534
_symmetry_space_group_name_H-M "C 2/M"
_symmetry_group_IT_number 12
_symmetry_cell_setting 'monoclinic'
loop_
_space_group_symop_operation_xyz
x,y,z
-x,y,-z
-x,-y,-z
x,-y,z
1/2+x,1/2+y,z
1/2-x,1/2+y,-z
1/2-x,1/2-y,-z
1/2+x,1/2-y,z
loop_
_atom_site_type_symbol
_atom_site_label
_atom_site_fract_x
_atom_site_fract_y
_atom_site_fract_z
Si Si1 0.110650 0.351722 0.615274
Si Si2 0.389759 0.845046 0.091708
Si Si3 0.903414 0.848372 0.715469
Si Si4 0.501194 0.154332 0.203547
Si Si5 0.758425 0.731907 0.795672
Si Si6 0.691324 0.853514 0.044228
Si Si7 0.595083 0.849362 0.435945
Si Si8 0.766958 0.858807 0.379412
O O1 0.138834 0.500000 0.605719
O O2 0.059028 0.343094 0.707978
O O3 0.067655 0.330848 0.537273
O O4 0.176931 0.252137 0.607958
O O5 0.460315 0.803091 0.127549
O O6 0.316642 0.786513 0.149700
O O7 0.388335 0.000000 0.106027
O O8 0.381434 0.824208 0.993340
O O9 0.816171 0.839981 0.751055
O O10 0.919804 0.762789 0.628430
O O11 0.941909 0.764192 0.780047
O O12 0.926155 0.000000 0.705971
O O13 0.526587 0.000000 0.191534
O O14 0.802381 0.655323 0.857838
O O15 0.739244 0.646532 0.719816
O O16 0.713023 0.000000 0.014151
O O17 0.750000 0.750000 0.000000
O O18 0.683607 0.843517 0.427197
O O19 0.578660 0.000000 0.410994
O O20 0.794299 0.000000 0.401999
#
# Coordination Sequence:
#
# PCOD9178622 Si02
#       8
#     8   8   8   8   8   8   8   8
#     4  10  20  35  56  79 107 149 192 229 276 333
#     4   9  17  34  59  85 109 142 188 230 268 325
#     4  11  24  39  58  83 112 148 187 236 287 335
#     4  10  21  38  58  80 110 150 190 231 277 335
#     4  10  19  35  57  83 114 148 187 226 280 335
#     4   9  18  32  55  87 119 147 185 232 279 329
#     4   9  20  37  55  79 111 146 186 230 280 339
#     4  10  19  30  50  82 115 144 179 230 284 328
#
# _framework density 21.410651999999999
#
# number of rings (size 3 to 8) (size 9 to 14) (size 15 to 20)
#    0.000    2.250    1.250    1.500    0.000    5.500 
#    0.000    3.750    0.000    3.000    0.000    0.000 
#    0.000    0.000    0.000    0.000    0.000    0.000 
#
# Total GULP energy -178508.405878 kJ/mol
# GULP energy per Si atom -5578.387684 kJ/mol
# Density = 2.136192 g / cm^3
# Si number density = 21.410652 Si / 1000 Ang^3
#
#
#
# Elastic Constant Matrix: (Units=GPa)
#
#
# Indices 1 2 3 4 5 6 
#
# 1 80.3892 58.9933 21.4809 0.0000 12.2468 0.0000
# 2 58.9933 130.1977 29.5563 0.0000 24.8837 0.0000
# 3 21.4809 29.5563 79.4742 0.0000 29.8094 0.0000
# 4 0.0000 0.0000 0.0000 17.6140 0.0000 9.0437
# 5 12.2468 24.8837 29.8094 0.0000 35.3814 0.0000
# 6 0.0000 0.0000 0.0000 9.0437 0.0000 30.1961
#
#
#
# Elastic Compliance Matrix: (Units=1/GPa)
#
#
# Indices 1 2 3 4 5 6 
#
# 1 0.019001 -0.008297 -0.002591 0.000000 0.001441 0.000000
# 2 -0.008297 0.012604 -0.000288 0.000000 -0.005750 0.000000
# 3 -0.002591 -0.000288 0.018974 0.000000 -0.014886 0.000000
# 4 0.000000 0.000000 0.000000 0.067090 0.000000 -0.020093
# 5 0.001441 -0.005750 -0.014886 0.000000 0.044350 0.000000
# 6 0.000000 0.000000 0.000000 -0.020093 0.000000 0.039135
#
#
# Mechanical properties :
#
#
# Convention : Reuss Voigt Hill
#
# Bulk Modulus (GPa) = 35.42638 56.68022 46.05330
# Shear Modulus (GPa) = 21.46718 28.64034 25.05376
#
# Velocity S-wave (km/s) = 3.16988 3.66138 3.42446
# Velocity P-wave (km/s) = 5.47537 6.66368 6.09854
#
# Compressibility (1/GPa) = 0.02822755
#
# Stress axis : x y z
#
# Youngs Moduli (GPa) = 52.62994 79.33852 52.70467
#
# Poissons Ratio (x) = 0.65824 0.13653
# Poissons Ratio (y) = 0.43665 0.01520
# Poissons Ratio (z) = 0.13634 0.02288
#
# Static dielectric constant tensor:
#      x y z
#    x 1.821790 0.000000 -0.004610 
#    y 0.000000 1.731670 0.000000 
#    z -0.004610 0.000000 1.848300 
# 
# From -- ./inp_files/281227.got.cif
#   From: 2010.05.17/outbox.cif.g08.bks.cpg/sg12_141_cif.got.tgz:281227.got - 2010.06.03 13:09:07.
