data_PCOD9178490
_publ_section_title
;
Structure prediction by ZEFSAII (Michael W. Deem and Ramdas Pophale) SiO2 
 PCOD9178490
Probable space group: C 2/M
;
_chemical_formula_sum "Si O2"
_cell_formula_units_Z 48
_cell_length_a 30.856621
_cell_length_b 8.772533
_cell_length_c 24.045767
_cell_angle_alpha 90.000000
_cell_angle_beta 153.861466
_cell_angle_gamma 90.000000
_cell_volume 2867.479688
_symmetry_space_group_name_H-M "C 2/M"
_symmetry_group_IT_number 12
_symmetry_cell_setting 'monoclinic'
loop_
_space_group_symop_operation_xyz
x,y,z
-x,y,-z
-x,-y,-z
x,-y,z
1/2+x,1/2+y,z
1/2-x,1/2+y,-z
1/2-x,1/2-y,-z
1/2+x,1/2-y,z
loop_
_atom_site_type_symbol
_atom_site_label
_atom_site_fract_x
_atom_site_fract_y
_atom_site_fract_z
Si Si1 0.888951 0.684514 0.391442
Si Si2 0.102328 0.819022 0.479495
Si Si3 0.604800 0.183050 0.788348
Si Si4 0.237846 0.817541 0.121008
Si Si5 0.156736 0.683649 0.424384
Si Si6 0.940811 0.318268 0.138501
O O1 0.889427 0.500000 0.395337
O O2 0.864037 0.752916 0.422730
O O3 0.806695 0.731360 0.251664
O O4 0.000000 0.729251 0.500000
O O5 0.151282 0.744711 0.481276
O O6 0.988114 0.770677 0.343471
O O7 0.113596 0.000000 0.490494
O O8 0.700087 0.223108 0.862781
O O9 0.606181 0.217987 0.855162
O O10 0.587572 0.000000 0.762545
O O11 0.230974 0.000000 0.115476
O O12 0.128831 0.752147 0.988492
O O13 0.159188 0.500000 0.428408
O O14 0.250000 0.750000 0.500000
O O15 0.054583 0.730532 0.275923
O O16 0.940222 0.500000 0.131389
#
# Coordination Sequence:
#
# PCOD9178490 Si02
#       6
#     8   8   8   8   8   8
#     4  10  19  34  52  70 104 150 186 217 255 303
#     4  11  21  32  51  80 108 137 177 222 262 307
#     4   9  17  32  48  68 102 144 179 211 256 308
#     4  10  19  30  49  72 101 144 183 212 252 307
#     4  10  21  39  61  82 104 133 169 215 271 320
#     4   9  19  32  49  74 106 135 165 212 266 313
#
# _framework density 16.739438
#
# number of rings (size 3 to 8) (size 9 to 14) (size 15 to 20)
#    0.000    2.167    1.667    3.500    0.000    5.000 
#    0.000    0.000    0.000    1.000    0.000    7.000 
#    0.000    0.000    0.000    0.000    0.000    0.000 
#
# Total GULP energy -133829.896655 kJ/mol
# GULP energy per Si atom -5576.245694 kJ/mol
# Density = 1.670134 g / cm^3
# Si number density = 16.739438 Si / 1000 Ang^3
#
#
#
# Elastic Constant Matrix: (Units=GPa)
#
#
# Indices 1 2 3 4 5 6 
#
# 1 89.5670 33.1912 78.6621 0.0000 8.7309 0.0000
# 2 33.1912 25.9253 45.4368 0.0000 -1.8920 0.0000
# 3 78.6621 45.4368 153.5632 0.0000 -10.8945 0.0000
# 4 0.0000 0.0000 0.0000 28.6325 0.0000 0.1731
# 5 8.7309 -1.8920 -10.8945 0.0000 17.5208 0.0000
# 6 0.0000 0.0000 0.0000 0.1731 0.0000 22.6750
#
#
#
# Elastic Compliance Matrix: (Units=1/GPa)
#
#
# Indices 1 2 3 4 5 6 
#
# 1 0.032451 -0.023019 -0.011649 0.000000 -0.025900 0.000000
# 2 -0.023019 0.097134 -0.016101 0.000000 0.011948 0.000000
# 3 -0.011649 -0.016101 0.018341 0.000000 0.015471 0.000000
# 4 0.000000 0.000000 0.000000 0.034927 0.000000 -0.000267
# 5 -0.025900 0.011948 0.015471 0.000000 0.080892 0.000000
# 6 0.000000 0.000000 0.000000 -0.000267 0.000000 0.044103
#
#
# Mechanical properties :
#
#
# Convention : Reuss Voigt Hill
#
# Bulk Modulus (GPa) = 21.55802 64.84841 43.20322
# Shear Modulus (GPa) = 11.76888 21.21668 16.49278
#
# Velocity S-wave (km/s) = 2.65441 3.56401 3.14230
# Velocity P-wave (km/s) = 4.72240 7.46728 6.24745
#
# Compressibility (1/GPa) = 0.04638644
#
# Stress axis : x y z
#
# Youngs Moduli (GPa) = 30.81592 10.29507 54.52282
#
# Poissons Ratio (x) = 0.23698 0.63515
# Poissons Ratio (y) = 0.70935 0.87789
# Poissons Ratio (z) = 0.35898 0.16576
#
# Static dielectric constant tensor:
#      x y z
#    x 1.554780 0.000000 -0.015440 
#    y 0.000000 1.563810 0.000000 
#    z -0.015440 0.000000 1.577600 
# 
# From -- ./inp_files/352756.got.cif
#   From: 2010.05.17/outbox.cif.g08.bks.cpg/sg12_177_cif.got.tgz:352756.got - 2010.06.03 13:09:07.
