data_PCOD9178492
_publ_section_title
;
Structure prediction by ZEFSAII (Michael W. Deem and Ramdas Pophale) SiO2 
 PCOD9178492
Probable space group: C 2/M
;
_chemical_formula_sum "Si O2"
_cell_formula_units_Z 48
_cell_length_a 12.194299
_cell_length_b 13.305698
_cell_length_c 16.269876
_cell_angle_alpha 90.000000
_cell_angle_beta 98.526796
_cell_angle_gamma 90.000000
_cell_volume 2610.667715
_symmetry_space_group_name_H-M "C 2/M"
_symmetry_group_IT_number 12
_symmetry_cell_setting 'monoclinic'
loop_
_space_group_symop_operation_xyz
x,y,z
-x,y,-z
-x,-y,-z
x,-y,z
1/2+x,1/2+y,z
1/2-x,1/2+y,-z
1/2-x,1/2-y,-z
1/2+x,1/2-y,z
loop_
_atom_site_type_symbol
_atom_site_label
_atom_site_fract_x
_atom_site_fract_y
_atom_site_fract_z
Si Si1 0.571266 0.613249 0.589868
Si Si2 0.528081 0.195915 0.811878
Si Si3 0.583321 0.614052 0.265750
Si Si4 0.125488 0.615419 0.978427
Si Si5 0.703617 0.884161 0.161406
Si Si6 0.690865 0.231018 0.700100
O O1 0.500000 0.628225 0.500000
O O2 0.620942 0.500000 0.592031
O O3 0.488611 0.614788 0.658871
O O4 0.656381 0.703369 0.617534
O O5 0.476513 0.307952 0.802304
O O6 0.615967 0.178076 0.894316
O O7 0.422282 0.125785 0.818330
O O8 0.586513 0.176253 0.731047
O O9 0.589153 0.500000 0.235670
O O10 0.704799 0.658508 0.298137
O O11 0.154530 0.500000 0.961376
O O12 0.198445 0.647103 0.064842
O O13 0.000000 0.615575 0.000000
O O14 0.775791 0.813751 0.227145
O O15 0.739450 0.000000 0.169653
#
# Coordination Sequence:
#
# PCOD9178492 Si02
#       6
#     8   8   8   8   8   8
#     4   9  18  34  54  73  93 118 150 188 230 278
#     4   9  17  29  46  66  91 123 157 188 227 272
#     4   9  19  33  47  68  97 126 153 185 229 274
#     4   8  14  26  45  67  91 120 156 198 233 261
#     4   9  17  30  48  69  92 120 159 200 231 265
#     4  10  19  30  49  72  95 123 152 188 232 279
#
# _framework density 18.386101
#
# number of rings (size 3 to 8) (size 9 to 14) (size 15 to 20)
#    0.000    3.000    0.000    2.000    0.000    3.333 
#    0.000    0.000    0.000   13.000    0.000    0.000 
#    0.000    0.000    0.000    0.000    0.000    0.000 
#
# Total GULP energy -133667.192337 kJ/mol
# GULP energy per Si atom -5569.466347 kJ/mol
# Density = 1.834425 g / cm^3
# Si number density = 18.386101 Si / 1000 Ang^3
#
#
#
# Elastic Constant Matrix: (Units=GPa)
#
#
# Indices 1 2 3 4 5 6 
#
# 1 34.5269 7.3394 -14.1314 0.0000 4.4174 0.0000
# 2 7.3394 70.3833 23.1554 0.0000 7.6058 0.0000
# 3 -14.1314 23.1554 65.7707 0.0000 16.9552 0.0000
# 4 0.0000 0.0000 0.0000 22.6360 0.0000 -0.8083
# 5 4.4174 7.6058 16.9552 0.0000 14.8685 0.0000
# 6 0.0000 0.0000 0.0000 -0.8083 0.0000 16.2751
#
#
#
# Elastic Compliance Matrix: (Units=1/GPa)
#
#
# Indices 1 2 3 4 5 6 
#
# 1 0.042866 -0.007648 0.020080 0.000000 -0.031722 0.000000
# 2 -0.007648 0.017500 -0.008615 0.000000 0.003145 0.000000
# 3 0.020080 -0.008615 0.032511 0.000000 -0.038633 0.000000
# 4 0.000000 0.000000 0.000000 0.044256 0.000000 0.002198
# 5 -0.031722 0.003145 -0.038633 0.000000 0.119127 0.000000
# 6 0.000000 0.000000 0.000000 0.002198 0.000000 0.061553
#
#
# Mechanical properties :
#
#
# Convention : Reuss Voigt Hill
#
# Bulk Modulus (GPa) = 9.94915 22.60085 16.27500
# Shear Modulus (GPa) = 14.54832 21.04374 17.79603
#
# Velocity S-wave (km/s) = 2.81600 3.38678 3.11449
# Velocity P-wave (km/s) = 3.99951 5.25479 4.66952
#
# Compressibility (1/GPa) = 0.10051108
#
# Stress axis : x y z
#
# Youngs Moduli (GPa) = 23.32858 57.14320 30.75875
#
# Poissons Ratio (x) = 0.43705 -0.61765
# Poissons Ratio (y) = 0.17842 0.26499
# Poissons Ratio (z) = -0.46845 0.49229
#
# Static dielectric constant tensor:
#      x y z
#    x 1.656160 0.000000 0.015220 
#    y 0.000000 1.656090 0.000000 
#    z 0.015220 0.000000 1.635770 
# 
# From -- ./inp_files/204363.got.cif
#   From: 2010.05.17/outbox.cif.g08.bks.cpg/sg12_103_cif.got.tgz:204363.got - 2010.06.03 13:09:07.
