data_PCOD9178288
_publ_section_title
;
Structure prediction by ZEFSAII (Michael W. Deem and Ramdas Pophale) SiO2 
 PCOD9178288
Probable space group: C 2/M
;
_chemical_formula_sum "Si O2"
_cell_formula_units_Z 48
_cell_length_a 27.424520
_cell_length_b 12.641585
_cell_length_c 19.656001
_cell_angle_alpha 90.000000
_cell_angle_beta 160.542069
_cell_angle_gamma 90.000000
_cell_volume 2270.018789
_symmetry_space_group_name_H-M "C 2/M"
_symmetry_group_IT_number 12
_symmetry_cell_setting 'monoclinic'
loop_
_space_group_symop_operation_xyz
x,y,z
-x,y,-z
-x,-y,-z
x,-y,z
1/2+x,1/2+y,z
1/2-x,1/2+y,-z
1/2-x,1/2-y,-z
1/2+x,1/2-y,z
loop_
_atom_site_type_symbol
_atom_site_label
_atom_site_fract_x
_atom_site_fract_y
_atom_site_fract_z
Si Si1 0.293413 0.315839 0.310497
Si Si2 0.546208 0.328437 0.989993
Si Si3 0.344371 0.118728 0.730701
Si Si4 0.412723 0.621921 0.246821
Si Si5 0.461148 0.670855 0.732604
Si Si6 0.863197 0.621424 0.034318
O O1 0.225997 0.378537 0.286310
O O2 0.465826 0.314215 0.550645
O O3 0.235767 0.363391 0.163919
O O4 0.216734 0.201473 0.214936
O O5 0.458466 0.214693 0.875633
O O6 0.507030 0.375552 0.865710
O O7 0.500000 0.380433 0.000000
O O8 0.207851 0.146261 0.502950
O O9 0.401767 0.000000 0.793310
O O10 0.433617 0.500000 0.295668
O O11 0.450977 0.629634 0.217592
O O12 0.247639 0.648621 0.050043
O O13 0.505022 0.795121 0.792461
O O14 0.910343 0.500000 0.101516
#
# Coordination Sequence:
#
# PCOD9178288 Si02
#       6
#     8   8   8   8   8   8
#     4   9  17  29  47  72 100 125 150 186 234 287
#     4   9  19  31  46  69  96 125 158 193 235 280
#     4  10  19  31  49  72  98 127 157 191 233 281
#     4  10  19  31  49  72  98 127 157 191 233 281
#     4  10  19  32  47  68  98 129 159 192 232 279
#     4  10  19  30  47  73 101 127 155 189 232 281
#
# _framework density 21.145199000000002
#
# number of rings (size 3 to 8) (size 9 to 14) (size 15 to 20)
#    0.000    2.333    0.000    4.500    0.000    7.667 
#    0.000    0.000    0.000    2.000    0.000   56.000 
#    0.000   93.333    0.000    0.000    0.000    0.000 
#
# Total GULP energy -133929.881310 kJ/mol
# GULP energy per Si atom -5580.411721 kJ/mol
# Density = 2.109707 g / cm^3
# Si number density = 21.145199 Si / 1000 Ang^3
#
#
#
# Elastic Constant Matrix: (Units=GPa)
#
#
# Indices 1 2 3 4 5 6 
#
# 1 98.0225 7.0594 23.1566 0.0000 -12.9718 0.0000
# 2 7.0594 75.0356 19.0908 0.0000 0.1505 0.0000
# 3 23.1566 19.0908 66.2467 0.0000 -12.1766 0.0000
# 4 0.0000 0.0000 0.0000 19.1213 0.0000 1.9332
# 5 -12.9718 0.1505 -12.1766 0.0000 36.8782 0.0000
# 6 0.0000 0.0000 0.0000 1.9332 0.0000 0.1677
#
#
#
# Elastic Compliance Matrix: (Units=1/GPa)
#
#
# Indices 1 2 3 4 5 6 
#
# 1 0.011401 -0.000215 -0.003392 0.000000 0.002891 -0.000002
# 2 -0.000215 0.014466 -0.004384 0.000001 -0.001582 -0.000010
# 3 -0.003392 -0.004384 0.018448 0.000000 0.004916 0.000004
# 4 0.000000 0.000001 0.000000 -0.315534 0.000000 3.638265
# 5 0.002891 -0.001582 0.004916 0.000000 0.029763 -0.000004
# 6 -0.000002 -0.000010 0.000004 3.638265 -0.000004-35.986485
#
#
# Mechanical properties :
#
#
# Convention : Reuss Voigt Hill
#
# Bulk Modulus (GPa) = 35.29610 37.54648 36.42129
# Shear Modulus (GPa) = -0.13811 23.89997 11.88093
#
# Velocity S-wave (km/s) = -0.25585 3.36561 2.37296
# Velocity P-wave (km/s) = 4.07936 5.73569 4.97692
#
# Compressibility (1/GPa) = 0.02833174
#
# Stress axis : x y z
#
# Youngs Moduli (GPa) = 87.71059 69.12804 54.20718
#
# Poissons Ratio (x) = 0.01490 0.18386
# Poissons Ratio (y) = 0.01890 0.23766
# Poissons Ratio (z) = 0.29749 0.30308
#
# Static dielectric constant tensor:
#      x y z
#    x 1.833640 0.000000 0.005770 
#    y 0.000000 1.775560 0.000000 
#    z 0.005770 0.000000 1.779580 
# 
# From -- ./inp_files/330063.got.cif
#   From: 2010.05.17/outbox.cif.g08.bks.cpg/sg12_166_cif.got.tgz:330063.got - 2010.06.03 13:09:07.
