data_PCOD9178095
_publ_section_title
;
Structure prediction by ZEFSAII (Michael W. Deem and Ramdas Pophale) SiO2 
 PCOD9178095
Probable space group: C 2/M
;
_chemical_formula_sum "Si O2"
_cell_formula_units_Z 56
_cell_length_a 19.284703
_cell_length_b 8.951537
_cell_length_c 16.707661
_cell_angle_alpha 90.000000
_cell_angle_beta 59.929660
_cell_angle_gamma 90.000000
_cell_volume 2496.023047
_symmetry_space_group_name_H-M "C 2/M"
_symmetry_group_IT_number 12
_symmetry_cell_setting 'monoclinic'
loop_
_space_group_symop_operation_xyz
x,y,z
-x,y,-z
-x,-y,-z
x,-y,z
1/2+x,1/2+y,z
1/2-x,1/2+y,-z
1/2-x,1/2-y,-z
1/2+x,1/2-y,z
loop_
_atom_site_type_symbol
_atom_site_label
_atom_site_fract_x
_atom_site_fract_y
_atom_site_fract_z
Si Si1 0.692773 0.323125 0.098919
Si Si2 0.078723 0.824530 0.031121
Si Si3 0.415523 0.172706 0.599126
Si Si4 0.516329 0.672033 0.671538
Si Si5 0.081980 0.823274 0.797013
Si Si6 0.696599 0.175758 0.838177
Si Si7 0.315558 0.671978 0.521725
O O1 0.708102 0.500000 0.091360
O O2 0.607816 0.303442 0.106708
O O3 0.720908 0.268939 0.169371
O O4 0.750000 0.250000 0.000000
O O5 0.984147 0.803221 0.094737
O O6 0.095040 0.000000 0.000766
O O7 0.131425 0.717475 0.945304
O O8 0.500000 0.177498 0.500000
O O9 0.445704 0.250217 0.663267
O O10 0.344447 0.249793 0.588323
O O11 0.394853 0.000000 0.623578
O O12 0.490375 0.500000 0.700342
O O13 0.546741 0.743801 0.736491
O O14 0.598967 0.668139 0.573652
O O15 0.164792 0.755963 0.778224
O O16 0.091655 0.000000 0.779332
O O17 0.698126 0.000000 0.822743
O O18 0.290280 0.500000 0.550904
O O19 0.250000 0.750000 0.500000
#
# Coordination Sequence:
#
# PCOD9178095 Si02
#       7
#     8   8   8   8   8   8   8
#     4   8  15  28  45  64  85 112 149 194 239 281
#     4   9  17  31  50  68  89 123 168 208 242 290
#     4   9  17  31  53  78 102 129 162 198 239 293
#     4   9  19  35  52  72 101 135 168 204 250 301
#     4  10  20  33  49  69  96 130 164 200 244 293
#     4  10  19  30  46  69  97 127 162 206 251 290
#     4  10  19  33  55  80 105 132 165 205 247 295
#
# _framework density 22.435690000000001
#
# number of rings (size 3 to 8) (size 9 to 14) (size 15 to 20)
#    0.000    2.714    0.000    1.714    0.000    5.714 
#    0.000    1.429    0.000    1.714    0.000    0.000 
#    0.000    0.000    0.000    0.000    0.000    0.000 
#
# Total GULP energy -156074.268418 kJ/mol
# GULP energy per Si atom -5574.081015 kJ/mol
# Density = 2.238462 g / cm^3
# Si number density = 22.435690 Si / 1000 Ang^3
#
#
#
# Elastic Constant Matrix: (Units=GPa)
#
#
# Indices 1 2 3 4 5 6 
#
# 1 164.9258 62.7748 32.8334 0.0000 46.2020 0.0000
# 2 62.7748 68.8271 14.7163 0.0000 24.9122 0.0000
# 3 32.8334 14.7163 52.6550 0.0000 26.5580 0.0000
# 4 0.0000 0.0000 0.0000 15.3860 0.0000 16.9609
# 5 46.2020 24.9122 26.5580 0.0000 53.6558 0.0000
# 6 0.0000 0.0000 0.0000 16.9609 0.0000 31.8576
#
#
#
# Elastic Compliance Matrix: (Units=1/GPa)
#
#
# Indices 1 2 3 4 5 6 
#
# 1 0.010684 -0.007617 -0.002235 0.000000 -0.004557 0.000000
# 2 -0.007617 0.022939 0.000536 0.000000 -0.004357 0.000000
# 3 -0.002235 0.000536 0.025842 0.000000 -0.011115 0.000000
# 4 0.000000 0.000000 0.000000 0.157331 0.000000 -0.083763
# 5 -0.004557 -0.004357 -0.011115 0.000000 0.030086 0.000000
# 6 0.000000 0.000000 0.000000 -0.083763 0.000000 0.075985
#
#
# Mechanical properties :
#
#
# Convention : Reuss Voigt Hill
#
# Bulk Modulus (GPa) = 24.49009 56.33965 40.41487
# Shear Modulus (GPa) = 14.08017 31.91880 22.99948
#
# Velocity S-wave (km/s) = 2.50787 3.77593 3.20524
# Velocity P-wave (km/s) = 4.39605 6.64653 5.63479
#
# Compressibility (1/GPa) = 0.04083285
#
# Stress axis : x y z
#
# Youngs Moduli (GPa) = 93.59605 43.59389 38.69734
#
# Poissons Ratio (x) = 0.33207 0.08648
# Poissons Ratio (y) = 0.71296 -0.02075
# Poissons Ratio (z) = 0.20917 -0.02338
#
# Static dielectric constant tensor:
#      x y z
#    x 1.876940 0.000000 0.049430 
#    y 0.000000 1.763820 0.000000 
#    z 0.049430 0.000000 1.909440 
# 
# From -- ./inp_files/280234.got.cif
#   From: 2010.05.17/outbox.cif.g08.bks.cpg/sg12_141_cif.got.tgz:280234.got - 2010.06.03 13:09:07.
