data_PCOD9178663
_publ_section_title
;
Structure prediction by ZEFSAII (Michael W. Deem and Ramdas Pophale) SiO2 
 PCOD9178663
Probable space group: C 2/M
;
_chemical_formula_sum "Si O2"
_cell_formula_units_Z 48
_cell_length_a 14.793208
_cell_length_b 17.099225
_cell_length_c 21.397411
_cell_angle_alpha 90.000000
_cell_angle_beta 31.350029
_cell_angle_gamma 90.000000
_cell_volume 2815.948006
_symmetry_space_group_name_H-M "C 2/M"
_symmetry_group_IT_number 12
_symmetry_cell_setting 'monoclinic'
loop_
_space_group_symop_operation_xyz
x,y,z
-x,y,-z
-x,-y,-z
x,-y,z
1/2+x,1/2+y,z
1/2-x,1/2+y,-z
1/2-x,1/2-y,-z
1/2+x,1/2-y,z
loop_
_atom_site_type_symbol
_atom_site_label
_atom_site_fract_x
_atom_site_fract_y
_atom_site_fract_z
Si Si1 0.324980 0.088899 0.027700
Si Si2 0.072695 0.705725 0.716585
Si Si3 0.094539 0.270723 0.850242
Si Si4 0.787343 0.172557 0.021226
Si Si5 0.885366 0.908251 0.505252
Si Si6 0.917294 0.165698 0.726621
O O1 0.226301 0.102622 0.019864
O O2 0.191648 0.113376 0.160414
O O3 0.384059 0.000000 0.999143
O O4 0.484494 0.150523 0.932393
O O5 0.119814 0.728012 0.760410
O O6 0.214071 0.644704 0.609838
O O7 0.053199 0.781861 0.685025
O O8 0.877689 0.669699 0.836189
O O9 0.275452 0.277322 0.778426
O O10 0.973101 0.196573 0.938730
O O11 0.750000 0.250000 0.000000
O O12 0.000000 0.894186 0.500000
O O13 0.994797 0.883942 0.379842
O O14 0.842572 0.000000 0.528992
#
# Coordination Sequence:
#
# PCOD9178663 Si02
#       6
#     8   8   8   8   8   8
#     4  10  19  30  51  84 114 141 171 215 279 325
#     4  10  19  37  55  76 107 146 184 219 262 320
#     4  10  19  34  54  80 115 137 177 220 267 323
#     4   8  16  34  51  74 112 139 177 216 258 321
#     4  11  24  38  52  78 114 145 179 224 275 324
#     4  12  20  34  58  80 108 145 181 224 264 322
#
# _framework density 17.045770000000001
#
# number of rings (size 3 to 8) (size 9 to 14) (size 15 to 20)
#    0.000    2.167    6.667    1.500    0.000    4.667 
#    0.000    0.000    0.000    1.000    0.000    7.000 
#    0.000    0.000    0.000    0.000    0.000    0.000 
#
# Total GULP energy -133762.613791 kJ/mol
# GULP energy per Si atom -5573.442241 kJ/mol
# Density = 1.700697 g / cm^3
# Si number density = 17.045770 Si / 1000 Ang^3
#
#
#
# Elastic Constant Matrix: (Units=GPa)
#
#
# Indices 1 2 3 4 5 6 
#
# 1 58.1474 37.6846 13.9854 -0.0017 8.6524 -0.0009
# 2 37.6846 59.7766 23.7263 -0.0023 3.9237 -0.0001
# 3 13.9854 23.7263 54.0829 -0.0044 7.6087 -0.0015
# 4 -0.0017 -0.0023 -0.0044 16.1825 0.0029 -2.4429
# 5 8.6524 3.9237 7.6087 0.0029 28.7230 0.0016
# 6 -0.0009 -0.0001 -0.0015 -2.4429 0.0016 9.8322
#
#
#
# Elastic Compliance Matrix: (Units=1/GPa)
#
#
# Indices 1 2 3 4 5 6 
#
# 1 0.030369 -0.019325 0.001600 0.000003 -0.006932 0.000005
# 2 -0.019325 0.032559 -0.009847 -0.000001 0.003982 -0.000004
# 3 0.001600 -0.009847 0.023137 0.000007 -0.005266 0.000006
# 4 0.000003 -0.000001 0.000007 0.064203 -0.000010 0.015952
# 5 -0.006932 0.003982 -0.005266 -0.000010 0.037754 -0.000010
# 6 0.000005 -0.000004 0.000006 0.015952 -0.000010 0.105670
#
#
# Mechanical properties :
#
#
# Convention : Reuss Voigt Hill
#
# Bulk Modulus (GPa) = 32.34020 35.86661 34.10341
# Shear Modulus (GPa) = 13.92205 17.38826 15.65515
#
# Velocity S-wave (km/s) = 2.86098 3.19735 3.03383
# Velocity P-wave (km/s) = 5.47059 5.89218 5.68529
#
# Compressibility (1/GPa) = 0.03092127
#
# Stress axis : x y z
#
# Youngs Moduli (GPa) = 32.92857 30.71351 43.22102
#
# Poissons Ratio (x) = 0.59355 -0.06916
# Poissons Ratio (y) = 0.63635 0.42558
# Poissons Ratio (z) = -0.05269 0.30242
#
# Static dielectric constant tensor:
#      x y z
#    x 1.642420 0.000000 -0.000660 
#    y 0.000000 1.561590 0.000000 
#    z -0.000660 0.000000 1.592850 
# 
# From -- ./inp_files/311323.got.cif
#   From: 2010.05.17/outbox.cif.g08.bks.cpg/sg12_156_cif.got.tgz:311323.got - 2010.06.03 13:09:07.
