data_PCOD9178634
_publ_section_title
;
Structure prediction by ZEFSAII (Michael W. Deem and Ramdas Pophale) SiO2 
 PCOD9178634
Probable space group: C 2/M
;
_chemical_formula_sum "Si O2"
_cell_formula_units_Z 58
_cell_length_a 30.040456
_cell_length_b 7.778041
_cell_length_c 12.229642
_cell_angle_alpha 90.000000
_cell_angle_beta 82.466475
_cell_angle_gamma 90.000000
_cell_volume 2832.862716
_symmetry_space_group_name_H-M "C 2/M"
_symmetry_group_IT_number 12
_symmetry_cell_setting 'monoclinic'
loop_
_space_group_symop_operation_xyz
x,y,z
-x,y,-z
-x,-y,-z
x,-y,z
1/2+x,1/2+y,z
1/2-x,1/2+y,-z
1/2-x,1/2-y,-z
1/2+x,1/2-y,z
loop_
_atom_site_type_symbol
_atom_site_label
_atom_site_fract_x
_atom_site_fract_y
_atom_site_fract_z
Si Si1 0.614046 0.705186 0.843477
Si Si2 0.290122 0.707348 0.569588
Si Si3 0.873258 0.208356 0.401695
Si Si4 0.731746 0.298612 0.182264
Si Si5 0.000000 0.500000 0.000000
Si Si6 0.476661 0.204255 0.397469
Si Si7 0.491746 0.697203 0.153074
Si Si8 0.814330 0.701175 0.011970
O O1 0.618762 0.500000 0.846515
O O2 0.634934 0.767247 0.721200
O O3 0.561076 0.741243 0.852694
O O4 0.639045 0.777942 0.940287
O O5 0.293969 0.500000 0.575334
O O6 0.250000 0.750000 0.500000
O O7 0.335896 0.770783 0.498163
O O8 0.280150 0.774376 0.695044
O O9 0.923441 0.261457 0.416920
O O10 0.872267 0.000000 0.399373
O O11 0.741307 0.500000 0.196725
O O12 0.775879 0.225830 0.106651
O O13 0.692440 0.282660 0.104802
O O14 0.016466 0.346260 0.080073
O O15 0.500000 0.267411 0.500000
O O16 0.496241 0.287810 0.281758
O O17 0.483647 0.000000 0.386129
O O18 0.501276 0.500000 0.118719
O O19 0.805344 0.500000 0.999112
#
# Coordination Sequence:
#
# PCOD9178634 Si02
#       8
#     8   8   8   8   2   8   8   8
#     4   9  18  33  54  80 107 138 182 232 282 341
#     4  10  20  34  53  78 110 147 182 228 286 345
#     4   9  19  34  54  82 112 145 187 236 293 355
#     4   9  19  34  48  70 105 144 187 228 276 337
#     4  12  22  40  62  86 120 156 186 250 292 350
#     4  10  20  37  62  90 118 154 201 254 307 362
#     4  10  22  39  62  91 120 157 198 241 302 364
#     4  10  19  30  51  75  99 141 189 234 279 328
#
# _framework density 20.473990000000001
#
# number of rings (size 3 to 8) (size 9 to 14) (size 15 to 20)
#    0.000    2.345    0.690    2.690    0.966    3.310 
#    0.000    1.379    0.000    3.310    0.000    0.000 
#    0.000    0.000    0.000    0.000    0.000    0.000 
#
# Total GULP energy -161568.031437 kJ/mol
# GULP energy per Si atom -5571.311429 kJ/mol
# Density = 2.042739 g / cm^3
# Si number density = 20.473990 Si / 1000 Ang^3
#
#
#
# Elastic Constant Matrix: (Units=GPa)
#
#
# Indices 1 2 3 4 5 6 
#
# 1 21.7804 9.3290 32.7440 0.0000 15.1291 0.0000
# 2 9.3290 36.4438 24.9545 0.0000 -11.3524 0.0000
# 3 32.7440 24.9545 167.6023 0.0000 9.2668 0.0000
# 4 0.0000 0.0000 0.0000 19.8820 0.0000 7.3641
# 5 15.1291 -11.3524 9.2668 0.0000 32.5762 0.0000
# 6 0.0000 0.0000 0.0000 7.3641 0.0000 12.6610
#
#
#
# Elastic Compliance Matrix: (Units=1/GPa)
#
#
# Indices 1 2 3 4 5 6 
#
# 1 0.155737 -0.054829 -0.017482 0.000000 -0.086462 0.000000
# 2 -0.054829 0.055440 -0.000019 0.000000 0.044789 0.000000
# 3 -0.017482 -0.000019 0.009079 0.000000 0.005530 0.000000
# 4 0.000000 0.000000 0.000000 0.064108 0.000000 -0.037287
# 5 -0.086462 0.044789 0.005530 0.000000 0.084888 0.000000
# 6 0.000000 0.000000 0.000000 -0.037287 0.000000 0.100671
#
#
# Mechanical properties :
#
#
# Convention : Reuss Voigt Hill
#
# Bulk Modulus (GPa) = 13.22813 39.98682 26.60747
# Shear Modulus (GPa) = 7.81517 23.61046 15.71282
#
# Velocity S-wave (km/s) = 1.95587 3.39955 2.77330
# Velocity P-wave (km/s) = 3.40228 5.91458 4.82482
#
# Compressibility (1/GPa) = 0.07559649
#
# Stress axis : x y z
#
# Youngs Moduli (GPa) = 6.42106 18.03754 110.14415
#
# Poissons Ratio (x) = 0.98898 1.92553
# Poissons Ratio (y) = 0.35206 0.00211
# Poissons Ratio (z) = 0.11225 0.00035
#
# Static dielectric constant tensor:
#      x y z
#    x 1.742150 0.000000 -0.026450 
#    y 0.000000 1.742080 0.000000 
#    z -0.026450 0.000000 1.764260 
# 
# From -- ./inp_files/186699.got.cif
#   From: 2010.05.17/outbox.cif.g08.bks.cpg/sg12_94_cif.got.tgz:186699.got - 2010.06.03 13:09:07.
