data_PCOD9178851
_publ_section_title
;
Structure prediction by ZEFSAII (Michael W. Deem and Ramdas Pophale) SiO2 
 PCOD9178851
Probable space group: C 2/M
;
_chemical_formula_sum "Si O2"
_cell_formula_units_Z 44
_cell_length_a 23.759020
_cell_length_b 8.513325
_cell_length_c 8.933619
_cell_angle_alpha 90.000000
_cell_angle_beta 68.016185
_cell_angle_gamma 90.000000
_cell_volume 1675.600840
_symmetry_space_group_name_H-M "C 2/M"
_symmetry_group_IT_number 12
_symmetry_cell_setting 'monoclinic'
loop_
_space_group_symop_operation_xyz
x,y,z
-x,y,-z
-x,-y,-z
x,-y,z
1/2+x,1/2+y,z
1/2-x,1/2+y,-z
1/2-x,1/2-y,-z
1/2+x,1/2-y,z
loop_
_atom_site_type_symbol
_atom_site_label
_atom_site_fract_x
_atom_site_fract_y
_atom_site_fract_z
Si Si1 0.434735 0.000000 0.770098
Si Si2 0.667621 0.676464 0.505842
Si Si3 0.671886 0.000000 0.881264
Si Si4 0.553469 0.666143 0.326449
Si Si5 0.767418 0.177041 0.235055
Si Si6 0.566502 0.000000 0.808339
Si Si7 0.950867 0.830243 0.203236
O O1 0.421179 0.840535 0.694377
O O2 0.508040 0.000000 0.746895
O O3 0.386743 0.000000 0.953048
O O4 0.681278 0.500000 0.439193
O O5 0.698893 0.792694 0.359299
O O6 0.696640 0.681629 0.642457
O O7 0.596578 0.693478 0.611786
O O8 0.708120 0.164090 0.869548
O O9 0.641254 0.000000 0.741885
O O10 0.500000 0.658485 0.500000
O O11 0.588538 0.500000 0.301392
O O12 0.517495 0.662265 0.204539
O O13 0.774910 0.000000 0.163079
O O14 0.557420 0.174078 0.881901
O O15 0.935579 0.000000 0.151402
#
# Coordination Sequence:
#
# PCOD9178851 Si02
#       7
#     4   8   4   8   8   4   8
#     4  10  22  34  50  72 100 132 164 199 234 288
#     4   9  16  28  44  67  97 128 160 202 244 272
#     4  12  21  33  45  68 101 141 171 193 229 281
#     4   9  18  35  56  77  99 118 154 205 255 298
#     4  10  20  29  44  65  96 133 169 201 231 276
#     4  10  19  31  47  66  97 139 168 191 228 280
#     4   9  17  28  47  74 100 123 155 200 246 288
#
# _framework density 26.259236999999999
#
# number of rings (size 3 to 8) (size 9 to 14) (size 15 to 20)
#    0.000    2.364    2.727    0.545    2.545    0.727 
#    0.000    0.000    0.000    5.455    0.000    1.273 
#    0.000    0.000    0.000    0.000    0.000    0.000 
#
# Total GULP energy -122528.278075 kJ/mol
# GULP energy per Si atom -5569.467185 kJ/mol
# Density = 2.619947 g / cm^3
# Si number density = 26.259237 Si / 1000 Ang^3
#
#
#
# Elastic Constant Matrix: (Units=GPa)
#
#
# Indices 1 2 3 4 5 6 
#
# 1 69.9708 21.7687 10.5027 0.0000 -14.0889 0.0000
# 2 21.7687 325.0652 57.9694 0.0000 0.9703 0.0000
# 3 10.5027 57.9694 62.4941 0.0000 -8.1481 0.0000
# 4 0.0000 0.0000 0.0000 -291.3860 0.0000 378.5381
# 5 -14.0889 0.9703 -8.1481 0.0000 14.1587 0.0000
# 6 0.0000 0.0000 0.0000 378.5381 0.0000 -456.8562
#
#
#
# Elastic Compliance Matrix: (Units=1/GPa)
#
#
# Indices 1 2 3 4 5 6 
#
# 1 0.018416 -0.001407 0.000662 0.000000 0.018803 0.000000
# 2 -0.001407 0.003871 -0.003861 0.000000 -0.003888 0.000000
# 3 0.000662 -0.003861 0.021181 0.000000 0.013113 0.000000
# 4 0.000000 0.000000 0.000000 0.044924 0.000000 0.037223
# 5 0.018803 -0.003888 0.013113 0.000000 0.097151 0.000000
# 6 0.000000 0.000000 0.000000 0.037223 0.000000 0.028653
#
#
# Mechanical properties :
#
#
# Convention : Reuss Voigt Hill
#
# Bulk Modulus (GPa) = 29.19210 70.89020 50.04115
# Shear Modulus (GPa) = 21.29235 -122.33075 -50.51920
#
# Velocity S-wave (km/s) = 2.85064 -6.83278 -4.39095
# Velocity P-wave (km/s) = 4.68784 5.93248 2.57085
#
# Compressibility (1/GPa) = 0.03425584
#
# Stress axis : x y z
#
# Youngs Moduli (GPa) = 54.29997 258.35368 47.21179
#
# Poissons Ratio (x) = 0.36363 -0.03126
# Poissons Ratio (y) = 0.07643 0.18227
# Poissons Ratio (z) = -0.03596 0.99744
#
# Static dielectric constant tensor:
#      x y z
#    x 2.138150 0.000000 0.004300 
#    y 0.000000 2.086690 0.000000 
#    z 0.004300 0.000000 2.089340 
# 
# From -- ./inp_files/171994.got.cif
#   From: 2010.05.17/outbox.cif.g08.bks.cpg/sg12_86_cif.got.tgz:171994.got - 2010.06.03 13:09:07.
