data_PCOD9178007
_publ_section_title
;
Structure prediction by ZEFSAII (Michael W. Deem and Ramdas Pophale) SiO2 
 PCOD9178007
Probable space group: C 2/M
;
_chemical_formula_sum "Si O2"
_cell_formula_units_Z 40
_cell_length_a 14.660878
_cell_length_b 28.459777
_cell_length_c 5.469352
_cell_angle_alpha 90.000000
_cell_angle_beta 119.448949
_cell_angle_gamma 90.000000
_cell_volume 1987.205714
_symmetry_space_group_name_H-M "C 2/M"
_symmetry_group_IT_number 12
_symmetry_cell_setting 'monoclinic'
loop_
_space_group_symop_operation_xyz
x,y,z
-x,y,-z
-x,-y,-z
x,-y,z
1/2+x,1/2+y,z
1/2-x,1/2+y,-z
1/2-x,1/2-y,-z
1/2+x,1/2-y,z
loop_
_atom_site_type_symbol
_atom_site_label
_atom_site_fract_x
_atom_site_fract_y
_atom_site_fract_z
Si Si1 0.498102 0.873955 0.249621
Si Si2 0.191212 0.447047 0.542796
Si Si3 0.266443 0.087865 0.901750
Si Si4 0.196909 0.192163 0.681048
Si Si5 0.382799 0.733651 0.925731
O O1 0.500000 0.844470 0.500000
O O2 0.595778 0.909649 0.393644
O O3 0.500000 0.846996 0.000000
O O4 0.391810 0.903727 0.096926
O O5 0.151400 0.500000 0.528186
O O6 0.248592 0.443690 0.357319
O O7 0.260986 0.432677 0.868922
O O8 0.218380 0.138236 0.774803
O O9 0.304938 0.221840 0.830307
O O10 0.157156 0.199992 0.350850
O O11 0.126916 0.211804 0.814194
O O12 0.500000 0.744229 0.000000
#
# Coordination Sequence:
#
# PCOD9178007 Si02
#       5
#     8   8   8   8   8
#     4   8  16  26  39  60  89 132 176 208 244 294
#     4  10  19  30  45  69 104 146 184 216 259 318
#     4  10  19  31  47  69 103 139 175 219 258 304
#     4  10  21  37  56  84 114 142 184 227 267 327
#     4  10  21  38  60  82 111 146 178 225 280 328
#
# _framework density 20.128765999999999
#
# number of rings (size 3 to 8) (size 9 to 14) (size 15 to 20)
#    0.000    2.400    0.000    2.400    0.000    9.600 
#    0.000   10.000    0.000    0.000    0.000    0.000 
#    0.000   56.000    0.000    0.000    0.000    0.000 
#
# Total GULP energy -111369.495946 kJ/mol
# GULP energy per Si atom -5568.474797 kJ/mol
# Density = 2.008295 g / cm^3
# Si number density = 20.128766 Si / 1000 Ang^3
#
#
#
# Elastic Constant Matrix: (Units=GPa)
#
#
# Indices 1 2 3 4 5 6 
#
# 1 81.7359 20.0517 41.5214 0.0000 -25.2350 0.0000
# 2 20.0517 71.2331 18.8501 0.0000 1.2023 0.0000
# 3 41.5214 18.8501 117.4774 0.0000 -46.2768 0.0000
# 4 0.0000 0.0000 0.0000 30.8444 0.0000 -19.4087
# 5 -25.2350 1.2023 -46.2768 0.0000 32.9782 0.0000
# 6 0.0000 0.0000 0.0000 -19.4087 0.0000 26.5493
#
#
#
# Elastic Compliance Matrix: (Units=1/GPa)
#
#
# Indices 1 2 3 4 5 6 
#
# 1 0.017778 -0.005231 -0.000023 0.000000 0.013762 0.000000
# 2 -0.005231 0.017371 -0.006182 0.000000 -0.013311 0.000000
# 3 -0.000023 -0.006182 0.021453 0.000000 0.030311 0.000000
# 4 0.000000 0.000000 0.000000 0.060039 0.000000 0.043891
# 5 0.013762 -0.013311 0.030311 0.000000 0.083874 0.000000
# 6 0.000000 0.000000 0.000000 0.043891 0.000000 0.069752
#
#
# Mechanical properties :
#
#
# Convention : Reuss Voigt Hill
#
# Bulk Modulus (GPa) = 29.64635 47.92141 38.78388
# Shear Modulus (GPa) = 16.42669 30.74260 23.58464
#
# Velocity S-wave (km/s) = 2.85981 3.91230 3.42671
# Velocity P-wave (km/s) = 5.06606 6.65337 5.91322
#
# Compressibility (1/GPa) = 0.03373096
#
# Stress axis : x y z
#
# Youngs Moduli (GPa) = 56.24798 57.56589 46.61447
#
# Poissons Ratio (x) = 0.30111 0.00107
# Poissons Ratio (y) = 0.29422 0.28817
# Poissons Ratio (z) = 0.00129 0.35587
#
# Static dielectric constant tensor:
#      x y z
#    x 1.765480 0.000000 -0.077420 
#    y 0.000000 1.675960 0.000000 
#    z -0.077420 0.000000 1.796550 
# 
# From -- ./inp_files/12245.got.cif
#   From: 2010.05.17/outbox.cif.g08.bks.cpg/sg12_7_cif.got.tgz:12245.got - 2010.06.03 13:09:07.
