data_PCOD9178656
_publ_section_title
;
Structure prediction by ZEFSAII (Michael W. Deem and Ramdas Pophale) SiO2 
 PCOD9178656
Probable space group: C 2/M
;
_chemical_formula_sum "Si O2"
_cell_formula_units_Z 56
_cell_length_a 21.091983
_cell_length_b 7.590135
_cell_length_c 23.377129
_cell_angle_alpha 90.000000
_cell_angle_beta 47.762737
_cell_angle_gamma 90.000000
_cell_volume 2770.801911
_symmetry_space_group_name_H-M "C 2/M"
_symmetry_group_IT_number 12
_symmetry_cell_setting 'monoclinic'
loop_
_space_group_symop_operation_xyz
x,y,z
-x,y,-z
-x,-y,-z
x,-y,z
1/2+x,1/2+y,z
1/2-x,1/2+y,-z
1/2-x,1/2-y,-z
1/2+x,1/2-y,z
loop_
_atom_site_type_symbol
_atom_site_label
_atom_site_fract_x
_atom_site_fract_y
_atom_site_fract_z
Si Si1 0.820258 0.716876 0.247210
Si Si2 0.179277 0.711773 0.994666
Si Si3 0.261026 0.296022 0.588994
Si Si4 0.441636 0.209969 0.738276
Si Si5 0.878232 0.790250 0.418016
Si Si6 0.251982 0.206524 0.167502
Si Si7 0.012654 0.284754 0.161200
O O1 0.818597 0.500000 0.249336
O O2 0.760938 0.779393 0.335765
O O3 0.787988 0.778676 0.205149
O O4 0.917891 0.769964 0.200512
O O5 0.174300 0.500000 0.993486
O O6 0.209094 0.781863 0.914956
O O7 0.250000 0.750000 0.000000
O O8 0.087367 0.774383 0.073034
O O9 0.284019 0.500000 0.584317
O O10 0.174258 0.288216 0.603643
O O11 0.334098 0.220713 0.502909
O O12 0.521896 0.255135 0.649635
O O13 0.350410 0.279622 0.773538
O O14 0.463962 0.274318 0.788814
O O15 0.434221 0.000000 0.745615
O O16 0.863502 0.000000 0.424606
O O17 0.274662 0.000000 0.154125
O O18 0.012959 0.500000 0.161660
#
# Coordination Sequence:
#
# PCOD9178656 Si02
#       7
#     8   8   8   8   8   8   8
#     4   9  17  33  54  77 105 138 174 211 258 315
#     4  10  19  32  51  79 106 133 171 215 260 304
#     4   9  17  32  53  77 107 142 173 209 263 316
#     4  11  20  34  55  76 103 141 179 213 259 320
#     4  10  19  30  51  82 108 131 174 226 260 299
#     4  10  21  34  53  79 107 135 172 222 262 302
#     4   9  17  30  53  77  99 134 174 207 249 308
#
# _framework density 20.210757000000001
#
# number of rings (size 3 to 8) (size 9 to 14) (size 15 to 20)
#    0.000    2.286    2.857    0.857    0.000    1.143 
#    0.000    4.286    0.000    4.286    0.000    2.000 
#    0.000    0.000    0.000    0.000    0.000    0.000 
#
# Total GULP energy -156290.604156 kJ/mol
# GULP energy per Si atom -5581.807291 kJ/mol
# Density = 2.016476 g / cm^3
# Si number density = 20.210757 Si / 1000 Ang^3
#
#
#
# Elastic Constant Matrix: (Units=GPa)
#
#
# Indices 1 2 3 4 5 6 
#
# 1 125.0865 -6.3276 81.0820 0.0001 19.1985 0.0004
# 2 -6.3276 46.3890 -0.4822 0.0003 7.5785 0.0001
# 3 81.0820 -0.4822 179.7367 0.0003 14.9343 -0.0001
# 4 0.0001 0.0003 0.0003 5.6989 -0.0001 -1.7726
# 5 19.1985 7.5785 14.9343 -0.0001 30.2401 -0.0001
# 6 0.0004 0.0001 -0.0001 -1.7726 -0.0001 17.8594
#
#
#
# Elastic Compliance Matrix: (Units=1/GPa)
#
#
# Indices 1 2 3 4 5 6 
#
# 1 0.012320 0.002605 -0.005054 0.000000 -0.005978 0.000000
# 2 0.002605 0.023080 -0.000516 -0.000001 -0.007183 0.000000
# 3 -0.005054 -0.000516 0.007889 0.000000 -0.000558 0.000000
# 4 0.000000 -0.000001 0.000000 0.181062 0.000001 0.017971
# 5 -0.005978 -0.007183 -0.000558 0.000001 0.038940 0.000000
# 6 0.000000 0.000000 0.000000 0.017971 0.000000 0.057777
#
#
# Mechanical properties :
#
#
# Convention : Reuss Voigt Hill
#
# Bulk Modulus (GPa) = 26.76848 55.52849 41.14848
# Shear Modulus (GPa) = 14.72971 29.22234 21.97603
#
# Velocity S-wave (km/s) = 2.70257 3.80660 3.30107
# Velocity P-wave (km/s) = 4.79707 6.84504 5.91044
#
# Compressibility (1/GPa) = 0.03735737
#
# Stress axis : x y z
#
# Youngs Moduli (GPa) = 81.17043 43.32723 126.76581
#
# Poissons Ratio (x) = -0.11285 0.64066
# Poissons Ratio (y) = -0.21141 0.06544
# Poissons Ratio (z) = 0.41023 0.02237
#
# Static dielectric constant tensor:
#      x y z
#    x 1.661430 0.000000 0.011850 
#    y 0.000000 1.777310 0.000000 
#    z 0.011850 0.000000 1.740830 
# 
# From -- ./inp_files/319729.got.cif
#   From: 2010.05.17/outbox.cif.g08.bks.cpg/sg12_160_cif.got.tgz:319729.got - 2010.06.03 13:09:07.
