data_PCOD9178662
_publ_section_title
;
Structure prediction by ZEFSAII (Michael W. Deem and Ramdas Pophale) SiO2 
 PCOD9178662
Probable space group: C 2/M
;
_chemical_formula_sum "Si O2"
_cell_formula_units_Z 64
_cell_length_a 31.531290
_cell_length_b 7.802854
_cell_length_c 12.740611
_cell_angle_alpha 90.000000
_cell_angle_beta 77.543853
_cell_angle_gamma 90.000000
_cell_volume 3060.839425
_symmetry_space_group_name_H-M "C 2/M"
_symmetry_group_IT_number 12
_symmetry_cell_setting 'monoclinic'
loop_
_space_group_symop_operation_xyz
x,y,z
-x,y,-z
-x,-y,-z
x,-y,z
1/2+x,1/2+y,z
1/2-x,1/2+y,-z
1/2-x,1/2-y,-z
1/2+x,1/2-y,z
loop_
_atom_site_type_symbol
_atom_site_label
_atom_site_fract_x
_atom_site_fract_y
_atom_site_fract_z
Si Si1 0.156534 0.209542 0.878201
Si Si2 0.398581 0.289931 0.889646
Si Si3 0.611796 0.799961 0.490527
Si Si4 0.464344 0.197701 0.608762
Si Si5 0.993348 0.195082 0.814386
Si Si6 0.251681 0.204777 0.876254
Si Si7 0.341952 0.299057 0.723053
Si Si8 0.590166 0.295483 0.738291
O O1 0.206333 0.267105 0.850508
O O2 0.126708 0.269497 0.798337
O O3 0.157117 0.000000 0.876222
O O4 0.133191 0.259278 0.999175
O O5 0.400068 0.500000 0.885186
O O6 0.448180 0.230152 0.883939
O O7 0.376943 0.231515 0.791246
O O8 0.576465 0.723453 0.429333
O O9 0.654311 0.779666 0.395704
O O10 0.605676 0.730942 0.610331
O O11 0.601366 0.000000 0.505515
O O12 0.500000 0.189812 0.500000
O O13 0.481484 0.302908 0.697394
O O14 0.456383 0.000000 0.648030
O O15 0.041718 0.273987 0.791488
O O16 0.996433 0.000000 0.853191
O O17 0.294794 0.274483 0.799144
O O18 0.253182 0.000000 0.866312
O O19 0.250000 0.250000 0.000000
O O20 0.349544 0.500000 0.707741
O O21 0.586611 0.500000 0.754496
#
# Coordination Sequence:
#
# PCOD9178662 Si02
#       8
#     8   8   8   8   8   8   8   8
#     4   9  19  37  58  81 113 149 187 233 283 335
#     4   9  17  31  53  83 115 144 176 228 286 327
#     4  11  22  36  55  81 115 153 191 234 284 337
#     4  10  19  31  48  73 106 147 187 227 275 327
#     4  10  19  30  51  83 113 145 188 233 274 327
#     4  11  21  37  62  90 117 147 186 234 289 342
#     4  11  21  36  59  89 119 144 182 239 294 339
#     4  10  21  36  56  81 111 154 198 231 272 333
#
# _framework density 20.909296999999999
#
# number of rings (size 3 to 8) (size 9 to 14) (size 15 to 20)
#    0.000    1.875    3.750    1.125    0.000    1.250 
#    0.000    4.375    0.000    0.000    0.000    1.750 
#    0.000    0.000    0.000    0.000    0.000    0.000 
#
# Total GULP energy -178485.065991 kJ/mol
# GULP energy per Si atom -5577.658312 kJ/mol
# Density = 2.086171 g / cm^3
# Si number density = 20.909297 Si / 1000 Ang^3
#
#
#
# Elastic Constant Matrix: (Units=GPa)
#
#
# Indices 1 2 3 4 5 6 
#
# 1 151.9231 6.1326 54.1876 0.0000 -5.6172 0.0000
# 2 6.1326 39.6151 -4.0367 0.0000 0.9724 0.0000
# 3 54.1876 -4.0367 62.5247 0.0000 -3.2816 0.0000
# 4 0.0000 0.0000 0.0000 21.2266 0.0000 -11.1481
# 5 -5.6172 0.9724 -3.2816 0.0000 36.9202 0.0000
# 6 0.0000 0.0000 0.0000 -11.1481 0.0000 19.3113
#
#
#
# Elastic Compliance Matrix: (Units=1/GPa)
#
#
# Indices 1 2 3 4 5 6 
#
# 1 0.009769 -0.002406 -0.008580 0.000000 0.000787 0.000000
# 2 -0.002406 0.026013 0.003727 0.000000 -0.000720 0.000000
# 3 -0.008580 0.003727 0.023707 0.000000 0.000704 0.000000
# 4 0.000000 0.000000 0.000000 0.067609 0.000000 0.039030
# 5 0.000787 -0.000720 0.000704 0.000000 0.027287 0.000000
# 6 0.000000 0.000000 0.000000 0.039030 0.000000 0.074314
#
#
# Mechanical properties :
#
#
# Convention : Reuss Voigt Hill
#
# Bulk Modulus (GPa) = 22.23697 40.73664 31.48680
# Shear Modulus (GPa) = 19.36421 28.67689 24.02055
#
# Velocity S-wave (km/s) = 3.04650 3.70738 3.39307
# Velocity P-wave (km/s) = 4.79926 6.15232 5.51743
#
# Compressibility (1/GPa) = 0.04497016
#
# Stress axis : x y z
#
# Youngs Moduli (GPa) = 102.36549 38.44262 42.18081
#
# Poissons Ratio (x) = 0.09249 0.36193
# Poissons Ratio (y) = 0.24628 -0.15720
# Poissons Ratio (z) = 0.87833 -0.14327
#
# Static dielectric constant tensor:
#      x y z
#    x 1.808310 0.000000 -0.025320 
#    y 0.000000 1.801070 0.000000 
#    z -0.025320 0.000000 1.739540 
# 
# From -- ./inp_files/187520.got.cif
#   From: 2010.05.17/outbox.cif.g08.bks.cpg/sg12_94_cif.got.tgz:187520.got - 2010.06.03 13:09:07.
