data_PCOD9178342
_publ_section_title
;
Structure prediction by ZEFSAII (Michael W. Deem and Ramdas Pophale) SiO2 
 PCOD9178342
Probable space group: C 2/M
;
_chemical_formula_sum "Si O2"
_cell_formula_units_Z 64
_cell_length_a 30.295234
_cell_length_b 21.623893
_cell_length_c 9.534860
_cell_angle_alpha 90.000000
_cell_angle_beta 25.408174
_cell_angle_gamma 90.000000
_cell_volume 2680.060480
_symmetry_space_group_name_H-M "C 2/M"
_symmetry_group_IT_number 12
_symmetry_cell_setting 'monoclinic'
loop_
_space_group_symop_operation_xyz
x,y,z
-x,y,-z
-x,-y,-z
x,-y,z
1/2+x,1/2+y,z
1/2-x,1/2+y,-z
1/2-x,1/2-y,-z
1/2+x,1/2-y,z
loop_
_atom_site_type_symbol
_atom_site_label
_atom_site_fract_x
_atom_site_fract_y
_atom_site_fract_z
Si Si1 0.147262 0.613546 0.343500
Si Si2 0.903907 0.749302 0.390003
Si Si3 0.072131 0.426373 0.085613
Si Si4 0.012544 0.181054 0.308500
Si Si5 0.716570 0.263516 0.752848
Si Si6 0.250730 0.925652 0.207696
Si Si7 0.210542 0.402192 0.450266
Si Si8 0.607920 0.567998 0.869814
O O1 0.114286 0.679830 0.500244
O O2 0.180483 0.574093 0.384346
O O3 0.046860 0.587327 0.553759
O O4 0.238446 0.609263 0.969582
O O5 0.797821 0.770062 0.618958
O O6 0.923627 0.788032 0.473667
O O7 0.000000 0.752132 0.000000
O O8 0.084716 0.500000 0.036524
O O9 0.153030 0.405081 0.970452
O O10 0.108295 0.395994 0.836265
O O11 0.000000 0.154320 0.500000
O O12 0.093860 0.237564 0.104087
O O13 0.048584 0.125682 0.103799
O O14 0.750000 0.250000 0.500000
O O15 0.737778 0.335747 0.720089
O O16 0.149993 0.917860 0.593287
O O17 0.260278 0.000000 0.155897
O O18 0.291241 0.436206 0.318793
O O19 0.557319 0.500000 0.016380
#
# Coordination Sequence:
#
# PCOD9178342 Si02
#       8
#     8   8   8   8   8   8   8   8
#     4  11  20  31  53  90 132 164 216 273 323 391
#     4  11  23  43  66  99 137 182 230 275 329 412
#     4  10  19  30  47  78 125 174 213 258 324 395
#     4  11  25  44  69 104 137 174 230 287 341 406
#     4  10  20  41  70  93 126 178 219 269 337 394
#     4   9  19  35  56  86 126 173 223 268 328 403
#     4   9  19  33  55  89 119 161 218 268 329 398
#     4   9  20  43  69  91 123 172 222 276 343 403
#
# _framework density 23.880057000000001
#
# number of rings (size 3 to 8) (size 9 to 14) (size 15 to 20)
#    0.000    2.000    1.250    3.750    0.000    5.250 
#    4.500    3.750    0.000    0.375    0.000    0.000 
#    0.000    0.000    0.000    0.000    0.000    0.000 
#
# Total GULP energy -178694.703367 kJ/mol
# GULP energy per Si atom -5584.209480 kJ/mol
# Density = 2.382571 g / cm^3
# Si number density = 23.880057 Si / 1000 Ang^3
#
#
#
# Elastic Constant Matrix: (Units=GPa)
#
#
# Indices 1 2 3 4 5 6 
#
# 1 111.4668 17.7664 35.7117 0.0000 15.7146 0.0000
# 2 17.7664 35.9254 3.4669 0.0000 -2.0159 0.0000
# 3 35.7117 3.4669 55.6050 0.0000 24.1947 0.0000
# 4 0.0000 0.0000 0.0000 26.7974 0.0000 1.6377
# 5 15.7146 -2.0159 24.1947 0.0000 44.1175 0.0000
# 6 0.0000 0.0000 0.0000 1.6377 0.0000 8.0413
#
#
#
# Elastic Compliance Matrix: (Units=1/GPa)
#
#
# Indices 1 2 3 4 5 6 
#
# 1 0.012243 -0.005390 -0.007253 0.000000 -0.000630 0.000000
# 2 -0.005390 0.030670 0.000137 0.000000 0.003246 0.000000
# 3 -0.007253 0.000137 0.028247 0.000000 -0.012901 0.000000
# 4 0.000000 0.000000 0.000000 0.037787 0.000000 -0.007696
# 5 -0.000630 0.003246 -0.012901 0.000000 0.030115 0.000000
# 6 0.000000 0.000000 0.000000 -0.007696 0.000000 0.125926
#
#
# Mechanical properties :
#
#
# Convention : Reuss Voigt Hill
#
# Bulk Modulus (GPa) = 21.66932 35.20970 28.43951
# Shear Modulus (GPa) = 16.37293 25.52805 20.95049
#
# Velocity S-wave (km/s) = 2.62130 3.27312 2.96517
# Velocity P-wave (km/s) = 4.27265 5.39081 4.86397
#
# Compressibility (1/GPa) = 0.04614819
#
# Stress axis : x y z
#
# Youngs Moduli (GPa) = 81.68086 32.60524 35.40184
#
# Poissons Ratio (x) = 0.17574 0.25676
# Poissons Ratio (y) = 0.44025 -0.00485
# Poissons Ratio (z) = 0.59241 -0.00446
#
# Static dielectric constant tensor:
#      x y z
#    x 1.930140 0.000000 -0.071320 
#    y 0.000000 1.913350 0.000000 
#    z -0.071320 0.000000 1.893860 
# 
# From -- ./inp_files/113611.got.cif
#   From: 2010.05.17/outbox.cif.g08.bks.cpg/sg12_57_cif.got.tgz:113611.got - 2010.06.03 13:09:07.
