data_PCOD9178498
_publ_section_title
;
Structure prediction by ZEFSAII (Michael W. Deem and Ramdas Pophale) SiO2 
 PCOD9178498
Probable space group: C 2/M
;
_chemical_formula_sum "Si O2"
_cell_formula_units_Z 56
_cell_length_a 23.579210
_cell_length_b 9.001307
_cell_length_c 19.385604
_cell_angle_alpha 90.000000
_cell_angle_beta 51.727841
_cell_angle_gamma 90.000000
_cell_volume 3230.179514
_symmetry_space_group_name_H-M "C 2/M"
_symmetry_group_IT_number 12
_symmetry_cell_setting 'monoclinic'
loop_
_space_group_symop_operation_xyz
x,y,z
-x,y,-z
-x,-y,-z
x,-y,z
1/2+x,1/2+y,z
1/2-x,1/2+y,-z
1/2-x,1/2-y,-z
1/2+x,1/2-y,z
loop_
_atom_site_type_symbol
_atom_site_label
_atom_site_fract_x
_atom_site_fract_y
_atom_site_fract_z
Si Si1 0.860505 0.178403 0.023328
Si Si2 0.435758 0.823584 0.249946
Si Si3 0.209233 0.176732 0.178558
Si Si4 0.580266 0.678315 0.173154
Si Si5 0.284359 0.679363 0.406394
Si Si6 0.760091 0.669534 0.708419
Si Si7 0.087847 0.170369 0.872399
O O1 0.782511 0.251103 0.093832
O O2 0.913784 0.220336 0.046671
O O3 0.852482 0.000000 0.034933
O O4 0.889529 0.213455 0.925956
O O5 0.505604 0.764439 0.237338
O O6 0.363880 0.745327 0.333128
O O7 0.443881 0.770650 0.164051
O O8 0.428652 0.000000 0.258629
O O9 0.140779 0.218576 0.183549
O O10 0.202595 0.230165 0.262418
O O11 0.217043 0.000000 0.170084
O O12 0.568049 0.500000 0.185316
O O13 0.288152 0.500000 0.407445
O O14 0.250000 0.750000 0.500000
O O15 0.237782 0.716916 0.372785
O O16 0.785783 0.500000 0.695421
O O17 0.674313 0.667991 0.791437
O O18 0.060797 0.000000 0.885934
#
# Coordination Sequence:
#
# PCOD9178498 Si02
#       7
#     8   8   8   8   8   8   8
#     4   9  18  32  50  69  94 133 177 215 255 298
#     4  11  22  34  50  74 102 133 166 204 252 301
#     4  10  19  30  49  74 100 132 173 217 252 283
#     4  10  21  35  48  67  99 139 176 211 252 297
#     4  10  20  36  59  84 106 128 155 194 243 299
#     4   8  16  31  51  74 101 132 162 193 240 297
#     4   8  15  30  49  68  94 131 169 207 251 300
#
# _framework density 17.336497000000001
#
# number of rings (size 3 to 8) (size 9 to 14) (size 15 to 20)
#    0.000    2.571    0.000    4.286    0.000    8.000 
#    0.000    2.857    0.000    0.857    0.000    6.000 
#    0.000    0.000    0.000    0.000    0.000    0.000 
#
# Total GULP energy -156208.819141 kJ/mol
# GULP energy per Si atom -5578.886398 kJ/mol
# Density = 1.729704 g / cm^3
# Si number density = 17.336497 Si / 1000 Ang^3
#
#
#
# Elastic Constant Matrix: (Units=GPa)
#
#
# Indices 1 2 3 4 5 6 
#
# 1 127.7028 57.3054 58.5658 0.0003 3.7702 -0.0003
# 2 57.3054 59.3008 41.2855 0.0005 0.6184 -0.0006
# 3 58.5658 41.2855 89.0321 0.0000 17.7241 -0.0001
# 4 0.0003 0.0005 0.0000 22.7106 0.0000 1.4151
# 5 3.7702 0.6184 17.7241 0.0000 22.4629 0.0000
# 6 -0.0003 -0.0006 -0.0001 1.4151 0.0000 28.8129
#
#
#
# Elastic Compliance Matrix: (Units=1/GPa)
#
#
# Indices 1 2 3 4 5 6 
#
# 1 0.015089 -0.010972 -0.005213 0.000000 0.001882 0.000000
# 2 -0.010972 0.034929 -0.010861 -0.000001 0.009449 0.000001
# 3 -0.005213 -0.010861 0.023090 0.000000 -0.017045 0.000000
# 4 0.000000 -0.000001 0.000000 0.044167 0.000000 -0.002169
# 5 0.001882 0.009449 -0.017045 0.000000 0.057391 0.000000
# 6 0.000000 0.000001 0.000000 -0.002169 0.000000 0.034813
#
#
# Mechanical properties :
#
#
# Convention : Reuss Voigt Hill
#
# Bulk Modulus (GPa) = 52.58271 65.59434 59.08852
# Shear Modulus (GPa) = 18.52467 22.72255 20.62361
#
# Velocity S-wave (km/s) = 3.27239 3.62426 3.45281
# Velocity P-wave (km/s) = 6.68390 7.44525 7.07483
#
# Compressibility (1/GPa) = 0.01901766
#
# Stress axis : x y z
#
# Youngs Moduli (GPa) = 66.27194 28.62960 43.30823
#
# Poissons Ratio (x) = 0.31413 0.22575
# Poissons Ratio (y) = 0.72715 0.47035
# Poissons Ratio (z) = 0.34545 0.31094
#
# Static dielectric constant tensor:
#      x y z
#    x 1.602420 0.000000 0.015150 
#    y 0.000000 1.575760 0.000000 
#    z 0.015150 0.000000 1.595270 
# 
# From -- ./inp_files/319638.got.cif
#   From: 2010.05.17/outbox.cif.g08.bks.cpg/sg12_160_cif.got.tgz:319638.got - 2010.06.03 13:09:07.
