data_PCOD9178349
_publ_section_title
;
Structure prediction by ZEFSAII (Michael W. Deem and Ramdas Pophale) SiO2 
 PCOD9178349
Probable space group: C 2/M
;
_chemical_formula_sum "Si O2"
_cell_formula_units_Z 42
_cell_length_a 13.495063
_cell_length_b 7.886122
_cell_length_c 16.777381
_cell_angle_alpha 90.000000
_cell_angle_beta 109.734050
_cell_angle_gamma 90.000000
_cell_volume 1680.648198
_symmetry_space_group_name_H-M "C 2/M"
_symmetry_group_IT_number 12
_symmetry_cell_setting 'monoclinic'
loop_
_space_group_symop_operation_xyz
x,y,z
-x,y,-z
-x,-y,-z
x,-y,z
1/2+x,1/2+y,z
1/2-x,1/2+y,-z
1/2-x,1/2-y,-z
1/2+x,1/2-y,z
loop_
_atom_site_type_symbol
_atom_site_label
_atom_site_fract_x
_atom_site_fract_y
_atom_site_fract_z
Si Si1 0.905609 0.696477 0.191177
Si Si2 0.642116 0.500000 0.116887
Si Si3 0.558918 0.695332 0.623176
Si Si4 0.159098 0.315459 0.228537
Si Si5 0.310597 0.305445 0.594907
Si Si6 0.112825 0.000000 0.927538
Si Si7 0.000000 0.500000 0.500000
O O1 0.873996 0.500000 0.174037
O O2 0.862065 0.831432 0.116106
O O3 0.890862 0.764846 0.277110
O O4 0.033017 0.695559 0.211444
O O5 0.681720 0.665490 0.173929
O O6 0.514424 0.500000 0.093943
O O7 0.661871 0.500000 0.028398
O O8 0.578522 0.500000 0.602396
O O9 0.433747 0.709702 0.608007
O O10 0.570195 0.848650 0.564083
O O11 0.181892 0.500000 0.201006
O O12 0.210063 0.297272 0.330088
O O13 0.292410 0.500000 0.608881
O O14 0.250000 0.250000 0.500000
#
# Coordination Sequence:
#
# PCOD9178349 Si02
#       7
#     8   4   8   8   8   4   2
#     4   9  15  26  42  59  80 114 153 187 222 270
#     4   9  16  26  35  58  81 116 147 187 233 259
#     4  10  20  33  47  68  93 124 162 197 236 279
#     4   9  16  26  40  57  85 117 148 185 227 272
#     4  10  19  30  48  70  93 123 163 199 231 281
#     4   9  16  24  40  55  82 109 154 192 218 270
#     4  12  22  32  50  66  94 128 160 200 234 288
#
# _framework density 24.990358000000001
#
# number of rings (size 3 to 8) (size 9 to 14) (size 15 to 20)
#    0.000    2.476    2.857    0.857    2.667    0.762 
#    0.000    3.810    0.000    0.000    0.000    0.000 
#    0.000    0.000    0.000    6.857    0.000    5.143 
#
# Total GULP energy -117416.663067 kJ/mol
# GULP energy per Si atom -5591.269670 kJ/mol
# Density = 2.493348 g / cm^3
# Si number density = 24.990358 Si / 1000 Ang^3
#
#
#
# Elastic Constant Matrix: (Units=GPa)
#
#
# Indices 1 2 3 4 5 6 
#
# 1 86.7089 28.2111 29.1359 0.0000 -3.3141 0.0000
# 2 28.2111 251.7473 129.9631 0.0000 -17.2691 0.0000
# 3 29.1359 129.9631 198.1971 0.0000 3.8168 0.0000
# 4 0.0000 0.0000 0.0000 36.0162 0.0000 1.0385
# 5 -3.3141 -17.2691 3.8168 0.0000 35.8501 0.0000
# 6 0.0000 0.0000 0.0000 1.0385 0.0000 32.1756
#
#
#
# Elastic Compliance Matrix: (Units=1/GPa)
#
#
# Indices 1 2 3 4 5 6 
#
# 1 0.012241 -0.000548 -0.001460 0.000000 0.001023 0.000000
# 2 -0.000548 0.006451 -0.004217 0.000000 0.003506 0.000000
# 3 -0.001460 -0.004217 0.008084 0.000000 -0.003027 0.000000
# 4 0.000000 0.000000 0.000000 0.027791 0.000000 -0.000897
# 5 0.001023 0.003506 -0.003027 0.000000 0.030000 0.000000
# 6 0.000000 0.000000 0.000000 -0.000897 0.000000 0.031108
#
#
# Mechanical properties :
#
#
# Convention : Reuss Voigt Hill
#
# Bulk Modulus (GPa) = 69.80438 101.25259 85.52848
# Shear Modulus (GPa) = 37.62224 44.09793 40.86009
#
# Velocity S-wave (km/s) = 3.88425 4.20527 4.04794
# Velocity P-wave (km/s) = 6.93611 8.01147 7.49311
#
# Compressibility (1/GPa) = 0.01432575
#
# Stress axis : x y z
#
# Youngs Moduli (GPa) = 81.69430 155.00874 123.70511
#
# Poissons Ratio (x) = 0.08492 0.18060
# Poissons Ratio (y) = 0.04476 0.52169
# Poissons Ratio (z) = 0.11927 0.65371
#
# Static dielectric constant tensor:
#      x y z
#    x 2.151950 0.000000 -0.028030 
#    y 0.000000 1.895990 0.000000 
#    z -0.028030 0.000000 1.836840 
# 
# From -- ./inp_files/229465.got.cif
#   From: 2010.05.17/outbox.cif.g08.bks.cpg/sg12_115_cif.got.tgz:229465.got - 2010.06.03 13:09:07.
