data_PCOD9178228
_publ_section_title
;
Structure prediction by ZEFSAII (Michael W. Deem and Ramdas Pophale) SiO2 
 PCOD9178228
Probable space group: C 2/M
;
_chemical_formula_sum "Si O2"
_cell_formula_units_Z 48
_cell_length_a 15.711919
_cell_length_b 7.656175
_cell_length_c 16.393952
_cell_angle_alpha 90.000000
_cell_angle_beta 61.677833
_cell_angle_gamma 90.000000
_cell_volume 1736.010787
_symmetry_space_group_name_H-M "C 2/M"
_symmetry_group_IT_number 12
_symmetry_cell_setting 'monoclinic'
loop_
_space_group_symop_operation_xyz
x,y,z
-x,y,-z
-x,-y,-z
x,-y,z
1/2+x,1/2+y,z
1/2-x,1/2+y,-z
1/2-x,1/2-y,-z
1/2+x,1/2-y,z
loop_
_atom_site_type_symbol
_atom_site_label
_atom_site_fract_x
_atom_site_fract_y
_atom_site_fract_z
Si Si1 0.129818 0.288464 0.606811
Si Si2 0.588502 0.205465 0.271861
Si Si3 0.355729 0.203191 0.222689
Si Si4 0.549999 0.289497 0.064069
Si Si5 0.609473 0.706850 0.438052
Si Si6 0.259839 0.297261 0.097861
O O1 0.131252 0.500000 0.607539
O O2 0.018296 0.222077 0.665061
O O3 0.172265 0.230522 0.674611
O O4 0.160904 0.236337 0.501553
O O5 0.640197 0.221459 0.336553
O O6 0.657250 0.285411 0.170873
O O7 0.579052 0.000000 0.259034
O O8 0.473400 0.213951 0.162839
O O9 0.315433 0.294639 0.160703
O O10 0.327659 0.000000 0.229627
O O11 0.550929 0.500000 0.070942
O O12 0.500000 0.245284 0.000000
O O13 0.660573 0.224355 0.001698
O O14 0.500000 0.779157 0.500000
O O15 0.605365 0.500000 0.429130
O O16 0.247556 0.500000 0.084129
#
# Coordination Sequence:
#
# PCOD9178228 Si02
#       6
#     8   8   8   8   8   8
#     4   9  18  32  49  69  93 123 156 187 225 275
#     4   9  17  32  52  69  90 122 157 190 225 271
#     4  10  19  30  47  71  96 121 152 191 231 271
#     4   8  15  29  47  66  90 122 158 188 220 271
#     4   9  17  29  47  71  95 119 151 190 230 272
#     4   9  18  32  50  70  91 121 158 191 226 271
#
# _framework density 27.649598000000001
#
# number of rings (size 3 to 8) (size 9 to 14) (size 15 to 20)
#    0.000    3.000    0.000    2.000    0.000    7.000 
#    0.000    1.667    0.000    0.000    0.000    0.000 
#    0.000    0.000    0.000    0.000    0.000    0.000 
#
# Total GULP energy -134225.831433 kJ/mol
# GULP energy per Si atom -5592.742976 kJ/mol
# Density = 2.758667 g / cm^3
# Si number density = 27.649598 Si / 1000 Ang^3
#
#
#
# Elastic Constant Matrix: (Units=GPa)
#
#
# Indices 1 2 3 4 5 6 
#
# 1 75.1129 6.1061 7.0139 0.0000 4.4582 0.0002
# 2 6.1061 77.0205 6.5363 0.0001 9.2233 0.0004
# 3 7.0139 6.5363 234.8556 0.0000 2.2472 0.0000
# 4 0.0000 0.0001 0.0000 23.4925 0.0000 17.7785
# 5 4.4582 9.2233 2.2472 0.0000 54.1376 0.0000
# 6 0.0002 0.0004 0.0000 17.7785 0.0000 23.3812
#
#
#
# Elastic Compliance Matrix: (Units=1/GPa)
#
#
# Indices 1 2 3 4 5 6 
#
# 1 0.013478 -0.000925 -0.000368 0.000000 -0.000937 0.000000
# 2 -0.000925 0.013346 -0.000323 0.000000 -0.002184 -0.000001
# 3 -0.000368 -0.000323 0.004279 0.000000 -0.000092 0.000000
# 4 0.000000 0.000000 0.000000 0.100260 0.000000 -0.076235
# 5 -0.000937 -0.002184 -0.000092 0.000000 0.018925 0.000000
# 6 0.000000 -0.000001 0.000000 -0.076235 0.000000 0.100737
#
#
# Mechanical properties :
#
#
# Convention : Reuss Voigt Hill
#
# Bulk Modulus (GPa) = 35.87906 47.36684 41.62295
# Shear Modulus (GPa) = 18.97200 44.69110 31.83155
#
# Velocity S-wave (km/s) = 2.62230 4.02473 3.39669
# Velocity P-wave (km/s) = 4.70884 6.22626 5.51994
#
# Compressibility (1/GPa) = 0.02787141
#
# Stress axis : x y z
#
# Youngs Moduli (GPa) = 74.19239 74.92963 233.71097
#
# Poissons Ratio (x) = 0.06932 0.08596
# Poissons Ratio (y) = 0.06864 0.07547
# Poissons Ratio (z) = 0.02729 0.02420
#
# Static dielectric constant tensor:
#      x y z
#    x 2.359050 0.000000 -0.041700 
#    y 0.000000 1.951990 0.000000 
#    z -0.041700 0.000000 2.182120 
# 
# From -- ./inp_files/274109.got.cif
#   From: 2010.05.17/outbox.cif.g08.bks.cpg/sg12_138_cif.got.tgz:274109.got - 2010.06.03 13:09:07.
