data_PCOD9178156
_publ_section_title
;
Structure prediction by ZEFSAII (Michael W. Deem and Ramdas Pophale) SiO2 
 PCOD9178156
Probable space group: C 2/M
;
_chemical_formula_sum "Si O2"
_cell_formula_units_Z 56
_cell_length_a 37.489203
_cell_length_b 7.703112
_cell_length_c 15.391892
_cell_angle_alpha 90.000000
_cell_angle_beta 131.831623
_cell_angle_gamma 90.000000
_cell_volume 3311.949145
_symmetry_space_group_name_H-M "C 2/M"
_symmetry_group_IT_number 12
_symmetry_cell_setting 'monoclinic'
loop_
_space_group_symop_operation_xyz
x,y,z
-x,y,-z
-x,-y,-z
x,-y,z
1/2+x,1/2+y,z
1/2-x,1/2+y,-z
1/2-x,1/2-y,-z
1/2+x,1/2-y,z
loop_
_atom_site_type_symbol
_atom_site_label
_atom_site_fract_x
_atom_site_fract_y
_atom_site_fract_z
Si Si1 0.641572 0.289337 0.356585
Si Si2 0.317920 0.701559 0.036851
Si Si3 0.803297 0.206172 0.728236
Si Si4 0.065428 0.500000 0.190283
Si Si5 0.211817 0.299087 0.832045
Si Si6 0.801025 0.800841 0.380318
Si Si7 0.112425 0.791598 0.995304
Si Si8 0.455743 0.000000 0.049917
O O1 0.633222 0.500000 0.340621
O O2 0.678564 0.248579 0.338381
O O3 0.595331 0.171545 0.264769
O O4 0.665748 0.239097 0.487075
O O5 0.315481 0.500000 0.006512
O O6 0.319813 0.714802 0.143736
O O7 0.362648 0.766845 0.054512
O O8 0.265963 0.777001 0.925486
O O9 0.753864 0.290568 0.676825
O O10 0.794463 0.000000 0.716675
O O11 0.846432 0.240959 0.865257
O O12 0.058527 0.500000 0.075074
O O13 0.012962 0.500000 0.147129
O O14 0.214803 0.500000 0.862419
O O15 0.194674 0.288407 0.705826
O O16 0.813531 0.000000 0.385115
O O17 0.101789 0.000000 0.978153
O O18 0.067845 0.671034 0.946044
#
# Coordination Sequence:
#
# PCOD9178156 Si02
#       8
#     8   8   8   4   8   8   8   4
#     4  10  23  39  54  78 110 147 187 228 277 324
#     4   9  18  32  48  71 108 148 181 221 266 322
#     4  10  19  33  50  76 111 147 183 219 260 322
#     4  11  24  40  60  81 109 145 185 246 278 325
#     4  10  19  30  46  74 108 146 186 217 262 317
#     4  11  22  32  50  77 109 152 190 218 263 327
#     4  10  20  35  55  80 113 145 180 227 275 326
#     4  11  24  38  60  87 103 141 199 226 291 333
#
# _framework density 16.908473000000001
#
# number of rings (size 3 to 8) (size 9 to 14) (size 15 to 20)
#    0.000    1.857    2.857    1.286    5.000    1.143 
#    0.000    1.429    0.000    0.000    0.000    2.000 
#    0.000    4.571    0.000    0.000    0.000    0.000 
#
# Total GULP energy -156172.178207 kJ/mol
# GULP energy per Si atom -5577.577793 kJ/mol
# Density = 1.686999 g / cm^3
# Si number density = 16.908473 Si / 1000 Ang^3
#
#
#
# Elastic Constant Matrix: (Units=GPa)
#
#
# Indices 1 2 3 4 5 6 
#
# 1 119.5199 30.6614 42.9793 0.0000 -11.2741 0.0000
# 2 30.6614 48.0870 15.8272 0.0000 1.3625 0.0000
# 3 42.9793 15.8272 62.3177 0.0000 -13.7836 0.0000
# 4 0.0000 0.0000 0.0000 17.9735 0.0000 -8.9476
# 5 -11.2741 1.3625 -13.7836 0.0000 23.1895 0.0000
# 6 0.0000 0.0000 0.0000 -8.9476 0.0000 -14.1024
#
#
#
# Elastic Compliance Matrix: (Units=1/GPa)
#
#
# Indices 1 2 3 4 5 6 
#
# 1 0.012463 -0.005861 -0.006552 0.000000 0.002509 0.000000
# 2 -0.005861 0.026070 -0.004085 0.000000 -0.006810 0.000000
# 3 -0.006552 -0.004085 0.024123 0.000000 0.011393 0.000000
# 4 0.000000 0.000000 0.000000 0.042282 0.000000 -0.026827
# 5 0.002509 -0.006810 0.011393 0.000000 0.051515 0.000000
# 6 0.000000 0.000000 0.000000 -0.026827 0.000000 -0.053889
#
#
# Mechanical properties :
#
#
# Convention : Reuss Voigt Hill
#
# Bulk Modulus (GPa) = 33.71537 45.42892 39.57215
# Shear Modulus (GPa) = 34.37639 14.77591 24.57615
#
# Velocity S-wave (km/s) = 4.51387 2.95935 3.81659
# Velocity P-wave (km/s) = 6.86658 6.21312 6.54800
#
# Compressibility (1/GPa) = 0.02966006
#
# Stress axis : x y z
#
# Youngs Moduli (GPa) = 80.23566 38.35756 41.45417
#
# Poissons Ratio (x) = 0.22483 0.27161
# Poissons Ratio (y) = 0.47030 0.16934
# Poissons Ratio (z) = 0.52570 0.15669
#
# Static dielectric constant tensor:
#      x y z
#    x 1.575450 0.000000 -0.026750 
#    y 0.000000 1.610740 0.000000 
#    z -0.026750 0.000000 1.559570 
# 
# From -- ./inp_files/249324.got.cif
#   From: 2010.05.17/outbox.cif.g08.bks.cpg/sg12_125_cif.got.tgz:249324.got - 2010.06.03 13:09:07.
