data_PCOD9179180
_publ_section_title
;
Structure prediction by ZEFSAII (Michael W. Deem and Ramdas Pophale) SiO2 
 PCOD9179180
Probable space group: C 2/M
;
_chemical_formula_sum "Si O2"
_cell_formula_units_Z 48
_cell_length_a 18.816934
_cell_length_b 8.905233
_cell_length_c 24.992060
_cell_angle_alpha 90.000000
_cell_angle_beta 41.324293
_cell_angle_gamma 90.000000
_cell_volume 2765.354078
_symmetry_space_group_name_H-M "C 2/M"
_symmetry_group_IT_number 12
_symmetry_cell_setting 'monoclinic'
loop_
_space_group_symop_operation_xyz
x,y,z
-x,y,-z
-x,-y,-z
x,-y,z
1/2+x,1/2+y,z
1/2-x,1/2+y,-z
1/2-x,1/2-y,-z
1/2+x,1/2-y,z
loop_
_atom_site_type_symbol
_atom_site_label
_atom_site_fract_x
_atom_site_fract_y
_atom_site_fract_z
Si Si1 0.169452 0.679177 0.002722
Si Si2 0.368348 0.819643 0.423049
Si Si3 0.128902 0.173735 0.915865
Si Si4 0.585251 0.319254 0.497143
Si Si5 0.670969 0.817983 0.669983
Si Si6 0.418925 0.819310 0.165824
O O1 0.181170 0.500000 0.995426
O O2 0.045996 0.714849 0.089019
O O3 0.250000 0.750000 0.000000
O O4 0.183984 0.743476 0.934620
O O5 0.250000 0.750000 0.500000
O O6 0.437609 0.754889 0.432499
O O7 0.394376 0.776752 0.346965
O O8 0.363111 0.000000 0.429297
O O9 0.141630 0.248984 0.850791
O O10 0.160776 0.000000 0.896782
O O11 0.000000 0.181346 0.000000
O O12 0.500000 0.279175 0.500000
O O13 0.585375 0.500000 0.503646
O O14 0.704846 0.273955 0.409898
O O15 0.625160 0.764281 0.752212
O O16 0.669598 0.000000 0.672992
O O17 0.407970 0.000000 0.169076
#
# Coordination Sequence:
#
# PCOD9179180 Si02
#       6
#     8   8   8   8   8   8
#     4  10  19  31  49  70  92 121 155 190 229 272
#     4   9  16  28  47  68  91 121 155 188 224 269
#     4   9  17  30  48  69  93 120 152 189 226 269
#     4   9  17  30  48  69  94 123 153 186 226 270
#     4   8  15  29  48  68  91 120 152 187 226 269
#     4   9  17  31  50  69  91 121 154 186 226 274
#
# _framework density 17.357634000000001
#
# number of rings (size 3 to 8) (size 9 to 14) (size 15 to 20)
#    0.000    3.000    0.000    2.500    0.000    3.000 
#    0.000    5.833    0.000    4.000    0.000    0.000 
#    0.000    0.000    0.000    0.000    0.000    0.000 
#
# Total GULP energy -133642.513333 kJ/mol
# GULP energy per Si atom -5568.438056 kJ/mol
# Density = 1.731813 g / cm^3
# Si number density = 17.357634 Si / 1000 Ang^3
#
#
#
# Elastic Constant Matrix: (Units=GPa)
#
#
# Indices 1 2 3 4 5 6 
#
# 1 165.8622 56.9462 63.6258 0.0000 48.0577 0.0000
# 2 56.9462 41.0311 31.0028 0.0000 15.6766 0.0000
# 3 63.6258 31.0028 94.7100 0.0000 46.4742 0.0000
# 4 0.0000 0.0000 0.0000 15.8275 0.0000 9.1109
# 5 48.0577 15.6766 46.4742 0.0000 34.8389 0.0000
# 6 0.0000 0.0000 0.0000 9.1109 0.0000 33.0352
#
#
#
# Elastic Compliance Matrix: (Units=1/GPa)
#
#
# Indices 1 2 3 4 5 6 
#
# 1 0.017007 -0.019544 0.006279 0.000000 -0.023041 0.000000
# 2 -0.019544 0.054860 -0.017209 0.000000 0.025231 0.000000
# 3 0.006279 -0.017209 0.035968 0.000000 -0.048898 0.000000
# 4 0.000000 0.000000 0.000000 0.075104 0.000000 -0.020713
# 5 -0.023041 0.025231 -0.048898 0.000000 0.114362 0.000000
# 6 0.000000 0.000000 0.000000 -0.020713 0.000000 0.035983
#
#
# Mechanical properties :
#
#
# Convention : Reuss Voigt Hill
#
# Bulk Modulus (GPa) = 21.32861 67.19479 44.26170
# Shear Modulus (GPa) = 12.19921 26.74223 19.47072
#
# Velocity S-wave (km/s) = 2.65394 3.92938 3.35287
# Velocity P-wave (km/s) = 4.65893 7.70602 6.36743
#
# Compressibility (1/GPa) = 0.04688539
#
# Stress axis : x y z
#
# Youngs Moduli (GPa) = 58.80025 18.22814 27.80251
#
# Poissons Ratio (x) = 0.35626 -0.17457
# Poissons Ratio (y) = 1.14922 0.47846
# Poissons Ratio (z) = -0.36920 0.31369
#
# Static dielectric constant tensor:
#      x y z
#    x 1.601290 0.000000 0.015780 
#    y 0.000000 1.583200 0.000000 
#    z 0.015780 0.000000 1.598780 
# 
# From -- ./inp_files/273610.got.cif
#   From: 2010.05.17/outbox.cif.g08.bks.cpg/sg12_137_cif.got.tgz:273610.got - 2010.06.03 13:09:07.
