data_PCOD9179721
_publ_section_title
;
Structure prediction by ZEFSAII (Michael W. Deem and Ramdas Pophale) SiO2 
 PCOD9179721
Probable space group: C 2/M
;
_chemical_formula_sum "Si O2"
_cell_formula_units_Z 48
_cell_length_a 22.614279
_cell_length_b 15.423046
_cell_length_c 19.504863
_cell_angle_alpha 90.000000
_cell_angle_beta 161.956760
_cell_angle_gamma 90.000000
_cell_volume 2107.102181
_symmetry_space_group_name_H-M "C 2/M"
_symmetry_group_IT_number 12
_symmetry_cell_setting 'monoclinic'
loop_
_space_group_symop_operation_xyz
x,y,z
-x,y,-z
-x,-y,-z
x,-y,z
1/2+x,1/2+y,z
1/2-x,1/2+y,-z
1/2-x,1/2-y,-z
1/2+x,1/2-y,z
loop_
_atom_site_type_symbol
_atom_site_label
_atom_site_fract_x
_atom_site_fract_y
_atom_site_fract_z
Si Si1 0.233212 0.097678 0.751103
Si Si2 0.594410 0.097045 0.455336
Si Si3 0.827238 0.133783 0.026498
Si Si4 0.740443 0.325668 0.900701
Si Si5 0.795921 0.781610 0.403050
Si Si6 0.754222 0.096085 0.485607
O O1 0.310073 0.126394 0.909972
O O2 0.287600 0.164853 0.752061
O O3 0.000000 0.097412 0.500000
O O4 0.289105 0.000000 0.795850
O O5 0.368829 0.105129 0.226129
O O6 0.720825 0.177880 0.620525
O O7 0.610886 0.106977 0.390732
O O8 0.659029 0.000000 0.544483
O O9 0.848103 0.237109 0.037750
O O10 0.785383 0.116766 0.060599
O O11 0.036927 0.096739 0.247735
O O12 0.524123 0.294582 0.648765
O O13 0.744576 0.828285 0.418378
O O14 0.729050 0.000000 0.426317
#
# Coordination Sequence:
#
# PCOD9179721 Si02
#       6
#     8   8   8   8   8   8
#     4   9  16  27  47  75 104 133 166 203 245 296
#     4  10  20  32  50  75  99 129 168 207 248 293
#     4   9  17  32  51  72 102 130 158 203 246 285
#     4   8  16  28  46  73  99 130 167 196 239 298
#     4   9  17  30  47  70 103 134 164 205 248 293
#     4  10  19  31  51  76  99 129 167 204 249 298
#
# _framework density 22.780101999999999
#
# number of rings (size 3 to 8) (size 9 to 14) (size 15 to 20)
#    0.000    2.833    0.000    2.500    0.000    4.667 
#    0.000    0.000    0.000   17.500    0.000    9.333 
#    0.000    0.000    0.000    0.000    0.000    0.000 
#
# Total GULP energy -133896.222318 kJ/mol
# GULP energy per Si atom -5579.009263 kJ/mol
# Density = 2.272825 g / cm^3
# Si number density = 22.780102 Si / 1000 Ang^3
#
#
#
# Elastic Constant Matrix: (Units=GPa)
#
#
# Indices 1 2 3 4 5 6 
#
# 1 44.2268 29.6455 19.5600 -0.0008 0.6416 -0.0006
# 2 29.6455 149.8106 19.6767 0.0003 -3.2363 -0.0001
# 3 19.5600 19.6767 70.1393 0.0051 21.6506 -0.0053
# 4 -0.0008 0.0003 0.0051 7.3694 0.0028 -1.6814
# 5 0.6416 -3.2363 21.6506 0.0028 30.5747 -0.0035
# 6 -0.0006 -0.0001 -0.0053 -1.6814 -0.0035 24.6986
#
#
#
# Elastic Compliance Matrix: (Units=1/GPa)
#
#
# Indices 1 2 3 4 5 6 
#
# 1 0.029330 -0.004599 -0.008381 0.000007 0.004832 0.000000
# 2 -0.004599 0.007830 -0.001535 -0.000001 0.002013 0.000000
# 3 -0.008381 -0.001535 0.021782 -0.000010 -0.015411 0.000002
# 4 0.000007 -0.000001 -0.000010 0.137836 -0.000005 0.009384
# 5 0.004832 0.002013 -0.015411 -0.000005 0.043731 0.000003
# 6 0.000000 0.000000 0.000002 0.009384 0.000003 0.041127
#
#
# Mechanical properties :
#
#
# Convention : Reuss Voigt Hill
#
# Bulk Modulus (GPa) = 33.43106 44.66013 39.04560
# Shear Modulus (GPa) = 15.59390 25.54819 20.57104
#
# Velocity S-wave (km/s) = 2.61921 3.35253 3.00830
# Velocity P-wave (km/s) = 4.88410 5.88502 5.40777
#
# Compressibility (1/GPa) = 0.02991230
#
# Stress axis : x y z
#
# Youngs Moduli (GPa) = 34.09501 127.70927 45.90851
#
# Poissons Ratio (x) = 0.58731 0.38475
# Poissons Ratio (y) = 0.15680 0.07049
# Poissons Ratio (z) = 0.28575 0.19609
#
# Static dielectric constant tensor:
#      x y z
#    x 1.835110 0.000000 0.020300 
#    y 0.000000 1.876630 0.000000 
#    z 0.020300 0.000000 1.937250 
# 
# From -- ./inp_files/325725.got.cif
#   From: 2010.05.17/outbox.cif.g08.bks.cpg/sg12_163_cif.got.tgz:325725.got - 2010.06.03 13:09:07.
