data_PCOD9179049
_publ_section_title
;
Structure prediction by ZEFSAII (Michael W. Deem and Ramdas Pophale) SiO2 
 PCOD9179049
Probable space group: C 2/M
;
_chemical_formula_sum "Si O2"
_cell_formula_units_Z 56
_cell_length_a 32.312883
_cell_length_b 9.479900
_cell_length_c 18.878686
_cell_angle_alpha 90.000000
_cell_angle_beta 33.857306
_cell_angle_gamma 90.000000
_cell_volume 3221.847798
_symmetry_space_group_name_H-M "C 2/M"
_symmetry_group_IT_number 12
_symmetry_cell_setting 'monoclinic'
loop_
_space_group_symop_operation_xyz
x,y,z
-x,y,-z
-x,-y,-z
x,-y,z
1/2+x,1/2+y,z
1/2-x,1/2+y,-z
1/2-x,1/2-y,-z
1/2+x,1/2-y,z
loop_
_atom_site_type_symbol
_atom_site_label
_atom_site_fract_x
_atom_site_fract_y
_atom_site_fract_z
Si Si1 0.933884 0.168809 0.542282
Si Si2 0.559540 0.339207 0.111141
Si Si3 0.326025 0.169716 0.412352
Si Si4 0.476579 0.162970 0.114944
Si Si5 0.333956 0.658687 0.810590
Si Si6 0.843838 0.659473 0.928122
Si Si7 0.910620 0.165236 0.415030
O O1 0.861031 0.190401 0.693432
O O2 0.921770 0.219791 0.479513
O O3 0.000000 0.222077 0.500000
O O4 0.946828 0.000000 0.515913
O O5 0.581520 0.500000 0.068184
O O6 0.527910 0.266950 0.086385
O O7 0.624777 0.249850 0.052603
O O8 0.491240 0.335390 0.263675
O O9 0.250000 0.250000 0.500000
O O10 0.390962 0.191176 0.260237
O O11 0.358663 0.239712 0.438221
O O12 0.315057 0.000000 0.435067
O O13 0.490518 0.000000 0.116522
O O14 0.500000 0.175972 0.000000
O O15 0.360767 0.500000 0.790410
O O16 0.364682 0.765903 0.824817
O O17 0.245348 0.658565 0.941209
O O18 0.871570 0.500000 0.891527
O O19 0.884693 0.000000 0.453149
#
# Coordination Sequence:
#
# PCOD9179049 Si02
#       7
#     8   8   8   8   8   8   8
#     4   9  16  29  51  76 100 129 169 214 254 297
#     4  10  19  32  53  77 101 132 168 209 256 309
#     4  10  20  36  58  81 108 142 177 219 270 324
#     4   9  19  37  58  80 105 135 175 221 264 312
#     4   9  18  32  49  70  97 130 170 213 253 298
#     4  10  19  31  48  70  99 135 170 207 253 307
#     4   9  18  33  54  78 103 134 175 216 255 309
#
# _framework density 17.381329999999998
#
# number of rings (size 3 to 8) (size 9 to 14) (size 15 to 20)
#    0.000    2.571    0.000    2.143    0.000    4.286 
#    2.571    0.714    0.000    1.714    0.000    0.000 
#    0.000    0.000    0.000    0.000    0.000    0.000 
#
# Total GULP energy -155992.859883 kJ/mol
# GULP energy per Si atom -5571.173567 kJ/mol
# Density = 1.734177 g / cm^3
# Si number density = 17.381330 Si / 1000 Ang^3
#
#
#
# Elastic Constant Matrix: (Units=GPa)
#
#
# Indices 1 2 3 4 5 6 
#
# 1 93.9249 61.4566 37.2296 -0.0013 9.1426 0.0009
# 2 61.4566 111.5877 33.2616 -0.0039 4.5643 0.0039
# 3 37.2296 33.2616 50.9158 -0.0053 18.6667 0.0034
# 4 -0.0013 -0.0039 -0.0053 16.7346 0.0028 2.3877
# 5 9.1426 4.5643 18.6667 0.0028 24.1803 -0.0014
# 6 0.0009 0.0039 0.0034 2.3877 -0.0014 30.4923
#
#
#
# Elastic Compliance Matrix: (Units=1/GPa)
#
#
# Indices 1 2 3 4 5 6 
#
# 1 0.019514 -0.007930 -0.009668 -0.000004 0.001582 0.000002
# 2 -0.007930 0.014783 -0.005488 0.000000 0.004445 -0.000001
# 3 -0.009668 -0.005488 0.039855 0.000016 -0.026076 -0.000006
# 4 -0.000004 0.000000 0.000016 0.060432 -0.000018 -0.004732
# 5 0.001582 0.004445 -0.026076 -0.000018 0.060048 0.000006
# 6 0.000002 -0.000001 -0.000006 -0.004732 0.000006 0.033166
#
#
# Mechanical properties :
#
#
# Convention : Reuss Voigt Hill
#
# Bulk Modulus (GPa) = 35.74177 57.81377 46.77777
# Shear Modulus (GPa) = 17.64932 22.58015 20.11473
#
# Velocity S-wave (km/s) = 3.19002 3.60822 3.40554
# Velocity P-wave (km/s) = 5.84605 7.11991 6.51419
#
# Compressibility (1/GPa) = 0.02797847
#
# Stress axis : x y z
#
# Youngs Moduli (GPa) = 51.24589 67.64447 25.09104
#
# Poissons Ratio (x) = 0.53642 0.24258
# Poissons Ratio (y) = 0.40638 0.13771
# Poissons Ratio (z) = 0.49545 0.37126
#
# Static dielectric constant tensor:
#      x y z
#    x 1.580410 0.000000 -0.004570 
#    y 0.000000 1.601230 0.000000 
#    z -0.004570 0.000000 1.603030 
# 
# From -- ./inp_files/295077.got.cif
#   From: 2010.05.17/outbox.cif.g08.bks.cpg/sg12_148_cif.got.tgz:295077.got - 2010.06.03 13:09:07.
