data_PCOD9179253
_publ_section_title
;
Structure prediction by ZEFSAII (Michael W. Deem and Ramdas Pophale) SiO2 
 PCOD9179253
Probable space group: C 2/M
;
_chemical_formula_sum "Si O2"
_cell_formula_units_Z 48
_cell_length_a 19.020593
_cell_length_b 8.714443
_cell_length_c 16.590603
_cell_angle_alpha 90.000000
_cell_angle_beta 88.803673
_cell_angle_gamma 90.000000
_cell_volume 2749.357287
_symmetry_space_group_name_H-M "C 2/M"
_symmetry_group_IT_number 12
_symmetry_cell_setting 'monoclinic'
loop_
_space_group_symop_operation_xyz
x,y,z
-x,y,-z
-x,-y,-z
x,-y,z
1/2+x,1/2+y,z
1/2-x,1/2+y,-z
1/2-x,1/2-y,-z
1/2+x,1/2-y,z
loop_
_atom_site_type_symbol
_atom_site_label
_atom_site_fract_x
_atom_site_fract_y
_atom_site_fract_z
Si Si1 0.539045 0.322213 0.086285
Si Si2 0.079099 0.686738 0.507855
Si Si3 0.160829 0.685040 0.667866
Si Si4 0.906817 0.683121 0.161329
Si Si5 0.214007 0.683952 0.419906
Si Si6 0.827711 0.184632 0.008110
O O1 0.541563 0.500000 0.111590
O O2 0.488078 0.230136 0.146454
O O3 0.500000 0.317872 0.000000
O O4 0.617688 0.266392 0.064110
O O5 0.076882 0.500000 0.509573
O O6 0.114115 0.734533 0.591825
O O7 0.132421 0.728100 0.434069
O O8 0.000000 0.743625 0.500000
O O9 0.164890 0.500000 0.665631
O O10 0.124179 0.731157 0.751767
O O11 0.239175 0.750149 0.653219
O O12 0.900889 0.500000 0.154474
O O13 0.861683 0.758987 0.090961
O O14 0.218806 0.500000 0.419917
O O15 0.250000 0.750000 0.500000
O O16 0.826606 0.000000 0.007565
O O17 0.750000 0.250000 0.000000
#
# Coordination Sequence:
#
# PCOD9179253 Si02
#       6
#     8   8   8   8   8   8
#     4   8  16  31  49  69  94 124 158 196 237 285
#     4   8  14  27  47  68  90 118 154 194 233 273
#     4   9  18  31  47  69  96 124 155 195 238 280
#     4  10  19  31  49  72  98 128 162 200 242 289
#     4   9  16  27  46  68  90 122 160 195 234 283
#     4  10  20  34  52  73  97 126 161 200 243 290
#
# _framework density 17.458625000000001
#
# number of rings (size 3 to 8) (size 9 to 14) (size 15 to 20)
#    0.000    3.000    0.000    3.500    0.000    5.000 
#    0.000    1.667    0.000   14.500    0.000    0.000 
#    0.000    0.000    0.000    0.000    0.000    0.000 
#
# Total GULP energy -133616.331713 kJ/mol
# GULP energy per Si atom -5567.347155 kJ/mol
# Density = 1.741889 g / cm^3
# Si number density = 17.458625 Si / 1000 Ang^3
#
#
#
# Elastic Constant Matrix: (Units=GPa)
#
#
# Indices 1 2 3 4 5 6 
#
# 1 161.1271 31.2409 64.6097 0.0000 -41.9938 0.0000
# 2 31.2409 29.5616 29.7713 0.0000 -14.7428 0.0000
# 3 64.6097 29.7713 100.4284 0.0000 -41.8121 0.0000
# 4 0.0000 0.0000 0.0000 22.2095 0.0000 -8.4207
# 5 -41.9938 -14.7428 -41.8121 0.0000 32.1725 0.0000
# 6 0.0000 0.0000 0.0000 -8.4207 0.0000 25.6776
#
#
#
# Elastic Compliance Matrix: (Units=1/GPa)
#
#
# Indices 1 2 3 4 5 6 
#
# 1 0.010048 -0.004780 -0.001087 0.000000 0.009512 0.000000
# 2 -0.004780 0.051384 -0.010790 0.000000 0.003284 0.000000
# 3 -0.001087 -0.010790 0.024418 0.000000 0.025371 0.000000
# 4 0.000000 0.000000 0.000000 0.051419 0.000000 0.016862
# 5 0.009512 0.003284 0.025371 0.000000 0.077977 0.000000
# 6 0.000000 0.000000 0.000000 0.016862 0.000000 0.044474
#
#
# Mechanical properties :
#
#
# Convention : Reuss Voigt Hill
#
# Bulk Modulus (GPa) = 19.03455 60.26232 39.64843
# Shear Modulus (GPa) = 16.10067 27.04494 21.57281
#
# Velocity S-wave (km/s) = 3.04010 3.94011 3.51900
# Velocity P-wave (km/s) = 4.82175 7.43582 6.26661
#
# Compressibility (1/GPa) = 0.05253605
#
# Stress axis : x y z
#
# Youngs Moduli (GPa) = 99.52077 19.46148 40.95315
#
# Poissons Ratio (x) = 0.09303 0.04451
# Poissons Ratio (y) = 0.47574 0.44187
# Poissons Ratio (z) = 0.10817 0.20998
#
# Static dielectric constant tensor:
#      x y z
#    x 1.624100 0.000000 -0.030860 
#    y 0.000000 1.590640 0.000000 
#    z -0.030860 0.000000 1.596090 
# 
# From -- ./inp_files/273611.got.cif
#   From: 2010.05.17/outbox.cif.g08.bks.cpg/sg12_137_cif.got.tgz:273611.got - 2010.06.03 13:09:07.
