data_PCOD9179653
_publ_section_title
;
Structure prediction by ZEFSAII (Michael W. Deem and Ramdas Pophale) SiO2 
 PCOD9179653
Probable space group: C 2/M
;
_chemical_formula_sum "Si O2"
_cell_formula_units_Z 48
_cell_length_a 8.656248
_cell_length_b 20.772423
_cell_length_c 16.687765
_cell_angle_alpha 90.000000
_cell_angle_beta 67.281523
_cell_angle_gamma 90.000000
_cell_volume 2767.838319
_symmetry_space_group_name_H-M "C 2/M"
_symmetry_group_IT_number 12
_symmetry_cell_setting 'monoclinic'
loop_
_space_group_symop_operation_xyz
x,y,z
-x,y,-z
-x,-y,-z
x,-y,z
1/2+x,1/2+y,z
1/2-x,1/2+y,-z
1/2-x,1/2-y,-z
1/2+x,1/2-y,z
loop_
_atom_site_type_symbol
_atom_site_label
_atom_site_fract_x
_atom_site_fract_y
_atom_site_fract_z
Si Si1 0.654168 0.343223 0.220995
Si Si2 0.696714 0.313353 0.960972
Si Si3 0.297953 0.705235 0.220856
Si Si4 0.198469 0.427351 0.947501
Si Si5 0.845682 0.701133 0.584882
Si Si6 0.488771 0.659103 0.586029
O O1 0.486617 0.315409 0.209156
O O2 0.774044 0.282381 0.216427
O O3 0.745842 0.394204 0.146658
O O4 0.592459 0.370981 0.318594
O O5 0.751824 0.317926 0.857532
O O6 0.500000 0.306894 0.000000
O O7 0.750000 0.250000 0.000000
O O8 0.740344 0.378128 0.997794
O O9 0.177580 0.681308 0.317284
O O10 0.265287 0.500000 0.939987
O O11 0.000000 0.429800 0.000000
O O12 0.671261 0.684399 0.577217
O O13 0.000000 0.676018 0.500000
O O14 0.878211 0.777693 0.586419
O O15 0.500000 0.621456 0.500000
#
# Coordination Sequence:
#
# PCOD9179653 Si02
#       6
#     8   8   8   8   8   8
#     4  10  20  34  52  77 107 139 174 219 265 314
#     4  12  21  35  57  82 109 139 176 222 265 315
#     4  10  19  31  50  80 107 137 176 211 261 315
#     4  11  25  41  54  74 107 143 180 224 272 319
#     4   9  16  26  41  67 108 138 160 203 257 311
#     4   9  16  27  44  69 102 134 170 205 257 314
#
# _framework density 17.342054999999998
#
# number of rings (size 3 to 8) (size 9 to 14) (size 15 to 20)
#    0.000    1.833    3.333    2.500    2.333    1.667 
#    0.000    0.000    0.000    0.500    0.000    0.000 
#    0.000    4.000    0.000    0.000    0.000    0.000 
#
# Total GULP energy -133636.935706 kJ/mol
# GULP energy per Si atom -5568.205654 kJ/mol
# Density = 1.730258 g / cm^3
# Si number density = 17.342055 Si / 1000 Ang^3
#
#
#
# Elastic Constant Matrix: (Units=GPa)
#
#
# Indices 1 2 3 4 5 6 
#
# 1 59.0619 37.5955 44.3806 0.0000 9.3161 0.0000
# 2 37.5955 81.3683 51.3236 0.0000 3.3871 0.0000
# 3 44.3806 51.3236 196.7838 0.0000 25.7183 0.0000
# 4 0.0000 0.0000 0.0000 5.3277 0.0000 -1.8376
# 5 9.3161 3.3871 25.7183 0.0000 33.5613 0.0000
# 6 0.0000 0.0000 0.0000 -1.8376 0.0000 14.8505
#
#
#
# Elastic Compliance Matrix: (Units=1/GPa)
#
#
# Indices 1 2 3 4 5 6 
#
# 1 0.026089 -0.010189 -0.002683 0.000000 -0.004158 0.000000
# 2 -0.010189 0.018768 -0.003022 0.000000 0.003250 0.000000
# 3 -0.002683 -0.003022 0.007043 0.000000 -0.004347 0.000000
# 4 0.000000 0.000000 0.000000 0.196064 0.000000 0.024261
# 5 -0.004158 0.003250 -0.004347 0.000000 0.033954 0.000000
# 6 0.000000 0.000000 0.000000 0.024261 0.000000 0.070340
#
#
# Mechanical properties :
#
#
# Convention : Reuss Voigt Hill
#
# Bulk Modulus (GPa) = 49.71928 67.09037 58.40482
# Shear Modulus (GPa) = 12.79591 24.34220 18.56906
#
# Velocity S-wave (km/s) = 2.71929 3.75060 3.27579
# Velocity P-wave (km/s) = 6.21220 7.58462 6.93246
#
# Compressibility (1/GPa) = 0.02011292
#
# Stress axis : x y z
#
# Youngs Moduli (GPa) = 38.33047 53.28175 141.98181
#
# Poissons Ratio (x) = 0.54287 0.38095
# Poissons Ratio (y) = 0.39054 0.42904
# Poissons Ratio (z) = 0.10285 0.16101
#
# Static dielectric constant tensor:
#      x y z
#    x 1.594780 0.000000 0.001570 
#    y 0.000000 1.825240 0.000000 
#    z 0.001570 0.000000 1.692480 
# 
# From -- ./inp_files/196499.got.cif
#   From: 2010.05.17/outbox.cif.g08.bks.cpg/sg12_99_cif.got.tgz:196499.got - 2010.06.03 13:09:07.
