data_PCOD9179771
_publ_section_title
;
Structure prediction by ZEFSAII (Michael W. Deem and Ramdas Pophale) SiO2 
 PCOD9179771
Probable space group: C 2/M
;
_chemical_formula_sum "Si O2"
_cell_formula_units_Z 64
_cell_length_a 17.304449
_cell_length_b 12.351756
_cell_length_c 28.958075
_cell_angle_alpha 90.000000
_cell_angle_beta 30.808863
_cell_angle_gamma 90.000000
_cell_volume 3170.116064
_symmetry_space_group_name_H-M "C 2/M"
_symmetry_group_IT_number 12
_symmetry_cell_setting 'monoclinic'
loop_
_space_group_symop_operation_xyz
x,y,z
-x,y,-z
-x,-y,-z
x,-y,z
1/2+x,1/2+y,z
1/2-x,1/2+y,-z
1/2-x,1/2-y,-z
1/2+x,1/2-y,z
loop_
_atom_site_type_symbol
_atom_site_label
_atom_site_fract_x
_atom_site_fract_y
_atom_site_fract_z
Si Si1 0.320870 0.224179 0.274980
Si Si2 0.744905 0.232548 0.790624
Si Si3 0.705665 0.375625 0.427936
Si Si4 0.402775 0.379494 0.879603
Si Si5 0.665716 0.826407 0.926832
Si Si6 0.054653 0.873537 0.038345
Si Si7 0.032214 0.380433 0.632346
Si Si8 0.992009 0.673674 0.554075
O O1 0.299935 0.173885 0.234384
O O2 0.286120 0.151952 0.337635
O O3 0.479147 0.286898 0.195903
O O4 0.185030 0.311755 0.345145
O O5 0.750672 0.165663 0.834755
O O6 0.609977 0.320273 0.867907
O O7 0.904160 0.291602 0.704794
O O8 0.654193 0.500000 0.454266
O O9 0.827078 0.361731 0.406546
O O10 0.572486 0.290726 0.506116
O O11 0.473457 0.500000 0.840190
O O12 0.258316 0.376667 0.920936
O O13 0.364479 0.364076 0.953236
O O14 0.500000 0.869958 0.000000
O O15 0.637872 0.702030 0.958456
O O16 0.046549 0.000000 0.030200
O O17 0.971056 0.500000 0.674903
O O18 0.069685 0.377697 0.558667
O O19 0.000000 0.619817 0.500000
#
# Coordination Sequence:
#
# PCOD9179771 Si02
#       8
#     8   8   8   8   8   8   8   8
#     4   9  19  35  54  75  99 134 175 215 257 304
#     4   9  18  32  51  75 108 140 172 219 264 303
#     4  10  20  35  56  79 105 139 173 210 259 310
#     4  10  20  36  55  74 103 140 176 215 261 313
#     4  10  20  33  53  79 108 139 174 217 262 313
#     4   9  18  32  53  79 105 138 178 220 264 306
#     4  10  19  31  51  78 107 139 174 213 258 308
#     4   9  19  34  53  76 105 135 169 213 257 307
#
# _framework density 20.188534000000001
#
# number of rings (size 3 to 8) (size 9 to 14) (size 15 to 20)
#    0.000    2.500    0.000    1.875    0.000    8.500 
#    0.000    3.125    0.000   15.000    0.000    0.000 
#    0.000    0.000    0.000    0.000    0.000    0.000 
#
# Total GULP energy -178325.462594 kJ/mol
# GULP energy per Si atom -5572.670706 kJ/mol
# Density = 2.014258 g / cm^3
# Si number density = 20.188534 Si / 1000 Ang^3
#
#
#
# Elastic Constant Matrix: (Units=GPa)
#
#
# Indices 1 2 3 4 5 6 
#
# 1 169.8838 13.6755 29.7237 -0.0004 8.3739 0.0004
# 2 13.6755 55.6665 0.6655 -0.0003 -3.0596 0.0002
# 3 29.7237 0.6655 44.2857 -0.0018 9.5284 0.0011
# 4 -0.0004 -0.0003 -0.0018 -9.8212 0.0000 42.0561
# 5 8.3739 -3.0596 9.5284 0.0000 29.7192 0.0000
# 6 0.0004 0.0002 0.0011 42.0561 0.0000 -48.2820
#
#
#
# Elastic Compliance Matrix: (Units=1/GPa)
#
#
# Indices 1 2 3 4 5 6 
#
# 1 0.006825 -0.001661 -0.004410 0.000000 -0.000680 0.000000
# 2 -0.001661 0.018492 0.000351 0.000000 0.002259 0.000000
# 3 -0.004410 0.000351 0.027131 0.000001 -0.007420 0.000001
# 4 0.000000 0.000000 0.000001 0.037297 0.000000 0.032488
# 5 -0.000680 0.002259 -0.007420 0.000000 0.036452 0.000000
# 6 0.000000 0.000000 0.000001 0.032488 0.000000 0.007587
#
#
# Mechanical properties :
#
#
# Convention : Reuss Voigt Hill
#
# Bulk Modulus (GPa) = 24.38481 39.77395 32.07938
# Shear Modulus (GPa) = 31.46759 9.37461 20.42110
#
# Velocity S-wave (km/s) = 3.95230 2.15722 3.18389
# Velocity P-wave (km/s) = 5.73867 5.09400 5.42592
#
# Compressibility (1/GPa) = 0.04100914
#
# Stress axis : x y z
#
# Youngs Moduli (GPa) = 146.51634 54.07669 36.85753
#
# Poissons Ratio (x) = 0.08984 0.16253
# Poissons Ratio (y) = 0.24342 -0.01294
# Poissons Ratio (z) = 0.64607 -0.01899
#
# Static dielectric constant tensor:
#      x y z
#    x 1.760160 0.000000 0.034330 
#    y 0.000000 1.712030 0.000000 
#    z 0.034330 0.000000 1.709310 
# 
# From -- ./inp_files/379094.got.cif
#   From: 2010.05.17/outbox.cif.g08.bks.cpg/sg12_190_cif.got.tgz:379094.got - 2010.06.03 13:09:07.
