data_PCOD9179263
_publ_section_title
;
Structure prediction by ZEFSAII (Michael W. Deem and Ramdas Pophale) SiO2 
 PCOD9179263
Probable space group: C 2/M
;
_chemical_formula_sum "Si O2"
_cell_formula_units_Z 56
_cell_length_a 19.581033
_cell_length_b 7.646018
_cell_length_c 33.389649
_cell_angle_alpha 90.000000
_cell_angle_beta 148.731942
_cell_angle_gamma 90.000000
_cell_volume 2594.692142
_symmetry_space_group_name_H-M "C 2/M"
_symmetry_group_IT_number 12
_symmetry_cell_setting 'monoclinic'
loop_
_space_group_symop_operation_xyz
x,y,z
-x,y,-z
-x,-y,-z
x,-y,z
1/2+x,1/2+y,z
1/2-x,1/2+y,-z
1/2-x,1/2-y,-z
1/2+x,1/2-y,z
loop_
_atom_site_type_symbol
_atom_site_label
_atom_site_fract_x
_atom_site_fract_y
_atom_site_fract_z
Si Si1 0.401036 0.290521 0.231768
Si Si2 0.613746 0.788791 0.179769
Si Si3 0.173196 0.303584 0.501521
Si Si4 0.075954 0.789679 0.668343
Si Si5 0.906240 0.710638 0.743926
Si Si6 0.145118 0.800682 0.573734
Si Si7 0.599297 0.214432 0.084104
O O1 0.394651 0.500000 0.232178
O O2 0.456907 0.229784 0.302770
O O3 0.490061 0.248163 0.238717
O O4 0.250038 0.230076 0.151841
O O5 0.770209 0.752458 0.260145
O O6 0.555376 0.725393 0.192525
O O7 0.563840 0.727020 0.111512
O O8 0.600413 0.000000 0.172095
O O9 0.212457 0.500000 0.531368
O O10 0.250000 0.250000 0.500000
O O11 0.193767 0.196066 0.552152
O O12 0.020707 0.291712 0.412304
O O13 0.058470 0.000000 0.656730
O O14 0.894486 0.500000 0.740167
O O15 0.762390 0.778741 0.658558
O O16 0.000000 0.717267 0.500000
O O17 0.126035 0.000000 0.579198
O O18 0.598195 0.000000 0.083376
O O19 0.500000 0.273219 0.000000
#
# Coordination Sequence:
#
# PCOD9179263 Si02
#       7
#     8   8   8   8   8   8   8
#     4   9  18  31  50  75 100 128 162 205 250 289
#     4   8  15  29  50  73  95 125 164 199 236 287
#     4  12  24  35  49  71  99 130 168 214 260 303
#     4   9  17  33  53  69  90 124 168 212 250 291
#     4  10  19  31  49  72  99 131 164 200 244 298
#     4  10  21  37  55  73  97 133 174 215 260 305
#     4   8  14  28  52  78 100 125 162 203 238 280
#
# _framework density 21.582521
#
# number of rings (size 3 to 8) (size 9 to 14) (size 15 to 20)
#    0.000    2.571    0.000    4.714    0.000    6.000 
#    0.000    2.857    0.000    1.286    0.000    0.000 
#    0.000    0.000    0.000    0.000    0.000    0.000 
#
# Total GULP energy -156310.157633 kJ/mol
# GULP energy per Si atom -5582.505630 kJ/mol
# Density = 2.153340 g / cm^3
# Si number density = 21.582521 Si / 1000 Ang^3
#
#
#
# Elastic Constant Matrix: (Units=GPa)
#
#
# Indices 1 2 3 4 5 6 
#
# 1 115.4603 -4.1518 34.8590 0.0000 -30.7398 0.0001
# 2 -4.1518 45.4066 -2.3277 -0.0001 1.2521 0.0001
# 3 34.8590 -2.3277 111.5005 -0.0001 -30.7964 0.0002
# 4 0.0000 -0.0001 -0.0001 -4.6188 0.0000 -3.6525
# 5 -30.7398 1.2521 -30.7964 0.0000 31.1151 -0.0001
# 6 0.0001 0.0001 0.0002 -3.6525 -0.0001 19.7094
#
#
#
# Elastic Compliance Matrix: (Units=1/GPa)
#
#
# Indices 1 2 3 4 5 6 
#
# 1 0.011811 0.000744 -0.000636 0.000000 0.011008 0.000000
# 2 0.000744 0.022102 0.000256 0.000000 0.000099 0.000000
# 3 -0.000636 0.000256 0.012381 0.000000 0.011615 0.000000
# 4 0.000000 0.000000 0.000000 -0.188833 0.000000 -0.034994
# 5 0.011008 0.000099 0.011615 0.000000 0.054506 0.000000
# 6 0.000000 0.000000 0.000000 -0.034994 0.000000 0.044252
#
#
# Mechanical properties :
#
#
# Convention : Reuss Voigt Hill
#
# Bulk Modulus (GPa) = 21.26733 36.56958 28.91845
# Shear Modulus (GPa) = -173.39894 25.50702 -73.94596
#
# Velocity S-wave (km/s) = -8.97311 3.44151 -5.85972
# Velocity P-wave (km/s) = 9.87321 5.72476 5.68803
#
# Compressibility (1/GPa) = 0.04702048
#
# Stress axis : x y z
#
# Youngs Moduli (GPa) = 84.66888 45.24548 80.76916
#
# Poissons Ratio (x) = -0.03365 0.05140
# Poissons Ratio (y) = -0.06297 -0.02069
# Poissons Ratio (z) = 0.05388 -0.01159
#
# Static dielectric constant tensor:
#      x y z
#    x 1.813180 0.000000 -0.013530 
#    y 0.000000 1.821440 0.000000 
#    z -0.013530 0.000000 1.770400 
# 
# From -- ./inp_files/377776.got.cif
#   From: 2010.05.17/outbox.cif.g08.bks.cpg/sg12_189_cif.got.tgz:377776.got - 2010.06.03 13:09:07.
