data_PCOD9179955
_publ_section_title
;
Structure prediction by ZEFSAII (Michael W. Deem and Ramdas Pophale) SiO2 
 PCOD9179955
Probable space group: C 2/M
;
_chemical_formula_sum "Si O2"
_cell_formula_units_Z 48
_cell_length_a 19.920056
_cell_length_b 8.395555
_cell_length_c 22.927925
_cell_angle_alpha 90.000000
_cell_angle_beta 136.605081
_cell_angle_gamma 90.000000
_cell_volume 2634.365576
_symmetry_space_group_name_H-M "C 2/M"
_symmetry_group_IT_number 12
_symmetry_cell_setting 'monoclinic'
loop_
_space_group_symop_operation_xyz
x,y,z
-x,y,-z
-x,-y,-z
x,-y,z
1/2+x,1/2+y,z
1/2-x,1/2+y,-z
1/2-x,1/2-y,-z
1/2+x,1/2-y,z
loop_
_atom_site_type_symbol
_atom_site_label
_atom_site_fract_x
_atom_site_fract_y
_atom_site_fract_z
Si Si1 0.958051 0.190243 0.260842
Si Si2 0.678286 0.811458 0.404827
Si Si3 0.718735 0.808023 0.777119
Si Si4 0.962951 0.193178 0.134110
Si Si5 0.691482 0.692276 0.286060
Si Si6 0.599777 0.694624 0.029819
O O1 0.883928 0.256570 0.261451
O O2 0.931151 0.249255 0.178191
O O3 0.070079 0.237712 0.342346
O O4 0.951859 0.000000 0.256702
O O5 0.750000 0.750000 0.500000
O O6 0.715777 0.763645 0.364145
O O7 0.669765 0.000000 0.403231
O O8 0.742584 0.754354 0.726464
O O9 0.805709 0.751383 0.874840
O O10 0.723062 0.000000 0.779031
O O11 0.078079 0.232234 0.200539
O O12 0.957138 0.000000 0.130707
O O13 0.906002 0.249504 0.040932
O O14 0.696206 0.500000 0.293706
O O15 0.601134 0.500000 0.030399
O O16 0.500000 0.740442 0.000000
#
# Coordination Sequence:
#
# PCOD9179955 Si02
#       6
#     8   8   8   8   8   8
#     4  10  21  36  53  76 112 148 179 222 273 318
#     4  11  22  39  63  86 106 132 171 216 265 328
#     4  10  19  31  52  81 112 147 186 226 267 313
#     4   8  14  27  47  72 102 143 188 226 264 308
#     4   9  17  32  54  80 110 143 179 219 267 319
#     4   9  14  24  47  77 105 141 191 233 262 306
#
# _framework density 18.220707000000001
#
# number of rings (size 3 to 8) (size 9 to 14) (size 15 to 20)
#    0.000    2.500    1.667    3.000    0.000    1.333 
#    0.000    0.833    0.000    9.500    0.000    0.000 
#    0.000    0.000    0.000    0.000    0.000    0.000 
#
# Total GULP energy -133862.834320 kJ/mol
# GULP energy per Si atom -5577.618097 kJ/mol
# Density = 1.817924 g / cm^3
# Si number density = 18.220707 Si / 1000 Ang^3
#
#
#
# Elastic Constant Matrix: (Units=GPa)
#
#
# Indices 1 2 3 4 5 6 
#
# 1 142.0016 9.7543 56.1001 0.0000 -20.3111 0.0000
# 2 9.7543 11.9444 5.2881 0.0000 -6.9530 0.0000
# 3 56.1001 5.2881 118.0645 0.0000 -24.2260 0.0000
# 4 0.0000 0.0000 0.0000 14.5627 0.0000 -2.3503
# 5 -20.3111 -6.9530 -24.2260 0.0000 20.8264 0.0000
# 6 0.0000 0.0000 0.0000 -2.3503 0.0000 22.5169
#
#
#
# Elastic Compliance Matrix: (Units=1/GPa)
#
#
# Indices 1 2 3 4 5 6 
#
# 1 0.009192 -0.003841 -0.003440 0.000000 0.003680 0.000000
# 2 -0.003841 0.106472 0.004704 0.000000 0.037273 0.000000
# 3 -0.003440 0.004704 0.012515 0.000000 0.012773 0.000000
# 4 0.000000 0.000000 0.000000 0.069845 0.000000 0.007290
# 5 0.003680 0.037273 0.012773 0.000000 0.078907 0.000000
# 6 0.000000 0.000000 0.000000 0.007290 0.000000 0.045172
#
#
# Mechanical properties :
#
#
# Convention : Reuss Voigt Hill
#
# Bulk Modulus (GPa) = 8.12844 46.03281 27.08063
# Shear Modulus (GPa) = 13.57718 24.97240 19.27479
#
# Velocity S-wave (km/s) = 2.73271 3.70611 3.25599
# Velocity P-wave (km/s) = 3.79838 6.60549 5.38796
#
# Compressibility (1/GPa) = 0.12302478
#
# Stress axis : x y z
#
# Youngs Moduli (GPa) = 108.79574 9.39210 79.90448
#
# Poissons Ratio (x) = 0.03607 0.27490
# Poissons Ratio (y) = 0.41788 -0.37589
# Poissons Ratio (z) = 0.37430 -0.04418
#
# Static dielectric constant tensor:
#      x y z
#    x 1.609920 0.000000 -0.032770 
#    y 0.000000 1.631870 0.000000 
#    z -0.032770 0.000000 1.609100 
# 
# From -- ./inp_files/314487.got.cif
#   From: 2010.05.17/outbox.cif.g08.bks.cpg/sg12_158_cif.got.tgz:314487.got - 2010.06.03 13:09:07.
