data_PCOD9179803
_publ_section_title
;
Structure prediction by ZEFSAII (Michael W. Deem and Ramdas Pophale) SiO2 
 PCOD9179803
Probable space group: C 2/M
;
_chemical_formula_sum "Si O2"
_cell_formula_units_Z 56
_cell_length_a 20.498699
_cell_length_b 7.487401
_cell_length_c 16.829098
_cell_angle_alpha 90.000000
_cell_angle_beta 93.621753
_cell_angle_gamma 90.000000
_cell_volume 2577.804623
_symmetry_space_group_name_H-M "C 2/M"
_symmetry_group_IT_number 12
_symmetry_cell_setting 'monoclinic'
loop_
_space_group_symop_operation_xyz
x,y,z
-x,y,-z
-x,-y,-z
x,-y,z
1/2+x,1/2+y,z
1/2-x,1/2+y,-z
1/2-x,1/2-y,-z
1/2+x,1/2-y,z
loop_
_atom_site_type_symbol
_atom_site_label
_atom_site_fract_x
_atom_site_fract_y
_atom_site_fract_z
Si Si1 0.673381 0.785507 0.480269
Si Si2 0.634683 0.217962 0.301665
Si Si3 0.883392 0.290771 0.362159
Si Si4 0.267482 0.283666 0.233627
Si Si5 0.510941 0.219078 0.755097
Si Si6 0.309616 0.711976 0.063161
Si Si7 0.955687 0.292582 0.066521
O O1 0.750000 0.750000 0.500000
O O2 0.650162 0.721079 0.392471
O O3 0.631990 0.714939 0.552002
O O4 0.666202 0.000000 0.478908
O O5 0.694362 0.274292 0.249920
O O6 0.563422 0.272457 0.266995
O O7 0.634972 0.000000 0.302243
O O8 0.898394 0.500000 0.374744
O O9 0.817324 0.275205 0.305639
O O10 0.940964 0.216881 0.311125
O O11 0.267965 0.500000 0.232743
O O12 0.292134 0.219573 0.149945
O O13 0.534132 0.281409 0.843866
O O14 0.514245 0.000000 0.754579
O O15 0.317580 0.500000 0.069248
O O16 0.379194 0.785010 0.040417
O O17 0.250000 0.750000 0.000000
O O18 0.975643 0.500000 0.074615
O O19 0.000000 0.212730 0.000000
#
# Coordination Sequence:
#
# PCOD9179803 Si02
#       7
#     8   8   8   8   8   8   8
#     4  10  19  31  51  79 110 142 180 227 274 322
#     4   9  18  32  52  79 108 141 183 225 267 321
#     4  10  19  32  54  81 108 141 180 226 277 324
#     4  10  20  35  57  80 106 144 184 222 267 329
#     4   9  18  33  53  78 109 141 178 226 275 325
#     4  11  24  39  59  86 116 147 186 233 281 336
#     4  10  21  37  60  84 111 148 187 231 283 340
#
# _framework density 21.72391
#
# number of rings (size 3 to 8) (size 9 to 14) (size 15 to 20)
#    0.000    2.143    2.857    0.429    2.000    1.429 
#    0.000    2.857    0.000    2.571    0.000    2.000 
#    0.000    0.000    0.000    0.000    0.000    0.000 
#
# Total GULP energy -156434.453617 kJ/mol
# GULP energy per Si atom -5586.944772 kJ/mol
# Density = 2.167447 g / cm^3
# Si number density = 21.723910 Si / 1000 Ang^3
#
#
#
# Elastic Constant Matrix: (Units=GPa)
#
#
# Indices 1 2 3 4 5 6 
#
# 1 153.8313 -11.6800 52.2235 0.0000 -24.9040 0.0000
# 2 -11.6800 62.5113 1.4041 0.0000 -8.8372 0.0000
# 3 52.2235 1.4041 110.2898 0.0000 -28.0002 0.0000
# 4 0.0000 0.0000 0.0000 2.9967 0.0000 8.2432
# 5 -24.9040 -8.8372 -28.0002 0.0000 47.2627 0.0000
# 6 0.0000 0.0000 0.0000 8.2432 0.0000 15.7977
#
#
#
# Elastic Compliance Matrix: (Units=1/GPa)
#
#
# Indices 1 2 3 4 5 6 
#
# 1 0.008189 0.001997 -0.003193 0.000000 0.002797 0.000000
# 2 0.001997 0.016961 -0.000105 0.000000 0.004161 0.000000
# 3 -0.003193 -0.000105 0.011945 0.000000 0.005374 0.000000
# 4 0.000000 0.000000 0.000000 -0.766537 0.000000 0.399978
# 5 0.002797 0.004161 0.005374 0.000000 0.026594 0.000000
# 6 0.000000 0.000000 0.000000 0.399978 0.000000 -0.145407
#
#
# Mechanical properties :
#
#
# Convention : Reuss Voigt Hill
#
# Bulk Modulus (GPa) = 28.99152 45.61419 37.30286
# Shear Modulus (GPa) = -5.99408 32.19041 13.09816
#
# Velocity S-wave (km/s) = -1.66289 3.85359 2.45814
# Velocity P-wave (km/s) = 3.11247 6.39085 5.02645
#
# Compressibility (1/GPa) = 0.03449284
#
# Stress axis : x y z
#
# Youngs Moduli (GPa) = 122.11486 58.95906 83.71905
#
# Poissons Ratio (x) = -0.11775 0.26731
# Poissons Ratio (y) = -0.24389 0.00880
# Poissons Ratio (z) = 0.38991 0.00620
#
# Static dielectric constant tensor:
#      x y z
#    x 1.747530 0.000000 -0.026260 
#    y 0.000000 1.816350 0.000000 
#    z -0.026260 0.000000 1.785000 
# 
# From -- ./inp_files/231013.got.cif
#   From: 2010.05.17/outbox.cif.g08.bks.cpg/sg12_116_cif.got.tgz:231013.got - 2010.06.03 13:09:07.
