data_PCOD9179739
_publ_section_title
;
Structure prediction by ZEFSAII (Michael W. Deem and Ramdas Pophale) SiO2 
 PCOD9179739
Probable space group: C 2/M
;
_chemical_formula_sum "Si O2"
_cell_formula_units_Z 64
_cell_length_a 19.983161
_cell_length_b 9.273500
_cell_length_c 17.490197
_cell_angle_alpha 90.000000
_cell_angle_beta 67.233257
_cell_angle_gamma 90.000000
_cell_volume 2988.648919
_symmetry_space_group_name_H-M "C 2/M"
_symmetry_group_IT_number 12
_symmetry_cell_setting 'monoclinic'
loop_
_space_group_symop_operation_xyz
x,y,z
-x,y,-z
-x,-y,-z
x,-y,z
1/2+x,1/2+y,z
1/2-x,1/2+y,-z
1/2-x,1/2-y,-z
1/2+x,1/2-y,z
loop_
_atom_site_type_symbol
_atom_site_label
_atom_site_fract_x
_atom_site_fract_y
_atom_site_fract_z
Si Si1 0.397295 0.329938 0.704637
Si Si2 0.957534 0.171011 0.444541
Si Si3 0.830941 0.336569 0.428238
Si Si4 0.834647 0.832943 0.186013
Si Si5 0.431615 0.153078 0.233609
Si Si6 0.079151 0.827335 0.000729
Si Si7 0.101908 0.338005 0.148105
Si Si8 0.772257 0.173687 0.652683
O O1 0.386342 0.500000 0.722849
O O2 0.482510 0.310211 0.648794
O O3 0.368227 0.244205 0.790825
O O4 0.352200 0.291533 0.647989
O O5 0.000000 0.226077 0.500000
O O6 0.881131 0.244344 0.461813
O O7 0.944733 0.000000 0.460006
O O8 0.816498 0.500000 0.462342
O O9 0.886456 0.348501 0.331201
O O10 0.760620 0.272369 0.414124
O O11 0.908801 0.794914 0.198250
O O12 0.777794 0.734612 0.256525
O O13 0.814763 0.000000 0.202417
O O14 0.857145 0.801045 0.089436
O O15 0.516726 0.150700 0.205589
O O16 0.412536 0.000000 0.200894
O O17 0.100976 0.747310 0.068859
O O18 0.074060 0.000000 0.015499
O O19 0.000000 0.781965 0.000000
O O20 0.131951 0.500000 0.127150
O O21 0.766265 0.000000 0.650310
#
# Coordination Sequence:
#
# PCOD9179739 Si02
#       8
#     8   8   8   8   8   8   8   8
#     4  10  21  39  60  79 108 149 184 220 273 333
#     4  10  21  36  57  87 117 143 176 219 267 322
#     4   9  17  33  55  80 109 141 181 222 265 319
#     4  10  19  31  51  77 106 140 182 230 274 320
#     4   9  17  29  47  74 107 139 173 219 270 320
#     4  10  20  33  48  74 111 146 183 229 281 335
#     4  11  21  32  51  79 108 139 181 232 277 320
#     4   9  20  38  58  79 107 147 189 226 270 327
#
# _framework density 21.414358
#
# number of rings (size 3 to 8) (size 9 to 14) (size 15 to 20)
#    0.000    2.250    2.500    1.500    0.000    4.500 
#    0.000    1.250    0.000    0.000    0.000    0.000 
#    0.000    0.000    0.000    0.000    0.000    0.000 
#
# Total GULP energy -178386.455319 kJ/mol
# GULP energy per Si atom -5574.576729 kJ/mol
# Density = 2.136562 g / cm^3
# Si number density = 21.414358 Si / 1000 Ang^3
#
#
#
# Elastic Constant Matrix: (Units=GPa)
#
#
# Indices 1 2 3 4 5 6 
#
# 1 109.0685 32.8773 28.4575 0.0000 20.3415 0.0000
# 2 32.8773 48.0282 44.5665 0.0000 20.0125 0.0001
# 3 28.4575 44.5665 98.9764 0.0000 29.6773 0.0000
# 4 0.0000 0.0000 0.0000 22.3774 0.0000 9.9757
# 5 20.3415 20.0125 29.6773 0.0000 32.6813 0.0000
# 6 0.0000 0.0001 0.0000 9.9757 0.0000 18.0353
#
#
#
# Elastic Compliance Matrix: (Units=1/GPa)
#
#
# Indices 1 2 3 4 5 6 
#
# 1 0.011868 -0.007621 0.001147 0.000000 -0.003762 0.000000
# 2 -0.007621 0.043206 -0.014776 0.000000 -0.008296 0.000000
# 3 0.001147 -0.014776 0.019139 0.000000 -0.009046 0.000000
# 4 0.000000 0.000000 0.000000 0.059313 0.000000 -0.032808
# 5 -0.003762 -0.008296 -0.009046 0.000000 0.046235 0.000000
# 6 0.000000 0.000000 0.000000 -0.032808 0.000000 0.073593
#
#
# Mechanical properties :
#
#
# Convention : Reuss Voigt Hill
#
# Bulk Modulus (GPa) = 31.53224 51.98619 41.75921
# Shear Modulus (GPa) = 16.31720 24.63024 20.47372
#
# Velocity S-wave (km/s) = 2.76338 3.39510 3.09540
# Velocity P-wave (km/s) = 4.99385 6.30063 5.68491
#
# Compressibility (1/GPa) = 0.03171358
#
# Stress axis : x y z
#
# Youngs Moduli (GPa) = 84.25905 23.14502 52.24937
#
# Poissons Ratio (x) = 0.17640 -0.05995
# Poissons Ratio (y) = 0.64218 0.77202
# Poissons Ratio (z) = -0.09668 0.34198
#
# Static dielectric constant tensor:
#      x y z
#    x 1.828130 0.000000 0.000410 
#    y 0.000000 1.780320 0.000000 
#    z 0.000410 0.000000 1.803420 
# 
# From -- ./inp_files/281260.got.cif
#   From: 2010.05.17/outbox.cif.g08.bks.cpg/sg12_141_cif.got.tgz:281260.got - 2010.06.03 13:09:07.
