data_PCOD9179528
_publ_section_title
;
Structure prediction by ZEFSAII (Michael W. Deem and Ramdas Pophale) SiO2 
 PCOD9179528
Probable space group: C 2/M
;
_chemical_formula_sum "Si O2"
_cell_formula_units_Z 56
_cell_length_a 17.708947
_cell_length_b 7.726917
_cell_length_c 30.215547
_cell_angle_alpha 90.000000
_cell_angle_beta 40.148138
_cell_angle_gamma 90.000000
_cell_volume 2665.824882
_symmetry_space_group_name_H-M "C 2/M"
_symmetry_group_IT_number 12
_symmetry_cell_setting 'monoclinic'
loop_
_space_group_symop_operation_xyz
x,y,z
-x,y,-z
-x,-y,-z
x,-y,z
1/2+x,1/2+y,z
1/2-x,1/2+y,-z
1/2-x,1/2-y,-z
1/2+x,1/2-y,z
loop_
_atom_site_type_symbol
_atom_site_label
_atom_site_fract_x
_atom_site_fract_y
_atom_site_fract_z
Si Si1 0.482221 0.710655 0.289533
Si Si2 0.485334 0.210927 0.151474
Si Si3 0.876980 0.805160 0.426534
Si Si4 0.030404 0.301016 0.437834
Si Si5 0.346033 0.791795 0.994943
Si Si6 0.789843 0.294887 0.301397
Si Si7 0.824142 0.797728 0.858990
O O1 0.492180 0.500000 0.285305
O O2 0.439816 0.779790 0.356002
O O3 0.381578 0.760078 0.299680
O O4 0.607223 0.775454 0.214267
O O5 0.357228 0.260731 0.226352
O O6 0.577102 0.283398 0.146553
O O7 0.491930 0.000000 0.151083
O O8 0.532098 0.265056 0.082210
O O9 0.750000 0.750000 0.500000
O O10 0.962970 0.795032 0.429382
O O11 0.858742 0.000000 0.419769
O O12 0.988931 0.500000 0.455359
O O13 0.167982 0.293675 0.366814
O O14 0.000000 0.230611 0.500000
O O15 0.292128 0.723077 0.065160
O O16 0.351821 0.000000 0.996594
O O17 0.250000 0.750000 0.000000
O O18 0.767427 0.500000 0.308634
O O19 0.800035 0.000000 0.860902
#
# Coordination Sequence:
#
# PCOD9179528 Si02
#       7
#     8   8   8   8   8   8   8
#     4   9  18  32  49  72 102 132 162 199 241 284
#     4   8  14  23  36  60  93 124 155 193 234 273
#     4  11  23  38  56  77 101 128 159 197 240 288
#     4  11  24  40  56  74  97 125 159 201 245 288
#     4   8  12  19  33  55  86 122 156 190 228 271
#     4  10  19  31  50  75 102 132 164 199 240 287
#     4   8  13  22  38  60  88 124 160 191 229 276
#
# _framework density 21.006630999999999
#
# number of rings (size 3 to 8) (size 9 to 14) (size 15 to 20)
#    0.000    2.714    0.000    2.143    0.000    6.286 
#    0.000    0.000    0.000    0.000    0.000    1.000 
#    0.000    8.000    0.000    0.000    0.000    0.000 
#
# Total GULP energy -155920.496620 kJ/mol
# GULP energy per Si atom -5568.589165 kJ/mol
# Density = 2.095882 g / cm^3
# Si number density = 21.006631 Si / 1000 Ang^3
#
#
#
# Elastic Constant Matrix: (Units=GPa)
#
#
# Indices 1 2 3 4 5 6 
#
# 1 23.9912 -9.4874 50.8014 -0.0017 4.4270 -0.0011
# 2 -9.4874 35.8075 7.2500 -0.0047 2.8442 -0.0046
# 3 50.8014 7.2500 252.0856 -0.0003 13.5742 0.0005
# 4 -0.0017 -0.0047 -0.0003 -2.8836 0.0007 2.3268
# 5 4.4270 2.8442 13.5742 0.0007 17.9297 -0.0001
# 6 -0.0011 -0.0046 0.0005 2.3268 -0.0001 10.8087
#
#
#
# Elastic Compliance Matrix: (Units=1/GPa)
#
#
# Indices 1 2 3 4 5 6 
#
# 1 0.099652 0.031634 -0.020221 -0.000077 -0.014314 0.000041
# 2 0.031634 0.038412 -0.007017 -0.000056 -0.008591 0.000032
# 3 -0.020221 -0.007017 0.008251 0.000015 -0.000141 -0.000009
# 4 -0.000077 -0.000056 0.000015 -0.295461 0.000029 0.063604
# 5 -0.014314 -0.008591 -0.000141 0.000029 0.060777 -0.000011
# 6 0.000041 0.000032 -0.000009 0.063604 -0.000011 0.078826
#
#
# Mechanical properties :
#
#
# Convention : Reuss Voigt Hill
#
# Bulk Modulus (GPa) = 6.44718 45.44584 25.94651
# Shear Modulus (GPa) = 149.84773 22.72563 86.28668
#
# Velocity S-wave (km/s) = 8.45508 3.29269 6.41600
# Velocity P-wave (km/s) = 9.91936 6.01138 8.20154
#
# Compressibility (1/GPa) = 0.15510664
#
# Stress axis : x y z
#
# Youngs Moduli (GPa) = 10.03496 26.03357 121.19158
#
# Poissons Ratio (x) = -0.82355 2.45065
# Poissons Ratio (y) = -0.31745 0.85043
# Poissons Ratio (z) = 0.20292 0.18268
#
# Static dielectric constant tensor:
#      x y z
#    x 1.698540 0.000000 0.017110 
#    y 0.000000 1.790480 0.000000 
#    z 0.017110 0.000000 1.892210 
# 
# From -- ./inp_files/314351.got.cif
#   From: 2010.05.17/outbox.cif.g08.bks.cpg/sg12_158_cif.got.tgz:314351.got - 2010.06.03 13:09:07.
