data_PCOD9179558
_publ_section_title
;
Structure prediction by ZEFSAII (Michael W. Deem and Ramdas Pophale) SiO2 
 PCOD9179558
Probable space group: C 2/M
;
_chemical_formula_sum "Si O2"
_cell_formula_units_Z 48
_cell_length_a 20.915709
_cell_length_b 28.796846
_cell_length_c 7.625270
_cell_angle_alpha 90.000000
_cell_angle_beta 152.424905
_cell_angle_gamma 90.000000
_cell_volume 2126.033173
_symmetry_space_group_name_H-M "C 2/M"
_symmetry_group_IT_number 12
_symmetry_cell_setting 'monoclinic'
loop_
_space_group_symop_operation_xyz
x,y,z
-x,y,-z
-x,-y,-z
x,-y,z
1/2+x,1/2+y,z
1/2-x,1/2+y,-z
1/2-x,1/2-y,-z
1/2+x,1/2-y,z
loop_
_atom_site_type_symbol
_atom_site_label
_atom_site_fract_x
_atom_site_fract_y
_atom_site_fract_z
Si Si1 0.432343 0.606275 0.640193
Si Si2 0.446330 0.289764 0.664587
Si Si3 0.934517 0.551507 0.533789
Si Si4 0.326775 0.778731 0.838036
Si Si5 0.323849 0.553857 0.890138
Si Si6 0.829360 0.613324 0.778823
O O1 0.464513 0.657654 0.644006
O O2 0.270732 0.602707 0.296585
O O3 0.500000 0.603935 0.000000
O O4 0.516891 0.569333 0.732667
O O5 0.283622 0.280156 0.274447
O O6 0.500000 0.291270 0.000000
O O7 0.534162 0.249448 0.789316
O O8 0.966165 0.500000 0.685225
O O9 0.000000 0.551486 0.500000
O O10 0.770739 0.557587 0.165663
O O11 0.021439 0.590836 0.840366
O O12 0.250000 0.750000 0.500000
O O13 0.343462 0.831166 0.809317
O O14 0.317038 0.500000 0.816294
O O15 0.245939 0.588535 0.566495
#
# Coordination Sequence:
#
# PCOD9179558 Si02
#       6
#     8   8   8   8   8   8
#     4   8  16  29  45  72 105 128 155 201 252 298
#     4   8  14  24  37  61  98 129 151 184 232 286
#     4  10  22  38  51  68 100 137 172 212 253 295
#     4   9  16  25  41  70 102 127 154 192 241 292
#     4  10  19  31  50  75  98 125 164 207 254 305
#     4  10  19  31  51  78 102 129 165 207 253 300
#
# _framework density 22.577259000000002
#
# number of rings (size 3 to 8) (size 9 to 14) (size 15 to 20)
#    0.000    2.833    0.000    4.000    0.000   10.333 
#    0.000    0.833    0.000    3.000    0.000   18.667 
#    0.000    0.000    0.000    0.000    0.000    0.000 
#
# Total GULP energy -133792.402059 kJ/mol
# GULP energy per Si atom -5574.683419 kJ/mol
# Density = 2.252587 g / cm^3
# Si number density = 22.577259 Si / 1000 Ang^3
#
#
#
# Elastic Constant Matrix: (Units=GPa)
#
#
# Indices 1 2 3 4 5 6 
#
# 1 85.9403 60.5414 26.8909 0.0000 24.2296 0.0000
# 2 60.5414 139.2773 46.8530 0.0000 29.5323 0.0000
# 3 26.8909 46.8530 56.3809 0.0000 35.6019 0.0000
# 4 0.0000 0.0000 0.0000 33.4226 0.0000 27.4178
# 5 24.2296 29.5323 35.6019 0.0000 42.6636 0.0000
# 6 0.0000 0.0000 0.0000 27.4178 0.0000 18.6213
#
#
#
# Elastic Compliance Matrix: (Units=1/GPa)
#
#
# Indices 1 2 3 4 5 6 
#
# 1 0.017871 -0.006806 0.001197 0.000000 -0.006437 0.000000
# 2 -0.006806 0.012558 -0.008754 0.000000 0.002478 0.000000
# 3 0.001197 -0.008754 0.044483 0.000000 -0.031740 0.000000
# 4 0.000000 0.000000 0.000000 -0.143944 0.000000 0.211942
# 5 -0.006437 0.002478 -0.031740 0.000000 0.051866 0.000000
# 6 0.000000 0.000000 0.000000 0.211942 0.000000 -0.258359
#
#
# Mechanical properties :
#
#
# Convention : Reuss Voigt Hill
#
# Bulk Modulus (GPa) = 21.65211 61.12988 41.39100
# Shear Modulus (GPa) = -21.60714 28.76238 3.57762
#
# Velocity S-wave (km/s) = -3.09695 3.57312 1.26018
# Velocity P-wave (km/s) = 1.78243 6.64512 4.52662
#
# Compressibility (1/GPa) = 0.04618487
#
# Stress axis : x y z
#
# Youngs Moduli (GPa) = 55.95756 79.63161 22.48066
#
# Poissons Ratio (x) = 0.54196 -0.02690
# Poissons Ratio (y) = 0.38084 0.19680
# Poissons Ratio (z) = -0.06697 0.69710
#
# Static dielectric constant tensor:
#      x y z
#    x 1.904710 0.000000 0.004960 
#    y 0.000000 1.809540 0.000000 
#    z 0.004960 0.000000 1.881810 
# 
# From -- ./inp_files/91448.got.cif
#   From: 2010.05.17/outbox.cif.g08.bks.cpg/sg12_46_cif.got.tgz:91448.got - 2010.06.03 13:09:07.
