data_PCOD9179614
_publ_section_title
;
Structure prediction by ZEFSAII (Michael W. Deem and Ramdas Pophale) SiO2 
 PCOD9179614
Probable space group: C 2/M
;
_chemical_formula_sum "Si O2"
_cell_formula_units_Z 48
_cell_length_a 11.959305
_cell_length_b 27.876236
_cell_length_c 9.369862
_cell_angle_alpha 90.000000
_cell_angle_beta 127.237124
_cell_angle_gamma 90.000000
_cell_volume 2486.918927
_symmetry_space_group_name_H-M "C 2/M"
_symmetry_group_IT_number 12
_symmetry_cell_setting 'monoclinic'
loop_
_space_group_symop_operation_xyz
x,y,z
-x,y,-z
-x,-y,-z
x,-y,z
1/2+x,1/2+y,z
1/2-x,1/2+y,-z
1/2-x,1/2-y,-z
1/2+x,1/2-y,z
loop_
_atom_site_type_symbol
_atom_site_label
_atom_site_fract_x
_atom_site_fract_y
_atom_site_fract_z
Si Si1 0.122980 0.055506 0.483077
Si Si2 0.983495 0.775695 0.154283
Si Si3 0.254038 0.351003 0.963219
Si Si4 0.658492 0.103835 0.163954
Si Si5 0.432798 0.824925 0.674883
Si Si6 0.814371 0.135307 0.695568
O O1 0.267134 0.064931 0.680389
O O2 0.135647 0.090052 0.356916
O O3 0.000000 0.068950 0.500000
O O4 0.105160 0.000000 0.430906
O O5 0.039581 0.731804 0.292066
O O6 0.084121 0.820546 0.259806
O O7 0.829814 0.799971 0.053706
O O8 0.000000 0.761196 0.000000
O O9 0.320026 0.371770 0.869774
O O10 0.090092 0.344761 0.802346
O O11 0.253676 0.384670 0.100530
O O12 0.643817 0.153193 0.243948
O O13 0.500000 0.090178 0.000000
O O14 0.338900 0.845642 0.474209
#
# Coordination Sequence:
#
# PCOD9179614 Si02
#       6
#     8   8   8   8   8   8
#     4  10  21  39  60  79 101 133 173 217 269 326
#     4  10  19  31  50  77 109 144 181 215 252 302
#     4  10  19  33  53  77 110 142 174 217 259 300
#     4   9  19  35  56  78 107 141 177 216 258 312
#     4  10  19  33  51  76 109 147 180 208 250 306
#     4  10  21  35  53  78 108 137 173 221 267 307
#
# _framework density 19.300992000000001
#
# number of rings (size 3 to 8) (size 9 to 14) (size 15 to 20)
#    0.000    2.167    0.000    4.000    0.000    1.667 
#    0.000    5.833    0.000   19.500    0.000    0.000 
#    0.000    0.000    0.000    0.000    0.000    0.000 
#
# Total GULP energy -133823.149598 kJ/mol
# GULP energy per Si atom -5575.964567 kJ/mol
# Density = 1.925706 g / cm^3
# Si number density = 19.300992 Si / 1000 Ang^3
#
#
#
# Elastic Constant Matrix: (Units=GPa)
#
#
# Indices 1 2 3 4 5 6 
#
# 1 64.4350 31.9717 18.6568 0.0000 -8.7086 0.0000
# 2 31.9717 70.0693 11.2640 0.0000 -18.4976 0.0000
# 3 18.6568 11.2640 29.7584 0.0000 -1.9615 0.0000
# 4 0.0000 0.0000 0.0000 21.0885 0.0000 0.9412
# 5 -8.7086 -18.4976 -1.9615 0.0000 35.1770 0.0000
# 6 0.0000 0.0000 0.0000 0.9412 0.0000 18.4852
#
#
#
# Elastic Compliance Matrix: (Units=1/GPa)
#
#
# Indices 1 2 3 4 5 6 
#
# 1 0.023100 -0.008588 -0.011194 0.000000 0.000579 0.000000
# 2 -0.008588 0.020795 -0.001913 0.000000 0.008702 0.000000
# 3 -0.011194 -0.001913 0.041248 0.000000 -0.001477 0.000000
# 4 0.000000 0.000000 0.000000 0.047527 0.000000 -0.002420
# 5 0.000579 0.008702 -0.001477 0.000000 0.033065 0.000000
# 6 0.000000 0.000000 0.000000 -0.002420 0.000000 0.054220
#
#
# Mechanical properties :
#
#
# Convention : Reuss Voigt Hill
#
# Bulk Modulus (GPa) = 23.95003 32.00529 27.97766
# Shear Modulus (GPa) = 18.03339 21.77484 19.90412
#
# Velocity S-wave (km/s) = 3.05999 3.36247 3.21479
# Velocity P-wave (km/s) = 4.99203 5.62967 5.32041
#
# Compressibility (1/GPa) = 0.04175360
#
# Stress axis : x y z
#
# Youngs Moduli (GPa) = 43.29005 48.08834 24.24332
#
# Poissons Ratio (x) = 0.41298 0.27137
# Poissons Ratio (y) = 0.37178 0.04639
# Poissons Ratio (z) = 0.48457 0.09201
#
# Static dielectric constant tensor:
#      x y z
#    x 1.707890 0.000000 0.003260 
#    y 0.000000 1.641780 0.000000 
#    z 0.003260 0.000000 1.712120 
# 
# From -- ./inp_files/52417.got.cif
#   From: 2010.05.17/outbox.cif.g08.bks.cpg/sg12_27_cif.got.tgz:52417.got - 2010.06.03 13:09:07.
