data_PCOD9179651
_publ_section_title
;
Structure prediction by ZEFSAII (Michael W. Deem and Ramdas Pophale) SiO2 
 PCOD9179651
Probable space group: C 2/M
;
_chemical_formula_sum "Si O2"
_cell_formula_units_Z 56
_cell_length_a 22.428732
_cell_length_b 28.591116
_cell_length_c 10.734237
_cell_angle_alpha 90.000000
_cell_angle_beta 24.335184
_cell_angle_gamma 90.000000
_cell_volume 2836.495979
_symmetry_space_group_name_H-M "C 2/M"
_symmetry_group_IT_number 12
_symmetry_cell_setting 'monoclinic'
loop_
_space_group_symop_operation_xyz
x,y,z
-x,y,-z
-x,-y,-z
x,-y,z
1/2+x,1/2+y,z
1/2-x,1/2+y,-z
1/2-x,1/2-y,-z
1/2+x,1/2-y,z
loop_
_atom_site_type_symbol
_atom_site_label
_atom_site_fract_x
_atom_site_fract_y
_atom_site_fract_z
Si Si1 0.359423 0.372183 0.544604
Si Si2 0.195109 0.108001 0.930233
Si Si3 0.785369 0.444740 0.008888
Si Si4 0.418905 0.140608 0.035885
Si Si5 0.554747 0.945223 0.660314
Si Si6 0.853622 0.779386 0.708270
Si Si7 0.432227 0.814556 0.487959
O O1 0.299478 0.420203 0.717065
O O2 0.254982 0.361010 0.626730
O O3 0.318942 0.328984 0.714015
O O4 0.531059 0.379251 0.208521
O O5 0.284987 0.075010 0.664935
O O6 0.286575 0.155483 0.766938
O O7 0.220719 0.081061 0.011789
O O8 0.761587 0.500000 0.043397
O O9 0.955263 0.438380 0.723790
O O10 0.500000 0.161561 0.000000
O O11 0.477169 0.087784 0.907017
O O12 0.471281 0.165249 0.807612
O O13 0.553920 0.000000 0.689193
O O14 0.895732 0.739306 0.529653
O O15 0.000000 0.790209 0.500000
O O16 0.750000 0.750000 0.000000
O O17 0.500000 0.817771 0.500000
#
# Coordination Sequence:
#
# PCOD9179651 Si02
#       7
#     8   8   8   8   8   8   8
#     4  11  22  34  51  80 113 145 186 237 286 329
#     4  11  19  30  51  81 115 143 179 233 286 328
#     4  10  19  31  50  79 116 153 184 219 275 342
#     4  10  22  41  60  78 109 152 195 235 280 340
#     4   9  19  35  55  78 106 148 193 226 268 338
#     4  11  20  33  56  85 117 150 187 230 279 336
#     4  10  20  36  59  85 112 151 192 225 273 340
#
# _framework density 19.742667999999998
#
# number of rings (size 3 to 8) (size 9 to 14) (size 15 to 20)
#    0.000    1.714    0.000    8.143    0.000    3.143 
#    0.000    3.571    0.000    0.857    0.000    0.000 
#    0.000    0.000    0.000    0.000    0.000    0.000 
#
# Total GULP energy -155982.848566 kJ/mol
# GULP energy per Si atom -5570.816020 kJ/mol
# Density = 1.969773 g / cm^3
# Si number density = 19.742668 Si / 1000 Ang^3
#
#
#
# Elastic Constant Matrix: (Units=GPa)
#
#
# Indices 1 2 3 4 5 6 
#
# 1 69.2919 15.4022 47.9530 0.0056 -18.0715 -0.0018
# 2 15.4022 80.5157 23.3326 -0.0161 1.0505 0.0065
# 3 47.9530 23.3326 132.9905 -0.0281 -41.5033 0.0108
# 4 0.0056 -0.0161 -0.0281 14.3067 0.0041 -5.8407
# 5 -18.0715 1.0505 -41.5033 0.0041 21.8733 -0.0002
# 6 -0.0018 0.0065 0.0108 -5.8407 -0.0002 8.5746
#
#
#
# Elastic Compliance Matrix: (Units=1/GPa)
#
#
# Indices 1 2 3 4 5 6 
#
# 1 0.020204 -0.002911 -0.003730 -0.000023 0.009755 -0.000004
# 2 -0.002911 0.014988 -0.006265 0.000011 -0.015012 0.000003
# 3 -0.003730 -0.006265 0.022301 0.000024 0.039534 -0.000007
# 4 -0.000023 0.000011 0.000024 0.096822 0.000009 0.065952
# 5 0.009755 -0.015012 0.039534 0.000009 0.129511 -0.000027
# 6 -0.000004 0.000003 -0.000007 0.065952 -0.000027 0.161547
#
#
# Mechanical properties :
#
#
# Convention : Reuss Voigt Hill
#
# Bulk Modulus (GPa) = 31.56472 50.68596 41.12534
# Shear Modulus (GPa) = 10.37889 22.02496 16.20192
#
# Velocity S-wave (km/s) = 2.29532 3.34369 2.86782
# Velocity P-wave (km/s) = 4.80078 6.37464 5.64285
#
# Compressibility (1/GPa) = 0.03168094
#
# Stress axis : x y z
#
# Youngs Moduli (GPa) = 49.49438 66.71910 44.84070
#
# Poissons Ratio (x) = 0.19424 0.16727
# Poissons Ratio (y) = 0.14409 0.28092
# Poissons Ratio (z) = 0.18463 0.41799
#
# Static dielectric constant tensor:
#      x y z
#    x 1.721900 -0.000010 0.001960 
#    y -0.000010 1.710910 0.000020 
#    z 0.001960 0.000020 1.750900 
# 
# From -- ./inp_files/178687.got.cif
#   From: 2010.05.17/outbox.cif.g08.bks.cpg/sg12_90_cif.got.tgz:178687.got - 2010.06.03 13:09:07.
