data_PCOD9179700
_publ_section_title
;
Structure prediction by ZEFSAII (Michael W. Deem and Ramdas Pophale) SiO2 
 PCOD9179700
Probable space group: C 2/M
;
_chemical_formula_sum "Si O2"
_cell_formula_units_Z 64
_cell_length_a 29.910905
_cell_length_b 8.867716
_cell_length_c 26.406537
_cell_angle_alpha 90.000000
_cell_angle_beta 32.528032
_cell_angle_gamma 90.000000
_cell_volume 3766.193671
_symmetry_space_group_name_H-M "C 2/M"
_symmetry_group_IT_number 12
_symmetry_cell_setting 'monoclinic'
loop_
_space_group_symop_operation_xyz
x,y,z
-x,y,-z
-x,-y,-z
x,-y,z
1/2+x,1/2+y,z
1/2-x,1/2+y,-z
1/2-x,1/2-y,-z
1/2+x,1/2-y,z
loop_
_atom_site_type_symbol
_atom_site_label
_atom_site_fract_x
_atom_site_fract_y
_atom_site_fract_z
Si Si1 0.779970 0.319908 0.891502
Si Si2 0.786306 0.682003 0.346451
Si Si3 0.872551 0.179127 0.435313
Si Si4 0.435603 0.181515 0.271691
Si Si5 0.874366 0.681738 0.903934
Si Si6 0.691154 0.820721 0.344965
Si Si7 0.158107 0.180606 0.272102
Si Si8 0.464609 0.320019 0.450550
O O1 0.777799 0.500000 0.887670
O O2 0.845485 0.283696 0.874009
O O3 0.805857 0.243062 0.814618
O O4 0.691812 0.259624 0.996068
O O5 0.783187 0.500000 0.343252
O O6 0.716514 0.720862 0.455452
O O7 0.875490 0.728045 0.283162
O O8 0.757391 0.757615 0.322171
O O9 0.896161 0.262888 0.361826
O O10 0.938607 0.209122 0.417175
O O11 0.871885 0.000000 0.426361
O O12 0.531164 0.231477 0.176999
O O13 0.435843 0.000000 0.272225
O O14 0.868912 0.500000 0.915283
O O15 0.701711 0.751182 0.279388
O O16 0.601412 0.765767 0.451709
O O17 0.693988 0.000000 0.340564
O O18 0.059924 0.220258 0.368531
O O19 0.164414 0.000000 0.267242
O O20 0.453945 0.500000 0.469757
#
# Coordination Sequence:
#
# PCOD9179700 Si02
#       8
#     8   8   8   8   8   8   8   8
#     4  10  20  34  53  78 107 134 163 202 246 297
#     4   9  19  35  50  68  99 137 173 208 250 297
#     4   9  17  29  46  71 104 135 165 202 244 296
#     4  10  19  31  51  75  99 131 171 211 248 294
#     4   9  19  35  53  76 105 134 164 201 249 300
#     4  11  22  34  50  73 101 133 171 213 251 289
#     4  11  21  34  54  75 100 135 170 205 249 300
#     4   9  19  34  50  72 103 138 171 202 244 298
#
# _framework density 16.993283999999999
#
# number of rings (size 3 to 8) (size 9 to 14) (size 15 to 20)
#    0.000    2.250    0.000    4.125    0.000    6.000 
#    0.000    0.000    0.000    0.750    0.000    5.250 
#    0.000    0.000    0.000    0.000    0.000    0.000 
#
# Total GULP energy -178641.636829 kJ/mol
# GULP energy per Si atom -5582.551151 kJ/mol
# Density = 1.695461 g / cm^3
# Si number density = 16.993284 Si / 1000 Ang^3
#
#
#
# Elastic Constant Matrix: (Units=GPa)
#
#
# Indices 1 2 3 4 5 6 
#
# 1 141.3754 54.4899 91.4603 -0.0009 -7.0068 0.0005
# 2 54.4899 41.9877 42.1032 -0.0048 4.5185 -0.0010
# 3 91.4603 42.1032 82.4687 -0.0065 1.3735 0.0011
# 4 -0.0009 -0.0048 -0.0065 27.2779 0.0004 8.5284
# 5 -7.0068 4.5185 1.3735 0.0004 27.8787 0.0027
# 6 0.0005 -0.0010 0.0011 8.5284 0.0027 19.3054
#
#
#
# Elastic Compliance Matrix: (Units=1/GPa)
#
#
# Indices 1 2 3 4 5 6 
#
# 1 0.030024 -0.013479 -0.026600 -0.000009 0.011041 0.000002
# 2 -0.013479 0.056128 -0.013510 0.000005 -0.011819 0.000003
# 3 -0.026600 -0.013510 0.048638 0.000010 -0.006892 -0.000007
# 4 -0.000009 0.000005 0.000010 0.042534 -0.000002 -0.018790
# 5 0.011041 -0.011819 -0.006892 -0.000002 0.040900 -0.000005
# 6 0.000002 0.000003 -0.000007 -0.018790 -0.000005 0.060100
#
#
# Mechanical properties :
#
#
# Convention : Reuss Voigt Hill
#
# Bulk Modulus (GPa) = 36.21557 71.32654 53.77105
# Shear Modulus (GPa) = 12.66763 20.07764 16.37263
#
# Velocity S-wave (km/s) = 2.73325 3.44103 3.10736
# Velocity P-wave (km/s) = 5.59633 7.60606 6.67724
#
# Compressibility (1/GPa) = 0.02761243
#
# Stress axis : x y z
#
# Youngs Moduli (GPa) = 33.30619 17.81644 20.55995
#
# Poissons Ratio (x) = 0.24015 0.54690
# Poissons Ratio (y) = 0.44894 0.27776
# Poissons Ratio (z) = 0.88595 0.24069
#
# Static dielectric constant tensor:
#      x y z
#    x 1.583160 0.000000 -0.015330 
#    y 0.000000 1.564800 0.000000 
#    z -0.015330 0.000000 1.545920 
# 
# From -- ./inp_files/353262.got.cif
#   From: 2010.05.17/outbox.cif.g08.bks.cpg/sg12_177_cif.got.tgz:353262.got - 2010.06.03 13:09:07.
