data_PCOD9179237
_publ_section_title
;
Structure prediction by ZEFSAII (Michael W. Deem and Ramdas Pophale) SiO2 
 PCOD9179237
Probable space group: C 2/M
;
_chemical_formula_sum "Si O2"
_cell_formula_units_Z 48
_cell_length_a 29.283623
_cell_length_b 7.345311
_cell_length_c 18.318365
_cell_angle_alpha 90.000000
_cell_angle_beta 35.094283
_cell_angle_gamma 90.000000
_cell_volume 2265.331952
_symmetry_space_group_name_H-M "C 2/M"
_symmetry_group_IT_number 12
_symmetry_cell_setting 'monoclinic'
loop_
_space_group_symop_operation_xyz
x,y,z
-x,y,-z
-x,-y,-z
x,-y,z
1/2+x,1/2+y,z
1/2-x,1/2+y,-z
1/2-x,1/2-y,-z
1/2+x,1/2-y,z
loop_
_atom_site_type_symbol
_atom_site_label
_atom_site_fract_x
_atom_site_fract_y
_atom_site_fract_z
Si Si1 0.782032 0.779246 0.732097
Si Si2 0.205735 0.283505 0.982238
Si Si3 0.525259 0.778681 0.851897
Si Si4 0.024973 0.723015 0.236959
Si Si5 0.035115 0.710335 0.528922
Si Si6 0.373425 0.221332 0.147006
O O1 0.869963 0.716234 0.598605
O O2 0.712958 0.720315 0.766633
O O3 0.784376 0.000000 0.728717
O O4 0.754478 0.716428 0.848578
O O5 0.199498 0.500000 0.980002
O O6 0.115523 0.217262 0.105193
O O7 0.250000 0.250000 0.000000
O O8 0.525565 0.719954 0.767690
O O9 0.595282 0.719469 0.814653
O O10 0.526128 0.000000 0.851100
O O11 0.441842 0.726059 0.999422
O O12 0.023562 0.500000 0.239368
O O13 0.994883 0.787407 0.354919
O O14 0.007951 0.500000 0.565078
O O15 0.000000 0.791714 0.500000
O O16 0.372727 0.000000 0.147781
#
# Coordination Sequence:
#
# PCOD9179237 Si02
#       6
#     8   8   8   8   8   8
#     4  10  19  32  50  74 100 123 153 198 247 286
#     4  10  19  31  49  72  95 120 156 202 243 277
#     4   8  12  22  44  71  96 120 151 194 239 280
#     4   9  16  29  47  67  92 124 163 200 231 273
#     4  10  21  35  49  66  94 134 170 195 228 281
#     4   8  13  23  43  73 100 118 145 193 247 285
#
# _framework density 21.188946999999999
#
# number of rings (size 3 to 8) (size 9 to 14) (size 15 to 20)
#    0.000    2.833    1.667    2.000    0.000    2.333 
#    0.000    1.667    0.000    0.000    0.000    3.500 
#    0.000    0.000    0.000    0.000    0.000    0.000 
#
# Total GULP energy -133974.961010 kJ/mol
# GULP energy per Si atom -5582.290042 kJ/mol
# Density = 2.114072 g / cm^3
# Si number density = 21.188947 Si / 1000 Ang^3
#
#
#
# Elastic Constant Matrix: (Units=GPa)
#
#
# Indices 1 2 3 4 5 6 
#
# 1 150.9932 -4.3540 27.7054 -0.0236 21.0266 0.0178
# 2 -4.3540 77.7645 -4.8763 0.0249 7.2810 -0.0420
# 3 27.7054 -4.8763 72.4118 -0.0170 20.8796 0.0135
# 4 -0.0236 0.0249 -0.0170 1.7134 0.0021 0.3409
# 5 21.0266 7.2810 20.8796 0.0021 39.1683 -0.0009
# 6 0.0178 -0.0420 0.0135 0.3409 -0.0009 -11.1027
#
#
#
# Elastic Compliance Matrix: (Units=1/GPa)
#
#
# Indices 1 2 3 4 5 6 
#
# 1 0.007418 0.000583 -0.001914 0.000076 -0.003071 0.000010
# 2 0.000583 0.013351 0.001751 -0.000154 -0.003728 -0.000052
# 3 -0.001914 0.001751 0.017084 0.000125 -0.008405 0.000016
# 4 0.000076 -0.000154 0.000125 0.580109 -0.000109 0.017810
# 5 -0.003071 -0.003728 -0.008405 -0.000109 0.032353 -0.000007
# 6 0.000010 -0.000052 0.000016 0.017810 -0.000007 -0.089521
#
#
# Mechanical properties :
#
#
# Convention : Reuss Voigt Hill
#
# Bulk Modulus (GPa) = 25.84440 37.56888 31.70664
# Shear Modulus (GPa) = 8.72828 24.80208 16.76518
#
# Velocity S-wave (km/s) = 2.03180 3.42500 2.81592
# Velocity P-wave (km/s) = 4.21045 5.78011 5.05656
#
# Compressibility (1/GPa) = 0.03869310
#
# Stress axis : x y z
#
# Youngs Moduli (GPa) = 134.80057 74.90156 58.53577
#
# Poissons Ratio (x) = -0.04365 0.11202
# Poissons Ratio (y) = -0.07857 -0.10250
# Poissons Ratio (z) = 0.25797 -0.13115
#
# Static dielectric constant tensor:
#      x y z
#    x 1.458340 0.000040 -0.132320 
#    y 0.000040 1.825460 0.000030 
#    z -0.132320 0.000030 1.632310 
# 
# From -- ./inp_files/274039.got.cif
#   From: 2010.05.17/outbox.cif.g08.bks.cpg/sg12_138_cif.got.tgz:274039.got - 2010.06.03 13:09:07.
