data_PCOD9179932
_publ_section_title
;
Structure prediction by ZEFSAII (Michael W. Deem and Ramdas Pophale) SiO2 
 PCOD9179932
Probable space group: C 2/M
;
_chemical_formula_sum "Si O2"
_cell_formula_units_Z 48
_cell_length_a 12.088158
_cell_length_b 15.476968
_cell_length_c 13.340101
_cell_angle_alpha 90.000000
_cell_angle_beta 68.757590
_cell_angle_gamma 90.000000
_cell_volume 2326.200141
_symmetry_space_group_name_H-M "C 2/M"
_symmetry_group_IT_number 12
_symmetry_cell_setting 'monoclinic'
loop_
_space_group_symop_operation_xyz
x,y,z
-x,y,-z
-x,-y,-z
x,-y,z
1/2+x,1/2+y,z
1/2-x,1/2+y,-z
1/2-x,1/2-y,-z
1/2+x,1/2-y,z
loop_
_atom_site_type_symbol
_atom_site_label
_atom_site_fract_x
_atom_site_fract_y
_atom_site_fract_z
Si Si1 0.394367 0.321447 0.659050
Si Si2 0.829592 0.163442 0.471567
Si Si3 0.245717 0.100908 0.125114
Si Si4 0.834758 0.402700 0.884611
Si Si5 0.729878 0.654862 0.718255
Si Si6 0.541127 0.224524 0.877864
O O1 0.533404 0.314318 0.595133
O O2 0.334460 0.372061 0.583599
O O3 0.363468 0.365544 0.774093
O O4 0.331370 0.228589 0.677739
O O5 0.750000 0.250000 0.500000
O O6 0.785444 0.113796 0.386759
O O7 0.358970 0.153287 0.127835
O O8 0.260887 0.000000 0.137483
O O9 0.244131 0.115272 0.006163
O O10 0.884045 0.500000 0.885416
O O11 0.769870 0.400379 0.799816
O O12 0.934422 0.328266 0.860887
O O13 0.609280 0.705082 0.789384
O O14 0.500000 0.259295 0.000000
#
# Coordination Sequence:
#
# PCOD9179932 Si02
#       6
#     8   8   8   8   8   8
#     4   9  18  33  53  75  98 132 183 226 257 307
#     4   9  18  33  51  73  99 131 173 224 271 312
#     4   9  18  33  52  75 105 140 177 217 262 312
#     4  10  20  34  52  79 115 146 172 214 271 318
#     4  10  19  31  52  80 107 136 174 222 268 314
#     4   9  18  31  53  79 105 141 185 219 250 309
#
# _framework density 20.634509000000001
#
# number of rings (size 3 to 8) (size 9 to 14) (size 15 to 20)
#    0.000    2.667    0.000    1.500    0.000    9.333 
#    0.000    3.333    0.000    2.500    0.000   30.333 
#    0.000    0.000    0.000    0.000    0.000    0.000 
#
# Total GULP energy -133765.127159 kJ/mol
# GULP energy per Si atom -5573.546965 kJ/mol
# Density = 2.058754 g / cm^3
# Si number density = 20.634509 Si / 1000 Ang^3
#
#
#
# Elastic Constant Matrix: (Units=GPa)
#
#
# Indices 1 2 3 4 5 6 
#
# 1 55.4828 -0.5834 34.9066 0.0000 16.8719 0.0000
# 2 -0.5834 28.5655 4.4856 0.0000 6.3972 0.0000
# 3 34.9066 4.4856 85.4515 0.0000 20.2023 0.0000
# 4 0.0000 0.0000 0.0000 9.2779 0.0000 -0.0510
# 5 16.8719 6.3972 20.2023 0.0000 40.0003 0.0000
# 6 0.0000 0.0000 0.0000 -0.0510 0.0000 9.6463
#
#
#
# Elastic Compliance Matrix: (Units=1/GPa)
#
#
# Indices 1 2 3 4 5 6 
#
# 1 0.025899 0.003502 -0.009140 0.000000 -0.006868 0.000000
# 2 0.003502 0.036809 -0.001842 0.000000 -0.006434 0.000000
# 3 -0.009140 -0.001842 0.016525 0.000000 -0.004196 0.000000
# 4 0.000000 0.000000 0.000000 0.107786 0.000000 0.000570
# 5 -0.006868 -0.006434 -0.004196 0.000000 0.031045 0.000000
# 6 0.000000 0.000000 0.000000 0.000570 0.000000 0.103669
#
#
# Mechanical properties :
#
#
# Convention : Reuss Voigt Hill
#
# Bulk Modulus (GPa) = 15.55833 27.45750 21.50792
# Shear Modulus (GPa) = 13.96192 20.49764 17.22978
#
# Velocity S-wave (km/s) = 2.60403 3.15519 2.89277
# Velocity P-wave (km/s) = 4.07402 5.15840 4.64794
#
# Compressibility (1/GPa) = 0.06427423
#
# Stress axis : x y z
#
# Youngs Moduli (GPa) = 38.61116 27.16742 60.51487
#
# Poissons Ratio (x) = -0.09515 0.55309
# Poissons Ratio (y) = -0.13523 0.11146
# Poissons Ratio (z) = 0.35290 0.05004
#
# Static dielectric constant tensor:
#      x y z
#    x 1.738820 0.000000 0.038320 
#    y 0.000000 1.711910 0.000000 
#    z 0.038320 0.000000 1.810770 
# 
# From -- ./inp_files/131632.got.cif
#   From: 2010.05.17/outbox.cif.g08.bks.cpg/sg12_66_cif.got.tgz:131632.got - 2010.06.03 13:09:07.
