data_PCOD9179632
_publ_section_title
;
Structure prediction by ZEFSAII (Michael W. Deem and Ramdas Pophale) SiO2 
 PCOD9179632
Probable space group: C 2/M
;
_chemical_formula_sum "Si O2"
_cell_formula_units_Z 56
_cell_length_a 20.738529
_cell_length_b 8.647737
_cell_length_c 29.907385
_cell_angle_alpha 90.000000
_cell_angle_beta 145.079827
_cell_angle_gamma 90.000000
_cell_volume 3070.327766
_symmetry_space_group_name_H-M "C 2/M"
_symmetry_group_IT_number 12
_symmetry_cell_setting 'monoclinic'
loop_
_space_group_symop_operation_xyz
x,y,z
-x,y,-z
-x,-y,-z
x,-y,z
1/2+x,1/2+y,z
1/2-x,1/2+y,-z
1/2-x,1/2-y,-z
1/2+x,1/2-y,z
loop_
_atom_site_type_symbol
_atom_site_label
_atom_site_fract_x
_atom_site_fract_y
_atom_site_fract_z
Si Si1 0.423983 0.684687 0.151392
Si Si2 0.297089 0.188220 0.920424
Si Si3 0.085554 0.686183 0.317568
Si Si4 0.308153 0.314932 0.488196
Si Si5 0.006390 0.313301 0.903924
Si Si6 0.235371 0.687217 0.200656
Si Si7 0.476955 0.815434 0.352096
O O1 0.420546 0.500000 0.146167
O O2 0.307387 0.737802 0.108109
O O3 0.523779 0.735280 0.241303
O O4 0.442943 0.754726 0.113543
O O5 0.278760 0.238230 0.859090
O O6 0.297348 0.000000 0.919641
O O7 0.413676 0.237046 0.009619
O O8 0.077160 0.500000 0.308567
O O9 0.217686 0.726618 0.398492
O O10 0.022297 0.730421 0.328079
O O11 0.312407 0.500000 0.493144
O O12 0.250000 0.250000 0.500000
O O13 0.433756 0.249093 0.561223
O O14 0.007221 0.500000 0.904054
O O15 0.877523 0.263965 0.837785
O O16 0.241339 0.500000 0.204609
O O17 0.351358 0.752763 0.285589
O O18 0.478757 0.000000 0.354817
#
# Coordination Sequence:
#
# PCOD9179632 Si02
#       7
#     8   8   8   8   8   8   8
#     4  11  21  33  53  78 107 139 174 220 264 310
#     4   9  18  34  55  79 101 133 181 224 263 309
#     4   9  18  32  50  75 105 137 173 211 257 308
#     4   9  17  29  48  76 108 138 171 215 261 310
#     4  10  21  36  54  75 105 142 178 218 264 317
#     4  10  19  34  56  78 103 139 180 220 261 311
#     4  10  19  31  50  78 109 139 171 215 265 314
#
# _framework density 18.239094999999999
#
# number of rings (size 3 to 8) (size 9 to 14) (size 15 to 20)
#    0.000    2.286    1.429    3.000    0.000    5.143 
#    0.000    1.429    0.000    2.571    0.000    6.000 
#    0.000    0.000    0.000    0.000    0.000    0.000 
#
# Total GULP energy -156188.462048 kJ/mol
# GULP energy per Si atom -5578.159359 kJ/mol
# Density = 1.819758 g / cm^3
# Si number density = 18.239095 Si / 1000 Ang^3
#
#
#
# Elastic Constant Matrix: (Units=GPa)
#
#
# Indices 1 2 3 4 5 6 
#
# 1 35.9177 5.5507 -8.4715 0.0000 12.7500 0.0000
# 2 5.5507 17.5897 16.4544 0.0000 7.3980 0.0001
# 3 -8.4715 16.4544 85.9008 0.0000 26.3175 0.0000
# 4 0.0000 0.0000 0.0000 23.2836 0.0000 -0.2779
# 5 12.7500 7.3980 26.3175 0.0000 17.5933 0.0000
# 6 0.0000 0.0001 0.0000 -0.2779 0.0000 21.7714
#
#
#
# Elastic Compliance Matrix: (Units=1/GPa)
#
#
# Indices 1 2 3 4 5 6 
#
# 1 0.104713 -0.025534 0.064939 0.000000 -0.162290 0.000000
# 2 -0.025534 0.078403 -0.024192 0.000000 0.021724 0.000000
# 3 0.064939 -0.024192 0.062730 0.000000 -0.130725 0.000000
# 4 0.000000 0.000000 0.000000 0.042955 0.000000 0.000548
# 5 -0.162290 0.021724 -0.130725 0.000000 0.360867 0.000000
# 6 0.000000 0.000000 0.000000 0.000548 0.000000 0.045939
#
#
# Mechanical properties :
#
#
# Convention : Reuss Voigt Hill
#
# Bulk Modulus (GPa) = 3.61963 18.49726 11.05844
# Shear Modulus (GPa) = 6.60266 20.92131 13.76198
#
# Velocity S-wave (km/s) = 1.90471 3.39050 2.74986
# Velocity P-wave (km/s) = 2.61268 5.04885 4.01976
#
# Compressibility (1/GPa) = 0.27627137
#
# Stress axis : x y z
#
# Youngs Moduli (GPa) = 9.54993 12.75469 15.94135
#
# Poissons Ratio (x) = 0.32567 -1.03521
# Poissons Ratio (y) = 0.24384 0.38565
# Poissons Ratio (z) = -0.62016 0.30856
#
# Static dielectric constant tensor:
#      x y z
#    x 1.603420 0.000000 0.017090 
#    y 0.000000 1.617800 0.000000 
#    z 0.017090 0.000000 1.638540 
# 
# From -- ./inp_files/280162.got.cif
#   From: 2010.05.17/outbox.cif.g08.bks.cpg/sg12_141_cif.got.tgz:280162.got - 2010.06.03 13:09:07.
