data_PCOD9179195
_publ_section_title
;
Structure prediction by ZEFSAII (Michael W. Deem and Ramdas Pophale) SiO2 
 PCOD9179195
Probable space group: C 2/M
;
_chemical_formula_sum "Si O2"
_cell_formula_units_Z 64
_cell_length_a 23.010890
_cell_length_b 18.360755
_cell_length_c 8.018268
_cell_angle_alpha 90.000000
_cell_angle_beta 123.998873
_cell_angle_gamma 90.000000
_cell_volume 2808.565102
_symmetry_space_group_name_H-M "C 2/M"
_symmetry_group_IT_number 12
_symmetry_cell_setting 'monoclinic'
loop_
_space_group_symop_operation_xyz
x,y,z
-x,y,-z
-x,-y,-z
x,-y,z
1/2+x,1/2+y,z
1/2-x,1/2+y,-z
1/2-x,1/2-y,-z
1/2+x,1/2-y,z
loop_
_atom_site_type_symbol
_atom_site_label
_atom_site_fract_x
_atom_site_fract_y
_atom_site_fract_z
Si Si1 0.074466 0.415735 0.466776
Si Si2 0.207869 0.911312 0.322897
Si Si3 0.075834 0.084653 0.279480
Si Si4 0.335824 0.915876 0.734545
Si Si5 0.454838 0.170120 0.099778
Si Si6 0.337157 0.584784 0.238915
Si Si7 0.543806 0.325318 0.742915
Si Si8 0.795973 0.587689 0.135239
O O1 0.058167 0.500000 0.476562
O O2 0.119856 0.417019 0.368057
O O3 0.127477 0.383556 0.691136
O O4 0.004898 0.372481 0.309444
O O5 0.128369 0.886291 0.221824
O O6 0.261116 0.886121 0.553142
O O7 0.245220 0.894052 0.210019
O O8 0.206093 0.000000 0.331922
O O9 0.126482 0.087001 0.523160
O O10 0.007391 0.129217 0.217194
O O11 0.058025 0.000000 0.222344
O O12 0.328019 0.000000 0.777221
O O13 0.384232 0.872992 0.940563
O O14 0.439582 0.249011 0.146941
O O15 0.500000 0.176049 0.000000
O O16 0.339111 0.500000 0.187591
O O17 0.387566 0.630803 0.201267
O O18 0.255448 0.607717 0.098995
O O19 0.500000 0.314177 0.500000
O O20 0.805793 0.500000 0.147941
#
# Coordination Sequence:
#
# PCOD9179195 Si02
#       8
#     8   8   8   8   8   8   8   8
#     4   8  14  27  49  74  96 119 150 188 227 266
#     4   8  14  26  46  72  97 116 140 184 236 273
#     4   9  17  31  51  70  87 115 156 193 226 272
#     4   8  14  27  49  74  96 119 150 188 227 266
#     4  10  19  31  49  71  93 122 160 192 218 262
#     4   9  17  31  51  70  87 115 156 193 226 272
#     4  10  21  35  47  63  93 126 152 188 236 274
#     4   8  14  26  46  72  97 116 140 184 236 273
#
# _framework density 22.787437000000001
#
# number of rings (size 3 to 8) (size 9 to 14) (size 15 to 20)
#    0.000    3.250    0.000    2.250    0.000    4.000 
#    0.000    2.500    0.000   14.250    0.000    0.000 
#    0.000    0.000    0.000    0.000    0.000    0.000 
#
# Total GULP energy -178784.610160 kJ/mol
# GULP energy per Si atom -5587.019068 kJ/mol
# Density = 2.273557 g / cm^3
# Si number density = 22.787437 Si / 1000 Ang^3
#
#
#
# Elastic Constant Matrix: (Units=GPa)
#
#
# Indices 1 2 3 4 5 6 
#
# 1 95.7875 15.3075 33.4319 0.0000 13.2921 0.0000
# 2 15.3075 50.8286 25.2693 0.0000 14.6057 0.0000
# 3 33.4319 25.2693 153.4286 0.0000 22.0586 0.0000
# 4 0.0000 0.0000 0.0000 787.9887 0.0000 -564.0310
# 5 13.2921 14.6057 22.0586 0.0000 38.2907 0.0000
# 6 0.0000 0.0000 0.0000 -564.0310 0.0000 421.4989
#
#
#
# Elastic Compliance Matrix: (Units=1/GPa)
#
#
# Indices 1 2 3 4 5 6 
#
# 1 0.011727 -0.001939 -0.001916 0.000000 -0.002228 0.000000
# 2 -0.001939 0.023448 -0.002453 0.000000 -0.006858 0.000000
# 3 -0.001916 -0.002453 0.007751 0.000000 -0.002864 0.000000
# 4 0.000000 0.000000 0.000000 0.030095 0.000000 0.040272
# 5 -0.002228 -0.006858 -0.002864 0.000000 0.031155 0.000000
# 6 0.000000 0.000000 0.000000 0.040272 0.000000 0.056263
#
#
# Mechanical properties :
#
#
# Convention : Reuss Voigt Hill
#
# Bulk Modulus (GPa) = 32.99255 49.78469 41.38862
# Shear Modulus (GPa) = 27.29850 264.62473 145.96161
#
# Velocity S-wave (km/s) = 3.46491 10.78794 8.01203
# Velocity P-wave (km/s) = 5.52425 13.30668 10.18786
#
# Compressibility (1/GPa) = 0.03030987
#
# Stress axis : x y z
#
# Youngs Moduli (GPa) = 85.27004 42.64716 129.01554
#
# Poissons Ratio (x) = 0.08271 0.24716
# Poissons Ratio (y) = 0.16537 0.31652
# Poissons Ratio (z) = 0.16335 0.10463
#
# Static dielectric constant tensor:
#      x y z
#    x 1.886380 0.000000 -0.060400 
#    y 0.000000 1.757590 0.000000 
#    z -0.060400 0.000000 1.919920 
# 
# From -- ./inp_files/99123.got.cif
#   From: 2010.05.17/outbox.cif.g08.bks.cpg/sg12_50_cif.got.tgz:99123.got - 2010.06.03 13:09:07.
