data_PCOD9179626
_publ_section_title
;
Structure prediction by ZEFSAII (Michael W. Deem and Ramdas Pophale) SiO2 
 PCOD9179626
Probable space group: C 2/M
;
_chemical_formula_sum "Si O2"
_cell_formula_units_Z 56
_cell_length_a 27.226418
_cell_length_b 13.051084
_cell_length_c 8.478902
_cell_angle_alpha 90.000000
_cell_angle_beta 111.279589
_cell_angle_gamma 90.000000
_cell_volume 2807.430430
_symmetry_space_group_name_H-M "C 2/M"
_symmetry_group_IT_number 12
_symmetry_cell_setting 'monoclinic'
loop_
_space_group_symop_operation_xyz
x,y,z
-x,y,-z
-x,-y,-z
x,-y,z
1/2+x,1/2+y,z
1/2-x,1/2+y,-z
1/2-x,1/2-y,-z
1/2+x,1/2-y,z
loop_
_atom_site_type_symbol
_atom_site_label
_atom_site_fract_x
_atom_site_fract_y
_atom_site_fract_z
Si Si1 0.129262 0.690326 0.237046
Si Si2 0.673935 0.884585 0.975956
Si Si3 0.709954 0.792125 0.585661
Si Si4 0.707936 0.379233 0.823516
Si Si5 0.311755 0.383374 0.840266
Si Si6 0.924948 0.376217 0.308813
Si Si7 0.468357 0.876322 0.708552
O O1 0.144072 0.618873 0.107785
O O2 0.162769 0.658179 0.431373
O O3 0.151923 0.800984 0.208018
O O4 0.068258 0.680249 0.208904
O O5 0.731536 0.842530 0.077546
O O6 0.684180 0.000000 0.935239
O O7 0.632740 0.837740 0.805184
O O8 0.750000 0.750000 0.500000
O O9 0.689827 0.695365 0.663498
O O10 0.749336 0.863445 0.732177
O O11 0.708117 0.500000 0.777337
O O12 0.680727 0.372291 0.962364
O O13 0.323726 0.500000 0.808510
O O14 0.923297 0.500000 0.295630
O O15 0.943529 0.354137 0.506781
O O16 0.970746 0.344365 0.240062
O O17 0.466005 0.000000 0.731925
#
# Coordination Sequence:
#
# PCOD9179626 Si02
#       7
#     8   8   8   8   8   8   8
#     4  11  22  32  49  77 104 140 175 212 255 306
#     4  10  19  31  50  78 106 136 170 206 252 312
#     4  10  20  34  49  73 103 135 173 214 251 300
#     4  10  20  35  54  74 103 140 173 209 256 307
#     4  10  22  36  49  68 100 141 179 215 251 292
#     4   8  17  33  53  78 109 138 167 205 254 319
#     4   9  18  34  53  78 109 138 169 209 259 311
#
# _framework density 19.947064999999998
#
# number of rings (size 3 to 8) (size 9 to 14) (size 15 to 20)
#    0.000    2.286    2.857    1.714    2.000    4.000 
#    0.000    2.143    0.000    0.000    0.000    4.000 
#    0.000    0.000    0.000    0.571    0.000    0.000 
#
# Total GULP energy -156182.035723 kJ/mol
# GULP energy per Si atom -5577.929847 kJ/mol
# Density = 1.990167 g / cm^3
# Si number density = 19.947065 Si / 1000 Ang^3
#
#
#
# Elastic Constant Matrix: (Units=GPa)
#
#
# Indices 1 2 3 4 5 6 
#
# 1 64.0498 16.8422 -8.1919 0.0000 -20.9864 0.0000
# 2 16.8422 82.2444 11.9555 0.0000 -10.4766 0.0000
# 3 -8.1919 11.9555 59.3829 0.0000 -6.6496 0.0000
# 4 0.0000 0.0000 0.0000 21.8794 0.0000 -9.2415
# 5 -20.9864 -10.4766 -6.6496 0.0000 28.3607 0.0000
# 6 0.0000 0.0000 0.0000 -9.2415 0.0000 25.5136
#
#
#
# Elastic Compliance Matrix: (Units=1/GPa)
#
#
# Indices 1 2 3 4 5 6 
#
# 1 0.022779 -0.003334 0.005713 0.000000 0.016964 0.000000
# 2 -0.003334 0.013507 -0.002975 0.000000 0.001825 0.000000
# 3 0.005713 -0.002975 0.019078 0.000000 0.007602 0.000000
# 4 0.000000 0.000000 0.000000 0.053961 0.000000 0.019546
# 5 0.016964 0.001825 0.007602 0.000000 0.050269 0.000000
# 6 0.000000 0.000000 0.000000 0.019546 0.000000 0.046274
#
#
# Mechanical properties :
#
#
# Convention : Reuss Voigt Hill
#
# Bulk Modulus (GPa) = 18.45996 27.43207 22.94602
# Shear Modulus (GPa) = 22.21069 27.48884 24.84976
#
# Velocity S-wave (km/s) = 3.34051 3.71629 3.53340
# Velocity P-wave (km/s) = 4.91459 5.67421 5.30801
#
# Compressibility (1/GPa) = 0.05417129
#
# Stress axis : x y z
#
# Youngs Moduli (GPa) = 43.90093 74.03815 52.41590
#
# Poissons Ratio (x) = 0.24686 -0.29946
# Poissons Ratio (y) = 0.14638 0.15593
# Poissons Ratio (z) = -0.25081 0.22026
#
# Static dielectric constant tensor:
#      x y z
#    x 1.728970 0.000000 -0.003630 
#    y 0.000000 1.734740 0.000000 
#    z -0.003630 0.000000 1.776410 
# 
# From -- ./inp_files/104133.got.cif
#   From: 2010.05.17/outbox.cif.g08.bks.cpg/sg12_53_cif.got.tgz:104133.got - 2010.06.03 13:09:07.
