data_PCOD9179639
_publ_section_title
;
Structure prediction by ZEFSAII (Michael W. Deem and Ramdas Pophale) SiO2 
 PCOD9179639
Probable space group: C 2/M
;
_chemical_formula_sum "Si O2"
_cell_formula_units_Z 64
_cell_length_a 9.309257
_cell_length_b 23.626428
_cell_length_c 15.130141
_cell_angle_alpha 90.000000
_cell_angle_beta 78.405918
_cell_angle_gamma 90.000000
_cell_volume 3259.890944
_symmetry_space_group_name_H-M "C 2/M"
_symmetry_group_IT_number 12
_symmetry_cell_setting 'monoclinic'
loop_
_space_group_symop_operation_xyz
x,y,z
-x,y,-z
-x,-y,-z
x,-y,z
1/2+x,1/2+y,z
1/2-x,1/2+y,-z
1/2-x,1/2-y,-z
1/2+x,1/2-y,z
loop_
_atom_site_type_symbol
_atom_site_label
_atom_site_fract_x
_atom_site_fract_y
_atom_site_fract_z
Si Si1 0.667425 0.774585 0.868829
Si Si2 0.884536 0.565206 0.593305
Si Si3 0.499069 0.435040 0.105345
Si Si4 0.551533 0.568136 0.595552
Si Si5 0.818759 0.560095 0.893677
Si Si6 0.347771 0.369556 0.759403
Si Si7 0.928441 0.437122 0.275997
Si Si8 0.162977 0.314106 0.069969
O O1 0.779157 0.807713 0.790311
O O2 0.714912 0.709058 0.876096
O O3 0.495326 0.789745 0.877145
O O4 0.692462 0.795333 0.966240
O O5 0.862966 0.500000 0.625897
O O6 0.723858 0.582816 0.583261
O O7 0.000000 0.565795 0.500000
O O8 0.972589 0.593439 0.662398
O O9 0.549052 0.500000 0.111119
O O10 0.326111 0.434576 0.149083
O O11 0.590730 0.394333 0.155952
O O12 0.500000 0.421696 0.000000
O O13 0.500000 0.573923 0.500000
O O14 0.530057 0.500000 0.621209
O O15 0.467964 0.611719 0.671111
O O16 0.801721 0.500000 0.945492
O O17 0.835126 0.618629 0.940569
O O18 0.962501 0.556398 0.818305
O O19 0.208723 0.403463 0.740564
O O20 0.879458 0.500000 0.313497
#
# Coordination Sequence:
#
# PCOD9179639 Si02
#       8
#     8   8   8   8   8   8   8   8
#     4  10  23  38  63  84 113 161 206 269 309 364
#     4   9  17  31  50  75 112 162 210 249 310 375
#     4  10  21  34  49  75 115 162 202 248 309 373
#     4  10  20  34  56  88 129 172 211 260 314 378
#     4  10  20  36  56  79 116 154 190 247 310 373
#     4  12  21  35  55  88 117 160 212 261 314 367
#     4  10  19  31  50  78 114 155 195 250 306 366
#     4  10  21  43  59  86 115 155 217 257 317 376
#
# _framework density 19.632559000000001
#
# number of rings (size 3 to 8) (size 9 to 14) (size 15 to 20)
#    0.000    1.875    1.250    3.375    1.750    4.000 
#    0.000    2.500    0.000    0.000    0.000    1.750 
#    0.000    0.000    0.000    0.000    0.000    0.000 
#
# Total GULP energy -178174.600582 kJ/mol
# GULP energy per Si atom -5567.956268 kJ/mol
# Density = 1.958787 g / cm^3
# Si number density = 19.632559 Si / 1000 Ang^3
#
#
#
# Elastic Constant Matrix: (Units=GPa)
#
#
# Indices 1 2 3 4 5 6 
#
# 1 122.0568 15.9151 20.7971 0.0000 -2.0839 0.0000
# 2 15.9151 63.0559 19.6312 0.0000 1.2130 0.0000
# 3 20.7971 19.6312 45.8475 0.0000 -1.0484 0.0000
# 4 0.0000 0.0000 0.0000 5.1307 0.0000 -3.7614
# 5 -2.0839 1.2130 -1.0484 0.0000 29.3831 0.0000
# 6 0.0000 0.0000 0.0000 -3.7614 0.0000 18.9347
#
#
#
# Elastic Compliance Matrix: (Units=1/GPa)
#
#
# Indices 1 2 3 4 5 6 
#
# 1 0.008960 -0.001166 -0.003552 0.000000 0.000557 0.000000
# 2 -0.001166 0.018482 -0.007410 0.000000 -0.001110 0.000000
# 3 -0.003552 -0.007410 0.026619 0.000000 0.001004 0.000000
# 4 0.000000 0.000000 0.000000 0.228132 0.000000 0.045319
# 5 0.000557 -0.001110 0.001004 0.000000 0.034154 0.000000
# 6 0.000000 0.000000 0.000000 0.045319 0.000000 0.061816
#
#
# Mechanical properties :
#
#
# Convention : Reuss Voigt Hill
#
# Bulk Modulus (GPa) = 33.55342 38.18301 35.86821
# Shear Modulus (GPa) = 12.12555 22.33081 17.22818
#
# Velocity S-wave (km/s) = 2.48790 3.37625 2.96553
# Velocity P-wave (km/s) = 5.03792 5.88980 5.48044
#
# Compressibility (1/GPa) = 0.02980323
#
# Stress axis : x y z
#
# Youngs Moduli (GPa) = 111.61054 54.10797 37.56781
#
# Poissons Ratio (x) = 0.06310 0.13345
# Poissons Ratio (y) = 0.13016 0.27837
# Poissons Ratio (z) = 0.39646 0.40094
#
# Static dielectric constant tensor:
#      x y z
#    x 1.717200 0.000000 0.089550 
#    y 0.000000 1.790440 0.000000 
#    z 0.089550 0.000000 1.267680 
# 
# From -- ./inp_files/198861.got.cif
#   From: 2010.05.17/outbox.cif.g08.bks.cpg/sg12_100_cif.got.tgz:198861.got - 2010.06.03 13:09:07.
