data_PCOD9179111
_publ_section_title
;
Structure prediction by ZEFSAII (Michael W. Deem and Ramdas Pophale) SiO2 
 PCOD9179111
Probable space group: C 2/M
;
_chemical_formula_sum "Si O2"
_cell_formula_units_Z 64
_cell_length_a 20.167508
_cell_length_b 8.763310
_cell_length_c 26.090386
_cell_angle_alpha 90.000000
_cell_angle_beta 125.401316
_cell_angle_gamma 90.000000
_cell_volume 3758.543067
_symmetry_space_group_name_H-M "C 2/M"
_symmetry_group_IT_number 12
_symmetry_cell_setting 'monoclinic'
loop_
_space_group_symop_operation_xyz
x,y,z
-x,y,-z
-x,-y,-z
x,-y,z
1/2+x,1/2+y,z
1/2-x,1/2+y,-z
1/2-x,1/2-y,-z
1/2+x,1/2-y,z
loop_
_atom_site_type_symbol
_atom_site_label
_atom_site_fract_x
_atom_site_fract_y
_atom_site_fract_z
Si Si1 0.016813 0.316239 0.949430
Si Si2 0.449289 0.684124 0.193947
Si Si3 0.404176 0.182520 0.804552
Si Si4 0.338007 0.682080 0.049765
Si Si5 0.130304 0.679713 0.565610
Si Si6 0.026715 0.319933 0.429562
Si Si7 0.728378 0.815991 0.702896
Si Si8 0.080058 0.182385 0.701842
O O1 0.026233 0.500000 0.952600
O O2 0.097826 0.241835 0.963179
O O3 0.944019 0.277482 0.877537
O O4 0.000000 0.269034 0.000000
O O5 0.458618 0.500000 0.196332
O O6 0.531027 0.758784 0.208316
O O7 0.376735 0.726004 0.122231
O O8 0.430076 0.728109 0.243550
O O9 0.316712 0.257133 0.757453
O O10 0.397156 0.000000 0.798517
O O11 0.333708 0.500000 0.046045
O O12 0.250000 0.750000 0.000000
O O13 0.145467 0.500000 0.563656
O O14 0.051624 0.689367 0.567683
O O15 0.202438 0.739693 0.633869
O O16 0.101614 0.741728 0.497591
O O17 0.038752 0.500000 0.423940
O O18 0.998549 0.233255 0.366360
O O19 0.659248 0.756924 0.710981
O O20 0.726079 0.000000 0.701651
O O21 0.088594 0.000000 0.702971
#
# Coordination Sequence:
#
# PCOD9179111 Si02
#       8
#     8   8   8   8   8   8   8   8
#     4   9  19  36  55  74  99 130 160 194 243 296
#     4   9  20  37  53  69  97 136 166 193 239 296
#     4  10  20  34  53  75  98 126 163 204 241 284
#     4  10  20  35  54  75  99 128 164 202 240 284
#     4   7  12  24  43  65  91 126 161 192 234 290
#     4   8  13  25  44  66  93 124 159 197 241 288
#     4  10  19  32  50  72 100 132 164 198 241 291
#     4  10  19  31  48  73 101 127 162 204 243 284
#
# _framework density 17.027875000000002
#
# number of rings (size 3 to 8) (size 9 to 14) (size 15 to 20)
#    0.000    2.875    0.000    3.000    0.000    3.250 
#    0.000   10.625    0.000    0.750    0.000    0.000 
#    0.000    0.000    0.000    0.000    0.000    0.000 
#
# Total GULP energy -178236.461783 kJ/mol
# GULP energy per Si atom -5569.889431 kJ/mol
# Density = 1.698912 g / cm^3
# Si number density = 17.027875 Si / 1000 Ang^3
#
#
#
# Elastic Constant Matrix: (Units=GPa)
#
#
# Indices 1 2 3 4 5 6 
#
# 1 82.7438 36.1343 106.6881 0.0000 0.6579 0.0000
# 2 36.1343 34.5034 51.6165 0.0000 1.2230 0.0000
# 3 106.6881 51.6165 176.9353 0.0000 0.2582 0.0000
# 4 0.0000 0.0000 0.0000 27.9892 0.0000 2.3307
# 5 0.6579 1.2230 0.2582 0.0000 23.2109 0.0000
# 6 0.0000 0.0000 0.0000 2.3307 0.0000 25.1649
#
#
#
# Elastic Compliance Matrix: (Units=1/GPa)
#
#
# Indices 1 2 3 4 5 6 
#
# 1 0.058410 -0.015020 -0.030838 0.000000 -0.000521 0.000000
# 2 -0.015020 0.055439 -0.007112 0.000000 -0.002416 0.000000
# 3 -0.030838 -0.007112 0.026320 0.000000 0.000956 0.000000
# 4 0.000000 0.000000 0.000000 0.036006 0.000000 -0.003335
# 5 -0.000521 -0.002416 0.000956 0.000000 0.043215 0.000000
# 6 0.000000 0.000000 0.000000 -0.003335 0.000000 0.040047
#
#
# Mechanical properties :
#
#
# Convention : Reuss Voigt Hill
#
# Bulk Modulus (GPa) = 29.21588 75.89558 52.55573
# Shear Modulus (GPa) = 13.27014 21.92258 17.59636
#
# Velocity S-wave (km/s) = 2.79466 3.59200 3.21812
# Velocity P-wave (km/s) = 5.25437 7.86584 6.68879
#
# Compressibility (1/GPa) = 0.03422797
#
# Stress axis : x y z
#
# Youngs Moduli (GPa) = 17.12022 18.03797 37.99443
#
# Poissons Ratio (x) = 0.27094 1.17166
# Poissons Ratio (y) = 0.25715 0.27023
# Poissons Ratio (z) = 0.52795 0.12829
#
# Static dielectric constant tensor:
#      x y z
#    x 1.534790 0.000000 -0.002590 
#    y 0.000000 1.573340 0.000000 
#    z -0.002590 0.000000 1.616600 
# 
# From -- ./inp_files/346104.got.cif
#   From: 2010.05.17/outbox.cif.g08.bks.cpg/sg12_174_cif.got.tgz:346104.got - 2010.06.03 13:09:07.
