data_PCOD9179403
_publ_section_title
;
Structure prediction by ZEFSAII (Michael W. Deem and Ramdas Pophale) SiO2 
 PCOD9179403
Probable space group: C 2/M
;
_chemical_formula_sum "Si O2"
_cell_formula_units_Z 36
_cell_length_a 24.831397
_cell_length_b 7.270215
_cell_length_c 8.464907
_cell_angle_alpha 90.000000
_cell_angle_beta 106.058341
_cell_angle_gamma 90.000000
_cell_volume 1468.537999
_symmetry_space_group_name_H-M "C 2/M"
_symmetry_group_IT_number 12
_symmetry_cell_setting 'monoclinic'
loop_
_space_group_symop_operation_xyz
x,y,z
-x,y,-z
-x,-y,-z
x,-y,z
1/2+x,1/2+y,z
1/2-x,1/2+y,-z
1/2-x,1/2-y,-z
1/2+x,1/2-y,z
loop_
_atom_site_type_symbol
_atom_site_label
_atom_site_fract_x
_atom_site_fract_y
_atom_site_fract_z
Si Si1 0.893264 0.776003 0.094047
Si Si2 0.213690 0.781466 0.813386
Si Si3 0.250000 0.750000 0.500000
Si Si4 0.010105 0.223979 0.328090
Si Si5 0.128248 0.776434 0.278912
O O1 0.848764 0.719718 0.191396
O O2 0.956436 0.718671 0.182045
O O3 0.892428 0.000000 0.093259
O O4 0.872965 0.717893 0.904810
O O5 0.242626 0.702314 0.682912
O O6 0.211498 0.000000 0.774185
O O7 0.250000 0.750000 0.000000
O O8 0.182863 0.716199 0.416918
O O9 0.069888 0.282481 0.310139
O O10 0.000000 0.279685 0.500000
O O11 0.010641 0.000000 0.325562
O O12 0.129741 0.000000 0.284903
#
# Coordination Sequence:
#
# PCOD9179403 Si02
#       5
#     8   8   4   8   8
#     4   9  17  32  52  77 110 146 188 242 302 357
#     4  11  23  39  60  87 122 161 203 251 304 363
#     4  12  22  34  54  82 118 160 198 240 292 362
#     4   9  16  27  46  74 107 142 183 237 303 361
#     4  10  19  31  49  76 111 150 192 241 297 358
#
# _framework density 24.514174000000001
#
# number of rings (size 3 to 8) (size 9 to 14) (size 15 to 20)
#    0.000    2.000    2.222    2.667    0.000    7.111 
#    0.000    0.000    0.000    0.000    0.000    4.667 
#    0.000   13.333    0.000    0.000    0.000    0.000 
#
# Total GULP energy -100250.876643 kJ/mol
# GULP energy per Si atom -5569.493147 kJ/mol
# Density = 2.445838 g / cm^3
# Si number density = 24.514174 Si / 1000 Ang^3
#
#
#
# Elastic Constant Matrix: (Units=GPa)
#
#
# Indices 1 2 3 4 5 6 
#
# 1 211.1380 -1.2765 67.2810 0.0000 7.1354 0.0000
# 2 -1.2765 107.6384 -9.7078 0.0000 -3.3854 0.0000
# 3 67.2810 -9.7078 161.0607 0.0000 4.7005 0.0000
# 4 0.0000 0.0000 0.0000 -14.6912 0.0000 0.1838
# 5 7.1354 -3.3854 4.7005 0.0000 65.5841 0.0000
# 6 0.0000 0.0000 0.0000 0.1838 0.0000 -35.2459
#
#
#
# Elastic Compliance Matrix: (Units=1/GPa)
#
#
# Indices 1 2 3 4 5 6 
#
# 1 0.005478 -0.000155 -0.002285 0.000000 -0.000440 0.000000
# 2 -0.000155 0.009358 0.000615 0.000000 0.000456 0.000000
# 3 -0.002285 0.000615 0.007207 0.000000 -0.000236 0.000000
# 4 0.000000 0.000000 0.000000 -0.068072 0.000000 -0.000355
# 5 -0.000440 0.000456 -0.000236 0.000000 0.015336 0.000000
# 6 0.000000 0.000000 0.000000 -0.000355 0.000000 -0.028374
#
#
# Mechanical properties :
#
#
# Convention : Reuss Voigt Hill
#
# Bulk Modulus (GPa) = 54.36216 65.82561 60.09389
# Shear Modulus (GPa) = -101.44936 31.36542 -35.04197
#
# Velocity S-wave (km/s) = -6.44002 3.58086 -3.78492
# Velocity P-wave (km/s) = 5.75104 6.63379 2.33802
#
# Compressibility (1/GPa) = 0.01839515
#
# Stress axis : x y z
#
# Youngs Moduli (GPa) = 182.53796 106.85614 138.74720
#
# Poissons Ratio (x) = 0.01656 0.31704
# Poissons Ratio (y) = 0.02829 -0.08540
# Poissons Ratio (z) = 0.41710 -0.06577
#
# Static dielectric constant tensor:
#      x y z
#    x 1.842030 0.000000 0.013060 
#    y 0.000000 2.100210 0.000000 
#    z 0.013060 0.000000 1.857010 
# 
# From -- ./inp_files/93130.got.cif
#   From: 2010.05.17/outbox.cif.g08.bks.cpg/sg12_47_cif.got.tgz:93130.got - 2010.06.03 13:09:07.
