data_PCOD9179875
_publ_section_title
;
Structure prediction by ZEFSAII (Michael W. Deem and Ramdas Pophale) SiO2 
 PCOD9179875
Probable space group: C 2/M
;
_chemical_formula_sum "Si O2"
_cell_formula_units_Z 64
_cell_length_a 24.839396
_cell_length_b 8.929529
_cell_length_c 17.369409
_cell_angle_alpha 90.000000
_cell_angle_beta 101.631990
_cell_angle_gamma 90.000000
_cell_volume 3773.484617
_symmetry_space_group_name_H-M "C 2/M"
_symmetry_group_IT_number 12
_symmetry_cell_setting 'monoclinic'
loop_
_space_group_symop_operation_xyz
x,y,z
-x,y,-z
-x,-y,-z
x,-y,z
1/2+x,1/2+y,z
1/2-x,1/2+y,-z
1/2-x,1/2-y,-z
1/2+x,1/2-y,z
loop_
_atom_site_type_symbol
_atom_site_label
_atom_site_fract_x
_atom_site_fract_y
_atom_site_fract_z
Si Si1 0.165158 0.325317 0.999097
Si Si2 0.112293 0.820743 0.218781
Si Si3 0.658950 0.182385 0.821490
Si Si4 0.565793 0.180711 0.677443
Si Si5 0.437187 0.179264 0.644957
Si Si6 0.780030 0.820136 0.842427
Si Si7 0.566664 0.672047 0.516859
Si Si8 0.947151 0.325026 0.937366
O O1 0.182045 0.500000 0.001271
O O2 0.159666 0.268125 0.910588
O O3 0.205309 0.238248 0.068066
O O4 0.105515 0.318074 0.022062
O O5 0.097330 0.747828 0.295423
O O6 0.171500 0.770812 0.201252
O O7 0.067855 0.767494 0.142652
O O8 0.112119 0.000000 0.224907
O O9 0.607038 0.232116 0.756393
O O10 0.718147 0.225605 0.803664
O O11 0.656280 0.000000 0.822284
O O12 0.501948 0.221306 0.673776
O O13 0.583792 0.248086 0.600685
O O14 0.567790 0.000000 0.673098
O O15 0.418307 0.242152 0.556893
O O16 0.433847 0.000000 0.644502
O O17 0.781735 0.000000 0.844964
O O18 0.500000 0.673124 0.500000
O O19 0.584960 0.500000 0.519688
O O20 0.956008 0.500000 0.918396
O O21 0.000000 0.272804 0.000000
#
# Coordination Sequence:
#
# PCOD9179875 Si02
#       8
#     8   8   8   8   8   8   8   8
#     4   9  17  29  47  69  92 123 164 204 240 278
#     4  10  20  32  47  68  96 128 162 197 238 285
#     4   9  17  30  50  72  94 123 160 203 242 281
#     4   9  18  31  50  75 100 124 156 195 239 286
#     4  10  19  31  52  76  98 125 161 196 231 283
#     4   9  18  33  49  66  93 128 164 200 241 283
#     4   9  17  31  50  72 103 132 153 184 235 290
#     4   9  18  30  46  66  94 128 162 199 239 283
#
# _framework density 16.960450000000002
#
# number of rings (size 3 to 8) (size 9 to 14) (size 15 to 20)
#    0.000    2.750    0.000    1.500    1.750    2.750 
#    0.000    1.250    0.000    0.750    0.000    0.000 
#    0.000    0.000    0.000    0.000    0.000    0.000 
#
# Total GULP energy -178358.940433 kJ/mol
# GULP energy per Si atom -5573.716889 kJ/mol
# Density = 1.692185 g / cm^3
# Si number density = 16.960450 Si / 1000 Ang^3
#
#
#
# Elastic Constant Matrix: (Units=GPa)
#
#
# Indices 1 2 3 4 5 6 
#
# 1 39.5920 15.4580 40.1201 0.0000 -3.0801 0.0000
# 2 15.4580 26.9897 27.2992 0.0000 -10.0437 0.0000
# 3 40.1201 27.2992 113.6561 0.0000 -21.3435 0.0000
# 4 0.0000 0.0000 0.0000 23.7685 0.0000 -0.8272
# 5 -3.0801 -10.0437 -21.3435 0.0000 23.4676 0.0000
# 6 0.0000 0.0000 0.0000 -0.8272 0.0000 13.9144
#
#
#
# Elastic Compliance Matrix: (Units=1/GPa)
#
#
# Indices 1 2 3 4 5 6 
#
# 1 0.045672 -0.016533 -0.014898 0.000000 -0.014632 0.000000
# 2 -0.016533 0.058095 -0.004650 0.000000 0.018464 0.000000
# 3 -0.014898 -0.004650 0.017406 0.000000 0.011885 0.000000
# 4 0.000000 0.000000 0.000000 0.042160 0.000000 0.002506
# 5 -0.014632 0.018464 0.011885 0.000000 0.059403 0.000000
# 6 0.000000 0.000000 0.000000 0.002506 0.000000 0.072017
#
#
# Mechanical properties :
#
#
# Convention : Reuss Voigt Hill
#
# Bulk Modulus (GPa) = 20.40442 38.44361 29.42402
# Shear Modulus (GPa) = 13.04618 18.72081 15.88349
#
# Velocity S-wave (km/s) = 2.77648 3.32594 3.06355
# Velocity P-wave (km/s) = 4.72601 6.12087 5.46810
#
# Compressibility (1/GPa) = 0.04900900
#
# Stress axis : x y z
#
# Youngs Moduli (GPa) = 21.89541 17.21315 57.44995
#
# Poissons Ratio (x) = 0.28459 0.85591
# Poissons Ratio (y) = 0.36201 0.26716
# Poissons Ratio (z) = 0.32621 0.08005
#
# Static dielectric constant tensor:
#      x y z
#    x 1.582370 0.000000 -0.006100 
#    y 0.000000 1.575000 0.000000 
#    z -0.006100 0.000000 1.555390 
# 
# From -- ./inp_files/244006.got.cif
#   From: 2010.05.17/outbox.cif.g08.bks.cpg/sg12_123_cif.got.tgz:244006.got - 2010.06.03 13:09:07.
