data_PCOD9179588
_publ_section_title
;
Structure prediction by ZEFSAII (Michael W. Deem and Ramdas Pophale) SiO2 
 PCOD9179588
Probable space group: C 2/M
;
_chemical_formula_sum "Si O2"
_cell_formula_units_Z 40
_cell_length_a 11.873202
_cell_length_b 24.702052
_cell_length_c 5.677127
_cell_angle_alpha 90.000000
_cell_angle_beta 74.704185
_cell_angle_gamma 90.000000
_cell_volume 1606.076621
_symmetry_space_group_name_H-M "C 2/M"
_symmetry_group_IT_number 12
_symmetry_cell_setting 'monoclinic'
loop_
_space_group_symop_operation_xyz
x,y,z
-x,y,-z
-x,-y,-z
x,-y,z
1/2+x,1/2+y,z
1/2-x,1/2+y,-z
1/2-x,1/2-y,-z
1/2+x,1/2-y,z
loop_
_atom_site_type_symbol
_atom_site_label
_atom_site_fract_x
_atom_site_fract_y
_atom_site_fract_z
Si Si1 0.874392 0.099195 0.631696
Si Si2 0.305958 0.583764 0.168041
Si Si3 0.816764 0.303674 0.719372
Si Si4 0.959838 0.561509 0.770843
Si Si5 0.177570 0.309099 0.784683
O O1 0.844711 0.065728 0.409057
O O2 0.768304 0.141027 0.721932
O O3 0.000000 0.124799 0.500000
O O4 0.882096 0.073637 0.890640
O O5 0.282011 0.648705 0.214531
O O6 0.179113 0.560899 0.171536
O O7 0.881490 0.308601 0.436233
O O8 0.754255 0.245738 0.750639
O O9 0.883110 0.310190 0.928899
O O10 0.008425 0.500000 0.744916
O O11 0.000000 0.586154 0.500000
O O12 0.000000 0.584935 0.000000
#
# Coordination Sequence:
#
# PCOD9179588 Si02
#       5
#     8   8   8   8   8
#     4  10  19  31  50  76 107 144 180 207 241 301
#     4  10  19  33  54  76 104 137 170 216 262 305
#     4   8  14  25  43  65  91 127 166 207 251 287
#     4  10  21  38  60  83 104 128 165 215 273 332
#     4   8  14  25  41  63  93 130 170 207 242 278
#
# _framework density 24.905412999999999
#
# number of rings (size 3 to 8) (size 9 to 14) (size 15 to 20)
#    0.000    2.800    0.000    1.800    0.000    0.000 
#    0.000    1.000    0.000   13.200    0.000    0.000 
#    0.000    0.000    0.000    0.000    0.000    0.000 
#
# Total GULP energy -111443.823820 kJ/mol
# GULP energy per Si atom -5572.191191 kJ/mol
# Density = 2.484873 g / cm^3
# Si number density = 24.905413 Si / 1000 Ang^3
#
#
#
# Elastic Constant Matrix: (Units=GPa)
#
#
# Indices 1 2 3 4 5 6 
#
# 1 76.5674 9.0599 75.6768 0.0000 20.3954 0.0000
# 2 9.0599 76.1197 10.5740 0.0000 12.1769 0.0000
# 3 75.6768 10.5740 354.9098 0.0000 55.4307 0.0000
# 4 0.0000 0.0000 0.0000 -34.9902 0.0000 24.6534
# 5 20.3954 12.1769 55.4307 0.0000 65.6691 0.0000
# 6 0.0000 0.0000 0.0000 24.6534 0.0000 16.8382
#
#
#
# Elastic Compliance Matrix: (Units=1/GPa)
#
#
# Indices 1 2 3 4 5 6 
#
# 1 0.017015 -0.001203 -0.003227 0.000000 -0.002337 0.000000
# 2 -0.001203 0.013624 0.000215 0.000000 -0.002334 0.000000
# 3 -0.003227 0.000215 0.003858 0.000000 -0.002294 0.000000
# 4 0.000000 0.000000 0.000000 -0.014067 0.000000 0.020597
# 5 -0.002337 -0.002334 -0.002294 0.000000 0.018323 0.000000
# 6 0.000000 0.000000 0.000000 0.020597 0.000000 0.029233
#
#
# Mechanical properties :
#
#
# Convention : Reuss Voigt Hill
#
# Bulk Modulus (GPa) = 38.36331 77.57984 57.97157
# Shear Modulus (GPa) = 58.75229 36.98916 47.87072
#
# Velocity S-wave (km/s) = 4.86224 3.85799 4.38893
# Velocity P-wave (km/s) = 6.85266 7.14583 7.00078
#
# Compressibility (1/GPa) = 0.02606657
#
# Stress axis : x y z
#
# Youngs Moduli (GPa) = 58.77175 73.40038 259.23022
#
# Poissons Ratio (x) = 0.08830 0.83658
# Poissons Ratio (y) = 0.07070 -0.05578
# Poissons Ratio (z) = 0.18967 -0.01579
#
# Static dielectric constant tensor:
#      x y z
#    x 1.911530 0.000000 0.062220 
#    y 0.000000 1.968970 0.000000 
#    z 0.062220 0.000000 2.077900 
# 
# From -- ./inp_files/7714.got.cif
#   From: 2010.05.17/outbox.cif.g08.bks.cpg/sg12_4_cif.got.tgz:7714.got - 2010.06.03 13:09:07.
