data_PCOD9179496
_publ_section_title
;
Structure prediction by ZEFSAII (Michael W. Deem and Ramdas Pophale) SiO2 
 PCOD9179496
Probable space group: C 2/M
;
_chemical_formula_sum "Si O2"
_cell_formula_units_Z 48
_cell_length_a 24.346909
_cell_length_b 8.870734
_cell_length_c 13.757251
_cell_angle_alpha 90.000000
_cell_angle_beta 106.381436
_cell_angle_gamma 90.000000
_cell_volume 2850.606101
_symmetry_space_group_name_H-M "C 2/M"
_symmetry_group_IT_number 12
_symmetry_cell_setting 'monoclinic'
loop_
_space_group_symop_operation_xyz
x,y,z
-x,y,-z
-x,-y,-z
x,-y,z
1/2+x,1/2+y,z
1/2-x,1/2+y,-z
1/2-x,1/2-y,-z
1/2+x,1/2-y,z
loop_
_atom_site_type_symbol
_atom_site_label
_atom_site_fract_x
_atom_site_fract_y
_atom_site_fract_z
Si Si1 0.865261 0.173811 0.728032
Si Si2 0.361611 0.178069 0.361338
Si Si3 0.750680 0.321764 0.608601
Si Si4 0.064099 0.173935 0.437198
Si Si5 0.982162 0.181566 0.881285
Si Si6 0.540310 0.180425 0.725226
O O1 0.808665 0.272132 0.691569
O O2 0.895004 0.175650 0.636889
O O3 0.916251 0.224477 0.825101
O O4 0.849971 0.000000 0.742762
O O5 0.303807 0.265041 0.357704
O O6 0.406349 0.223409 0.467857
O O7 0.395409 0.214533 0.278734
O O8 0.350284 0.000000 0.358856
O O9 0.748047 0.500000 0.595438
O O10 0.750000 0.250000 0.500000
O O11 0.003933 0.238308 0.370191
O O12 0.059431 0.000000 0.467278
O O13 0.022755 0.260612 0.822539
O O14 0.985439 0.000000 0.867443
O O15 0.000000 0.215117 0.000000
O O16 0.532213 0.000000 0.715302
#
# Coordination Sequence:
#
# PCOD9179496 Si02
#       6
#     8   8   8   8   8   8
#     4   9  18  33  52  77 107 137 174 216 260 310
#     4  11  22  34  49  71 105 145 180 216 259 309
#     4  12  23  34  51  74 105 145 184 219 257 306
#     4  10  19  31  50  74 104 142 178 214 258 310
#     4   9  19  37  61  84 105 133 171 218 270 321
#     4  10  21  34  50  76 107 138 173 217 267 315
#
# _framework density 16.838525000000001
#
# number of rings (size 3 to 8) (size 9 to 14) (size 15 to 20)
#    0.000    1.833    1.667    4.500    0.000    7.667 
#    0.000    0.000    0.000    1.000    0.000    0.000 
#    0.000    0.000    0.000    0.000    0.000    0.000 
#
# Total GULP energy -133961.129076 kJ/mol
# GULP energy per Si atom -5581.713711 kJ/mol
# Density = 1.680020 g / cm^3
# Si number density = 16.838525 Si / 1000 Ang^3
#
#
#
# Elastic Constant Matrix: (Units=GPa)
#
#
# Indices 1 2 3 4 5 6 
#
# 1 141.6841 66.3013 47.7892 0.0000 4.1503 0.0000
# 2 66.3013 89.1796 30.3550 0.0000 2.8640 0.0000
# 3 47.7892 30.3550 79.5689 0.0000 6.7865 0.0000
# 4 0.0000 0.0000 0.0000 20.6780 0.0000 0.7770
# 5 4.1503 2.8640 6.7865 0.0000 5.8477 0.0000
# 6 0.0000 0.0000 0.0000 0.7770 0.0000 28.7766
#
#
#
# Elastic Compliance Matrix: (Units=1/GPa)
#
#
# Indices 1 2 3 4 5 6 
#
# 1 0.012019 -0.007446 -0.004397 0.000000 0.000219 0.000000
# 2 -0.007446 0.017502 -0.002136 0.000000 -0.000809 0.000000
# 3 -0.004397 -0.002136 0.017389 0.000000 -0.016014 0.000000
# 4 0.000000 0.000000 0.000000 0.048410 0.000000 -0.001307
# 5 0.000219 -0.000809 -0.016014 0.000000 0.189833 0.000000
# 6 0.000000 0.000000 0.000000 -0.001307 0.000000 0.034786
#
#
# Mechanical properties :
#
#
# Convention : Reuss Voigt Hill
#
# Bulk Modulus (GPa) = 52.76230 66.59150 59.67690
# Shear Modulus (GPa) = 14.11578 22.12627 18.12102
#
# Velocity S-wave (km/s) = 2.89849 3.62888 3.28405
# Velocity P-wave (km/s) = 6.52717 7.56250 7.06383
#
# Compressibility (1/GPa) = 0.01895293
#
# Stress axis : x y z
#
# Youngs Moduli (GPa) = 83.20245 57.13594 57.50757
#
# Poissons Ratio (x) = 0.42544 0.25284
# Poissons Ratio (y) = 0.61953 0.12283
# Poissons Ratio (z) = 0.36581 0.12204
#
# Static dielectric constant tensor:
#      x y z
#    x 1.588650 0.000000 -0.005760 
#    y 0.000000 1.568520 0.000000 
#    z -0.005760 0.000000 1.552230 
# 
# From -- ./inp_files/230405.got.cif
#   From: 2010.05.17/outbox.cif.g08.bks.cpg/sg12_116_cif.got.tgz:230405.got - 2010.06.03 13:09:07.
