data_PCOD9179511
_publ_section_title
;
Structure prediction by ZEFSAII (Michael W. Deem and Ramdas Pophale) SiO2 
 PCOD9179511
Probable space group: C 2/M
;
_chemical_formula_sum "Si O2"
_cell_formula_units_Z 52
_cell_length_a 15.111224
_cell_length_b 14.581683
_cell_length_c 14.331623
_cell_angle_alpha 90.000000
_cell_angle_beta 115.792597
_cell_angle_gamma 90.000000
_cell_volume 2843.322347
_symmetry_space_group_name_H-M "C 2/M"
_symmetry_group_IT_number 12
_symmetry_cell_setting 'monoclinic'
loop_
_space_group_symop_operation_xyz
x,y,z
-x,y,-z
-x,-y,-z
x,-y,z
1/2+x,1/2+y,z
1/2-x,1/2+y,-z
1/2-x,1/2-y,-z
1/2+x,1/2-y,z
loop_
_atom_site_type_symbol
_atom_site_label
_atom_site_fract_x
_atom_site_fract_y
_atom_site_fract_z
Si Si1 0.132480 0.755294 0.718186
Si Si2 0.813516 0.243069 0.660230
Si Si3 0.640861 0.606835 0.891163
Si Si4 0.577026 0.396557 0.173623
Si Si5 0.738722 0.893732 0.882107
Si Si6 0.183661 0.606626 0.482605
Si Si7 0.000000 0.681252 0.500000
O O1 0.226594 0.764804 0.693251
O O2 0.128365 0.837175 0.790421
O O3 0.157313 0.666080 0.792553
O O4 0.040801 0.740499 0.606213
O O5 0.900337 0.189024 0.749758
O O6 0.840766 0.336838 0.621866
O O7 0.770262 0.166833 0.568782
O O8 0.658281 0.500000 0.877998
O O9 0.538004 0.610401 0.901317
O O10 0.728341 0.638276 0.999813
O O11 0.589793 0.500000 0.221029
O O12 0.661116 0.390541 0.133737
O O13 0.708898 0.000000 0.873202
O O14 0.206706 0.500000 0.480676
O O15 0.090652 0.619861 0.507736
#
# Coordination Sequence:
#
# PCOD9179511 Si02
#       7
#     8   8   8   8   8   8   4
#     4  10  20  34  50  70 102 132 159 199 239 286
#     4   9  19  32  47  69  94 127 163 192 237 294
#     4  10  19  31  50  75 100 128 161 197 241 290
#     4   9  16  29  49  71  96 122 154 200 243 280
#     4   9  18  32  51  74  97 126 164 202 242 283
#     4  10  19  32  49  68  94 125 161 203 239 279
#     4  10  21  34  51  74  96 124 167 204 241 284
#
# _framework density 18.288464000000001
#
# number of rings (size 3 to 8) (size 9 to 14) (size 15 to 20)
#    0.000    2.462    0.000    2.538    0.000    6.769 
#    0.000    0.385    0.000    0.000    0.000    0.000 
#    0.000   17.231    0.000    0.000    0.000    0.000 
#
# Total GULP energy -144816.200774 kJ/mol
# GULP energy per Si atom -5569.853876 kJ/mol
# Density = 1.824684 g / cm^3
# Si number density = 18.288464 Si / 1000 Ang^3
#
#
#
# Elastic Constant Matrix: (Units=GPa)
#
#
# Indices 1 2 3 4 5 6 
#
# 1 12.8849 15.1710 5.4969 0.0000 -0.5060 0.0000
# 2 15.1710 105.9781 45.7629 0.0000 -7.4349 0.0000
# 3 5.4969 45.7629 109.5090 0.0000 5.0260 0.0000
# 4 0.0000 0.0000 0.0000 18.9682 0.0000 -3.4822
# 5 -0.5060 -7.4349 5.0260 0.0000 18.5189 0.0000
# 6 0.0000 0.0000 0.0000 -3.4822 0.0000 14.7508
#
#
#
# Elastic Compliance Matrix: (Units=1/GPa)
#
#
# Indices 1 2 3 4 5 6 
#
# 1 0.093669 -0.014275 0.001427 0.000000 -0.003559 0.000000
# 2 -0.014275 0.014388 -0.005613 0.000000 0.006910 0.000000
# 3 0.001427 -0.005613 0.011653 0.000000 -0.005377 0.000000
# 4 0.000000 0.000000 0.000000 0.055108 0.000000 0.013009
# 5 -0.003559 0.006910 -0.005377 0.000000 0.058135 0.000000
# 6 0.000000 0.000000 0.000000 0.013009 0.000000 0.070864
#
#
# Mechanical properties :
#
#
# Convention : Reuss Voigt Hill
#
# Bulk Modulus (GPa) = 12.07912 40.13708 26.10810
# Shear Modulus (GPa) = 13.57460 21.24366 17.40913
#
# Velocity S-wave (km/s) = 2.72738 3.41191 3.08866
# Velocity P-wave (km/s) = 4.06660 6.12501 5.19870
#
# Compressibility (1/GPa) = 0.08278749
#
# Stress axis : x y z
#
# Youngs Moduli (GPa) = 10.67586 69.50238 85.81817
#
# Poissons Ratio (x) = 0.99213 -0.12245
# Poissons Ratio (y) = 0.15240 0.48172
# Poissons Ratio (z) = -0.01523 0.39013
#
# Static dielectric constant tensor:
#      x y z
#    x 1.639680 0.000000 -0.001020 
#    y 0.000000 1.609530 0.000000 
#    z -0.001020 0.000000 1.678540 
# 
# From -- ./inp_files/214948.got.cif
#   From: 2010.05.17/outbox.cif.g08.bks.cpg/sg12_108_cif.got.tgz:214948.got - 2010.06.03 13:09:07.
