data_PCOD9179442
_publ_section_title
;
Structure prediction by ZEFSAII (Michael W. Deem and Ramdas Pophale) SiO2 
 PCOD9179442
Probable space group: C 2/M
;
_chemical_formula_sum "Si O2"
_cell_formula_units_Z 64
_cell_length_a 11.198367
_cell_length_b 27.642585
_cell_length_c 12.983366
_cell_angle_alpha 90.000000
_cell_angle_beta 106.070582
_cell_angle_gamma 90.000000
_cell_volume 3861.966666
_symmetry_space_group_name_H-M "C 2/M"
_symmetry_group_IT_number 12
_symmetry_cell_setting 'monoclinic'
loop_
_space_group_symop_operation_xyz
x,y,z
-x,y,-z
-x,-y,-z
x,-y,z
1/2+x,1/2+y,z
1/2-x,1/2+y,-z
1/2-x,1/2-y,-z
1/2+x,1/2-y,z
loop_
_atom_site_type_symbol
_atom_site_label
_atom_site_fract_x
_atom_site_fract_y
_atom_site_fract_z
Si Si1 0.099356 0.801110 0.928592
Si Si2 0.547690 0.913053 0.893459
Si Si3 0.390992 0.600689 0.157286
Si Si4 0.641636 0.441255 0.510709
Si Si5 0.107709 0.307065 0.937303
Si Si6 0.799982 0.443093 0.747744
Si Si7 0.368720 0.557279 0.715950
Si Si8 0.681960 0.444685 0.070666
O O1 0.071900 0.843477 0.840871
O O2 0.093112 0.746250 0.885162
O O3 0.245788 0.809421 0.994383
O O4 0.000000 0.805045 0.000000
O O5 0.579714 0.857290 0.873868
O O6 0.445925 0.934386 0.792351
O O7 0.673387 0.943001 0.920123
O O8 0.500000 0.914812 0.000000
O O9 0.259653 0.590673 0.178566
O O10 0.484545 0.568040 0.245612
O O11 0.385521 0.582442 0.038444
O O12 0.500000 0.425199 0.500000
O O13 0.637460 0.500000 0.505664
O O14 0.736659 0.429295 0.624486
O O15 0.679692 0.424234 0.405165
O O16 0.000000 0.306538 0.000000
O O17 0.773620 0.500000 0.761860
O O18 0.343805 0.500000 0.713261
O O19 0.329101 0.577505 0.817625
O O20 0.637810 0.500000 0.062375
#
# Coordination Sequence:
#
# PCOD9179442 Si02
#       8
#     8   8   8   8   8   8   8   8
#     4  10  19  31  50  72 101 139 175 211 255 308
#     4  11  20  33  49  70 103 138 171 203 249 310
#     4  12  19  29  48  76 106 130 161 200 257 315
#     4   9  17  33  51  68  93 131 175 217 248 283
#     4   9  18  34  49  68 101 140 174 214 254 300
#     4  11  21  32  52  77 103 136 175 211 248 303
#     4  10  20  32  47  68 100 132 165 207 249 293
#     4  11  21  30  43  70 107 138 161 191 245 310
#
# _framework density 16.571867999999998
#
# number of rings (size 3 to 8) (size 9 to 14) (size 15 to 20)
#    0.000    1.625    3.750    3.375    0.000    1.500 
#    0.000    0.625    0.000    3.000    0.000    0.875 
#    3.750    0.000    0.000    0.000    0.000    0.000 
#
# Total GULP energy -178151.842555 kJ/mol
# GULP energy per Si atom -5567.245080 kJ/mol
# Density = 1.653415 g / cm^3
# Si number density = 16.571868 Si / 1000 Ang^3
#
#
#
# Elastic Constant Matrix: (Units=GPa)
#
#
# Indices 1 2 3 4 5 6 
#
# 1 66.0830 -2.0210 20.3103 0.0000 7.0105 0.0000
# 2 -2.0210 61.5981 16.3474 0.0000 -4.6088 0.0000
# 3 20.3103 16.3474 104.8665 0.0000 3.9584 0.0000
# 4 0.0000 0.0000 0.0000 3.1620 0.0000 1.3423
# 5 7.0105 -4.6088 3.9584 0.0000 21.1939 0.0000
# 6 0.0000 0.0000 0.0000 1.3423 0.0000 22.7947
#
#
#
# Elastic Compliance Matrix: (Units=1/GPa)
#
#
# Indices 1 2 3 4 5 6 
#
# 1 0.016648 0.001048 -0.003211 0.000000 -0.004679 0.000000
# 2 0.001048 0.017381 -0.003064 0.000000 0.004005 0.000000
# 3 -0.003211 -0.003064 0.010696 0.000000 -0.001602 0.000000
# 4 0.000000 0.000000 0.000000 0.324363 0.000000 -0.019101
# 5 -0.004679 0.004005 -0.001602 0.000000 0.049901 0.000000
# 6 0.000000 0.000000 0.000000 -0.019101 0.000000 0.044995
#
#
# Mechanical properties :
#
#
# Convention : Reuss Voigt Hill
#
# Bulk Modulus (GPa) = 29.17829 33.53565 31.35697
# Shear Modulus (GPa) = 10.29100 22.62419 16.45759
#
# Velocity S-wave (km/s) = 2.49467 3.69889 3.15477
# Velocity P-wave (km/s) = 5.09345 6.20668 5.67741
#
# Compressibility (1/GPa) = 0.03427206
#
# Stress axis : x y z
#
# Youngs Moduli (GPa) = 60.06782 57.53271 93.49367
#
# Poissons Ratio (x) = -0.06031 0.30022
# Poissons Ratio (y) = -0.06297 0.28644
# Poissons Ratio (z) = 0.19288 0.17627
#
# Static dielectric constant tensor:
#      x y z
#    x 1.631170 0.000000 -0.021900 
#    y 0.000000 1.573420 0.000000 
#    z -0.021900 0.000000 1.562030 
# 
# From -- ./inp_files/137428.got.cif
#   From: 2010.05.17/outbox.cif.g08.bks.cpg/sg12_69_cif.got.tgz:137428.got - 2010.06.03 13:09:07.
