data_PCOD9179440
_publ_section_title
;
Structure prediction by ZEFSAII (Michael W. Deem and Ramdas Pophale) SiO2 
 PCOD9179440
Probable space group: C 2/M
;
_chemical_formula_sum "Si O2"
_cell_formula_units_Z 52
_cell_length_a 14.411733
_cell_length_b 27.778269
_cell_length_c 11.670300
_cell_angle_alpha 90.000000
_cell_angle_beta 139.049523
_cell_angle_gamma 90.000000
_cell_volume 3062.063015
_symmetry_space_group_name_H-M "C 2/M"
_symmetry_group_IT_number 12
_symmetry_cell_setting 'monoclinic'
loop_
_space_group_symop_operation_xyz
x,y,z
-x,y,-z
-x,-y,-z
x,-y,z
1/2+x,1/2+y,z
1/2-x,1/2+y,-z
1/2-x,1/2-y,-z
1/2+x,1/2-y,z
loop_
_atom_site_type_symbol
_atom_site_label
_atom_site_fract_x
_atom_site_fract_y
_atom_site_fract_z
Si Si1 0.716034 0.784378 0.822300
Si Si2 0.816375 0.224514 0.671721
Si Si3 0.765568 0.943916 0.303958
Si Si4 0.530837 0.358653 0.896555
Si Si5 0.500000 0.879686 0.000000
Si Si6 0.927988 0.705966 0.092161
Si Si7 0.978860 0.943623 0.289630
O O1 0.711059 0.784402 0.680169
O O2 0.582165 0.793138 0.778936
O O3 0.830601 0.824676 0.968135
O O4 0.785281 0.732832 0.918697
O O5 0.750000 0.250000 0.500000
O O6 0.902280 0.175042 0.730688
O O7 0.939802 0.261726 0.824352
O O8 0.860456 0.938123 0.277981
O O9 0.870950 0.933534 0.507917
O O10 0.725151 0.000000 0.273806
O O11 0.628339 0.911306 0.167294
O O12 0.546991 0.405476 0.834182
O O13 0.500000 0.371207 0.000000
O O14 0.556620 0.845346 0.951491
O O15 0.978011 0.000000 0.253225
#
# Coordination Sequence:
#
# PCOD9179440 Si02
#       7
#     8   8   8   8   4   8   8
#     4   9  18  35  47  67 104 131 165 214 260 296
#     4  10  20  33  48  69 104 133 172 208 257 308
#     4   9  20  34  51  77 109 135 166 224 271 311
#     4   9  18  32  51  73  99 134 167 217 261 303
#     4  12  19  30  56  82 104 134 185 206 264 336
#     4  10  19  31  50  71  96 133 171 211 246 308
#     4   9  18  35  53  75 104 136 176 216 267 318
#
# _framework density 16.982015000000001
#
# number of rings (size 3 to 8) (size 9 to 14) (size 15 to 20)
#    0.000    2.462    1.538    3.000    2.154    0.923 
#    0.000    0.000    0.000    0.000    0.000    0.000 
#    0.000   10.462    0.000    0.000    0.000    0.000 
#
# Total GULP energy -144899.403058 kJ/mol
# GULP energy per Si atom -5573.053964 kJ/mol
# Density = 1.694336 g / cm^3
# Si number density = 16.982015 Si / 1000 Ang^3
#
#
#
# Elastic Constant Matrix: (Units=GPa)
#
#
# Indices 1 2 3 4 5 6 
#
# 1 90.4972 42.0651 29.2431 0.0000 -15.8586 0.0000
# 2 42.0651 104.1779 52.8801 0.0000 -9.4737 0.0000
# 3 29.2431 52.8801 70.0599 0.0000 -11.9172 0.0000
# 4 0.0000 0.0000 0.0000 24.7936 0.0000 -9.6261
# 5 -15.8586 -9.4737 -11.9172 0.0000 23.6117 0.0000
# 6 0.0000 0.0000 0.0000 -9.6261 0.0000 28.0721
#
#
#
# Elastic Compliance Matrix: (Units=1/GPa)
#
#
# Indices 1 2 3 4 5 6 
#
# 1 0.014986 -0.004606 -0.001510 0.000000 0.007454 0.000000
# 2 -0.004606 0.016979 -0.011224 0.000000 -0.001946 0.000000
# 3 -0.001510 -0.011224 0.024544 0.000000 0.006870 0.000000
# 4 0.000000 0.000000 0.000000 0.046527 0.000000 0.015954
# 5 0.007454 -0.001946 0.006870 0.000000 0.050045 0.000000
# 6 0.000000 0.000000 0.000000 0.015954 0.000000 0.041093
#
#
# Mechanical properties :
#
#
# Convention : Reuss Voigt Hill
#
# Bulk Modulus (GPa) = 45.81305 57.01238 51.41271
# Shear Modulus (GPa) = 21.17461 24.66525 22.91993
#
# Velocity S-wave (km/s) = 3.53496 3.81522 3.67776
# Velocity P-wave (km/s) = 6.61038 7.28374 6.95522
#
# Compressibility (1/GPa) = 0.02182784
#
# Stress axis : x y z
#
# Youngs Moduli (GPa) = 66.73103 58.89563 40.74300
#
# Poissons Ratio (x) = 0.27130 0.06153
# Poissons Ratio (y) = 0.30739 0.45730
# Poissons Ratio (z) = 0.10077 0.66104
#
# Static dielectric constant tensor:
#      x y z
#    x 1.616150 0.000000 -0.013110 
#    y 0.000000 1.553050 0.000000 
#    z -0.013110 0.000000 1.595930 
# 
# From -- ./inp_files/149331.got.cif
#   From: 2010.05.17/outbox.cif.g08.bks.cpg/sg12_75_cif.got.tgz:149331.got - 2010.06.03 13:09:07.
