data_PCOD9179038
_publ_section_title
;
Structure prediction by ZEFSAII (Michael W. Deem and Ramdas Pophale) SiO2 
 PCOD9179038
Probable space group: C 2/M
;
_chemical_formula_sum "Si O2"
_cell_formula_units_Z 56
_cell_length_a 14.429561
_cell_length_b 9.703003
_cell_length_c 23.194399
_cell_angle_alpha 90.000000
_cell_angle_beta 56.784824
_cell_angle_gamma 90.000000
_cell_volume 2716.878777
_symmetry_space_group_name_H-M "C 2/M"
_symmetry_group_IT_number 12
_symmetry_cell_setting 'monoclinic'
loop_
_space_group_symop_operation_xyz
x,y,z
-x,y,-z
-x,-y,-z
x,-y,z
1/2+x,1/2+y,z
1/2-x,1/2+y,-z
1/2-x,1/2-y,-z
1/2+x,1/2-y,z
loop_
_atom_site_type_symbol
_atom_site_label
_atom_site_fract_x
_atom_site_fract_y
_atom_site_fract_z
Si Si1 0.145882 0.651796 0.528486
Si Si2 0.042864 0.846387 0.418307
Si Si3 0.535908 0.335567 0.721253
Si Si4 0.722837 0.152744 0.376625
Si Si5 0.836860 0.160920 0.935231
Si Si6 0.705059 0.336868 0.188348
Si Si7 0.087065 0.166243 0.836065
O O1 0.158841 0.500000 0.550336
O O2 0.250000 0.750000 0.500000
O O3 0.352383 0.865250 0.541288
O O4 0.035916 0.731843 0.582158
O O5 0.165654 0.785692 0.368524
O O6 0.000000 0.858230 0.500000
O O7 0.030817 0.000000 0.397857
O O8 0.518842 0.500000 0.729198
O O9 0.651052 0.314504 0.648830
O O10 0.414019 0.283496 0.746416
O O11 0.571597 0.295269 0.774009
O O12 0.723231 0.000000 0.347201
O O13 0.813003 0.173449 0.874788
O O14 0.965469 0.198339 0.903612
O O15 0.824194 0.000000 0.954170
O O16 0.750000 0.250000 0.000000
O O17 0.721802 0.500000 0.196282
O O18 0.809704 0.247830 0.172806
O O19 0.103057 0.000000 0.834486
#
# Coordination Sequence:
#
# PCOD9179038 Si02
#       7
#     8   8   8   8   8   8   8
#     4  10  19  31  48  70  97 128 161 199 250 306
#     4   9  17  30  48  68  92 121 154 196 243 292
#     4   8  16  34  55  72  99 135 170 208 255 307
#     4   9  17  32  53  71  91 126 165 199 246 307
#     4   9  19  34  52  76 106 140 173 208 252 300
#     4   9  18  34  54  75 103 139 173 209 253 301
#     4   9  18  34  54  75 102 136 171 209 255 301
#
# _framework density 20.611888
#
# number of rings (size 3 to 8) (size 9 to 14) (size 15 to 20)
#    0.000    3.000    0.000    2.571    0.000    4.000 
#    2.571    6.429    0.000    0.000    0.000    0.000 
#    0.000    0.000    0.000    0.000    0.000    0.000 
#
# Total GULP energy -155926.630105 kJ/mol
# GULP energy per Si atom -5568.808218 kJ/mol
# Density = 2.056497 g / cm^3
# Si number density = 20.611888 Si / 1000 Ang^3
#
#
#
# Elastic Constant Matrix: (Units=GPa)
#
#
# Indices 1 2 3 4 5 6 
#
# 1 140.1480 70.7335 34.4395 0.0000 -41.8595 0.0000
# 2 70.7335 113.0109 27.5170 0.0000 -24.5049 0.0000
# 3 34.4395 27.5170 75.9966 0.0000 -30.2365 0.0000
# 4 0.0000 0.0000 0.0000 14.3853 0.0000 -9.8147
# 5 -41.8595 -24.5049 -30.2365 0.0000 32.9217 0.0000
# 6 0.0000 0.0000 0.0000 -9.8147 0.0000 38.5815
#
#
#
# Elastic Compliance Matrix: (Units=1/GPa)
#
#
# Indices 1 2 3 4 5 6 
#
# 1 0.014363 -0.006095 0.001826 0.000000 0.015404 0.000000
# 2 -0.006095 0.013196 -0.001877 0.000000 0.000349 0.000000
# 3 0.001826 -0.001877 0.021082 0.000000 0.020288 0.000000
# 4 0.000000 0.000000 0.000000 0.084115 0.000000 0.021398
# 5 0.015404 0.000349 0.020288 0.000000 0.068853 0.000000
# 6 0.000000 0.000000 0.000000 0.021398 0.000000 0.031363
#
#
# Mechanical properties :
#
#
# Convention : Reuss Voigt Hill
#
# Bulk Modulus (GPa) = 27.50997 66.05948 46.78472
# Shear Modulus (GPa) = 19.42652 30.27540 24.85096
#
# Velocity S-wave (km/s) = 3.07333 3.83669 3.47603
# Velocity P-wave (km/s) = 5.09602 7.19345 6.23359
#
# Compressibility (1/GPa) = 0.03635046
#
# Stress axis : x y z
#
# Youngs Moduli (GPa) = 69.62202 75.78011 47.43308
#
# Poissons Ratio (x) = 0.46185 -0.08663
# Poissons Ratio (y) = 0.42432 0.08905
# Poissons Ratio (z) = -0.12715 0.14226
#
# Static dielectric constant tensor:
#      x y z
#    x 1.803710 0.000000 0.049330 
#    y 0.000000 1.770360 0.000000 
#    z 0.049330 0.000000 1.815540 
# 
# From -- ./inp_files/359664.got.cif
#   From: 2010.05.17/outbox.cif.g08.bks.cpg/sg12_180_cif.got.tgz:359664.got - 2010.06.03 13:09:07.
