data_PCOD9179946
_publ_section_title
;
Structure prediction by ZEFSAII (Michael W. Deem and Ramdas Pophale) SiO2 
 PCOD9179946
Probable space group: C 2/M
;
_chemical_formula_sum "Si O2"
_cell_formula_units_Z 48
_cell_length_a 8.457211
_cell_length_b 19.597364
_cell_length_c 17.719281
_cell_angle_alpha 90.000000
_cell_angle_beta 116.637283
_cell_angle_gamma 90.000000
_cell_volume 2625.075077
_symmetry_space_group_name_H-M "C 2/M"
_symmetry_group_IT_number 12
_symmetry_cell_setting 'monoclinic'
loop_
_space_group_symop_operation_xyz
x,y,z
-x,y,-z
-x,-y,-z
x,-y,z
1/2+x,1/2+y,z
1/2-x,1/2+y,-z
1/2-x,1/2-y,-z
1/2+x,1/2-y,z
loop_
_atom_site_type_symbol
_atom_site_label
_atom_site_fract_x
_atom_site_fract_y
_atom_site_fract_z
Si Si1 0.142774 0.420511 0.744874
Si Si2 0.364955 0.167826 0.762375
Si Si3 0.127371 0.345323 0.594390
Si Si4 0.149401 0.579617 0.096009
Si Si5 0.014793 0.773538 0.328257
Si Si6 0.016939 0.082783 0.090076
O O1 0.135941 0.500000 0.756929
O O2 0.173737 0.403495 0.664433
O O3 0.305805 0.391727 0.830021
O O4 0.957975 0.387550 0.729143
O O5 0.398484 0.136240 0.851975
O O6 0.446695 0.238297 0.745565
O O7 0.155467 0.178298 0.711614
O O8 0.311427 0.312596 0.607857
O O9 0.000000 0.366960 0.500000
O O10 0.030831 0.286217 0.622575
O O11 0.156318 0.500000 0.126425
O O12 0.339563 0.596382 0.099647
O O13 0.000000 0.580153 0.000000
O O14 0.030027 0.000000 0.089444
O O15 0.000000 0.107243 0.000000
#
# Coordination Sequence:
#
# PCOD9179946 Si02
#       6
#     8   8   8   8   8   8
#     4  10  20  33  52  79 108 139 171 211 266 316
#     4  10  19  35  54  74 104 136 173 220 261 306
#     4  10  19  34  56  78 104 136 173 217 260 311
#     4  10  19  31  52  81 108 137 172 211 259 313
#     4   9  20  35  54  77  99 133 178 218 258 302
#     4   9  17  30  49  75 106 136 168 205 246 300
#
# _framework density 18.285191000000001
#
# number of rings (size 3 to 8) (size 9 to 14) (size 15 to 20)
#    0.000    2.333    0.000    3.000    0.000    3.000 
#    0.000    1.667    0.000    8.000    0.000    0.000 
#    0.000    0.000    0.000    0.000    0.000    0.000 
#
# Total GULP energy -133699.958786 kJ/mol
# GULP energy per Si atom -5570.831616 kJ/mol
# Density = 1.824357 g / cm^3
# Si number density = 18.285191 Si / 1000 Ang^3
#
#
#
# Elastic Constant Matrix: (Units=GPa)
#
#
# Indices 1 2 3 4 5 6 
#
# 1 96.8300 19.3005 27.8662 0.0000 20.3372 0.0000
# 2 19.3005 21.1069 18.0420 0.0000 16.0789 0.0000
# 3 27.8662 18.0420 103.7552 0.0000 11.5542 0.0000
# 4 0.0000 0.0000 0.0000 20.0672 0.0000 2.9823
# 5 20.3372 16.0789 11.5542 0.0000 20.6241 0.0000
# 6 0.0000 0.0000 0.0000 2.9823 0.0000 20.4623
#
#
#
# Elastic Compliance Matrix: (Units=1/GPa)
#
#
# Indices 1 2 3 4 5 6 
#
# 1 0.013603 -0.003370 -0.001990 0.000000 -0.009672 0.000000
# 2 -0.003370 0.130158 -0.011517 0.000000 -0.091698 0.000000
# 3 -0.001990 -0.011517 0.011686 0.000000 0.004394 0.000000
# 4 0.000000 0.000000 0.000000 0.050936 0.000000 -0.007424
# 5 -0.009672 -0.091698 0.004394 0.000000 0.127052 0.000000
# 6 0.000000 0.000000 0.000000 -0.007424 0.000000 0.049952
#
#
# Mechanical properties :
#
#
# Convention : Reuss Voigt Hill
#
# Bulk Modulus (GPa) = 8.21740 39.12328 23.67034
# Shear Modulus (GPa) = 10.92407 22.66294 16.79351
#
# Velocity S-wave (km/s) = 2.44688 3.52435 3.03383
# Velocity P-wave (km/s) = 3.53366 6.16474 5.02448
#
# Compressibility (1/GPa) = 0.12169305
#
# Stress axis : x y z
#
# Youngs Moduli (GPa) = 73.51177 7.68299 85.57314
#
# Poissons Ratio (x) = 0.02589 0.17033
# Poissons Ratio (y) = 0.24772 0.98551
# Poissons Ratio (z) = 0.14632 0.08848
#
# Static dielectric constant tensor:
#      x y z
#    x 1.639180 0.000000 -0.020630 
#    y 0.000000 1.646870 0.000000 
#    z -0.020630 0.000000 1.630780 
# 
# From -- ./inp_files/121971.got.cif
#   From: 2010.05.17/outbox.cif.g08.bks.cpg/sg12_61_cif.got.tgz:121971.got - 2010.06.03 13:09:07.
