data_PCOD9179635
_publ_section_title
;
Structure prediction by ZEFSAII (Michael W. Deem and Ramdas Pophale) SiO2 
 PCOD9179635
Probable space group: C 2/M
;
_chemical_formula_sum "Si O2"
_cell_formula_units_Z 48
_cell_length_a 19.781089
_cell_length_b 9.507315
_cell_length_c 11.583838
_cell_angle_alpha 90.000000
_cell_angle_beta 83.609393
_cell_angle_gamma 90.000000
_cell_volume 2164.978105
_symmetry_space_group_name_H-M "C 2/M"
_symmetry_group_IT_number 12
_symmetry_cell_setting 'monoclinic'
loop_
_space_group_symop_operation_xyz
x,y,z
-x,y,-z
-x,-y,-z
x,-y,z
1/2+x,1/2+y,z
1/2-x,1/2+y,-z
1/2-x,1/2-y,-z
1/2+x,1/2-y,z
loop_
_atom_site_type_symbol
_atom_site_label
_atom_site_fract_x
_atom_site_fract_y
_atom_site_fract_z
Si Si1 0.533272 0.330082 0.367921
Si Si2 0.508022 0.341294 0.127906
Si Si3 0.166724 0.847240 0.073629
Si Si4 0.692692 0.840751 0.857514
Si Si5 0.318431 0.339530 0.351565
Si Si6 0.843333 0.337605 0.572355
O O1 0.500000 0.301516 0.500000
O O2 0.542745 0.500000 0.359645
O O3 0.490505 0.287303 0.260532
O O4 0.604041 0.245366 0.357714
O O5 0.478426 0.500000 0.123027
O O6 0.589488 0.351149 0.125504
O O7 0.500000 0.275227 0.000000
O O8 0.224920 0.838577 0.158846
O O9 0.180949 0.000000 0.011610
O O10 0.175070 0.717012 0.986687
O O11 0.663438 0.732366 0.772038
O O12 0.670136 0.000000 0.841854
O O13 0.342057 0.500000 0.358408
O O14 0.235726 0.338556 0.374473
O O15 0.343830 0.244565 0.451229
O O16 0.864286 0.500000 0.556713
#
# Coordination Sequence:
#
# PCOD9179635 Si02
#       6
#     8   8   8   8   8   8
#     4  10  21  37  58  84 113 149 194 240 285 335
#     4   9  18  34  56  80 107 143 189 236 278 326
#     4   9  18  32  51  75 105 143 183 225 276 333
#     4  10  19  31  50  78 111 143 179 227 280 336
#     4  10  20  34  54  80 110 145 185 229 281 344
#     4  10  21  36  55  80 110 145 184 230 284 338
#
# _framework density 22.171125
#
# number of rings (size 3 to 8) (size 9 to 14) (size 15 to 20)
#    0.000    2.333    0.000    2.500    0.000    5.667 
#    0.000    4.167    0.000    2.000    0.000    0.000 
#    0.000    0.000    0.000    0.000    0.000    0.000 
#
# Total GULP energy -133841.724999 kJ/mol
# GULP energy per Si atom -5576.738542 kJ/mol
# Density = 2.212066 g / cm^3
# Si number density = 22.171125 Si / 1000 Ang^3
#
#
#
# Elastic Constant Matrix: (Units=GPa)
#
#
# Indices 1 2 3 4 5 6 
#
# 1 73.2920 18.1863 9.8388 0.0000 14.2253 0.0000
# 2 18.1863 99.4668 39.0866 0.0000 12.2853 0.0000
# 3 9.8388 39.0866 120.0239 0.0000 29.3085 0.0000
# 4 0.0000 0.0000 0.0000 23.2776 0.0000 4.5640
# 5 14.2253 12.2853 29.3085 0.0000 31.2507 0.0000
# 6 0.0000 0.0000 0.0000 4.5640 0.0000 20.5648
#
#
#
# Elastic Compliance Matrix: (Units=1/GPa)
#
#
# Indices 1 2 3 4 5 6 
#
# 1 0.015496 -0.002445 0.001315 0.000000 -0.007326 0.000000
# 2 -0.002445 0.011956 -0.003654 0.000000 -0.000160 0.000000
# 3 0.001315 -0.003654 0.011945 0.000000 -0.010364 0.000000
# 4 0.000000 0.000000 0.000000 0.044914 0.000000 -0.009968
# 5 -0.007326 -0.000160 -0.010364 0.000000 0.045117 0.000000
# 6 0.000000 0.000000 0.000000 -0.009968 0.000000 0.050839
#
#
# Mechanical properties :
#
#
# Convention : Reuss Voigt Hill
#
# Bulk Modulus (GPa) = 33.52499 47.44513 40.48506
# Shear Modulus (GPa) = 25.02760 30.06335 27.54547
#
# Velocity S-wave (km/s) = 3.36346 3.68634 3.52860
# Velocity P-wave (km/s) = 5.49888 6.29006 5.90773
#
# Compressibility (1/GPa) = 0.02982849
#
# Stress axis : x y z
#
# Youngs Moduli (GPa) = 64.53221 83.63727 83.71871
#
# Poissons Ratio (x) = 0.20451 -0.11008
# Poissons Ratio (y) = 0.15779 0.30592
# Poissons Ratio (z) = -0.08485 0.30562
#
# Static dielectric constant tensor:
#      x y z
#    x 1.873610 0.000000 -0.030200 
#    y 0.000000 1.758800 0.000000 
#    z -0.030200 0.000000 1.884400 
# 
# From -- ./inp_files/172029.got.cif
#   From: 2010.05.17/outbox.cif.g08.bks.cpg/sg12_87_cif.got.tgz:172029.got - 2010.06.03 13:09:07.
