data_PCOD9179620
_publ_section_title
;
Structure prediction by ZEFSAII (Michael W. Deem and Ramdas Pophale) SiO2 
 PCOD9179620
Probable space group: C 2/M
;
_chemical_formula_sum "Si O2"
_cell_formula_units_Z 56
_cell_length_a 8.561770
_cell_length_b 27.352015
_cell_length_c 13.237563
_cell_angle_alpha 90.000000
_cell_angle_beta 60.717546
_cell_angle_gamma 90.000000
_cell_volume 2703.874403
_symmetry_space_group_name_H-M "C 2/M"
_symmetry_group_IT_number 12
_symmetry_cell_setting 'monoclinic'
loop_
_space_group_symop_operation_xyz
x,y,z
-x,y,-z
-x,-y,-z
x,-y,z
1/2+x,1/2+y,z
1/2-x,1/2+y,-z
1/2-x,1/2-y,-z
1/2+x,1/2-y,z
loop_
_atom_site_type_symbol
_atom_site_label
_atom_site_fract_x
_atom_site_fract_y
_atom_site_fract_z
Si Si1 0.613152 0.554642 0.628420
Si Si2 0.357365 0.864652 0.296469
Si Si3 0.695177 0.185534 0.112916
Si Si4 0.935482 0.553441 0.676462
Si Si5 0.732201 0.055112 0.844720
Si Si6 0.500000 0.756177 0.000000
Si Si7 0.000000 0.867282 0.500000
Si Si8 0.793542 0.925514 0.053039
O O1 0.607847 0.500000 0.585059
O O2 0.796459 0.561069 0.630460
O O3 0.446597 0.556425 0.759051
O O4 0.573945 0.596771 0.562504
O O5 0.520172 0.826947 0.234321
O O6 0.420357 0.904595 0.358089
O O7 0.337758 0.898987 0.200866
O O8 0.169879 0.841948 0.392442
O O9 0.611507 0.210253 0.040210
O O10 0.782221 0.133272 0.061795
O O11 0.852814 0.221302 0.100626
O O12 0.017707 0.500000 0.639929
O O13 0.819444 0.555469 0.816403
O O14 0.672639 0.000000 0.830949
O O15 0.708302 0.059987 0.972425
O O16 0.000000 0.940923 0.000000
#
# Coordination Sequence:
#
# PCOD9179620 Si02
#       8
#     8   8   8   8   8   4   4   8
#     4   9  18  31  49  74 103 147 204 245 278 310
#     4  10  22  38  55  80 113 146 199 238 277 320
#     4  10  21  37  58  89 110 143 173 224 274 357
#     4  10  20  32  49  77 114 153 195 238 274 325
#     4  10  19  31  50  77 115 163 199 227 266 322
#     4  10  20  38  64  86 118 138 170 208 294 358
#     4  10  21  38  56  72 104 152 192 248 286 314
#     4  11  19  31  52  81 118 149 184 222 279 337
#
# _framework density 20.711020999999999
#
# number of rings (size 3 to 8) (size 9 to 14) (size 15 to 20)
#    0.000    2.000    2.143    1.929    0.000    4.571 
#    0.000    5.000    0.000    0.857    0.000    0.000 
#    0.000    0.000    0.000    0.000    0.000    0.000 
#
# Total GULP energy -156306.772128 kJ/mol
# GULP energy per Si atom -5582.384719 kJ/mol
# Density = 2.066388 g / cm^3
# Si number density = 20.711021 Si / 1000 Ang^3
#
#
#
# Elastic Constant Matrix: (Units=GPa)
#
#
# Indices 1 2 3 4 5 6 
#
# 1 64.8236 2.3934 16.0139 0.0000 -10.7146 0.0000
# 2 2.3934 52.7847 4.5064 0.0000 -5.0751 0.0000
# 3 16.0139 4.5064 86.3233 0.0000 -21.1689 0.0000
# 4 0.0000 0.0000 0.0000 0.5856 0.0000 4.5221
# 5 -10.7146 -5.0751 -21.1689 0.0000 44.4800 0.0000
# 6 0.0000 0.0000 0.0000 4.5221 0.0000 10.9826
#
#
#
# Elastic Compliance Matrix: (Units=1/GPa)
#
#
# Indices 1 2 3 4 5 6 
#
# 1 0.016484 -0.000275 -0.002352 0.000000 0.002820 0.000000
# 2 -0.000275 0.019181 -0.000487 0.000000 0.001891 0.000000
# 3 -0.002352 -0.000487 0.013465 0.000000 0.005786 0.000000
# 4 0.000000 0.000000 0.000000 -0.783454 0.000000 0.322593
# 5 0.002820 0.001891 0.005786 0.000000 0.026131 0.000000
# 6 0.000000 0.000000 0.000000 0.322593 0.000000 -0.041776
#
#
# Mechanical properties :
#
#
# Convention : Reuss Voigt Hill
#
# Bulk Modulus (GPa) = 23.30930 27.75098 25.53014
# Shear Modulus (GPa) = -6.85456 23.27750 8.21147
#
# Velocity S-wave (km/s) = -1.82121 3.35613 1.99334
# Velocity P-wave (km/s) = 2.61850 5.33351 4.20136
#
# Compressibility (1/GPa) = 0.04290133
#
# Stress axis : x y z
#
# Youngs Moduli (GPa) = 60.66565 52.13579 74.26653
#
# Poissons Ratio (x) = 0.01436 0.17468
# Poissons Ratio (y) = 0.01671 0.03614
# Poissons Ratio (z) = 0.14269 0.02537
#
# Static dielectric constant tensor:
#      x y z
#    x 1.746740 0.000000 -0.037020 
#    y 0.000000 1.711550 0.000000 
#    z -0.037020 0.000000 1.806140 
# 
# From -- ./inp_files/199726.got.cif
#   From: 2010.05.17/outbox.cif.g08.bks.cpg/sg12_100_cif.got.tgz:199726.got - 2010.06.03 13:09:07.
