data_PCOD9179334
_publ_section_title
;
Structure prediction by ZEFSAII (Michael W. Deem and Ramdas Pophale) SiO2 
 PCOD9179334
Probable space group: C 2/M
;
_chemical_formula_sum "Si O2"
_cell_formula_units_Z 40
_cell_length_a 26.252189
_cell_length_b 8.819169
_cell_length_c 30.525424
_cell_angle_alpha 90.000000
_cell_angle_beta 160.440440
_cell_angle_gamma 90.000000
_cell_volume 2366.044575
_symmetry_space_group_name_H-M "C 2/M"
_symmetry_group_IT_number 12
_symmetry_cell_setting 'monoclinic'
loop_
_space_group_symop_operation_xyz
x,y,z
-x,y,-z
-x,-y,-z
x,-y,z
1/2+x,1/2+y,z
1/2-x,1/2+y,-z
1/2-x,1/2-y,-z
1/2+x,1/2-y,z
loop_
_atom_site_type_symbol
_atom_site_label
_atom_site_fract_x
_atom_site_fract_y
_atom_site_fract_z
Si Si1 0.065990 0.181497 0.202220
Si Si2 0.323866 0.683009 0.351644
Si Si3 0.823877 0.682571 0.860106
Si Si4 0.739949 0.318192 0.099669
Si Si5 0.099548 0.318009 0.855213
O O1 0.215941 0.243109 0.300494
O O2 0.036743 0.250343 0.226662
O O3 0.066727 0.000000 0.205562
O O4 0.920352 0.226133 0.053652
O O5 0.500000 0.723654 0.500000
O O6 0.310302 0.500000 0.343939
O O7 0.262696 0.729111 0.254151
O O8 0.823229 0.500000 0.861469
O O9 0.752255 0.744830 0.846594
O O10 0.000000 0.733250 0.000000
O O11 0.737676 0.500000 0.102134
O O12 0.875275 0.278355 0.175412
O O13 0.100811 0.500000 0.859975
O O14 0.250000 0.250000 0.000000
#
# Coordination Sequence:
#
# PCOD9179334 Si02
#       5
#     8   8   8   8   8
#     4  10  19  31  49  74 102 133 169 207 251 296
#     4  10  21  36  52  72 101 136 169 205 252 301
#     4  10  19  31  50  75  99 129 168 206 247 294
#     4   9  18  30  47  74 103 131 161 202 252 295
#     4   9  17  29  46  72 103 133 166 204 252 300
#
# _framework density 16.905853
#
# number of rings (size 3 to 8) (size 9 to 14) (size 15 to 20)
#    0.000    2.400    2.000    2.400    0.000    5.600 
#    0.000    0.000    0.000    1.200    0.000    0.000 
#    0.000    0.000    0.000    0.000    0.000    0.000 
#
# Total GULP energy -111480.145149 kJ/mol
# GULP energy per Si atom -5574.007257 kJ/mol
# Density = 1.686737 g / cm^3
# Si number density = 16.905853 Si / 1000 Ang^3
#
#
#
# Elastic Constant Matrix: (Units=GPa)
#
#
# Indices 1 2 3 4 5 6 
#
# 1 189.7964 48.9704 72.6196 -0.0010 28.7021 -0.0002
# 2 48.9704 29.5888 30.9658 -0.0006 10.4394 -0.0002
# 3 72.6196 30.9658 87.9929 -0.0010 10.2228 -0.0006
# 4 -0.0010 -0.0006 -0.0010 12.3472 -0.0005 6.5436
# 5 28.7021 10.4394 10.2228 -0.0005 23.5708 0.0001
# 6 -0.0002 -0.0002 -0.0006 6.5436 0.0001 35.9316
#
#
#
# Elastic Compliance Matrix: (Units=1/GPa)
#
#
# Indices 1 2 3 4 5 6 
#
# 1 0.010678 -0.011076 -0.004184 0.000000 -0.006282 0.000000
# 2 -0.011076 0.071730 -0.014719 0.000001 -0.011897 0.000000
# 3 -0.004184 -0.014719 0.019638 0.000001 0.003097 0.000000
# 4 0.000000 0.000001 0.000001 0.089642 0.000002 -0.016325
# 5 -0.006282 -0.011897 0.003097 0.000002 0.054000 0.000000
# 6 0.000000 0.000000 0.000000 -0.016325 0.000000 0.030804
#
#
# Mechanical properties :
#
#
# Convention : Reuss Voigt Hill
#
# Bulk Modulus (GPa) = 23.76110 68.05441 45.90775
# Shear Modulus (GPa) = 14.26613 24.69142 19.47878
#
# Velocity S-wave (km/s) = 2.90807 3.82583 3.39808
# Velocity P-wave (km/s) = 5.03600 7.73681 6.52762
#
# Compressibility (1/GPa) = 0.04208559
#
# Stress axis : x y z
#
# Youngs Moduli (GPa) = 93.65314 13.94111 50.92173
#
# Poissons Ratio (x) = 0.15442 0.21308
# Poissons Ratio (y) = 1.03735 0.74953
# Poissons Ratio (z) = 0.39189 0.20520
#
# Static dielectric constant tensor:
#      x y z
#    x 1.588970 0.000000 0.014010 
#    y 0.000000 1.566830 0.000000 
#    z 0.014010 0.000000 1.561540 
# 
# From -- ./inp_files/93018.got.cif
#   From: 2010.05.17/outbox.cif.g08.bks.cpg/sg12_47_cif.got.tgz:93018.got - 2010.06.03 13:09:07.
