data_PCOD9179984
_publ_section_title
;
Structure prediction by ZEFSAII (Michael W. Deem and Ramdas Pophale) SiO2 
 PCOD9179984
Probable space group: C 2/M
;
_chemical_formula_sum "Si O2"
_cell_formula_units_Z 56
_cell_length_a 29.073191
_cell_length_b 15.660123
_cell_length_c 11.728363
_cell_angle_alpha 90.000000
_cell_angle_beta 31.147417
_cell_angle_gamma 90.000000
_cell_volume 2761.969448
_symmetry_space_group_name_H-M "C 2/M"
_symmetry_group_IT_number 12
_symmetry_cell_setting 'monoclinic'
loop_
_space_group_symop_operation_xyz
x,y,z
-x,y,-z
-x,-y,-z
x,-y,z
1/2+x,1/2+y,z
1/2-x,1/2+y,-z
1/2-x,1/2-y,-z
1/2+x,1/2-y,z
loop_
_atom_site_type_symbol
_atom_site_label
_atom_site_fract_x
_atom_site_fract_y
_atom_site_fract_z
Si Si1 0.168074 0.090655 0.778936
Si Si2 0.610794 0.753168 0.140076
Si Si3 0.995039 0.862917 0.260995
Si Si4 0.159939 0.400368 0.195515
Si Si5 0.090924 0.789056 0.757694
Si Si6 0.705114 0.181484 0.339175
Si Si7 0.870224 0.094241 0.733119
O O1 0.149822 0.169448 0.732449
O O2 0.253859 0.105001 0.674054
O O3 0.171062 0.000000 0.711377
O O4 0.087206 0.090834 0.040471
O O5 0.531130 0.731683 0.221914
O O6 0.608206 0.841133 0.214850
O O7 0.604870 0.673444 0.240222
O O8 0.708755 0.740072 0.876579
O O9 0.946225 0.864107 0.243849
O O10 0.928952 0.897048 0.495847
O O11 0.132589 0.500000 0.259499
O O12 0.161504 0.353462 0.315573
O O13 0.264521 0.399266 0.937037
O O14 0.143051 0.731292 0.558101
O O15 0.000000 0.748401 0.000000
O O16 0.886570 0.000000 0.749274
#
# Coordination Sequence:
#
# PCOD9179984 Si02
#       7
#     8   8   8   8   8   8   8
#     4  10  21  35  54  82 110 139 177 221 272 328
#     4  10  20  33  52  81 115 148 180 216 264 329
#     4  10  20  32  52  80 115 146 170 213 268 325
#     4  10  20  35  57  82 110 147 186 223 266 321
#     4  10  21  36  55  77 101 138 183 228 274 317
#     4  10  19  36  57  78 107 143 182 223 272 325
#     4  10  19  31  52  83 113 141 174 214 267 331
#
# _framework density 20.275386999999998
#
# number of rings (size 3 to 8) (size 9 to 14) (size 15 to 20)
#    0.000    2.000    0.000    5.143    0.000    7.714 
#    0.000    0.714    0.000    9.429    0.000    0.000 
#    0.000    0.000    0.000    0.000    0.000    0.000 
#
# Total GULP energy -156176.144541 kJ/mol
# GULP energy per Si atom -5577.719448 kJ/mol
# Density = 2.022924 g / cm^3
# Si number density = 20.275387 Si / 1000 Ang^3
#
#
#
# Elastic Constant Matrix: (Units=GPa)
#
#
# Indices 1 2 3 4 5 6 
#
# 1 74.1150 26.6445 4.8948 0.0000 13.4661 0.0000
# 2 26.6445 90.6067 32.6222 0.0000 10.7011 0.0000
# 3 4.8948 32.6222 98.3315 0.0000 25.1694 0.0000
# 4 0.0000 0.0000 0.0000 8.6822 0.0000 9.2505
# 5 13.4661 10.7011 25.1694 0.0000 21.1900 0.0000
# 6 0.0000 0.0000 0.0000 9.2505 0.0000 10.8133
#
#
#
# Elastic Compliance Matrix: (Units=1/GPa)
#
#
# Indices 1 2 3 4 5 6 
#
# 1 0.017528 -0.005093 0.004325 0.000000 -0.013704 0.000000
# 2 -0.005093 0.014073 -0.004921 0.000000 0.001974 0.000000
# 3 0.004325 -0.004921 0.016745 0.000000 -0.020154 0.000000
# 4 0.000000 0.000000 0.000000 1.300872 0.000000 -1.112858
# 5 -0.013704 0.001974 -0.020154 0.000000 0.078842 0.000000
# 6 0.000000 0.000000 0.000000 -1.112858 0.000000 1.044497
#
#
# Mechanical properties :
#
#
# Convention : Reuss Voigt Hill
#
# Bulk Modulus (GPa) = 27.05009 43.48623 35.26816
# Shear Modulus (GPa) = 2.00300 21.39656 11.69978
#
# Velocity S-wave (km/s) = 0.99501 3.25206 2.40478
# Velocity P-wave (km/s) = 3.83280 5.96620 5.01427
#
# Compressibility (1/GPa) = 0.03696845
#
# Stress axis : x y z
#
# Youngs Moduli (GPa) = 57.05258 71.05888 59.71762
#
# Poissons Ratio (x) = 0.36190 -0.25827
# Poissons Ratio (y) = 0.29057 0.29385
# Poissons Ratio (z) = -0.24674 0.34965
#
# Static dielectric constant tensor:
#      x y z
#    x 1.760340 0.000000 -0.020790 
#    y 0.000000 1.758560 0.000000 
#    z -0.020790 0.000000 1.740320 
# 
# From -- ./inp_files/189584.got.cif
#   From: 2010.05.17/outbox.cif.g08.bks.cpg/sg12_95_cif.got.tgz:189584.got - 2010.06.03 13:09:07.
