data_PCOD9179881
_publ_section_title
;
Structure prediction by ZEFSAII (Michael W. Deem and Ramdas Pophale) SiO2 
 PCOD9179881
Probable space group: C 2/M
;
_chemical_formula_sum "Si O2"
_cell_formula_units_Z 56
_cell_length_a 22.350183
_cell_length_b 19.618465
_cell_length_c 16.488648
_cell_angle_alpha 90.000000
_cell_angle_beta 23.455639
_cell_angle_gamma 90.000000
_cell_volume 2877.774058
_symmetry_space_group_name_H-M "C 2/M"
_symmetry_group_IT_number 12
_symmetry_cell_setting 'monoclinic'
loop_
_space_group_symop_operation_xyz
x,y,z
-x,y,-z
-x,-y,-z
x,-y,z
1/2+x,1/2+y,z
1/2-x,1/2+y,-z
1/2-x,1/2-y,-z
1/2+x,1/2-y,z
loop_
_atom_site_type_symbol
_atom_site_label
_atom_site_fract_x
_atom_site_fract_y
_atom_site_fract_z
Si Si1 0.020819 0.081036 0.565448
Si Si2 0.432712 0.680637 0.261294
Si Si3 0.285682 0.233462 0.591215
Si Si4 0.156587 0.918672 0.055257
Si Si5 0.408344 0.187368 0.737903
Si Si6 0.339679 0.861008 0.166765
Si Si7 0.320157 0.209814 0.034777
O O1 0.191919 0.097891 0.377370
O O2 0.000000 0.108668 0.500000
O O3 0.899894 0.103310 0.783501
O O4 0.004109 0.000000 0.582493
O O5 0.358614 0.714248 0.434044
O O6 0.310800 0.681100 0.342068
O O7 0.519707 0.611121 0.171867
O O8 0.560474 0.735257 0.080636
O O9 0.412674 0.195102 0.485540
O O10 0.187656 0.284332 0.766885
O O11 0.170340 0.000000 0.034627
O O12 0.310377 0.879771 0.839633
O O13 0.337074 0.250449 0.777226
O O14 0.370556 0.196421 0.880296
O O15 0.333622 0.854342 0.076907
O O16 0.500000 0.886034 0.000000
#
# Coordination Sequence:
#
# PCOD9179881 Si02
#       7
#     8   8   8   8   8   8   8
#     4  10  22  36  50  72 109 150 184 213 247 304
#     4   9  17  34  50  73 104 137 169 220 265 316
#     4  10  19  31  52  77 107 132 166 222 282 296
#     4  10  19  35  55  74 100 144 185 211 254 318
#     4   9  19  33  51  76 102 138 167 230 260 305
#     4  12  22  32  51  82 107 144 175 218 256 325
#     4   9  18  31  50  74 108 133 174 210 272 305
#
# _framework density 19.459485000000001
#
# number of rings (size 3 to 8) (size 9 to 14) (size 15 to 20)
#    0.000    2.143    2.857    1.714    2.000    0.286 
#    0.000    0.714    0.000    0.000    0.000   16.000 
#    0.000    0.000    0.000    0.000    0.000    0.000 
#
# Total GULP energy -156028.816715 kJ/mol
# GULP energy per Si atom -5572.457740 kJ/mol
# Density = 1.941519 g / cm^3
# Si number density = 19.459485 Si / 1000 Ang^3
#
#
#
# Elastic Constant Matrix: (Units=GPa)
#
#
# Indices 1 2 3 4 5 6 
#
# 1 39.9853 -12.4718 9.7888 -0.0009 -20.4824 0.0011
# 2 -12.4718 33.3371 -3.7995 -0.0031 -9.1297 0.0020
# 3 9.7888 -3.7995 47.1679 -0.0056 -24.0782 0.0034
# 4 -0.0009 -0.0031 -0.0056 22.4490 0.0011 -2.0466
# 5 -20.4824 -9.1297 -24.0782 0.0011 38.3304 -0.0004
# 6 0.0011 0.0020 0.0034 -2.0466 -0.0004 18.6078
#
#
#
# Elastic Compliance Matrix: (Units=1/GPa)
#
#
# Indices 1 2 3 4 5 6 
#
# 1 0.058943 0.038011 0.016972 0.000009 0.051212 -0.000009
# 2 0.038011 0.059816 0.021450 0.000012 0.048033 -0.000010
# 3 0.016972 0.021450 0.039221 0.000011 0.038816 -0.000008
# 4 0.000009 0.000012 0.000011 0.044997 0.000013 0.004949
# 5 0.051212 0.048033 0.038816 0.000013 0.089278 -0.000012
# 6 -0.000009 -0.000010 -0.000008 0.004949 -0.000012 0.054285
#
#
# Mechanical properties :
#
#
# Convention : Reuss Voigt Hill
#
# Bulk Modulus (GPa) = 3.21705 11.94726 7.58216
# Shear Modulus (GPa) = 16.81854 24.34229 20.58042
#
# Velocity S-wave (km/s) = 2.94306 3.54067 3.25561
# Velocity P-wave (km/s) = 3.63395 4.78205 4.24698
#
# Compressibility (1/GPa) = 0.31084368
#
# Stress axis : x y z
#
# Youngs Moduli (GPa) = 16.96546 16.71804 25.49653
#
# Poissons Ratio (x) = -0.63546 -0.43272
# Poissons Ratio (y) = -0.64487 -0.54689
# Poissons Ratio (z) = -0.28793 -0.35859
#
# Static dielectric constant tensor:
#      x y z
#    x 1.753550 0.000000 0.019440 
#    y 0.000000 1.662760 0.000000 
#    z 0.019440 0.000000 1.742860 
# 
# From -- ./inp_files/290804.got.cif
#   From: 2010.05.17/outbox.cif.g08.bks.cpg/sg12_146_cif.got.tgz:290804.got - 2010.06.03 13:09:07.
