data_PCOD9179916
_publ_section_title
;
Structure prediction by ZEFSAII (Michael W. Deem and Ramdas Pophale) SiO2 
 PCOD9179916
Probable space group: C 2/M
;
_chemical_formula_sum "Si O2"
_cell_formula_units_Z 64
_cell_length_a 26.816171
_cell_length_b 7.436092
_cell_length_c 14.430435
_cell_angle_alpha 90.000000
_cell_angle_beta 95.406639
_cell_angle_gamma 90.000000
_cell_volume 2864.735169
_symmetry_space_group_name_H-M "C 2/M"
_symmetry_group_IT_number 12
_symmetry_cell_setting 'monoclinic'
loop_
_space_group_symop_operation_xyz
x,y,z
-x,y,-z
-x,-y,-z
x,-y,z
1/2+x,1/2+y,z
1/2-x,1/2+y,-z
1/2-x,1/2-y,-z
1/2+x,1/2-y,z
loop_
_atom_site_type_symbol
_atom_site_label
_atom_site_fract_x
_atom_site_fract_y
_atom_site_fract_z
Si Si1 0.298962 0.220420 0.773491
Si Si2 0.398395 0.218287 0.901255
Si Si3 0.302076 0.214554 0.561983
Si Si4 0.976563 0.720194 0.398768
Si Si5 0.190862 0.792681 0.795067
Si Si6 0.594151 0.707808 0.882278
Si Si7 0.637427 0.218219 0.599423
Si Si8 0.486868 0.793760 0.786980
O O1 0.347509 0.271564 0.840443
O O2 0.302406 0.282610 0.667168
O O3 0.246729 0.283640 0.809394
O O4 0.297170 0.000000 0.771456
O O5 0.446023 0.283293 0.849846
O O6 0.399787 0.000000 0.906231
O O7 0.400739 0.282678 0.006758
O O8 0.250000 0.250000 0.500000
O O9 0.345171 0.278570 0.499224
O O10 0.307949 0.000000 0.570162
O O11 0.976893 0.500000 0.396461
O O12 0.918593 0.774734 0.384993
O O13 0.006591 0.785277 0.314270
O O14 0.000000 0.775405 0.500000
O O15 0.144001 0.712749 0.843029
O O16 0.175123 0.785739 0.684547
O O17 0.194393 0.000000 0.826591
O O18 0.590339 0.500000 0.851843
O O19 0.542092 0.793708 0.841249
O O20 0.639143 0.000000 0.601846
O O21 0.470618 0.000000 0.769815
#
# Coordination Sequence:
#
# PCOD9179916 Si02
#       8
#     8   8   8   8   8   8   8   8
#     4   9  19  36  55  79 112 145 178 221 269 321
#     4  10  22  38  58  81 106 140 183 227 274 323
#     4  10  19  31  52  79 108 142 178 212 256 314
#     4   9  18  31  51  82 115 140 169 218 271 312
#     4  10  20  36  57  78 107 147 183 217 270 330
#     4  11  23  38  58  81 106 140 183 227 276 329
#     4  10  19  31  52  82 110 140 181 224 264 311
#     4  10  20  36  59  84 109 141 181 221 267 325
#
# _framework density 22.340633
#
# number of rings (size 3 to 8) (size 9 to 14) (size 15 to 20)
#    0.000    2.125    2.500    0.750    1.750    3.000 
#    0.000    1.250    0.000    1.500    0.000    0.000 
#    0.000    0.000    0.000    0.000    0.000    0.000 
#
# Total GULP energy -178805.158108 kJ/mol
# GULP energy per Si atom -5587.661191 kJ/mol
# Density = 2.228978 g / cm^3
# Si number density = 22.340633 Si / 1000 Ang^3
#
#
#
# Elastic Constant Matrix: (Units=GPa)
#
#
# Indices 1 2 3 4 5 6 
#
# 1 132.8581 -2.2319 64.7651 0.0000 -27.1752 0.0000
# 2 -2.2319 71.5586 -10.3384 0.0000 -5.2182 0.0000
# 3 64.7651 -10.3384 131.8709 0.0000 -5.4463 0.0000
# 4 0.0000 0.0000 0.0000 2.9958 0.0000 4.8609
# 5 -27.1752 -5.2182 -5.4463 0.0000 35.4311 0.0000
# 6 0.0000 0.0000 0.0000 4.8609 0.0000 7.0646
#
#
#
# Elastic Compliance Matrix: (Units=1/GPa)
#
#
# Indices 1 2 3 4 5 6 
#
# 1 0.011907 0.000185 -0.005490 0.000000 0.008316 0.000000
# 2 0.000185 0.014321 0.001132 0.000000 0.002425 0.000000
# 3 -0.005490 0.001132 0.010266 0.000000 -0.002466 0.000000
# 4 0.000000 0.000000 0.000000 -2.866038 0.000000 1.972043
# 5 0.008316 0.002425 -0.002466 0.000000 0.034580 0.000000
# 6 0.000000 0.000000 0.000000 1.972043 0.000000 -1.215357
#
#
# Mechanical properties :
#
#
# Convention : Reuss Voigt Hill
#
# Bulk Modulus (GPa) = 35.52666 48.96413 42.24540
# Shear Modulus (GPa) = -1.25232 28.03782 13.39275
#
# Velocity S-wave (km/s) = -0.74952 3.54646 2.45108
# Velocity P-wave (km/s) = 3.89715 6.22371 5.19241
#
# Compressibility (1/GPa) = 0.02814787
#
# Stress axis : x y z
#
# Youngs Moduli (GPa) = 83.98346 69.82891 97.40568
#
# Poissons Ratio (x) = -0.01289 0.53475
# Poissons Ratio (y) = -0.01551 -0.11028
# Poissons Ratio (z) = 0.46107 -0.07906
#
# Static dielectric constant tensor:
#      x y z
#    x 1.804830 0.000000 -0.034660 
#    y 0.000000 1.819840 0.000000 
#    z -0.034660 0.000000 1.778530 
# 
# From -- ./inp_files/187493.got.cif
#   From: 2010.05.17/outbox.cif.g08.bks.cpg/sg12_94_cif.got.tgz:187493.got - 2010.06.03 13:09:07.
