data_PCOD9179757
_publ_section_title
;
Structure prediction by ZEFSAII (Michael W. Deem and Ramdas Pophale) SiO2 
 PCOD9179757
Probable space group: C 2/M
;
_chemical_formula_sum "Si O2"
_cell_formula_units_Z 56
_cell_length_a 10.195008
_cell_length_b 19.066139
_cell_length_c 21.865571
_cell_angle_alpha 90.000000
_cell_angle_beta 54.287670
_cell_angle_gamma 90.000000
_cell_volume 3450.997756
_symmetry_space_group_name_H-M "C 2/M"
_symmetry_group_IT_number 12
_symmetry_cell_setting 'monoclinic'
loop_
_space_group_symop_operation_xyz
x,y,z
-x,y,-z
-x,-y,-z
x,-y,z
1/2+x,1/2+y,z
1/2-x,1/2+y,-z
1/2-x,1/2-y,-z
1/2+x,1/2-y,z
loop_
_atom_site_type_symbol
_atom_site_label
_atom_site_fract_x
_atom_site_fract_y
_atom_site_fract_z
Si Si1 0.464186 0.084055 0.308913
Si Si2 0.185535 0.835032 0.450748
Si Si3 0.276142 0.583944 0.307339
Si Si4 0.160236 0.818384 0.999253
Si Si5 0.312550 0.830891 0.553124
Si Si6 0.331298 0.079966 0.860902
Si Si7 0.510847 0.579582 0.863090
O O1 0.304169 0.122482 0.374526
O O2 0.611480 0.102273 0.315126
O O3 0.523913 0.101093 0.223990
O O4 0.445164 0.000000 0.316765
O O5 0.243117 0.842732 0.504813
O O6 0.194008 0.752384 0.431992
O O7 0.000000 0.857758 0.500000
O O8 0.273973 0.500000 0.317897
O O9 0.276357 0.625986 0.370047
O O10 0.426019 0.599234 0.221432
O O11 0.284018 0.865304 0.925673
O O12 0.250000 0.750000 0.000000
O O13 0.102119 0.865534 0.072268
O O14 0.000000 0.804703 0.000000
O O15 0.500000 0.852441 0.500000
O O16 0.173681 0.076574 0.859877
O O17 0.357606 0.000000 0.876341
O O18 0.444494 0.500000 0.880315
#
# Coordination Sequence:
#
# PCOD9179757 Si02
#       7
#     8   8   8   8   8   8   8
#     4   9  17  31  51  74  98 124 162 208 248 286
#     4  10  21  33  47  70 101 134 161 196 246 297
#     4   9  17  30  52  77  95 120 165 214 247 276
#     4  10  19  31  51  78 105 130 160 198 240 288
#     4  10  19  33  50  69  96 129 168 200 239 295
#     4   8  15  29  51  75  96 126 167 205 239 281
#     4   8  15  29  50  76 100 123 161 209 245 276
#
# _framework density 16.22719
#
# number of rings (size 3 to 8) (size 9 to 14) (size 15 to 20)
#    0.000    2.857    1.429    2.143    0.000    4.000 
#    0.000    0.000    3.143    1.714    0.000    0.000 
#    0.000    0.000    0.000    0.000    0.000    0.000 
#
# Total GULP energy -155957.601187 kJ/mol
# GULP energy per Si atom -5569.914328 kJ/mol
# Density = 1.619026 g / cm^3
# Si number density = 16.227190 Si / 1000 Ang^3
#
#
#
# Elastic Constant Matrix: (Units=GPa)
#
#
# Indices 1 2 3 4 5 6 
#
# 1 25.2923 25.0769 28.1471 0.0001 -7.7502 0.0000
# 2 25.0769 75.5945 89.4081 0.0001 1.4285 0.0000
# 3 28.1471 89.4081 157.5912 0.0003 -1.9040 -0.0001
# 4 0.0001 0.0001 0.0003 -41.5301 -0.0003 2.5613
# 5 -7.7502 1.4285 -1.9040 -0.0003 20.7773 0.0001
# 6 0.0000 0.0000 -0.0001 2.5613 0.0001 14.2220
#
#
#
# Elastic Compliance Matrix: (Units=1/GPa)
#
#
# Indices 1 2 3 4 5 6 
#
# 1 0.073824 -0.030062 0.004232 0.000000 0.029992 0.000000
# 2 -0.030062 0.052948 -0.024877 0.000000 -0.017133 0.000000
# 3 0.004232 -0.024877 0.019765 0.000000 0.005100 0.000000
# 4 0.000000 0.000000 0.000000 -0.023814 0.000000 0.004289
# 5 0.029992 -0.017133 0.005100 0.000000 0.060962 0.000000
# 6 0.000000 0.000000 0.000000 0.004289 0.000000 0.069541
#
#
# Mechanical properties :
#
#
# Convention : Reuss Voigt Hill
#
# Bulk Modulus (GPa) = 22.16161 60.41581 41.28871
# Shear Modulus (GPa) = 13.52522 6.41692 9.97107
#
# Velocity S-wave (km/s) = 2.89016 1.99073 2.48153
# Velocity P-wave (km/s) = 4.98238 6.52657 5.80604
#
# Compressibility (1/GPa) = 0.04512308
#
# Stress axis : x y z
#
# Youngs Moduli (GPa) = 13.54574 18.88663 50.59427
#
# Poissons Ratio (x) = 0.56776 -0.21412
# Poissons Ratio (y) = 0.40721 1.25864
# Poissons Ratio (z) = -0.05733 0.46984
#
# Static dielectric constant tensor:
#      x y z
#    x 1.533060 0.000000 0.001910 
#    y 0.000000 1.536910 0.000000 
#    z 0.001910 0.000000 1.549880 
# 
# From -- ./inp_files/301641.got.cif
#   From: 2010.05.17/outbox.cif.g08.bks.cpg/sg12_151_cif.got.tgz:301641.got - 2010.06.03 13:09:07.
