data_PCOD9179525
_publ_section_title
;
Structure prediction by ZEFSAII (Michael W. Deem and Ramdas Pophale) SiO2 
 PCOD9179525
Probable space group: C 2/M
;
_chemical_formula_sum "Si O2"
_cell_formula_units_Z 40
_cell_length_a 24.798576
_cell_length_b 7.288801
_cell_length_c 8.321561
_cell_angle_alpha 90.000000
_cell_angle_beta 81.086008
_cell_angle_gamma 90.000000
_cell_volume 1485.970947
_symmetry_space_group_name_H-M "C 2/M"
_symmetry_group_IT_number 12
_symmetry_cell_setting 'monoclinic'
loop_
_space_group_symop_operation_xyz
x,y,z
-x,y,-z
-x,-y,-z
x,-y,z
1/2+x,1/2+y,z
1/2-x,1/2+y,-z
1/2-x,1/2-y,-z
1/2+x,1/2-y,z
loop_
_atom_site_type_symbol
_atom_site_label
_atom_site_fract_x
_atom_site_fract_y
_atom_site_fract_z
Si Si1 0.931185 0.210997 0.168518
Si Si2 0.669581 0.778926 0.593122
Si Si3 0.471419 0.276428 0.675658
Si Si4 0.734613 0.290075 0.238695
Si Si5 0.865553 0.775877 0.893746
O O1 0.891433 0.217142 0.341521
O O2 0.989445 0.284926 0.195931
O O3 0.940600 0.000000 0.117954
O O4 0.894575 0.290379 0.042742
O O5 0.696103 0.712182 0.415977
O O6 0.708994 0.709622 0.720447
O O7 0.671358 0.000000 0.589759
O O8 0.500000 0.213541 0.500000
O O9 0.472605 0.500000 0.674373
O O10 0.409337 0.223185 0.736425
O O11 0.745864 0.500000 0.192557
O O12 0.695168 0.210462 0.120248
O O13 0.862333 0.000000 0.898653
#
# Coordination Sequence:
#
# PCOD9179525 Si02
#       5
#     8   8   8   8   8
#     4  10  19  31  50  75 102 131 161 197 244 294
#     4  10  20  33  50  73 100 130 165 203 242 288
#     4   9  16  27  48  76 100 124 160 205 245 282
#     4   9  18  34  54  73  95 127 167 207 244 284
#     4   9  17  30  50  76 101 125 161 207 247 285
#
# _framework density 26.918426
#
# number of rings (size 3 to 8) (size 9 to 14) (size 15 to 20)
#    0.000    2.600    0.000    2.400    0.000    7.200 
#    0.000    1.000    0.000    7.800    0.000    0.000 
#    0.000    0.000    0.000    0.000    0.000    0.000 
#
# Total GULP energy -111925.216375 kJ/mol
# GULP energy per Si atom -5596.260819 kJ/mol
# Density = 2.685716 g / cm^3
# Si number density = 26.918426 Si / 1000 Ang^3
#
#
#
# Elastic Constant Matrix: (Units=GPa)
#
#
# Indices 1 2 3 4 5 6 
#
# 1 160.7333 4.4415 17.2990 0.0000 14.9149 0.0000
# 2 4.4415 137.5740 6.2767 0.0000 4.0017 0.0000
# 3 17.2990 6.2767 87.0758 0.0000 9.3187 0.0000
# 4 0.0000 0.0000 0.0000 0.0900 0.0000 -6.6772
# 5 14.9149 4.0017 9.3187 0.0000 59.7943 0.0000
# 6 0.0000 0.0000 0.0000 -6.6772 0.0000 -4.7281
#
#
#
# Elastic Compliance Matrix: (Units=1/GPa)
#
#
# Indices 1 2 3 4 5 6 
#
# 1 0.006479 -0.000116 -0.001125 0.000000 -0.001433 0.000000
# 2 -0.000116 0.007305 -0.000462 0.000000 -0.000388 0.000000
# 3 -0.001125 -0.000462 0.011906 0.000000 -0.001544 0.000000
# 4 0.000000 0.000000 0.000000 0.105045 0.000000 -0.148348
# 5 -0.001433 -0.000388 -0.001544 0.000000 0.017348 0.000000
# 6 0.000000 0.000000 0.000000 -0.148348 0.000000 -0.001999
#
#
# Mechanical properties :
#
#
# Convention : Reuss Voigt Hill
#
# Bulk Modulus (GPa) = 44.87721 49.04641 46.96181
# Shear Modulus (GPa) = 31.86362 34.85562 33.35962
#
# Velocity S-wave (km/s) = 3.44424 3.60232 3.52417
# Velocity P-wave (km/s) = 5.70305 5.96341 5.83468
#
# Compressibility (1/GPa) = 0.02228302
#
# Stress axis : x y z
#
# Youngs Moduli (GPa) = 154.35007 136.89398 83.98879
#
# Poissons Ratio (x) = 0.01590 0.09452
# Poissons Ratio (y) = 0.01793 0.03880
# Poissons Ratio (z) = 0.17371 0.06324
#
# Static dielectric constant tensor:
#      x y z
#    x 2.016700 0.000000 0.036380 
#    y 0.000000 2.014990 0.000000 
#    z 0.036380 0.000000 2.156230 
# 
# From -- ./inp_files/92739.got.cif
#   From: 2010.05.17/outbox.cif.g08.bks.cpg/sg12_47_cif.got.tgz:92739.got - 2010.06.03 13:09:07.
