data_PCOD9179212
_publ_section_title
;
Structure prediction by ZEFSAII (Michael W. Deem and Ramdas Pophale) SiO2 
 PCOD9179212
Probable space group: C 2/M
;
_chemical_formula_sum "Si O2"
_cell_formula_units_Z 56
_cell_length_a 19.246045
_cell_length_b 9.516278
_cell_length_c 30.823466
_cell_angle_alpha 90.000000
_cell_angle_beta 151.168838
_cell_angle_gamma 90.000000
_cell_volume 2722.353398
_symmetry_space_group_name_H-M "C 2/M"
_symmetry_group_IT_number 12
_symmetry_cell_setting 'monoclinic'
loop_
_space_group_symop_operation_xyz
x,y,z
-x,y,-z
-x,-y,-z
x,-y,z
1/2+x,1/2+y,z
1/2-x,1/2+y,-z
1/2-x,1/2-y,-z
1/2+x,1/2-y,z
loop_
_atom_site_type_symbol
_atom_site_label
_atom_site_fract_x
_atom_site_fract_y
_atom_site_fract_z
Si Si1 0.271104 0.159212 0.941362
Si Si2 0.875301 0.834661 0.661760
Si Si3 0.402688 0.668074 0.583761
Si Si4 0.921573 0.830911 0.500736
Si Si5 0.977137 0.837956 0.814623
Si Si6 0.330177 0.340163 0.893353
Si Si7 0.394344 0.161047 0.846810
O O1 0.149598 0.182206 0.911091
O O2 0.256404 0.267385 0.894039
O O3 0.246664 0.000000 0.911042
O O4 0.434536 0.162915 0.047682
O O5 0.962994 0.804748 0.665177
O O6 0.735870 0.736689 0.585521
O O7 0.947322 0.815448 0.747599
O O8 0.833717 0.000000 0.636829
O O9 0.377394 0.500000 0.567304
O O10 0.250000 0.750000 0.500000
O O11 0.483188 0.705240 0.582727
O O12 0.000000 0.780192 0.500000
O O13 0.914255 0.000000 0.493981
O O14 0.889261 0.736023 0.797629
O O15 0.944954 0.000000 0.808509
O O16 0.283140 0.500000 0.860900
O O17 0.319837 0.248804 0.844189
O O18 0.500000 0.342417 0.000000
O O19 0.344796 0.000000 0.818706
#
# Coordination Sequence:
#
# PCOD9179212 Si02
#       7
#     8   8   8   8   8   8   8
#     4   9  18  32  49  70  96 127 166 209 250 296
#     4   9  18  32  49  69  95 128 161 193 235 287
#     4   8  14  27  47  68  90 118 150 181 219 271
#     4   9  17  30  50  75 100 124 154 195 236 278
#     4  10  20  33  48  68  98 131 163 206 254 295
#     4   9  17  30  49  70  92 120 156 201 250 297
#     4  10  19  31  49  71  95 127 168 210 251 297
#
# _framework density 20.570437999999999
#
# number of rings (size 3 to 8) (size 9 to 14) (size 15 to 20)
#    0.000    2.857    0.000    1.286    0.000    3.714 
#    0.000    1.429    0.000    3.429    0.000    0.000 
#    0.000    0.000    0.000    0.000    0.000    0.000 
#
# Total GULP energy -156004.877831 kJ/mol
# GULP energy per Si atom -5571.602780 kJ/mol
# Density = 2.052362 g / cm^3
# Si number density = 20.570438 Si / 1000 Ang^3
#
#
#
# Elastic Constant Matrix: (Units=GPa)
#
#
# Indices 1 2 3 4 5 6 
#
# 1 125.7258 61.7448 18.2292 0.0000 -32.5212 0.0000
# 2 61.7448 90.7665 11.5619 -0.0001 -21.0485 0.0000
# 3 18.2292 11.5619 20.8406 0.0002 -18.5552 -0.0002
# 4 0.0000 -0.0001 0.0002 10.1947 0.0000 -2.5650
# 5 -32.5212 -21.0485 -18.5552 0.0000 32.1420 0.0000
# 6 0.0000 0.0000 -0.0002 -2.5650 0.0000 25.4387
#
#
#
# Elastic Compliance Matrix: (Units=1/GPa)
#
#
# Indices 1 2 3 4 5 6 
#
# 1 0.013974 -0.007339 0.000325 0.000000 0.009520 0.000000
# 2 -0.007339 0.016851 0.000585 0.000000 0.003947 0.000000
# 3 0.000325 0.000585 0.098779 -0.000002 0.057736 0.000000
# 4 0.000000 0.000000 -0.000002 0.100643 -0.000001 0.010148
# 5 0.009520 0.003947 0.057736 -0.000001 0.076659 0.000000
# 6 0.000000 0.000000 0.000000 0.010148 0.000000 0.040333
#
#
# Mechanical properties :
#
#
# Convention : Reuss Voigt Hill
#
# Bulk Modulus (GPa) = 8.56569 46.71162 27.63866
# Shear Modulus (GPa) = 12.53093 23.27488 17.90291
#
# Velocity S-wave (km/s) = 2.47082 3.36739 2.95332
# Velocity P-wave (km/s) = 3.50899 6.15439 5.00947
#
# Compressibility (1/GPa) = 0.11674488
#
# Stress axis : x y z
#
# Youngs Moduli (GPa) = 71.56351 59.34469 10.12359
#
# Poissons Ratio (x) = 0.43556 -0.00329
# Poissons Ratio (y) = 0.52524 -0.00593
# Poissons Ratio (z) = -0.02324 -0.03474
#
# Static dielectric constant tensor:
#      x y z
#    x 1.750120 0.000000 -0.025040 
#    y 0.000000 1.701150 0.000000 
#    z -0.025040 0.000000 1.796430 
# 
# From -- ./inp_files/280434.got.cif
#   From: 2010.05.17/outbox.cif.g08.bks.cpg/sg12_141_cif.got.tgz:280434.got - 2010.06.03 13:09:07.
