data_PCOD9179374
_publ_section_title
;
Structure prediction by ZEFSAII (Michael W. Deem and Ramdas Pophale) SiO2 
 PCOD9179374
Probable space group: C 2/M
;
_chemical_formula_sum "Si O2"
_cell_formula_units_Z 58
_cell_length_a 20.018661
_cell_length_b 9.282898
_cell_length_c 14.245478
_cell_angle_alpha 90.000000
_cell_angle_beta 98.136523
_cell_angle_gamma 90.000000
_cell_volume 2620.605889
_symmetry_space_group_name_H-M "C 2/M"
_symmetry_group_IT_number 12
_symmetry_cell_setting 'monoclinic'
loop_
_space_group_symop_operation_xyz
x,y,z
-x,y,-z
-x,-y,-z
x,-y,z
1/2+x,1/2+y,z
1/2-x,1/2+y,-z
1/2-x,1/2-y,-z
1/2+x,1/2-y,z
loop_
_atom_site_type_symbol
_atom_site_label
_atom_site_fract_x
_atom_site_fract_y
_atom_site_fract_z
Si Si1 0.773472 0.668214 0.645428
Si Si2 0.374367 0.340329 0.912846
Si Si3 0.863853 0.667749 0.410589
Si Si4 0.500000 0.500000 0.000000
Si Si5 0.749428 0.665347 0.865650
Si Si6 0.385297 0.166360 0.191531
Si Si7 0.098193 0.832634 0.414437
Si Si8 0.020538 0.168276 0.213288
O O1 0.772956 0.500000 0.617726
O O2 0.707996 0.752210 0.594680
O O3 0.767428 0.671870 0.757626
O O4 0.839475 0.748726 0.621234
O O5 0.345204 0.500000 0.882861
O O6 0.312594 0.241258 0.928062
O O7 0.413032 0.281671 0.828452
O O8 0.438734 0.376188 0.989836
O O9 0.859506 0.500000 0.435599
O O10 0.882059 0.674941 0.304691
O O11 0.913561 0.751873 0.490108
O O12 0.741850 0.500000 0.892930
O O13 0.678749 0.747044 0.859175
O O14 0.455909 0.238271 0.180446
O O15 0.381856 0.000000 0.162930
O O16 0.038112 0.831188 0.326568
O O17 0.115346 0.000000 0.433980
O O18 0.010481 0.000000 0.176386
#
# Coordination Sequence:
#
# PCOD9179374 Si02
#       8
#     8   8   8   2   8   8   8   8
#     4  10  19  31  49  75 106 143 190 244 294 335
#     4   9  18  37  62  92 116 148 178 220 276 345
#     4  10  21  35  48  68 106 149 198 248 292 332
#     4   8  20  36  70  96 120 150 174 216 284 344
#     4  10  19  33  58  88 116 147 193 239 279 334
#     4  10  22  37  55  80 111 158 201 242 285 334
#     4  11  21  32  49  73 103 149 191 244 296 338
#     4  10  21  36  56  81 114 146 190 235 285 339
#
# _framework density 22.132287999999999
#
# number of rings (size 3 to 8) (size 9 to 14) (size 15 to 20)
#    0.414    1.655    1.379    2.483    0.000    4.966 
#    0.000    3.103    0.000    0.828    0.000    0.000 
#    0.000    0.000    0.000    0.000    0.000    0.000 
#
# Total GULP energy -161811.004990 kJ/mol
# GULP energy per Si atom -5579.689827 kJ/mol
# Density = 2.208191 g / cm^3
# Si number density = 22.132288 Si / 1000 Ang^3
#
#
#
# Elastic Constant Matrix: (Units=GPa)
#
#
# Indices 1 2 3 4 5 6 
#
# 1 96.3682 85.9130 23.4021 0.0000 29.0937 0.0000
# 2 85.9130 182.1936 43.6086 0.0000 23.3826 0.0000
# 3 23.4021 43.6086 85.6550 0.0000 4.3299 0.0000
# 4 0.0000 0.0000 0.0000 28.5069 0.0000 10.6135
# 5 29.0937 23.3826 4.3299 0.0000 29.4776 0.0000
# 6 0.0000 0.0000 0.0000 10.6135 0.0000 35.2706
#
#
#
# Elastic Compliance Matrix: (Units=1/GPa)
#
#
# Indices 1 2 3 4 5 6 
#
# 1 0.023071 -0.008580 -0.001137 0.000000 -0.015798 0.000000
# 2 -0.008580 0.010103 -0.002844 0.000000 0.000871 0.000000
# 3 -0.001137 -0.002844 0.013362 0.000000 0.001415 0.000000
# 4 0.000000 0.000000 0.000000 0.039505 0.000000 -0.011888
# 5 -0.015798 0.000871 0.001415 0.000000 0.048617 0.000000
# 6 0.000000 0.000000 0.000000 -0.011888 0.000000 0.031929
#
#
# Mechanical properties :
#
#
# Convention : Reuss Voigt Hill
#
# Bulk Modulus (GPa) = 46.69434 74.45156 60.57295
# Shear Modulus (GPa) = 25.14504 32.73723 28.94114
#
# Velocity S-wave (km/s) = 3.37430 3.85016 3.62006
# Velocity P-wave (km/s) = 6.02701 7.31282 6.70083
#
# Compressibility (1/GPa) = 0.02141587
#
# Stress axis : x y z
#
# Youngs Moduli (GPa) = 43.34432 98.97906 74.84151
#
# Poissons Ratio (x) = 0.84919 0.08507
# Poissons Ratio (y) = 0.37187 0.21283
# Poissons Ratio (z) = 0.04927 0.28147
#
# Static dielectric constant tensor:
#      x y z
#    x 1.757750 0.000000 -0.029490 
#    y 0.000000 1.766910 0.000000 
#    z -0.029490 0.000000 1.810790 
# 
# From -- ./inp_files/281505.got.cif
#   From: 2010.05.17/outbox.cif.g08.bks.cpg/sg12_141_cif.got.tgz:281505.got - 2010.06.03 13:09:07.
