data_PCOD9179183
_publ_section_title
;
Structure prediction by ZEFSAII (Michael W. Deem and Ramdas Pophale) SiO2 
 PCOD9179183
Probable space group: C 2/M
;
_chemical_formula_sum "Si O2"
_cell_formula_units_Z 64
_cell_length_a 17.674550
_cell_length_b 13.860574
_cell_length_c 20.265970
_cell_angle_alpha 90.000000
_cell_angle_beta 53.582383
_cell_angle_gamma 90.000000
_cell_volume 3995.186665
_symmetry_space_group_name_H-M "C 2/M"
_symmetry_group_IT_number 12
_symmetry_cell_setting 'monoclinic'
loop_
_space_group_symop_operation_xyz
x,y,z
-x,y,-z
-x,-y,-z
x,-y,z
1/2+x,1/2+y,z
1/2-x,1/2+y,-z
1/2-x,1/2-y,-z
1/2+x,1/2-y,z
loop_
_atom_site_type_symbol
_atom_site_label
_atom_site_fract_x
_atom_site_fract_y
_atom_site_fract_z
Si Si1 0.621522 0.217216 0.128873
Si Si2 0.278484 0.389392 0.442965
Si Si3 0.119764 0.692616 0.618205
Si Si4 0.766127 0.390266 0.042037
Si Si5 0.749038 0.111848 0.306606
Si Si6 0.410808 0.110707 0.085327
Si Si7 0.598237 0.226703 0.778301
Si Si8 0.411947 0.116429 0.715084
O O1 0.682767 0.313877 0.092162
O O2 0.513374 0.242373 0.170144
O O3 0.624928 0.166129 0.198547
O O4 0.664616 0.144879 0.052161
O O5 0.311830 0.500000 0.431988
O O6 0.199956 0.365027 0.537805
O O7 0.358203 0.306443 0.405417
O O8 0.232388 0.379300 0.393897
O O9 0.126707 0.678768 0.693663
O O10 0.016517 0.658576 0.649854
O O11 0.735079 0.500000 0.045802
O O12 0.825244 0.387917 0.078853
O O13 0.838580 0.178534 0.246182
O O14 0.659733 0.137768 0.307668
O O15 0.770841 0.000000 0.281695
O O16 0.387259 0.162444 0.165065
O O17 0.436236 0.000000 0.087968
O O18 0.500000 0.154343 0.000000
O O19 0.417671 0.000000 0.719977
#
# Coordination Sequence:
#
# PCOD9179183 Si02
#       8
#     8   8   8   8   8   8   8   8
#     4  10  20  32  50  71  95 126 161 202 249 289
#     4   9  17  33  52  75 104 131 162 200 242 291
#     4   9  19  31  50  79 101 129 166 199 244 289
#     4  10  20  34  49  69  95 126 162 203 246 293
#     4   9  19  33  51  72  99 132 161 196 245 292
#     4  10  19  31  49  70  93 124 160 199 243 285
#     4  10  19  33  51  72  98 127 162 204 241 289
#     4  10  19  32  50  74  99 126 161 203 242 284
#
# _framework density 16.019276999999999
#
# number of rings (size 3 to 8) (size 9 to 14) (size 15 to 20)
#    0.000    2.375    1.250    1.500    0.000    3.500 
#    0.000    3.750    0.000    1.125    0.000    7.875 
#    0.000    0.000    0.000    0.000    0.000    0.000 
#
# Total GULP energy -178306.815200 kJ/mol
# GULP energy per Si atom -5572.087975 kJ/mol
# Density = 1.598282 g / cm^3
# Si number density = 16.019277 Si / 1000 Ang^3
#
#
#
# Elastic Constant Matrix: (Units=GPa)
#
#
# Indices 1 2 3 4 5 6 
#
# 1 78.2441 48.7938 36.7359 0.0000 2.4263 0.0000
# 2 48.7938 94.9930 52.2176 0.0000 2.1623 0.0000
# 3 36.7359 52.2176 109.4094 0.0000 -0.6383 0.0000
# 4 0.0000 0.0000 0.0000 19.3511 0.0000 1.4987
# 5 2.4263 2.1623 -0.6383 0.0000 14.1441 0.0000
# 6 0.0000 0.0000 0.0000 1.4987 0.0000 23.4940
#
#
#
# Elastic Compliance Matrix: (Units=1/GPa)
#
#
# Indices 1 2 3 4 5 6 
#
# 1 0.019307 -0.008539 -0.002420 0.000000 -0.002116 0.000000
# 2 -0.008539 0.018136 -0.005798 0.000000 -0.001569 0.000000
# 3 -0.002420 -0.005798 0.012730 0.000000 0.001876 0.000000
# 4 0.000000 0.000000 0.000000 0.051933 0.000000 -0.003313
# 5 -0.002116 -0.001569 0.001876 0.000000 0.071388 0.000000
# 6 0.000000 0.000000 0.000000 -0.003313 0.000000 0.042775
#
#
# Mechanical properties :
#
#
# Convention : Reuss Voigt Hill
#
# Bulk Modulus (GPa) = 60.02130 62.01568 61.01849
# Shear Modulus (GPa) = 19.58196 21.05778 20.31987
#
# Velocity S-wave (km/s) = 3.50008 3.62958 3.56541
# Velocity P-wave (km/s) = 7.34054 7.50748 7.42448
#
# Compressibility (1/GPa) = 0.01666075
#
# Stress axis : x y z
#
# Youngs Moduli (GPa) = 51.79420 55.13898 78.55192
#
# Poissons Ratio (x) = 0.47083 0.19007
# Poissons Ratio (y) = 0.44227 0.45543
# Poissons Ratio (z) = 0.12532 0.31968
#
# Static dielectric constant tensor:
#      x y z
#    x 1.518790 0.000000 0.006610 
#    y 0.000000 1.536510 0.000000 
#    z 0.006610 0.000000 1.534750 
# 
# From -- ./inp_files/270270.got.cif
#   From: 2010.05.17/outbox.cif.g08.bks.cpg/sg12_136_cif.got.tgz:270270.got - 2010.06.03 13:09:07.
