data_PCOD9179055
_publ_section_title
;
Structure prediction by ZEFSAII (Michael W. Deem and Ramdas Pophale) SiO2 
 PCOD9179055
Probable space group: C 2/M
;
_chemical_formula_sum "Si O2"
_cell_formula_units_Z 64
_cell_length_a 29.517157
_cell_length_b 9.563461
_cell_length_c 15.504857
_cell_angle_alpha 90.000000
_cell_angle_beta 130.418519
_cell_angle_gamma 90.000000
_cell_volume 3332.189038
_symmetry_space_group_name_H-M "C 2/M"
_symmetry_group_IT_number 12
_symmetry_cell_setting 'monoclinic'
loop_
_space_group_symop_operation_xyz
x,y,z
-x,y,-z
-x,-y,-z
x,-y,z
1/2+x,1/2+y,z
1/2-x,1/2+y,-z
1/2-x,1/2-y,-z
1/2+x,1/2-y,z
loop_
_atom_site_type_symbol
_atom_site_label
_atom_site_fract_x
_atom_site_fract_y
_atom_site_fract_z
Si Si1 0.709355 0.663180 0.573512
Si Si2 0.118585 0.162051 0.622867
Si Si3 0.970111 0.661945 0.593473
Si Si4 0.608424 0.161768 0.771409
Si Si5 0.187281 0.329638 0.181000
Si Si6 0.712601 0.164102 0.022971
Si Si7 0.934352 0.329677 0.893303
Si Si8 0.119239 0.336307 0.355769
O O1 0.712998 0.500000 0.552967
O O2 0.667648 0.671540 0.607892
O O3 0.773119 0.712982 0.687838
O O4 0.676397 0.751881 0.459869
O O5 0.060430 0.239384 0.514186
O O6 0.135722 0.240154 0.731537
O O7 0.107465 0.000000 0.626224
O O8 0.966201 0.500000 0.559868
O O9 0.930727 0.674134 0.631214
O O10 0.038824 0.694973 0.695272
O O11 0.644884 0.172797 0.904593
O O12 0.613385 0.000000 0.749088
O O13 0.189694 0.500000 0.182728
O O14 0.118741 0.288826 0.107778
O O15 0.214077 0.283294 0.122840
O O16 0.730277 0.000000 0.043541
O O17 0.750000 0.250000 0.000000
O O18 0.936874 0.500000 0.895658
O O19 0.911117 0.287283 0.770112
O O20 0.000000 0.279659 0.000000
O O21 0.135232 0.500000 0.365466
#
# Coordination Sequence:
#
# PCOD9179055 Si02
#       8
#     8   8   8   8   8   8   8   8
#     4   9  18  33  52  73 102 139 173 208 255 312
#     4  10  19  31  48  71 100 135 175 214 255 302
#     4   9  18  31  47  70 103 135 167 209 261 313
#     4  10  20  31  47  70  98 134 171 212 262 314
#     4   9  18  33  53  77 105 139 177 216 262 312
#     4  10  21  36  54  76 104 138 176 217 263 313
#     4   9  18  31  53  83 110 134 169 219 265 308
#     4   9  18  32  52  79 106 132 167 214 260 302
#
# _framework density 19.206592000000001
#
# number of rings (size 3 to 8) (size 9 to 14) (size 15 to 20)
#    0.000    2.625    0.000    1.500    1.750    4.500 
#    0.000    0.625    0.000    1.125    0.000    0.000 
#    0.000    0.000    0.000    0.000    0.000    0.000 
#
# Total GULP energy -178543.295756 kJ/mol
# GULP energy per Si atom -5579.477992 kJ/mol
# Density = 1.916288 g / cm^3
# Si number density = 19.206592 Si / 1000 Ang^3
#
#
#
# Elastic Constant Matrix: (Units=GPa)
#
#
# Indices 1 2 3 4 5 6 
#
# 1 71.9707 20.0256 49.1831 0.0000 8.5333 0.0000
# 2 20.0256 34.5080 36.8921 0.0000 0.2405 0.0000
# 3 49.1831 36.8921 131.4282 0.0000 4.8578 0.0000
# 4 0.0000 0.0000 0.0000 19.9749 0.0000 -2.0329
# 5 8.5333 0.2405 4.8578 0.0000 35.3228 0.0000
# 6 0.0000 0.0000 0.0000 -2.0329 0.0000 8.9763
#
#
#
# Elastic Compliance Matrix: (Units=1/GPa)
#
#
# Indices 1 2 3 4 5 6 
#
# 1 0.019776 -0.005276 -0.005774 0.000000 -0.003948 0.000000
# 2 -0.005276 0.042873 -0.010148 0.000000 0.002378 0.000000
# 3 -0.005774 -0.010148 0.012628 0.000000 -0.000273 0.000000
# 4 0.000000 0.000000 0.000000 0.051244 0.000000 0.011605
# 5 -0.003948 0.002378 -0.000273 0.000000 0.029285 0.000000
# 6 0.000000 0.000000 0.000000 0.011605 0.000000 0.114032
#
#
# Mechanical properties :
#
#
# Convention : Reuss Voigt Hill
#
# Bulk Modulus (GPa) = 30.41235 50.01207 40.21221
# Shear Modulus (GPa) = 15.47050 21.64190 18.55620
#
# Velocity S-wave (km/s) = 2.84117 3.36042 3.11165
# Velocity P-wave (km/s) = 5.16059 6.41499 5.82168
#
# Compressibility (1/GPa) = 0.03288138
#
# Stress axis : x y z
#
# Youngs Moduli (GPa) = 50.56545 23.32456 79.18932
#
# Poissons Ratio (x) = 0.12307 0.45721
# Poissons Ratio (y) = 0.26681 0.80361
# Poissons Ratio (z) = 0.29195 0.23670
#
# Static dielectric constant tensor:
#      x y z
#    x 1.699550 0.000000 0.011570 
#    y 0.000000 1.643330 0.000000 
#    z 0.011570 0.000000 1.676520 
# 
# From -- ./inp_files/250082.got.cif
#   From: 2010.05.17/outbox.cif.g08.bks.cpg/sg12_126_cif.got.tgz:250082.got - 2010.06.03 13:09:07.
