data_PCOD9179629
_publ_section_title
;
Structure prediction by ZEFSAII (Michael W. Deem and Ramdas Pophale) SiO2 
 PCOD9179629
Probable space group: C 2/M
;
_chemical_formula_sum "Si O2"
_cell_formula_units_Z 64
_cell_length_a 22.314906
_cell_length_b 7.730589
_cell_length_c 17.368907
_cell_angle_alpha 90.000000
_cell_angle_beta 85.621192
_cell_angle_gamma 90.000000
_cell_volume 2987.518496
_symmetry_space_group_name_H-M "C 2/M"
_symmetry_group_IT_number 12
_symmetry_cell_setting 'monoclinic'
loop_
_space_group_symop_operation_xyz
x,y,z
-x,y,-z
-x,-y,-z
x,-y,z
1/2+x,1/2+y,z
1/2-x,1/2+y,-z
1/2-x,1/2-y,-z
1/2+x,1/2-y,z
loop_
_atom_site_type_symbol
_atom_site_label
_atom_site_fract_x
_atom_site_fract_y
_atom_site_fract_z
Si Si1 0.425209 0.708130 0.084822
Si Si2 0.086509 0.698586 0.520805
Si Si3 0.611824 0.299767 0.242427
Si Si4 0.698929 0.299729 0.609182
Si Si5 0.513179 0.210570 0.667871
Si Si6 0.563085 0.711855 0.088654
Si Si7 0.830129 0.295601 0.613292
Si Si8 0.370379 0.203603 0.245060
O O1 0.426672 0.500000 0.084260
O O2 0.493013 0.766580 0.100466
O O3 0.378496 0.763661 0.154201
O O4 0.414073 0.764422 0.998035
O O5 0.069626 0.500000 0.505951
O O6 0.145939 0.702724 0.569638
O O7 0.033859 0.770311 0.580538
O O8 0.113350 0.778222 0.440249
O O9 0.627574 0.500000 0.232658
O O10 0.547778 0.281540 0.291626
O O11 0.600713 0.225810 0.158267
O O12 0.658967 0.221682 0.297291
O O13 0.696787 0.500000 0.584878
O O14 0.765702 0.225705 0.593085
O O15 0.681997 0.292060 0.701253
O O16 0.567274 0.259953 0.720100
O O17 0.509010 0.000000 0.666454
O O18 0.562852 0.500000 0.091247
O O19 0.828503 0.500000 0.596299
O O20 0.363887 0.000000 0.258540
#
# Coordination Sequence:
#
# PCOD9179629 Si02
#       8
#     8   8   8   8   8   8   8   8
#     4   9  15  29  52  75 103 134 167 205 249 303
#     4   9  19  36  56  76 101 130 165 213 262 302
#     4  11  21  33  51  74 103 137 173 209 244 296
#     4  10  20  34  55  78  99 129 171 214 255 300
#     4   9  18  32  49  71 101 136 165 198 252 306
#     4   8  16  29  48  75 104 135 166 204 252 297
#     4  10  22  38  53  72 100 137 173 207 256 308
#     4  10  19  31  50  78 108 134 164 207 258 301
#
# _framework density 21.422461999999999
#
# number of rings (size 3 to 8) (size 9 to 14) (size 15 to 20)
#    0.000    2.500    1.250    3.000    0.000    4.000 
#    0.000    5.000    0.000    0.750    0.000    0.000 
#    0.000    0.000    0.000    0.000    0.000    0.000 
#
# Total GULP energy -178588.103148 kJ/mol
# GULP energy per Si atom -5580.878223 kJ/mol
# Density = 2.137370 g / cm^3
# Si number density = 21.422462 Si / 1000 Ang^3
#
#
#
# Elastic Constant Matrix: (Units=GPa)
#
#
# Indices 1 2 3 4 5 6 
#
# 1 46.1977 2.9607 10.8349 0.0000 6.3072 0.0000
# 2 2.9607 37.1331 0.9714 0.0000 -2.8661 0.0000
# 3 10.8349 0.9714 135.7728 0.0000 9.5089 0.0000
# 4 0.0000 0.0000 0.0000 16.7472 0.0000 0.1442
# 5 6.3072 -2.8661 9.5089 0.0000 22.3872 0.0000
# 6 0.0000 0.0000 0.0000 0.1442 0.0000 9.0410
#
#
#
# Elastic Compliance Matrix: (Units=1/GPa)
#
#
# Indices 1 2 3 4 5 6 
#
# 1 0.022959 -0.002271 -0.001384 0.000000 -0.006171 0.000000
# 2 -0.002271 0.027450 -0.000316 0.000000 0.004288 0.000000
# 3 -0.001384 -0.000316 0.007682 0.000000 -0.002913 0.000000
# 4 0.000000 0.000000 0.000000 0.059720 0.000000 -0.000952
# 5 -0.006171 0.004288 -0.002913 0.000000 0.048193 0.000000
# 6 0.000000 0.000000 0.000000 -0.000952 0.000000 0.110622
#
#
# Mechanical properties :
#
#
# Convention : Reuss Voigt Hill
#
# Bulk Modulus (GPa) = 19.93966 27.62641 23.78303
# Shear Modulus (GPa) = 16.59568 23.25753 19.92661
#
# Velocity S-wave (km/s) = 2.78634 3.29851 3.05318
# Velocity P-wave (km/s) = 4.43617 5.23745 4.85338
#
# Compressibility (1/GPa) = 0.05015130
#
# Stress axis : x y z
#
# Youngs Moduli (GPa) = 43.55654 36.42935 130.17494
#
# Poissons Ratio (x) = 0.08272 0.18012
# Poissons Ratio (y) = 0.09890 0.04107
# Poissons Ratio (z) = 0.06027 0.01149
#
# Static dielectric constant tensor:
#      x y z
#    x 1.767220 0.000000 0.002140 
#    y 0.000000 1.795640 0.000000 
#    z 0.002140 0.000000 1.835690 
# 
# From -- ./inp_files/287504.got.cif
#   From: 2010.05.17/outbox.cif.g08.bks.cpg/sg12_144_cif.got.tgz:287504.got - 2010.06.03 13:09:07.
