data_PCOD9179257
_publ_section_title
;
Structure prediction by ZEFSAII (Michael W. Deem and Ramdas Pophale) SiO2 
 PCOD9179257
Probable space group: C 2/M
;
_chemical_formula_sum "Si O2"
_cell_formula_units_Z 56
_cell_length_a 14.693672
_cell_length_b 9.509886
_cell_length_c 24.609203
_cell_angle_alpha 90.000000
_cell_angle_beta 131.920057
_cell_angle_gamma 90.000000
_cell_volume 2558.712557
_symmetry_space_group_name_H-M "C 2/M"
_symmetry_group_IT_number 12
_symmetry_cell_setting 'monoclinic'
loop_
_space_group_symop_operation_xyz
x,y,z
-x,y,-z
-x,-y,-z
x,-y,z
1/2+x,1/2+y,z
1/2-x,1/2+y,-z
1/2-x,1/2-y,-z
1/2+x,1/2-y,z
loop_
_atom_site_type_symbol
_atom_site_label
_atom_site_fract_x
_atom_site_fract_y
_atom_site_fract_z
Si Si1 0.719583 0.161180 0.369105
Si Si2 0.117383 0.344334 0.083252
Si Si3 0.245981 0.844046 0.217719
Si Si4 0.579997 0.660571 0.650133
Si Si5 0.949081 0.159252 0.766771
Si Si6 0.599407 0.838430 0.490080
Si Si7 0.320992 0.658737 0.073069
O O1 0.819771 0.156648 0.359391
O O2 0.597835 0.237664 0.298674
O O3 0.785001 0.252576 0.441565
O O4 0.697455 0.000000 0.376255
O O5 0.100450 0.500000 0.102397
O O6 0.151493 0.223409 0.138162
O O7 0.228731 0.352865 0.086219
O O8 0.000000 0.313760 0.000000
O O9 0.353377 0.734386 0.272688
O O10 0.170400 0.856538 0.243182
O O11 0.287640 0.000000 0.218175
O O12 0.544390 0.500000 0.646759
O O13 0.468888 0.755521 0.584915
O O14 0.055407 0.214867 0.849346
O O15 0.984114 0.000000 0.762872
O O16 0.500000 0.841320 0.500000
O O17 0.628262 0.000000 0.488311
O O18 0.346808 0.500000 0.062251
O O19 0.250000 0.750000 0.000000
#
# Coordination Sequence:
#
# PCOD9179257 Si02
#       7
#     8   8   8   8   8   8   8
#     4   9  16  25  40  64  93 127 165 203 245 290
#     4  10  21  36  53  74 100 129 161 199 245 295
#     4  10  19  31  49  72  98 129 165 204 246 292
#     4   9  16  26  41  63  94 129 164 203 245 289
#     4   9  18  32  48  69  98 130 164 203 247 292
#     4   9  15  23  37  60  93 130 165 202 244 288
#     4  10  21  36  54  75  99 128 162 201 245 293
#
# _framework density 21.886008
#
# number of rings (size 3 to 8) (size 9 to 14) (size 15 to 20)
#    0.000    2.571    0.000    2.571    0.000    7.143 
#    0.000    0.000    0.000    0.000    0.000    1.000 
#    0.000    0.000    0.000    0.000    0.000    0.000 
#
# Total GULP energy -156347.095063 kJ/mol
# GULP energy per Si atom -5583.824824 kJ/mol
# Density = 2.183619 g / cm^3
# Si number density = 21.886008 Si / 1000 Ang^3
#
#
#
# Elastic Constant Matrix: (Units=GPa)
#
#
# Indices 1 2 3 4 5 6 
#
# 1 31.7138 -3.1206 -6.3857 0.0000 7.0107 0.0000
# 2 -3.1206 189.3938 108.4027 0.0000 6.6268 0.0000
# 3 -6.3857 108.4027 150.3035 0.0000 25.5523 0.0000
# 4 0.0000 0.0000 0.0000 66.0457 0.0000 -6.8959
# 5 7.0107 6.6268 25.5523 0.0000 16.3975 0.0000
# 6 0.0000 0.0000 0.0000 -6.8959 0.0000 9.6851
#
#
#
# Elastic Compliance Matrix: (Units=1/GPa)
#
#
# Indices 1 2 3 4 5 6 
#
# 1 0.039817 -0.003761 0.009577 0.000000 -0.030427 0.000000
# 2 -0.003761 0.010390 -0.009812 0.000000 0.012699 0.000000
# 3 0.009577 -0.009812 0.019262 0.000000 -0.030144 0.000000
# 4 0.000000 0.000000 0.000000 0.016357 0.000000 0.011646
# 5 -0.030427 0.012699 -0.030144 0.000000 0.115836 0.000000
# 6 0.000000 0.000000 0.000000 0.011646 0.000000 0.111544
#
#
# Mechanical properties :
#
#
# Convention : Reuss Voigt Hill
#
# Bulk Modulus (GPa) = 16.26663 63.24488 39.75576
# Shear Modulus (GPa) = 14.63322 36.59330 25.61326
#
# Velocity S-wave (km/s) = 2.58856 4.09344 3.42468
# Velocity P-wave (km/s) = 4.04756 7.16253 5.81741
#
# Compressibility (1/GPa) = 0.06147554
#
# Stress axis : x y z
#
# Youngs Moduli (GPa) = 25.11520 96.24792 51.91697
#
# Poissons Ratio (x) = 0.36196 -0.49719
# Poissons Ratio (y) = 0.09445 0.50942
# Poissons Ratio (z) = -0.24052 0.94440
#
# Static dielectric constant tensor:
#      x y z
#    x 1.855590 0.000000 -0.012840 
#    y 0.000000 1.808540 0.000000 
#    z -0.012840 0.000000 1.806660 
# 
# From -- ./inp_files/320259.got.cif
#   From: 2010.05.17/outbox.cif.g08.bks.cpg/sg12_161_cif.got.tgz:320259.got - 2010.06.03 13:09:07.
