data_PCOD9179138
_publ_section_title
;
Structure prediction by ZEFSAII (Michael W. Deem and Ramdas Pophale) SiO2 
 PCOD9179138
Probable space group: C 2/M
;
_chemical_formula_sum "Si O2"
_cell_formula_units_Z 64
_cell_length_a 12.965633
_cell_length_b 21.159747
_cell_length_c 26.725464
_cell_angle_alpha 90.000000
_cell_angle_beta 150.516719
_cell_angle_gamma 90.000000
_cell_volume 3608.645377
_symmetry_space_group_name_H-M "C 2/M"
_symmetry_group_IT_number 12
_symmetry_cell_setting 'monoclinic'
loop_
_space_group_symop_operation_xyz
x,y,z
-x,y,-z
-x,-y,-z
x,-y,z
1/2+x,1/2+y,z
1/2-x,1/2+y,-z
1/2-x,1/2-y,-z
1/2+x,1/2-y,z
loop_
_atom_site_type_symbol
_atom_site_label
_atom_site_fract_x
_atom_site_fract_y
_atom_site_fract_z
Si Si1 0.677887 0.291192 0.038508
Si Si2 0.794686 0.158939 0.056286
Si Si3 0.525856 0.667051 0.396634
Si Si4 0.394069 0.801608 0.728320
Si Si5 0.054891 0.693553 0.366649
Si Si6 0.430598 0.927816 0.912591
Si Si7 0.548745 0.576012 0.315212
Si Si8 0.192022 0.846696 0.286327
O O1 0.694691 0.215213 0.046523
O O2 0.905203 0.313832 0.152130
O O3 0.500000 0.314391 0.000000
O O4 0.619547 0.309432 0.957740
O O5 0.987926 0.131530 0.168679
O O6 0.608372 0.113231 0.961869
O O7 0.308668 0.663169 0.335238
O O8 0.716085 0.677384 0.515285
O O9 0.514325 0.731680 0.359051
O O10 0.570774 0.609304 0.378270
O O11 0.448720 0.818011 0.694152
O O12 0.344703 0.725979 0.711193
O O13 0.886735 0.656984 0.330366
O O14 0.191336 0.907913 0.803136
O O15 0.444006 0.000000 0.901547
O O16 0.500000 0.924953 0.000000
O O17 0.571879 0.500000 0.325933
O O18 0.700995 0.608663 0.338660
#
# Coordination Sequence:
#
# PCOD9179138 Si02
#       8
#     8   8   8   8   8   8   8   8
#     4  10  20  29  47  78 110 146 169 209 284 325
#     4  10  19  31  48  74 112 142 176 220 258 327
#     4  10  21  36  56  81 107 142 188 233 282 327
#     4  10  19  34  55  78 110 142 183 233 274 329
#     4  10  20  35  57  80 107 141 185 236 282 336
#     4  10  19  31  52  76 101 142 183 213 249 307
#     4  11  22  37  56  82 117 148 183 227 277 333
#     4  10  20  32  52  81 112 145 181 224 281 330
#
# _framework density 17.735188000000001
#
# number of rings (size 3 to 8) (size 9 to 14) (size 15 to 20)
#    0.000    1.875    2.500    2.250    1.750    2.500 
#    0.000    1.250    0.000    2.625    0.000    0.000 
#    0.000    0.000    0.000    0.000    0.000    0.000 
#
# Total GULP energy -178451.505937 kJ/mol
# GULP energy per Si atom -5576.609561 kJ/mol
# Density = 1.769482 g / cm^3
# Si number density = 17.735188 Si / 1000 Ang^3
#
#
#
# Elastic Constant Matrix: (Units=GPa)
#
#
# Indices 1 2 3 4 5 6 
#
# 1 101.5703 24.4526 22.8301 -0.0005 9.7005 0.0002
# 2 24.4526 39.3243 10.0448 -0.0004 2.8262 -0.0001
# 3 22.8301 10.0448 34.6101 0.0003 7.9975 0.0005
# 4 -0.0005 -0.0004 0.0003 19.3115 0.0004 -0.0774
# 5 9.7005 2.8262 7.9975 0.0004 29.4021 0.0001
# 6 0.0002 -0.0001 0.0005 -0.0774 0.0001 17.0543
#
#
#
# Elastic Compliance Matrix: (Units=1/GPa)
#
#
# Indices 1 2 3 4 5 6 
#
# 1 0.012962 -0.006319 -0.006262 0.000000 -0.001966 0.000000
# 2 -0.006319 0.030553 -0.004804 0.000001 0.000455 0.000000
# 3 -0.006262 -0.004804 0.036103 -0.000001 -0.007292 -0.000001
# 4 0.000000 0.000001 -0.000001 0.051784 -0.000001 0.000235
# 5 -0.001966 0.000455 -0.007292 -0.000001 0.036600 0.000000
# 6 0.000000 0.000000 -0.000001 0.000235 0.000000 0.058637
#
#
# Mechanical properties :
#
#
# Convention : Reuss Voigt Hill
#
# Bulk Modulus (GPa) = 22.29749 32.23998 27.26873
# Shear Modulus (GPa) = 18.09240 21.03205 19.56223
#
# Velocity S-wave (km/s) = 3.19743 3.44742 3.32477
# Velocity P-wave (km/s) = 5.12164 5.83646 5.49069
#
# Compressibility (1/GPa) = 0.04484811
#
# Stress axis : x y z
#
# Youngs Moduli (GPa) = 77.14875 32.72958 27.69832
#
# Poissons Ratio (x) = 0.20682 0.17345
# Poissons Ratio (y) = 0.48752 0.13307
# Poissons Ratio (z) = 0.48310 0.15724
#
# Static dielectric constant tensor:
#      x y z
#    x 1.618240 0.000000 0.015030 
#    y 0.000000 1.594570 0.000000 
#    z 0.015030 0.000000 1.610530 
# 
# From -- ./inp_files/178444.got.cif
#   From: 2010.05.17/outbox.cif.g08.bks.cpg/sg12_90_cif.got.tgz:178444.got - 2010.06.03 13:09:07.
