data_PCOD9179861
_publ_section_title
;
Structure prediction by ZEFSAII (Michael W. Deem and Ramdas Pophale) SiO2 
 PCOD9179861
Probable space group: C 2/M
;
_chemical_formula_sum "Si O2"
_cell_formula_units_Z 48
_cell_length_a 11.577426
_cell_length_b 20.457781
_cell_length_c 10.848919
_cell_angle_alpha 90.000000
_cell_angle_beta 98.696620
_cell_angle_gamma 90.000000
_cell_volume 2540.006998
_symmetry_space_group_name_H-M "C 2/M"
_symmetry_group_IT_number 12
_symmetry_cell_setting 'monoclinic'
loop_
_space_group_symop_operation_xyz
x,y,z
-x,y,-z
-x,-y,-z
x,-y,z
1/2+x,1/2+y,z
1/2-x,1/2+y,-z
1/2-x,1/2-y,-z
1/2+x,1/2-y,z
loop_
_atom_site_type_symbol
_atom_site_label
_atom_site_fract_x
_atom_site_fract_y
_atom_site_fract_z
Si Si1 0.214398 0.273466 0.628140
Si Si2 0.057332 0.076360 0.639179
Si Si3 0.423949 0.669520 0.797231
Si Si4 0.778870 0.637763 0.756835
Si Si5 0.027591 0.312189 0.764248
Si Si6 0.254562 0.828037 0.026857
O O1 0.250000 0.250000 0.500000
O O2 0.312524 0.323499 0.688529
O O3 0.228477 0.209471 0.715286
O O4 0.087248 0.300454 0.640829
O O5 0.196395 0.088763 0.669043
O O6 0.000000 0.099237 0.500000
O O7 0.006695 0.117325 0.745967
O O8 0.030707 0.000000 0.647493
O O9 0.483664 0.741292 0.807132
O O10 0.363699 0.654873 0.918244
O O11 0.914826 0.641821 0.743590
O O12 0.767676 0.633091 0.902185
O O13 0.130824 0.337128 0.869695
O O14 0.250000 0.750000 0.000000
#
# Coordination Sequence:
#
# PCOD9179861 Si02
#       6
#     8   8   8   8   8   8
#     4  10  19  31  51  83 120 149 182 242 302 357
#     4  11  24  43  61  78 111 161 214 257 291 344
#     4  10  20  32  54  84 117 150 197 235 290 351
#     4  11  21  33  56  83 115 152 194 236 296 358
#     4  10  19  31  54  87 123 149 180 237 300 366
#     4  11  18  32  53  89 124 156 179 226 301 368
#
# _framework density 18.897584999999999
#
# number of rings (size 3 to 8) (size 9 to 14) (size 15 to 20)
#    0.000    1.500    6.667    1.500    0.000    4.000 
#    0.000    1.667    0.000    6.000    0.000   10.500 
#    0.000    0.000    0.000    0.000    0.000    0.000 
#
# Total GULP energy -133885.496347 kJ/mol
# GULP energy per Si atom -5578.562348 kJ/mol
# Density = 1.885457 g / cm^3
# Si number density = 18.897585 Si / 1000 Ang^3
#
#
#
# Elastic Constant Matrix: (Units=GPa)
#
#
# Indices 1 2 3 4 5 6 
#
# 1 134.3255 8.6192 56.7770 0.0000 -11.2514 0.0000
# 2 8.6192 25.3485 3.9919 0.0000 0.3603 0.0000
# 3 56.7770 3.9919 108.1271 0.0000 -12.8594 0.0000
# 4 0.0000 0.0000 0.0000 13.2498 0.0000 1.5748
# 5 -11.2514 0.3603 -12.8594 0.0000 32.1631 0.0000
# 6 0.0000 0.0000 0.0000 1.5748 0.0000 14.3462
#
#
#
# Elastic Compliance Matrix: (Units=1/GPa)
#
#
# Indices 1 2 3 4 5 6 
#
# 1 0.009795 -0.002585 -0.004868 0.000000 0.001509 0.000000
# 2 -0.002585 0.040399 -0.000310 0.000000 -0.001481 0.000000
# 3 -0.004868 -0.000310 0.012194 0.000000 0.003176 0.000000
# 4 0.000000 0.000000 0.000000 0.076471 0.000000 -0.008394
# 5 0.001509 -0.001481 0.003176 0.000000 0.032906 0.000000
# 6 0.000000 0.000000 0.000000 -0.008394 0.000000 0.070626
#
#
# Mechanical properties :
#
#
# Convention : Reuss Voigt Hill
#
# Bulk Modulus (GPa) = 21.34000 45.17525 33.25763
# Shear Modulus (GPa) = 18.27904 25.17934 21.72919
#
# Velocity S-wave (km/s) = 3.11347 3.65418 3.39461
# Velocity P-wave (km/s) = 4.92360 6.46229 5.74470
#
# Compressibility (1/GPa) = 0.04686036
#
# Stress axis : x y z
#
# Youngs Moduli (GPa) = 102.09729 24.75305 82.00908
#
# Poissons Ratio (x) = 0.06399 0.39924
# Poissons Ratio (y) = 0.26395 0.02543
# Poissons Ratio (z) = 0.49703 0.00768
#
# Static dielectric constant tensor:
#      x y z
#    x 1.726300 0.000000 0.001480 
#    y 0.000000 1.613460 0.000000 
#    z 0.001480 0.000000 1.736380 
# 
# From -- ./inp_files/132607.got.cif
#   From: 2010.05.17/outbox.cif.g08.bks.cpg/sg12_67_cif.got.tgz:132607.got - 2010.06.03 13:09:07.
