data_PCOD9179823
_publ_section_title
;
Structure prediction by ZEFSAII (Michael W. Deem and Ramdas Pophale) SiO2 
 PCOD9179823
Probable space group: C 2/M
;
_chemical_formula_sum "Si O2"
_cell_formula_units_Z 40
_cell_length_a 8.803769
_cell_length_b 31.034175
_cell_length_c 8.715452
_cell_angle_alpha 90.000000
_cell_angle_beta 117.622104
_cell_angle_gamma 90.000000
_cell_volume 2109.816220
_symmetry_space_group_name_H-M "C 2/M"
_symmetry_group_IT_number 12
_symmetry_cell_setting 'monoclinic'
loop_
_space_group_symop_operation_xyz
x,y,z
-x,y,-z
-x,-y,-z
x,-y,z
1/2+x,1/2+y,z
1/2-x,1/2+y,-z
1/2-x,1/2-y,-z
1/2+x,1/2-y,z
loop_
_atom_site_type_symbol
_atom_site_label
_atom_site_fract_x
_atom_site_fract_y
_atom_site_fract_z
Si Si1 0.967070 0.624434 0.668588
Si Si2 0.977030 0.952310 0.804751
Si Si3 0.313515 0.796795 0.486883
Si Si4 0.159955 0.136342 0.187381
Si Si5 0.658123 0.951984 0.192772
O O1 0.855519 0.667750 0.637429
O O2 0.873432 0.584375 0.697648
O O3 0.000000 0.619471 0.500000
O O4 0.161210 0.629830 0.820327
O O5 0.872378 0.908161 0.733188
O O6 0.161580 0.947501 0.810820
O O7 0.907155 0.000000 0.726824
O O8 0.000000 0.953846 0.000000
O O9 0.500000 0.790256 0.500000
O O10 0.250000 0.750000 0.500000
O O11 0.191204 0.822771 0.312033
O O12 0.000000 0.142456 0.000000
O O13 0.345936 0.000000 0.740909
O O14 0.500000 0.949223 0.000000
#
# Coordination Sequence:
#
# PCOD9179823 Si02
#       5
#     8   8   8   8   8
#     4   9  20  37  54  77 110 145 178 218 271 323
#     4   9  17  29  48  77 110 141 174 217 264 306
#     4   9  20  38  55  74 105 140 172 216 276 328
#     4   9  17  33  56  78 103 138 180 220 260 315
#     4  10  19  31  51  80 111 145 186 223 259 311
#
# _framework density 18.958998000000001
#
# number of rings (size 3 to 8) (size 9 to 14) (size 15 to 20)
#    0.000    3.200    0.000    2.400    0.000    4.400 
#    0.000   11.000    0.000   10.200    0.000    0.000 
#    0.000    0.000    0.000    0.000    0.000    0.000 
#
# Total GULP energy -111362.785401 kJ/mol
# GULP energy per Si atom -5568.139270 kJ/mol
# Density = 1.891585 g / cm^3
# Si number density = 18.958998 Si / 1000 Ang^3
#
#
#
# Elastic Constant Matrix: (Units=GPa)
#
#
# Indices 1 2 3 4 5 6 
#
# 1 71.6513 80.4581 34.7238 0.0000 7.5910 0.0000
# 2 80.4581 236.1940 54.3775 0.0000 1.3765 0.0000
# 3 34.7238 54.3775 61.4232 0.0000 21.3179 0.0000
# 4 0.0000 0.0000 0.0000 21.2339 0.0000 0.0229
# 5 7.5910 1.3765 21.3179 0.0000 27.4031 0.0000
# 6 0.0000 0.0000 0.0000 0.0229 0.0000 45.1941
#
#
#
# Elastic Compliance Matrix: (Units=1/GPa)
#
#
# Indices 1 2 3 4 5 6 
#
# 1 0.025723 -0.006822 -0.008422 0.000000 -0.000231 0.000000
# 2 -0.006822 0.007598 -0.004648 0.000000 0.005124 0.000000
# 3 -0.008422 -0.004648 0.033241 0.000000 -0.023293 0.000000
# 4 0.000000 0.000000 0.000000 0.047094 0.000000 -0.000024
# 5 -0.000231 0.005124 -0.023293 0.000000 0.054419 0.000000
# 6 0.000000 0.000000 0.000000 -0.000024 0.000000 0.022127
#
#
# Mechanical properties :
#
#
# Convention : Reuss Voigt Hill
#
# Bulk Modulus (GPa) = 37.34515 78.70971 58.02743
# Shear Modulus (GPa) = 20.92815 32.08016 26.50416
#
# Velocity S-wave (km/s) = 3.32605 4.11795 3.74300
# Velocity P-wave (km/s) = 5.87288 8.01348 7.02519
#
# Compressibility (1/GPa) = 0.02677724
#
# Stress axis : x y z
#
# Youngs Moduli (GPa) = 38.87552 131.61390 30.08358
#
# Poissons Ratio (x) = 0.89789 0.25336
# Poissons Ratio (y) = 0.26521 0.13983
# Poissons Ratio (z) = 0.32741 0.61176
#
# Static dielectric constant tensor:
#      x y z
#    x 1.654540 0.000000 0.023380 
#    y 0.000000 1.696400 0.000000 
#    z 0.023380 0.000000 1.710680 
# 
# From -- ./inp_files/41864.got.cif
#   From: 2010.05.17/outbox.cif.g08.bks.cpg/sg12_21_cif.got.tgz:41864.got - 2010.06.03 13:09:07.
