data_PCOD9179698
_publ_section_title
;
Structure prediction by ZEFSAII (Michael W. Deem and Ramdas Pophale) SiO2 
 PCOD9179698
Probable space group: C 2/M
;
_chemical_formula_sum "Si O2"
_cell_formula_units_Z 64
_cell_length_a 23.890818
_cell_length_b 25.663381
_cell_length_c 19.678393
_cell_angle_alpha 90.000000
_cell_angle_beta 162.517349
_cell_angle_gamma 90.000000
_cell_volume 3624.591188
_symmetry_space_group_name_H-M "C 2/M"
_symmetry_group_IT_number 12
_symmetry_cell_setting 'monoclinic'
loop_
_space_group_symop_operation_xyz
x,y,z
-x,y,-z
-x,-y,-z
x,-y,z
1/2+x,1/2+y,z
1/2-x,1/2+y,-z
1/2-x,1/2-y,-z
1/2+x,1/2-y,z
loop_
_atom_site_type_symbol
_atom_site_label
_atom_site_fract_x
_atom_site_fract_y
_atom_site_fract_z
Si Si1 0.411912 0.328897 0.823821
Si Si2 0.161897 0.057233 0.323793
Si Si3 0.447553 0.591280 0.206979
Si Si4 0.787103 0.061717 0.368458
Si Si5 0.375606 0.061717 0.956961
Si Si6 0.612801 0.705809 0.922312
Si Si7 0.506223 0.794192 0.315733
Si Si8 0.428700 0.908721 0.169274
O O1 0.388760 0.390656 0.777518
O O2 0.540849 0.301909 0.915516
O O3 0.208490 0.301909 0.583155
O O4 0.500000 0.324309 0.000000
O O5 0.379521 0.061689 0.595045
O O6 0.051534 0.061689 0.267060
O O7 0.125134 0.000000 0.250271
O O8 0.563064 0.588043 0.410136
O O9 0.431276 0.650882 0.164717
O O10 0.240956 0.570701 0.981912
O O11 0.762332 0.080296 0.262332
O O12 0.829248 0.000000 0.415084
O O13 0.584877 0.067141 0.169753
O O14 0.342426 0.000000 0.928264
O O15 0.368926 0.088043 0.021855
O O16 0.505394 0.750000 0.755395
O O17 0.834297 0.715639 0.168593
O O18 0.464395 0.849119 0.230953
#
# Coordination Sequence:
#
# PCOD9179698 Si02
#       8
#     8   8   8   8   8   8   8   8
#     4  10  21  36  56  82 109 137 173 214 260 316
#     4  10  20  34  51  73 104 136 171 217 261 306
#     4  10  19  31  51  75  97 130 175 216 255 304
#     4   9  17  29  44  64  96 135 167 199 246 299
#     4   9  17  29  44  64  96 135 167 199 246 299
#     4   9  19  37  59  79 103 136 173 215 260 307
#     4   9  19  37  59  79 103 136 173 215 260 307
#     4  10  19  31  51  75  97 130 175 216 255 304
#
# _framework density 17.657164000000002
#
# number of rings (size 3 to 8) (size 9 to 14) (size 15 to 20)
#    0.000    2.500    1.250    1.875    0.000    3.250 
#    0.000    2.500    0.000    4.500    0.000    7.000 
#    0.000    0.000    0.000    0.000    0.000    0.000 
#
# Total GULP energy -178397.673447 kJ/mol
# GULP energy per Si atom -5574.927295 kJ/mol
# Density = 1.761698 g / cm^3
# Si number density = 17.657164 Si / 1000 Ang^3
#
#
#
# Elastic Constant Matrix: (Units=GPa)
#
#
# Indices 1 2 3 4 5 6 
#
# 1 112.1470 34.3703 92.3837 0.0005 -9.3675 0.0003
# 2 34.3703 55.4042 36.3295 -0.0001 4.4623 0.0000
# 3 92.3837 36.3295 107.3261 0.0017 -1.6022 0.0013
# 4 0.0005 -0.0001 0.0017 48.9766 0.0007 35.6449
# 5 -9.3675 4.4623 -1.6022 0.0007 25.4834 0.0005
# 6 0.0003 0.0000 0.0013 35.6449 0.0005 33.3207
#
#
#
# Elastic Compliance Matrix: (Units=1/GPa)
#
#
# Indices 1 2 3 4 5 6 
#
# 1 0.033782 -0.003745 -0.027642 0.000000 0.011336 0.000000
# 2 -0.003745 0.024155 -0.005042 0.000000 -0.005923 0.000000
# 3 -0.027642 -0.005042 0.034712 -0.000001 -0.007096 0.000000
# 4 0.000000 0.000000 -0.000001 0.092206 -0.000001 -0.098637
# 5 0.011336 -0.005923 -0.007096 -0.000001 0.043999 0.000000
# 6 0.000000 0.000000 0.000000 -0.098637 0.000000 0.135529
#
#
# Mechanical properties :
#
#
# Convention : Reuss Voigt Hill
#
# Bulk Modulus (GPa) = 50.52453 66.78272 58.65363
# Shear Modulus (GPa) = 11.26538 29.00905 20.13721
#
# Velocity S-wave (km/s) = 2.52862 4.05767 3.38073
# Velocity P-wave (km/s) = 6.09930 7.73673 6.96629
#
# Compressibility (1/GPa) = 0.01979236
#
# Stress axis : x y z
#
# Youngs Moduli (GPa) = 29.60130 41.39920 28.80864
#
# Poissons Ratio (x) = 0.15502 0.79634
# Poissons Ratio (y) = 0.11084 0.14524
# Poissons Ratio (z) = 0.81825 0.20872
#
# Static dielectric constant tensor:
#      x y z
#    x 1.598080 0.000000 0.032120 
#    y 0.000000 1.597420 0.000000 
#    z 0.032120 0.000000 1.612190 
# 
# From -- ./inp_files/286714.got.cif
#   From: 2010.05.17/outbox.cif.g08.bks.cpg/sg12_144_cif.got.tgz:286714.got - 2010.06.03 13:09:07.
