data_PCOD9179408
_publ_section_title
;
Structure prediction by ZEFSAII (Michael W. Deem and Ramdas Pophale) SiO2 
 PCOD9179408
Probable space group: C 2/M
;
_chemical_formula_sum "Si O2"
_cell_formula_units_Z 48
_cell_length_a 22.006173
_cell_length_b 20.623212
_cell_length_c 10.255267
_cell_angle_alpha 90.000000
_cell_angle_beta 34.361623
_cell_angle_gamma 90.000000
_cell_volume 2626.913312
_symmetry_space_group_name_H-M "C 2/M"
_symmetry_group_IT_number 12
_symmetry_cell_setting 'monoclinic'
loop_
_space_group_symop_operation_xyz
x,y,z
-x,y,-z
-x,-y,-z
x,-y,z
1/2+x,1/2+y,z
1/2-x,1/2+y,-z
1/2-x,1/2-y,-z
1/2+x,1/2-y,z
loop_
_atom_site_type_symbol
_atom_site_label
_atom_site_fract_x
_atom_site_fract_y
_atom_site_fract_z
Si Si1 0.123813 0.823131 0.257239
Si Si2 0.927399 0.841082 0.259635
Si Si3 0.808405 0.726183 0.094714
Si Si4 0.524954 0.190670 0.804039
Si Si5 0.095802 0.923369 0.103410
Si Si6 0.240386 0.153895 0.644445
O O1 0.201282 0.811581 0.242655
O O2 0.127198 0.894405 0.188261
O O3 0.000000 0.805999 0.500000
O O4 0.165223 0.775911 0.069062
O O5 0.808244 0.853506 0.414766
O O6 0.945453 0.766768 0.268111
O O7 0.982316 0.889565 0.264185
O O8 0.000000 0.849104 0.000000
O O9 0.793569 0.773848 0.244897
O O10 0.912503 0.681379 0.929172
O O11 0.631001 0.151347 0.577333
O O12 0.500000 0.180942 0.000000
O O13 0.088956 0.000000 0.111762
O O14 0.182446 0.896218 0.844702
#
# Coordination Sequence:
#
# PCOD9179408 Si02
#       6
#     8   8   8   8   8   8
#     4  10  20  33  51  74 104 139 177 224 263 302
#     4   9  16  30  49  79 106 134 163 210 265 318
#     4  10  19  31  49  77 108 139 170 212 268 321
#     4  11  18  29  50  81 112 134 164 214 271 323
#     4  10  21  37  53  75 106 143 185 218 251 306
#     4  10  19  31  52  77 110 140 168 209 268 319
#
# _framework density 18.272394999999999
#
# number of rings (size 3 to 8) (size 9 to 14) (size 15 to 20)
#    0.000    2.000    6.667    1.500    0.000    3.333 
#    0.000    0.000    0.000    2.500    0.000    0.000 
#    0.000    0.000    0.000    0.000    0.000    0.000 
#
# Total GULP energy -133882.963190 kJ/mol
# GULP energy per Si atom -5578.456800 kJ/mol
# Density = 1.823081 g / cm^3
# Si number density = 18.272395 Si / 1000 Ang^3
#
#
#
# Elastic Constant Matrix: (Units=GPa)
#
#
# Indices 1 2 3 4 5 6 
#
# 1 99.4730 31.2225 26.4099 0.0000 -30.9600 0.0000
# 2 31.2225 76.2066 23.7600 0.0000 -8.1764 0.0000
# 3 26.4099 23.7600 84.5862 0.0000 -29.1907 0.0000
# 4 0.0000 0.0000 0.0000 13.4981 0.0000 -2.5025
# 5 -30.9600 -8.1764 -29.1907 0.0000 34.7297 0.0000
# 6 0.0000 0.0000 0.0000 -2.5025 0.0000 12.8029
#
#
#
# Elastic Compliance Matrix: (Units=1/GPa)
#
#
# Indices 1 2 3 4 5 6 
#
# 1 0.015697 -0.005378 0.001411 0.000000 0.013913 0.000000
# 2 -0.005378 0.016225 -0.004528 0.000000 -0.004781 0.000000
# 3 0.001411 -0.004528 0.017917 0.000000 0.015251 0.000000
# 4 0.000000 0.000000 0.000000 0.076870 0.000000 0.015026
# 5 0.013913 -0.004781 0.015251 0.000000 0.052890 0.000000
# 6 0.000000 0.000000 0.000000 0.015026 0.000000 0.081044
#
#
# Mechanical properties :
#
#
# Convention : Reuss Voigt Hill
#
# Bulk Modulus (GPa) = 30.44354 47.00563 38.72459
# Shear Modulus (GPa) = 17.32611 24.13103 20.72857
#
# Velocity S-wave (km/s) = 3.08265 3.63799 3.37177
# Velocity P-wave (km/s) = 5.41917 6.58995 6.03303
#
# Compressibility (1/GPa) = 0.03284769
#
# Stress axis : x y z
#
# Youngs Moduli (GPa) = 63.70784 61.63483 55.81383
#
# Poissons Ratio (x) = 0.33149 -0.07876
# Poissons Ratio (y) = 0.34264 0.25272
# Poissons Ratio (z) = -0.08990 0.27908
#
# Static dielectric constant tensor:
#      x y z
#    x 1.702740 0.000000 -0.002120 
#    y 0.000000 1.583320 0.000000 
#    z -0.002120 0.000000 1.697230 
# 
# From -- ./inp_files/132517.got.cif
#   From: 2010.05.17/outbox.cif.g08.bks.cpg/sg12_67_cif.got.tgz:132517.got - 2010.06.03 13:09:07.
