data_PCOD9179155
_publ_section_title
;
Structure prediction by ZEFSAII (Michael W. Deem and Ramdas Pophale) SiO2 
 PCOD9179155
Probable space group: C 2/M
;
_chemical_formula_sum "Si O2"
_cell_formula_units_Z 42
_cell_length_a 12.182876
_cell_length_b 16.642051
_cell_length_c 7.894432
_cell_angle_alpha 90.000000
_cell_angle_beta 78.190825
_cell_angle_gamma 90.000000
_cell_volume 1566.703762
_symmetry_space_group_name_H-M "C 2/M"
_symmetry_group_IT_number 12
_symmetry_cell_setting 'monoclinic'
loop_
_space_group_symop_operation_xyz
x,y,z
-x,y,-z
-x,-y,-z
x,-y,z
1/2+x,1/2+y,z
1/2-x,1/2+y,-z
1/2-x,1/2-y,-z
1/2+x,1/2-y,z
loop_
_atom_site_type_symbol
_atom_site_label
_atom_site_fract_x
_atom_site_fract_y
_atom_site_fract_z
Si Si1 0.130237 0.673619 0.807320
Si Si2 0.260011 0.594625 0.456531
Si Si3 0.500000 0.500000 0.000000
Si Si4 0.680475 0.406870 0.088142
Si Si5 0.068695 0.409812 0.298669
Si Si6 0.475446 0.319924 0.327057
O O1 0.209923 0.643965 0.628690
O O2 0.204052 0.642398 0.941723
O O3 0.092845 0.764345 0.782731
O O4 0.012366 0.630655 0.809134
O O5 0.235733 0.500000 0.482373
O O6 0.188204 0.624434 0.317825
O O7 0.391236 0.609154 0.404392
O O8 0.399798 0.431448 0.042526
O O9 0.699207 0.500000 0.152299
O O10 0.590900 0.354508 0.221797
O O11 0.089602 0.500000 0.231057
O O12 0.000000 0.412944 0.500000
O O13 0.500000 0.275104 0.500000
#
# Coordination Sequence:
#
# PCOD9179155 Si02
#       6
#     8   8   2   8   8   8
#     4  11  20  31  54  85 120 157 185 227 294 353
#     4  10  19  31  48  78 127 168 189 217 268 363
#     4   8  24  48  66  80 100 148 224 262 274 332
#     4  10  22  42  64  81 109 156 203 246 287 341
#     4   8  15  27  44  69 110 155 192 212 252 343
#     4  12  23  31  54  94 133 149 183 232 301 356
#
# _framework density 26.807873000000001
#
# number of rings (size 3 to 8) (size 9 to 14) (size 15 to 20)
#    0.571    1.333    1.905    5.714    2.667    0.762 
#    0.000    0.952    0.000    0.000    0.000    1.333 
#    0.000    0.000    0.000    0.000    0.000    0.000 
#
# Total GULP energy -117037.370909 kJ/mol
# GULP energy per Si atom -5573.208139 kJ/mol
# Density = 2.674686 g / cm^3
# Si number density = 26.807873 Si / 1000 Ang^3
#
#
#
# Elastic Constant Matrix: (Units=GPa)
#
#
# Indices 1 2 3 4 5 6 
#
# 1 221.5490 36.2186 29.7483 0.0000 4.5201 0.0000
# 2 36.2186 117.2969 16.8599 0.0000 0.4376 0.0000
# 3 29.7483 16.8599 87.3925 0.0000 14.6534 0.0000
# 4 0.0000 0.0000 0.0000 -25.2878 0.0000 38.8894
# 5 4.5201 0.4376 14.6534 0.0000 36.5503 0.0000
# 6 0.0000 0.0000 0.0000 38.8894 0.0000 12.5457
#
#
#
# Elastic Compliance Matrix: (Units=1/GPa)
#
#
# Indices 1 2 3 4 5 6 
#
# 1 0.004919 -0.001315 -0.001417 0.000000 -0.000025 0.000000
# 2 -0.001315 0.009133 -0.001419 0.000000 0.000622 0.000000
# 3 -0.001417 -0.001419 0.013043 0.000000 -0.005037 0.000000
# 4 0.000000 0.000000 0.000000 -0.006857 0.000000 0.021255
# 5 -0.000025 0.000622 -0.005037 0.000000 0.029375 0.000000
# 6 0.000000 0.000000 0.000000 0.021255 0.000000 0.013821
#
#
# Mechanical properties :
#
#
# Convention : Reuss Voigt Hill
#
# Bulk Modulus (GPa) = 53.20681 65.76576 59.48628
# Shear Modulus (GPa) = 64.10230 27.65573 45.87902
#
# Velocity S-wave (km/s) = 4.89527 3.21538 4.14140
# Velocity P-wave (km/s) = 7.20014 6.19438 6.71612
#
# Compressibility (1/GPa) = 0.01879459
#
# Stress axis : x y z
#
# Youngs Moduli (GPa) = 203.27594 109.49212 76.66890
#
# Poissons Ratio (x) = 0.14401 0.10862
# Poissons Ratio (y) = 0.26737 0.10876
# Poissons Ratio (z) = 0.28798 0.15532
#
# Static dielectric constant tensor:
#      x y z
#    x 2.066750 0.000000 0.079120 
#    y 0.000000 2.070260 0.000000 
#    z 0.079120 0.000000 2.405610 
# 
# From -- ./inp_files/130455.got.cif
#   From: 2010.05.17/outbox.cif.g08.bks.cpg/sg12_66_cif.got.tgz:130455.got - 2010.06.03 13:09:07.
