data_PCOD9179912
_publ_section_title
;
Structure prediction by ZEFSAII (Michael W. Deem and Ramdas Pophale) SiO2 
 PCOD9179912
Probable space group: C 2/M
;
_chemical_formula_sum "Si O2"
_cell_formula_units_Z 64
_cell_length_a 20.080273
_cell_length_b 13.204303
_cell_length_c 18.619526
_cell_angle_alpha 90.000000
_cell_angle_beta 131.812065
_cell_angle_gamma 90.000000
_cell_volume 3679.642255
_symmetry_space_group_name_H-M "C 2/M"
_symmetry_group_IT_number 12
_symmetry_cell_setting 'monoclinic'
loop_
_space_group_symop_operation_xyz
x,y,z
-x,y,-z
-x,-y,-z
x,-y,z
1/2+x,1/2+y,z
1/2-x,1/2+y,-z
1/2-x,1/2-y,-z
1/2+x,1/2-y,z
loop_
_atom_site_type_symbol
_atom_site_label
_atom_site_fract_x
_atom_site_fract_y
_atom_site_fract_z
Si Si1 0.921488 0.259184 0.891641
Si Si2 0.535198 0.381966 0.867481
Si Si3 0.105643 0.616729 0.563956
Si Si4 0.882794 0.383857 0.265234
Si Si5 0.189794 0.118048 0.083257
Si Si6 0.031082 0.761331 0.311831
Si Si7 0.650059 0.880931 0.292220
Si Si8 0.813784 0.214506 0.481138
O O1 0.852517 0.196555 0.890965
O O2 0.874379 0.338369 0.804411
O O3 0.971432 0.177879 0.876649
O O4 0.000000 0.302257 0.000000
O O5 0.512865 0.500000 0.852442
O O6 0.519494 0.335271 0.778549
O O7 0.634978 0.369484 0.970309
O O8 0.112930 0.500000 0.544737
O O9 0.146764 0.625579 0.673039
O O10 0.153291 0.691538 0.543597
O O11 0.000000 0.637836 0.500000
O O12 0.914401 0.500000 0.278813
O O13 0.795522 0.367018 0.154345
O O14 0.960740 0.306591 0.303979
O O15 0.175768 0.000000 0.096450
O O16 0.089345 0.684044 0.304242
O O17 0.096923 0.820411 0.413317
O O18 0.752713 0.857933 0.388559
O O19 0.631694 0.000000 0.284470
O O20 0.750000 0.250000 0.500000
#
# Coordination Sequence:
#
# PCOD9179912 Si02
#       8
#     8   8   8   8   8   8   8   8
#     4   9  17  32  54  78 103 132 168 217 273 318
#     4   9  18  32  51  75 105 137 172 213 262 321
#     4  10  19  33  57  85 109 135 173 227 278 318
#     4  10  19  31  52  79 106 135 171 220 274 318
#     4   9  17  30  51  80 106 131 166 215 272 322
#     4  10  20  34  51  74 103 139 178 219 267 318
#     4  10  21  35  51  73 104 139 179 221 264 318
#     4  10  21  35  52  78 109 143 177 219 271 325
#
# _framework density 17.392994000000002
#
# number of rings (size 3 to 8) (size 9 to 14) (size 15 to 20)
#    0.000    2.375    1.250    1.500    0.000    4.750 
#    0.000    6.250    0.000    3.375    0.000    0.000 
#    0.000    0.000    0.000    0.000    0.000    0.000 
#
# Total GULP energy -178322.819935 kJ/mol
# GULP energy per Si atom -5572.588123 kJ/mol
# Density = 1.735341 g / cm^3
# Si number density = 17.392994 Si / 1000 Ang^3
#
#
#
# Elastic Constant Matrix: (Units=GPa)
#
#
# Indices 1 2 3 4 5 6 
#
# 1 36.8978 8.3676 18.1752 0.0000 -0.1748 0.0000
# 2 8.3676 52.5690 42.8421 0.0000 -0.4775 0.0000
# 3 18.1752 42.8421 132.9985 0.0000 5.6223 0.0000
# 4 0.0000 0.0000 0.0000 21.5866 0.0000 2.3412
# 5 -0.1748 -0.4775 5.6223 0.0000 22.7136 0.0000
# 6 0.0000 0.0000 0.0000 2.3412 0.0000 19.4623
#
#
#
# Elastic Compliance Matrix: (Units=1/GPa)
#
#
# Indices 1 2 3 4 5 6 
#
# 1 0.029220 -0.001833 -0.003447 0.000000 0.001040 0.000000
# 2 -0.001833 0.026065 -0.008255 0.000000 0.002577 0.000000
# 3 -0.003447 -0.008255 0.010770 0.000000 -0.002866 0.000000
# 4 0.000000 0.000000 0.000000 0.046937 0.000000 -0.005646
# 5 0.001040 0.002577 -0.002866 0.000000 0.044798 0.000000
# 6 0.000000 0.000000 0.000000 -0.005646 0.000000 0.052061
#
#
# Mechanical properties :
#
#
# Convention : Reuss Voigt Hill
#
# Bulk Modulus (GPa) = 25.64946 40.13722 32.89334
# Shear Modulus (GPa) = 20.00677 22.95786 21.48232
#
# Velocity S-wave (km/s) = 3.39525 3.63705 3.51823
# Velocity P-wave (km/s) = 5.49084 6.38469 5.95456
#
# Compressibility (1/GPa) = 0.03898717
#
# Stress axis : x y z
#
# Youngs Moduli (GPa) = 34.22284 38.36560 92.84968
#
# Poissons Ratio (x) = 0.07031 0.32003
# Poissons Ratio (y) = 0.06272 0.76644
# Poissons Ratio (z) = 0.11796 0.31670
#
# Static dielectric constant tensor:
#      x y z
#    x 1.568190 0.000000 0.014350 
#    y 0.000000 1.557140 0.000000 
#    z 0.014350 0.000000 1.653720 
# 
# From -- ./inp_files/283301.got.cif
#   From: 2010.05.17/outbox.cif.g08.bks.cpg/sg12_142_cif.got.tgz:283301.got - 2010.06.03 13:09:07.
