data_PCOD9179113
_publ_section_title
;
Structure prediction by ZEFSAII (Michael W. Deem and Ramdas Pophale) SiO2 
 PCOD9179113
Probable space group: C 2/M
;
_chemical_formula_sum "Si O2"
_cell_formula_units_Z 56
_cell_length_a 25.437440
_cell_length_b 7.641101
_cell_length_c 20.052514
_cell_angle_alpha 90.000000
_cell_angle_beta 135.072203
_cell_angle_gamma 90.000000
_cell_volume 2752.549852
_symmetry_space_group_name_H-M "C 2/M"
_symmetry_group_IT_number 12
_symmetry_cell_setting 'monoclinic'
loop_
_space_group_symop_operation_xyz
x,y,z
-x,y,-z
-x,-y,-z
x,-y,z
1/2+x,1/2+y,z
1/2-x,1/2+y,-z
1/2-x,1/2-y,-z
1/2+x,1/2-y,z
loop_
_atom_site_type_symbol
_atom_site_label
_atom_site_fract_x
_atom_site_fract_y
_atom_site_fract_z
Si Si1 0.182705 0.215422 0.246477
Si Si2 0.889543 0.789142 0.224028
Si Si3 0.369743 0.286297 0.055091
Si Si4 0.283910 0.205347 0.458374
Si Si5 0.945388 0.789972 0.644074
Si Si6 0.241103 0.791932 0.156806
Si Si7 0.962711 0.786950 0.811581
O O1 0.237001 0.279209 0.354489
O O2 0.210907 0.276138 0.199956
O O3 0.098995 0.269152 0.191013
O O4 0.183380 0.000000 0.246251
O O5 0.864797 0.728430 0.127608
O O6 0.828074 0.736609 0.221996
O O7 0.974539 0.728089 0.310906
O O8 0.891094 0.000000 0.223834
O O9 0.367886 0.500000 0.054991
O O10 0.451636 0.234781 0.102026
O O11 0.305544 0.222293 0.948337
O O12 0.250000 0.250000 0.500000
O O13 0.371390 0.245367 0.537756
O O14 0.275470 0.000000 0.444543
O O15 0.939196 0.730282 0.715689
O O16 0.948737 0.000000 0.649794
O O17 0.228397 0.000000 0.146224
O O18 0.962260 0.000000 0.811007
#
# Coordination Sequence:
#
# PCOD9179113 Si02
#       7
#     8   8   8   8   8   8   8
#     4   9  18  30  46  71 103 131 156 196 247 292
#     4   9  18  33  52  72  98 131 164 200 245 287
#     4   8  15  27  48  75  97 124 164 203 239 283
#     4  11  20  32  52  76 100 127 161 199 245 292
#     4   9  17  32  53  74  96 125 163 205 244 283
#     4  10  19  31  48  73 101 129 165 202 236 285
#     4   8  13  26  47  71  99 124 153 199 247 283
#
# _framework density 20.344773
#
# number of rings (size 3 to 8) (size 9 to 14) (size 15 to 20)
#    0.000    2.857    1.429    2.571    0.000    1.143 
#    0.000    5.000    0.000    5.143    0.000    1.000 
#    0.000    0.000    0.000    0.000    0.000    0.000 
#
# Total GULP energy -156171.667106 kJ/mol
# GULP energy per Si atom -5577.559540 kJ/mol
# Density = 2.029847 g / cm^3
# Si number density = 20.344773 Si / 1000 Ang^3
#
#
#
# Elastic Constant Matrix: (Units=GPa)
#
#
# Indices 1 2 3 4 5 6 
#
# 1 138.3143 -4.5744 16.5716 0.0000 9.8918 0.0000
# 2 -4.5744 33.9830 -2.3771 -0.0001 -2.9180 0.0000
# 3 16.5716 -2.3771 30.6719 0.0000 13.6861 0.0000
# 4 0.0000 -0.0001 0.0000 11.9015 0.0000 4.6188
# 5 9.8918 -2.9180 13.6861 0.0000 20.3869 0.0000
# 6 0.0000 0.0000 0.0000 4.6188 0.0000 18.4814
#
#
#
# Elastic Compliance Matrix: (Units=1/GPa)
#
#
# Indices 1 2 3 4 5 6 
#
# 1 0.007772 0.000687 -0.003579 0.000000 -0.001270 0.000000
# 2 0.000687 0.029861 0.000264 0.000000 0.003764 0.000000
# 3 -0.003579 0.000264 0.048206 0.000000 -0.030587 0.000000
# 4 0.000000 0.000000 0.000000 0.093047 0.000000 -0.023254
# 5 -0.001270 0.003764 -0.030587 0.000000 0.070739 0.000000
# 6 0.000000 0.000000 0.000000 -0.023254 0.000000 0.059920
#
#
# Mechanical properties :
#
#
# Convention : Reuss Voigt Hill
#
# Bulk Modulus (GPa) = 12.40993 24.68993 18.54993
# Shear Modulus (GPa) = 14.63429 23.04390 18.83910
#
# Velocity S-wave (km/s) = 2.68491 3.36917 3.04631
# Velocity P-wave (km/s) = 3.96544 5.22467 4.63799
#
# Compressibility (1/GPa) = 0.08058065
#
# Stress axis : x y z
#
# Youngs Moduli (GPa) = 128.66207 33.48899 20.74452
#
# Poissons Ratio (x) = -0.02300 0.07425
# Poissons Ratio (y) = -0.08837 -0.00547
# Poissons Ratio (z) = 0.46053 -0.00883
#
# Static dielectric constant tensor:
#      x y z
#    x 1.703580 0.000000 0.013830 
#    y 0.000000 1.795550 0.000000 
#    z 0.013830 0.000000 1.727850 
# 
# From -- ./inp_files/281610.got.cif
#   From: 2010.05.17/outbox.cif.g08.bks.cpg/sg12_141_cif.got.tgz:281610.got - 2010.06.03 13:09:07.
