data_PCOD9179992
_publ_section_title
;
Structure prediction by ZEFSAII (Michael W. Deem and Ramdas Pophale) SiO2 
 PCOD9179992
Probable space group: C 2/M
;
_chemical_formula_sum "Si O2"
_cell_formula_units_Z 56
_cell_length_a 23.304458
_cell_length_b 9.939132
_cell_length_c 14.362851
_cell_angle_alpha 90.000000
_cell_angle_beta 127.254844
_cell_angle_gamma 90.000000
_cell_volume 2647.977912
_symmetry_space_group_name_H-M "C 2/M"
_symmetry_group_IT_number 12
_symmetry_cell_setting 'monoclinic'
loop_
_space_group_symop_operation_xyz
x,y,z
-x,y,-z
-x,-y,-z
x,-y,z
1/2+x,1/2+y,z
1/2-x,1/2+y,-z
1/2-x,1/2-y,-z
1/2+x,1/2-y,z
loop_
_atom_site_type_symbol
_atom_site_label
_atom_site_fract_x
_atom_site_fract_y
_atom_site_fract_z
Si Si1 0.101080 0.655398 0.549751
Si Si2 0.643564 0.158965 0.091276
Si Si3 0.866322 0.151866 0.095094
Si Si4 0.755275 0.638822 0.430267
Si Si5 0.401691 0.651627 0.798197
Si Si6 0.526836 0.345134 0.331559
Si Si7 0.311385 0.345144 0.236070
O O1 0.080016 0.500000 0.549038
O O2 0.172839 0.648388 0.557382
O O3 0.045720 0.741770 0.432644
O O4 0.130840 0.741590 0.665428
O O5 0.593678 0.235724 0.117917
O O6 0.730229 0.170721 0.195388
O O7 0.627522 0.000000 0.070246
O O8 0.633561 0.237847 0.984698
O O9 0.809633 0.171859 0.122744
O O10 0.943221 0.154986 0.222607
O O11 0.856485 0.000000 0.045937
O O12 0.756175 0.500000 0.486200
O O13 0.750000 0.750000 0.500000
O O14 0.684175 0.639564 0.298921
O O15 0.429385 0.500000 0.848784
O O16 0.432932 0.688099 0.726987
O O17 0.547727 0.500000 0.377020
O O18 0.333967 0.500000 0.276838
#
# Coordination Sequence:
#
# PCOD9179992 Si02
#       7
#     8   8   8   8   8   8   8
#     4  11  22  35  57  89 121 152 186 234 292 342
#     4  11  23  38  61  90 116 147 189 242 297 339
#     4  10  23  43  63  82 111 154 200 241 282 336
#     4  10  19  31  52  83 116 150 186 232 286 336
#     4  10  20  36  58  85 117 151 190 233 282 344
#     4  10  22  40  61  85 116 157 196 231 279 343
#     4  10  22  40  62  87 114 149 194 241 288 340
#
# _framework density 21.148212999999998
#
# number of rings (size 3 to 8) (size 9 to 14) (size 15 to 20)
#    0.000    1.714    2.857    1.286    0.000    4.571 
#    0.000    5.714    0.000    0.000    0.000    0.000 
#    0.000    0.000    0.000    0.000    0.000    0.000 
#
# Total GULP energy -156236.695638 kJ/mol
# GULP energy per Si atom -5579.881987 kJ/mol
# Density = 2.110008 g / cm^3
# Si number density = 21.148213 Si / 1000 Ang^3
#
#
#
# Elastic Constant Matrix: (Units=GPa)
#
#
# Indices 1 2 3 4 5 6 
#
# 1 22.6711 18.7959 5.3702 0.0000 8.1439 0.0000
# 2 18.7959 177.4694 73.7827 0.0000 -30.2569 0.0000
# 3 5.3702 73.7827 65.0077 0.0000 -10.2231 0.0000
# 4 0.0000 0.0000 0.0000 39.2121 0.0000 -5.4698
# 5 8.1439 -30.2569 -10.2231 0.0000 23.2196 0.0000
# 6 0.0000 0.0000 0.0000 -5.4698 0.0000 15.1873
#
#
#
# Elastic Compliance Matrix: (Units=1/GPa)
#
#
# Indices 1 2 3 4 5 6 
#
# 1 0.076353 -0.020123 0.008807 0.000000 -0.049124 0.000000
# 2 -0.020123 0.018186 -0.015194 0.000000 0.024066 0.000000
# 3 0.008807 -0.015194 0.030406 0.000000 -0.009500 0.000000
# 4 0.000000 0.000000 0.000000 0.026851 0.000000 0.009671
# 5 -0.049124 0.024066 -0.009500 0.000000 0.087473 0.000000
# 6 0.000000 0.000000 0.000000 0.009671 0.000000 0.069328
#
#
# Mechanical properties :
#
#
# Convention : Reuss Voigt Hill
#
# Bulk Modulus (GPa) = 13.90349 51.22729 32.56539
# Shear Modulus (GPa) = 12.96710 26.67043 19.81877
#
# Velocity S-wave (km/s) = 2.47888 3.55508 3.06459
# Velocity P-wave (km/s) = 3.84470 6.41303 5.28719
#
# Compressibility (1/GPa) = 0.07192441
#
# Stress axis : x y z
#
# Youngs Moduli (GPa) = 13.09709 54.98816 32.88858
#
# Poissons Ratio (x) = 1.10654 -0.28964
# Poissons Ratio (y) = 0.26356 0.49969
# Poissons Ratio (z) = -0.11534 0.83547
#
# Static dielectric constant tensor:
#      x y z
#    x 1.779760 0.000000 0.011970 
#    y 0.000000 1.777900 0.000000 
#    z 0.011970 0.000000 1.765920 
# 
# From -- ./inp_files/238933.got.cif
#   From: 2010.05.17/outbox.cif.g08.bks.cpg/sg12_120_cif.got.tgz:238933.got - 2010.06.03 13:09:07.
