data_PCOD9179243
_publ_section_title
;
Structure prediction by ZEFSAII (Michael W. Deem and Ramdas Pophale) SiO2 
 PCOD9179243
Probable space group: C 2/M
;
_chemical_formula_sum "Si O2"
_cell_formula_units_Z 56
_cell_length_a 12.995939
_cell_length_b 13.239025
_cell_length_c 26.858298
_cell_angle_alpha 90.000000
_cell_angle_beta 40.790539
_cell_angle_gamma 90.000000
_cell_volume 3018.921949
_symmetry_space_group_name_H-M "C 2/M"
_symmetry_group_IT_number 12
_symmetry_cell_setting 'monoclinic'
loop_
_space_group_symop_operation_xyz
x,y,z
-x,y,-z
-x,-y,-z
x,-y,z
1/2+x,1/2+y,z
1/2-x,1/2+y,-z
1/2-x,1/2-y,-z
1/2+x,1/2-y,z
loop_
_atom_site_type_symbol
_atom_site_label
_atom_site_fract_x
_atom_site_fract_y
_atom_site_fract_z
Si Si1 0.567957 0.761195 0.686094
Si Si2 0.351960 0.118146 0.088782
Si Si3 0.161832 0.819943 0.354228
Si Si4 0.497945 0.382048 0.195304
Si Si5 0.008305 0.612779 0.436645
Si Si6 0.274916 0.749100 0.212157
Si Si7 0.346918 0.613675 0.434349
O O1 0.701583 0.838378 0.655780
O O2 0.541858 0.680612 0.740218
O O3 0.393709 0.801942 0.738692
O O4 0.626288 0.697154 0.617632
O O5 0.186370 0.127269 0.120189
O O6 0.337325 0.189295 0.142166
O O7 0.365971 0.000000 0.098746
O O8 0.500000 0.143403 0.000000
O O9 0.232750 0.826999 0.272754
O O10 0.115900 0.702145 0.378309
O O11 0.994229 0.875625 0.417761
O O12 0.460059 0.500000 0.214794
O O13 0.399837 0.329779 0.187539
O O14 0.063368 0.500000 0.403952
O O15 0.830565 0.626486 0.481221
O O16 0.000000 0.619524 0.500000
O O17 0.351502 0.500000 0.411147
#
# Coordination Sequence:
#
# PCOD9179243 Si02
#       7
#     8   8   8   8   8   8   8
#     4   9  17  31  48  71  99 131 170 210 248 286
#     4   9  18  34  56  80 104 129 161 203 245 288
#     4  10  19  31  49  73 101 130 163 209 256 294
#     4   9  17  30  50  74 102 134 167 200 240 290
#     4  10  19  31  50  75  96 125 170 215 256 294
#     4   9  19  31  49  77 102 130 166 203 246 292
#     4  10  19  31  49  72  96 127 168 211 256 299
#
# _framework density 18.549668
#
# number of rings (size 3 to 8) (size 9 to 14) (size 15 to 20)
#    0.000    2.571    1.429    0.857    0.000    6.286 
#    0.000    0.714    0.000    6.857    0.000    0.000 
#    0.000    0.000    0.000    0.000    0.000    0.000 
#
# Total GULP energy -156132.538558 kJ/mol
# GULP energy per Si atom -5576.162091 kJ/mol
# Density = 1.850745 g / cm^3
# Si number density = 18.549668 Si / 1000 Ang^3
#
#
#
# Elastic Constant Matrix: (Units=GPa)
#
#
# Indices 1 2 3 4 5 6 
#
# 1 98.4557 22.7448 18.1074 0.0000 -19.9573 0.0000
# 2 22.7448 32.2937 18.0547 0.0000 -2.0883 0.0000
# 3 18.1074 18.0547 59.8947 0.0000 -12.8926 0.0000
# 4 0.0000 0.0000 0.0000 9.5484 0.0000 -1.9037
# 5 -19.9573 -2.0883 -12.8926 0.0000 25.6562 0.0000
# 6 0.0000 0.0000 0.0000 -1.9037 0.0000 19.9744
#
#
#
# Elastic Compliance Matrix: (Units=1/GPa)
#
#
# Indices 1 2 3 4 5 6 
#
# 1 0.014529 -0.010089 0.001015 0.000000 0.010990 0.000000
# 2 -0.010089 0.044446 -0.012624 0.000000 -0.010574 0.000000
# 3 0.001015 -0.012624 0.022586 0.000000 0.011112 0.000000
# 4 0.000000 0.000000 0.000000 0.106758 0.000000 0.010175
# 5 0.010990 -0.010574 0.011112 0.000000 0.052249 0.000000
# 6 0.000000 0.000000 0.000000 0.010175 0.000000 0.051034
#
#
# Mechanical properties :
#
#
# Convention : Reuss Voigt Hill
#
# Bulk Modulus (GPa) = 26.20262 34.27310 30.23786
# Shear Modulus (GPa) = 14.37940 19.81829 17.09885
#
# Velocity S-wave (km/s) = 2.78723 3.27217 3.03939
# Velocity P-wave (km/s) = 4.95122 5.72649 5.35290
#
# Compressibility (1/GPa) = 0.03816413
#
# Stress axis : x y z
#
# Youngs Moduli (GPa) = 68.82886 22.49939 44.27463
#
# Poissons Ratio (x) = 0.22701 -0.04493
# Poissons Ratio (y) = 0.69444 0.55891
# Poissons Ratio (z) = -0.06984 0.28402
#
# Static dielectric constant tensor:
#      x y z
#    x 1.707810 0.000000 -0.037550 
#    y 0.000000 1.626860 0.000000 
#    z -0.037550 0.000000 1.643950 
# 
# From -- ./inp_files/373968.got.cif
#   From: 2010.05.17/outbox.cif.g08.bks.cpg/sg12_187_cif.got.tgz:373968.got - 2010.06.03 13:09:07.
