data_PCOD9179968
_publ_section_title
;
Structure prediction by ZEFSAII (Michael W. Deem and Ramdas Pophale) SiO2 
 PCOD9179968
Probable space group: C 2/M
;
_chemical_formula_sum "Si O2"
_cell_formula_units_Z 64
_cell_length_a 18.270304
_cell_length_b 14.802035
_cell_length_c 21.007018
_cell_angle_alpha 90.000000
_cell_angle_beta 30.148417
_cell_angle_gamma 90.000000
_cell_volume 2853.279567
_symmetry_space_group_name_H-M "C 2/M"
_symmetry_group_IT_number 12
_symmetry_cell_setting 'monoclinic'
loop_
_space_group_symop_operation_xyz
x,y,z
-x,y,-z
-x,-y,-z
x,-y,z
1/2+x,1/2+y,z
1/2-x,1/2+y,-z
1/2-x,1/2-y,-z
1/2+x,1/2-y,z
loop_
_atom_site_type_symbol
_atom_site_label
_atom_site_fract_x
_atom_site_fract_y
_atom_site_fract_z
Si Si1 0.550537 0.871435 0.323554
Si Si2 0.620406 0.397601 0.953562
Si Si3 0.453624 0.635776 0.298296
Si Si4 0.221322 0.107666 0.010033
Si Si5 0.224912 0.194909 0.337245
Si Si6 0.205916 0.402156 0.385793
Si Si7 0.963445 0.338508 0.254510
Si Si8 0.537337 0.333567 0.367447
O O1 0.717376 0.903044 0.197005
O O2 0.447504 0.896361 0.460221
O O3 0.475639 0.894960 0.311571
O O4 0.566583 0.763642 0.314323
O O5 0.566984 0.500000 0.005727
O O6 0.500000 0.352200 0.000000
O O7 0.637633 0.356737 0.010309
O O8 0.612753 0.619858 0.149376
O O9 0.330426 0.593260 0.346604
O O10 0.415466 0.741039 0.316879
O O11 0.472124 0.609765 0.357971
O O12 0.251086 0.000000 0.979742
O O13 0.374028 0.158002 0.895591
O O14 0.232363 0.306469 0.328844
O O15 0.358052 0.147980 0.273887
O O16 0.179639 0.150467 0.303997
O O17 0.091824 0.178531 0.485478
O O18 0.211189 0.500000 0.347445
#
# Coordination Sequence:
#
# PCOD9179968 Si02
#       8
#     8   8   8   8   8   8   8   8
#     4   9  17  31  49  74 102 134 175 216 256 308
#     4   9  18  31  47  69 103 144 175 203 249 312
#     4  10  19  33  53  77 106 143 183 219 261 319
#     4  10  20  34  52  76 105 137 177 225 273 317
#     4   9  18  34  54  77 104 139 181 221 267 319
#     4  10  19  31  52  82 112 140 172 218 274 324
#     4   9  18  33  54  74  98 137 183 221 253 311
#     4   9  18  33  52  75 103 135 177 224 265 312
#
# _framework density 22.430330000000001
#
# number of rings (size 3 to 8) (size 9 to 14) (size 15 to 20)
#    0.000    2.625    0.000    1.875    0.000    5.500 
#    0.000    7.500    0.000    3.000    0.000    5.250 
#    0.000    0.000    0.000    0.000    0.000    0.000 
#
# Total GULP energy -178326.551070 kJ/mol
# GULP energy per Si atom -5572.704721 kJ/mol
# Density = 2.237928 g / cm^3
# Si number density = 22.430330 Si / 1000 Ang^3
#
#
#
# Elastic Constant Matrix: (Units=GPa)
#
#
# Indices 1 2 3 4 5 6 
#
# 1 133.7957 -9.7882 5.7474 -0.0002 -19.5598 0.0000
# 2 -9.7882 31.8414 -9.3777 0.0000 -3.8305 0.0001
# 3 5.7474 -9.3777 25.9815 -0.0014 1.5043 0.0005
# 4 -0.0002 0.0000 -0.0014 54.0936 0.0003 -19.3959
# 5 -19.5598 -3.8305 1.5043 0.0003 31.8372 -0.0001
# 6 0.0000 0.0001 0.0005 -19.3959 -0.0001 2.5627
#
#
#
# Elastic Compliance Matrix: (Units=1/GPa)
#
#
# Indices 1 2 3 4 5 6 
#
# 1 0.008572 0.002980 -0.001149 0.000000 0.005679 0.000000
# 2 0.002980 0.036602 0.012225 0.000001 0.005657 0.000001
# 3 -0.001149 0.012225 0.043229 0.000001 -0.001278 0.000001
# 4 0.000000 0.000001 0.000001 -0.010787 0.000000 -0.081641
# 5 0.005679 0.005657 -0.001278 0.000000 0.035640 0.000000
# 6 0.000000 0.000001 0.000001 -0.081641 0.000000 -0.227691
#
#
# Mechanical properties :
#
#
# Convention : Reuss Voigt Hill
#
# Bulk Modulus (GPa) = 8.58275 18.30906 13.44590
# Shear Modulus (GPa) = -48.21300 31.36784 -8.42258
#
# Velocity S-wave (km/s) = -4.64125 3.74365 -1.93988
# Velocity P-wave (km/s) = 4.98868 5.18333 0.99499
#
# Compressibility (1/GPa) = 0.11651283
#
# Stress axis : x y z
#
# Youngs Moduli (GPa) = 116.66350 27.32064 23.13237
#
# Poissons Ratio (x) = -0.08140 0.02659
# Poissons Ratio (y) = -0.34761 -0.28278
# Poissons Ratio (z) = 0.13410 -0.33398
#
# Static dielectric constant tensor:
#      x y z
#    x 1.956760 0.000000 -0.013800 
#    y 0.000000 1.882490 0.000000 
#    z -0.013800 0.000000 1.809820 
# 
# From -- ./inp_files/317355.got.cif
#   From: 2010.05.17/outbox.cif.g08.bks.cpg/sg12_159_cif.got.tgz:317355.got - 2010.06.03 13:09:07.
