data_PCOD9179551
_publ_section_title
;
Structure prediction by ZEFSAII (Michael W. Deem and Ramdas Pophale) SiO2 
 PCOD9179551
Probable space group: C 2/M
;
_chemical_formula_sum "Si O2"
_cell_formula_units_Z 64
_cell_length_a 31.249649
_cell_length_b 9.996214
_cell_length_c 17.874683
_cell_angle_alpha 90.000000
_cell_angle_beta 143.534010
_cell_angle_gamma 90.000000
_cell_volume 3318.623874
_symmetry_space_group_name_H-M "C 2/M"
_symmetry_group_IT_number 12
_symmetry_cell_setting 'monoclinic'
loop_
_space_group_symop_operation_xyz
x,y,z
-x,y,-z
-x,-y,-z
x,-y,z
1/2+x,1/2+y,z
1/2-x,1/2+y,-z
1/2-x,1/2-y,-z
1/2+x,1/2-y,z
loop_
_atom_site_type_symbol
_atom_site_label
_atom_site_fract_x
_atom_site_fract_y
_atom_site_fract_z
Si Si1 0.266613 0.150442 0.770588
Si Si2 0.561750 0.848043 0.535949
Si Si3 0.319318 0.157069 0.598128
Si Si4 0.845566 0.850160 0.085006
Si Si5 0.343050 0.157817 0.460379
Si Si6 0.537869 0.837391 0.128795
Si Si7 0.194057 0.257213 0.812262
Si Si8 0.912337 0.341167 0.060068
O O1 0.226583 0.256761 0.662062
O O2 0.224428 0.159408 0.790713
O O3 0.262466 0.000000 0.734138
O O4 0.348916 0.179731 0.909140
O O5 0.500000 0.781609 0.500000
O O6 0.589633 0.793020 0.495625
O O7 0.633452 0.844976 0.687251
O O8 0.537244 0.000000 0.486090
O O9 0.250000 0.250000 0.500000
O O10 0.353855 0.166403 0.563805
O O11 0.379869 0.202238 0.742171
O O12 0.301562 0.000000 0.585782
O O13 0.840058 0.815697 0.164566
O O14 0.891628 0.743232 0.103519
O O15 0.871930 0.000000 0.109939
O O16 0.763641 0.837267 0.938980
O O17 0.332028 0.000000 0.426664
O O18 0.487005 0.801629 0.126932
O O19 0.538433 0.000000 0.127068
O O20 0.500000 0.789292 0.000000
O O21 0.912662 0.500000 0.077439
#
# Coordination Sequence:
#
# PCOD9179551 Si02
#       8
#     8   8   8   8   8   8   8   8
#     4   9  17  30  52  79 105 137 179 224 266 317
#     4   9  17  30  50  75 103 138 180 222 265 317
#     4  10  22  39  61  86 114 148 188 234 282 337
#     4  10  19  31  50  75 107 145 179 222 276 327
#     4   9  19  34  51  77 110 140 174 221 276 330
#     4   9  19  37  61  85 111 142 183 232 281 333
#     4   9  18  30  47  71 105 141 184 224 263 314
#     4   9  19  33  52  80 106 135 180 229 276 329
#
# _framework density 19.285101000000001
#
# number of rings (size 3 to 8) (size 9 to 14) (size 15 to 20)
#    0.000    2.750    0.000    0.750    1.750    8.000 
#    0.000    3.125    0.000   13.125    0.000    0.000 
#    0.000    0.000    0.000    0.000    0.000    0.000 
#
# Total GULP energy -178369.930890 kJ/mol
# GULP energy per Si atom -5574.060340 kJ/mol
# Density = 1.924121 g / cm^3
# Si number density = 19.285101 Si / 1000 Ang^3
#
#
#
# Elastic Constant Matrix: (Units=GPa)
#
#
# Indices 1 2 3 4 5 6 
#
# 1 74.1100 18.5175 38.4304 0.0000 10.6904 0.0000
# 2 18.5175 53.1735 22.8790 0.0000 2.3262 0.0000
# 3 38.4304 22.8790 77.3468 0.0000 3.8575 0.0000
# 4 0.0000 0.0000 0.0000 17.3990 0.0000 -0.3350
# 5 10.6904 2.3262 3.8575 0.0000 30.7021 0.0000
# 6 0.0000 0.0000 0.0000 -0.3350 0.0000 10.9052
#
#
#
# Elastic Compliance Matrix: (Units=1/GPa)
#
#
# Indices 1 2 3 4 5 6 
#
# 1 0.019420 -0.002852 -0.008532 0.000000 -0.005474 0.000000
# 2 -0.002852 0.021989 -0.005085 0.000000 -0.000034 0.000000
# 3 -0.008532 -0.005085 0.018622 0.000000 0.001017 0.000000
# 4 0.000000 0.000000 0.000000 0.057509 0.000000 0.001766
# 5 -0.005474 -0.000034 0.001017 0.000000 0.034352 0.000000
# 6 0.000000 0.000000 0.000000 0.001766 0.000000 0.091754
#
#
# Mechanical properties :
#
#
# Convention : Reuss Voigt Hill
#
# Bulk Modulus (GPa) = 36.91277 40.47601 38.69439
# Shear Modulus (GPa) = 17.50597 20.12147 18.81372
#
# Velocity S-wave (km/s) = 3.01615 3.23363 3.12678
# Velocity P-wave (km/s) = 5.59568 5.91402 5.75705
#
# Compressibility (1/GPa) = 0.02709090
#
# Stress axis : x y z
#
# Youngs Moduli (GPa) = 51.49229 45.47670 53.70055
#
# Poissons Ratio (x) = 0.12971 0.45820
# Poissons Ratio (y) = 0.14687 0.27309
# Poissons Ratio (z) = 0.43936 0.23127
#
# Static dielectric constant tensor:
#      x y z
#    x 1.713870 0.000000 -0.003430 
#    y 0.000000 1.652200 0.000000 
#    z -0.003430 0.000000 1.682160 
# 
# From -- ./inp_files/295749.got.cif
#   From: 2010.05.17/outbox.cif.g08.bks.cpg/sg12_148_cif.got.tgz:295749.got - 2010.06.03 13:09:07.
