data_PCOD9179624
_publ_section_title
;
Structure prediction by ZEFSAII (Michael W. Deem and Ramdas Pophale) SiO2 
 PCOD9179624
Probable space group: C 2/M
;
_chemical_formula_sum "Si O2"
_cell_formula_units_Z 56
_cell_length_a 23.567905
_cell_length_b 7.391445
_cell_length_c 17.391441
_cell_angle_alpha 90.000000
_cell_angle_beta 125.808505
_cell_angle_gamma 90.000000
_cell_volume 2456.939273
_symmetry_space_group_name_H-M "C 2/M"
_symmetry_group_IT_number 12
_symmetry_cell_setting 'monoclinic'
loop_
_space_group_symop_operation_xyz
x,y,z
-x,y,-z
-x,-y,-z
x,-y,z
1/2+x,1/2+y,z
1/2-x,1/2+y,-z
1/2-x,1/2-y,-z
1/2+x,1/2-y,z
loop_
_atom_site_type_symbol
_atom_site_label
_atom_site_fract_x
_atom_site_fract_y
_atom_site_fract_z
Si Si1 0.537505 0.220714 0.949172
Si Si2 0.881508 0.282119 0.249085
Si Si3 0.855118 0.707033 0.384116
Si Si4 0.076244 0.279536 0.268397
Si Si5 0.461788 0.779797 0.590821
Si Si6 0.268386 0.214725 0.603583
Si Si7 0.332763 0.783221 0.047290
O O1 0.484317 0.274984 0.838262
O O2 0.616574 0.278429 0.984055
O O3 0.539014 0.000000 0.953696
O O4 0.500000 0.278177 0.000000
O O5 0.876910 0.500000 0.234286
O O6 0.834122 0.222034 0.283259
O O7 0.868432 0.211618 0.153992
O O8 0.957208 0.234885 0.342321
O O9 0.877482 0.500000 0.386847
O O10 0.917513 0.790466 0.484130
O O11 0.790314 0.704627 0.389317
O O12 0.074222 0.500000 0.267418
O O13 0.066131 0.221035 0.348386
O O14 0.154704 0.222316 0.310977
O O15 0.456592 0.000000 0.585194
O O16 0.250000 0.250000 0.500000
O O17 0.266328 0.000000 0.612397
O O18 0.337566 0.000000 0.046111
O O19 0.250000 0.750000 0.000000
#
# Coordination Sequence:
#
# PCOD9179624 Si02
#       7
#     8   8   8   8   8   8   8
#     4   9  17  31  53  79 104 133 176 227 271 312
#     4   9  17  30  51  77 102 132 174 217 256 305
#     4  10  19  31  50  78 106 134 170 212 259 310
#     4   9  16  28  48  72  96 126 171 216 250 291
#     4   9  14  26  49  74  96 124 169 217 250 291
#     4  11  21  33  50  74 106 141 173 211 256 306
#     4  10  20  35  56  80 107 139 176 223 274 323
#
# _framework density 22.792586
#
# number of rings (size 3 to 8) (size 9 to 14) (size 15 to 20)
#    0.000    2.429    2.857    0.857    0.000    2.857 
#    0.000    2.143    0.000    6.429    0.000    0.000 
#    0.000    0.000    0.000    0.000    0.000    0.000 
#
# Total GULP energy -156029.421370 kJ/mol
# GULP energy per Si atom -5572.479335 kJ/mol
# Density = 2.274071 g / cm^3
# Si number density = 22.792586 Si / 1000 Ang^3
#
#
#
# Elastic Constant Matrix: (Units=GPa)
#
#
# Indices 1 2 3 4 5 6 
#
# 1 170.4710 -0.2224 67.3067 0.0000 -12.1063 0.0000
# 2 -0.2224 78.8067 3.7010 0.0000 -1.9689 0.0000
# 3 67.3067 3.7010 73.4087 0.0000 -6.0694 0.0000
# 4 0.0000 0.0000 0.0000 -8.7569 0.0000 5.6506
# 5 -12.1063 -1.9689 -6.0694 0.0000 39.2155 0.0000
# 6 0.0000 0.0000 0.0000 5.6506 0.0000 13.5638
#
#
#
# Elastic Compliance Matrix: (Units=1/GPa)
#
#
# Indices 1 2 3 4 5 6 
#
# 1 0.009306 0.000462 -0.008424 0.000000 0.001592 0.000000
# 2 0.000462 0.012754 -0.001015 0.000000 0.000626 0.000000
# 3 -0.008424 -0.001015 0.021452 0.000000 0.000669 0.000000
# 4 0.000000 0.000000 0.000000 -0.090002 0.000000 0.037494
# 5 0.001592 0.000626 0.000669 0.000000 0.026127 0.000000
# 6 0.000000 0.000000 0.000000 0.037494 0.000000 0.058106
#
#
# Mechanical properties :
#
#
# Convention : Reuss Voigt Hill
#
# Bulk Modulus (GPa) = 39.12585 51.58413 45.35499
# Shear Modulus (GPa) = 77.86252 25.59788 51.73020
#
# Velocity S-wave (km/s) = 5.85111 3.35487 4.76921
# Velocity P-wave (km/s) = 7.92784 6.13906 7.09009
#
# Compressibility (1/GPa) = 0.02555855
#
# Stress axis : x y z
#
# Youngs Moduli (GPa) = 107.46050 78.40764 46.61479
#
# Poissons Ratio (x) = -0.03620 0.39268
# Poissons Ratio (y) = -0.04961 0.04729
# Poissons Ratio (z) = 0.90523 0.07955
#
# Static dielectric constant tensor:
#      x y z
#    x 1.886060 0.000000 0.023190 
#    y 0.000000 1.899580 0.000000 
#    z 0.023190 0.000000 1.806800 
# 
# From -- ./inp_files/288423.got.cif
#   From: 2010.05.17/outbox.cif.g08.bks.cpg/sg12_145_cif.got.tgz:288423.got - 2010.06.03 13:09:07.
