data_PCOD9179655
_publ_section_title
;
Structure prediction by ZEFSAII (Michael W. Deem and Ramdas Pophale) SiO2 
 PCOD9179655
Probable space group: C 2/M
;
_chemical_formula_sum "Si O2"
_cell_formula_units_Z 56
_cell_length_a 24.270857
_cell_length_b 14.584053
_cell_length_c 13.233287
_cell_angle_alpha 90.000000
_cell_angle_beta 140.778658
_cell_angle_gamma 90.000000
_cell_volume 2961.873898
_symmetry_space_group_name_H-M "C 2/M"
_symmetry_group_IT_number 12
_symmetry_cell_setting 'monoclinic'
loop_
_space_group_symop_operation_xyz
x,y,z
-x,y,-z
-x,-y,-z
x,-y,z
1/2+x,1/2+y,z
1/2-x,1/2+y,-z
1/2-x,1/2-y,-z
1/2+x,1/2-y,z
loop_
_atom_site_type_symbol
_atom_site_label
_atom_site_fract_x
_atom_site_fract_y
_atom_site_fract_z
Si Si1 0.644181 0.221106 0.466096
Si Si2 0.613617 0.395114 0.133220
Si Si3 0.535461 0.500000 0.384307
Si Si4 0.222592 0.110535 0.480149
Si Si5 0.478180 0.324448 0.183581
Si Si6 0.699624 0.899994 0.712212
Si Si7 0.859906 0.000000 0.270653
Si Si8 0.705526 0.344932 0.959737
O O1 0.691971 0.148701 0.458180
O O2 0.701128 0.315347 0.536855
O O3 0.544823 0.242003 0.295546
O O4 0.646895 0.180244 0.582941
O O5 0.584227 0.500000 0.086348
O O6 0.642445 0.372870 0.287471
O O7 0.706707 0.394432 0.209484
O O8 0.549367 0.337262 0.972198
O O9 0.527516 0.412611 0.301004
O O10 0.450001 0.500000 0.334252
O O11 0.615507 0.500000 0.576484
O O12 0.227429 0.000000 0.506615
O O13 0.387092 0.324947 0.116495
O O14 0.660540 0.000000 0.635837
O O15 0.727389 0.892207 0.867276
O O16 0.811267 0.909809 0.160296
O O17 0.750000 0.250000 0.000000
#
# Coordination Sequence:
#
# PCOD9179655 Si02
#       8
#     8   8   4   8   8   8   4   8
#     4  10  20  31  51  81 105 135 172 220 264 307
#     4   8  14  29  51  73 101 136 169 211 264 314
#     4   9  18  30  48  77 110 133 163 224 277 316
#     4   9  19  35  53  76 106 139 175 215 264 317
#     4  10  19  31  50  80 109 136 174 213 268 313
#     4   9  17  34  56  75 100 139 180 214 260 311
#     4   9  18  34  52  74 105 143 169 212 280 308
#     4  10  20  35  56  77 105 143 177 215 258 317
#
# _framework density 18.906949000000001
#
# number of rings (size 3 to 8) (size 9 to 14) (size 15 to 20)
#    0.000    2.714    1.429    1.286    3.000    0.571 
#    0.000    1.429    3.143    0.857    0.000   35.000 
#    0.000    0.000    0.000    0.000    0.000    0.000 
#
# Total GULP energy -155964.500905 kJ/mol
# GULP energy per Si atom -5570.160747 kJ/mol
# Density = 1.886392 g / cm^3
# Si number density = 18.906949 Si / 1000 Ang^3
#
#
#
# Elastic Constant Matrix: (Units=GPa)
#
#
# Indices 1 2 3 4 5 6 
#
# 1 36.2894 24.5281 25.2849 0.0000 -7.4390 0.0000
# 2 24.5281 119.1760 60.5880 0.0000 -4.9425 0.0000
# 3 25.2849 60.5880 118.7766 0.0000 -9.9782 0.0000
# 4 0.0000 0.0000 0.0000 36.9922 0.0000 -4.3241
# 5 -7.4390 -4.9425 -9.9782 0.0000 24.7910 0.0000
# 6 0.0000 0.0000 0.0000 -4.3241 0.0000 9.6126
#
#
#
# Elastic Compliance Matrix: (Units=1/GPa)
#
#
# Indices 1 2 3 4 5 6 
#
# 1 0.035478 -0.004688 -0.004498 0.000000 0.007901 0.000000
# 2 -0.004688 0.011948 -0.005191 0.000000 -0.001114 0.000000
# 3 -0.004498 -0.005191 0.012238 0.000000 0.002541 0.000000
# 4 0.000000 0.000000 0.000000 0.028533 0.000000 0.012835
# 5 0.007901 -0.001114 0.002541 0.000000 0.043509 0.000000
# 6 0.000000 0.000000 0.000000 0.012835 0.000000 0.109804
#
#
# Mechanical properties :
#
#
# Convention : Reuss Voigt Hill
#
# Bulk Modulus (GPa) = 32.34919 55.00488 43.67703
# Shear Modulus (GPa) = 17.82114 25.20190 21.51152
#
# Velocity S-wave (km/s) = 3.07346 3.65491 3.37673
# Velocity P-wave (km/s) = 5.45360 6.85323 6.19308
#
# Compressibility (1/GPa) = 0.03091268
#
# Stress axis : x y z
#
# Youngs Moduli (GPa) = 28.18645 83.69334 81.71433
#
# Poissons Ratio (x) = 0.39233 0.36751
# Poissons Ratio (y) = 0.13213 0.42414
# Poissons Ratio (z) = 0.12677 0.43441
#
# Static dielectric constant tensor:
#      x y z
#    x 1.738120 0.000000 -0.017870 
#    y 0.000000 1.694040 0.000000 
#    z -0.017870 0.000000 1.689220 
# 
# From -- ./inp_files/251222.got.cif
#   From: 2010.05.17/outbox.cif.g08.bks.cpg/sg12_126_cif.got.tgz:251222.got - 2010.06.03 13:09:07.
