data_PCOD9179159
_publ_section_title
;
Structure prediction by ZEFSAII (Michael W. Deem and Ramdas Pophale) SiO2 
 PCOD9179159
Probable space group: C 2/M
;
_chemical_formula_sum "Si O2"
_cell_formula_units_Z 38
_cell_length_a 14.922332
_cell_length_b 16.018809
_cell_length_c 11.364977
_cell_angle_alpha 90.000000
_cell_angle_beta 139.071502
_cell_angle_gamma 90.000000
_cell_volume 1779.730081
_symmetry_space_group_name_H-M "C 2/M"
_symmetry_group_IT_number 12
_symmetry_cell_setting 'monoclinic'
loop_
_space_group_symop_operation_xyz
x,y,z
-x,y,-z
-x,-y,-z
x,-y,z
1/2+x,1/2+y,z
1/2-x,1/2+y,-z
1/2-x,1/2-y,-z
1/2+x,1/2-y,z
loop_
_atom_site_type_symbol
_atom_site_label
_atom_site_fract_x
_atom_site_fract_y
_atom_site_fract_z
Si Si1 0.500000 0.500000 0.000000
Si Si2 0.194060 0.337305 0.000665
Si Si3 0.515565 0.371324 0.648939
Si Si4 0.650836 0.634864 0.293588
Si Si5 0.000000 0.726336 0.000000
Si Si6 0.532584 0.170041 0.401808
O O1 0.389360 0.572139 0.849890
O O2 0.331224 0.389298 0.154527
O O3 0.120641 0.321725 0.052636
O O4 0.250000 0.250000 0.000000
O O5 0.076396 0.367962 0.796693
O O6 0.500000 0.401153 0.500000
O O7 0.413397 0.399719 0.649427
O O8 0.490671 0.270566 0.620641
O O9 0.572470 0.718896 0.173914
O O10 0.810023 0.651624 0.468019
O O11 0.500000 0.139599 0.500000
#
# Coordination Sequence:
#
# PCOD9179159 Si02
#       6
#     2   8   8   8   4   8
#     4  10  28  40  60  76 110 166 218 232 266 330
#     4  10  19  31  48  89 121 149 178 221 304 360
#     4  10  20  33  57  89 117 143 184 234 302 360
#     4  11  21  38  56  77 114 159 197 236 276 333
#     4  11  18  29  56  76 124 151 175 236 288 355
#     4  10  20  32  56  88 120 144 181 234 302 356
#
# _framework density 21.351551000000001
#
# number of rings (size 3 to 8) (size 9 to 14) (size 15 to 20)
#    0.000    1.684    4.211    4.421    5.895    0.000 
#    0.000    1.053    0.000    0.000    0.000    1.474 
#    0.000    0.000    0.000    0.000    0.000    0.000 
#
# Total GULP energy -105808.790536 kJ/mol
# GULP energy per Si atom -5568.883712 kJ/mol
# Density = 2.130295 g / cm^3
# Si number density = 21.351551 Si / 1000 Ang^3
#
#
#
# Elastic Constant Matrix: (Units=GPa)
#
#
# Indices 1 2 3 4 5 6 
#
# 1 143.5060 5.4632 48.5519 0.0000 16.4855 0.0000
# 2 5.4632 24.5683 22.2067 0.0000 7.7868 0.0000
# 3 48.5519 22.2067 181.8314 0.0000 26.9345 0.0000
# 4 0.0000 0.0000 0.0000 -2.5611 0.0000 0.2530
# 5 16.4855 7.7868 26.9345 0.0000 46.3407 0.0000
# 6 0.0000 0.0000 0.0000 0.2530 0.0000 -6.7291
#
#
#
# Elastic Compliance Matrix: (Units=1/GPa)
#
#
# Indices 1 2 3 4 5 6 
#
# 1 0.007788 0.000529 -0.001883 0.000000 -0.001765 0.000000
# 2 0.000529 0.046812 -0.005105 0.000000 -0.005087 0.000000
# 3 -0.001883 -0.005105 0.007002 0.000000 -0.002542 0.000000
# 4 0.000000 0.000000 0.000000 -0.391918 0.000000 -0.014734
# 5 -0.001765 -0.005087 -0.002542 0.000000 0.024540 0.000000
# 6 0.000000 0.000000 0.000000 -0.014734 0.000000 -0.149163
#
#
# Mechanical properties :
#
#
# Convention : Reuss Voigt Hill
#
# Bulk Modulus (GPa) = 20.53989 55.81659 38.17824
# Shear Modulus (GPa) = -11.74276 25.65570 6.95647
#
# Velocity S-wave (km/s) = -2.34769 3.47015 1.80697
# Velocity P-wave (km/s) = 1.51389 6.50034 4.71944
#
# Compressibility (1/GPa) = 0.04868576
#
# Stress axis : x y z
#
# Youngs Moduli (GPa) = 128.40367 21.36220 142.80925
#
# Poissons Ratio (x) = -0.01131 0.26886
# Poissons Ratio (y) = -0.06797 0.72901
# Poissons Ratio (z) = 0.24174 0.10905
#
# Static dielectric constant tensor:
#      x y z
#    x 1.761410 0.000000 -0.035240 
#    y 0.000000 1.694410 0.000000 
#    z -0.035240 0.000000 1.759160 
# 
# From -- ./inp_files/60911.got.cif
#   From: 2010.05.17/outbox.cif.g08.bks.cpg/sg12_31_cif.got.tgz:60911.got - 2010.06.03 13:09:07.
