data_PCOD9179701
_publ_section_title
;
Structure prediction by ZEFSAII (Michael W. Deem and Ramdas Pophale) SiO2 
 PCOD9179701
Probable space group: C 2/M
;
_chemical_formula_sum "Si O2"
_cell_formula_units_Z 64
_cell_length_a 28.935205
_cell_length_b 8.873065
_cell_length_c 14.690891
_cell_angle_alpha 90.000000
_cell_angle_beta 75.609744
_cell_angle_gamma 90.000000
_cell_volume 3653.458971
_symmetry_space_group_name_H-M "C 2/M"
_symmetry_group_IT_number 12
_symmetry_cell_setting 'monoclinic'
loop_
_space_group_symop_operation_xyz
x,y,z
-x,y,-z
-x,-y,-z
x,-y,z
1/2+x,1/2+y,z
1/2-x,1/2+y,-z
1/2-x,1/2-y,-z
1/2+x,1/2-y,z
loop_
_atom_site_type_symbol
_atom_site_label
_atom_site_fract_x
_atom_site_fract_y
_atom_site_fract_z
Si Si1 0.584977 0.678276 0.604330
Si Si2 0.313123 0.817952 0.784157
Si Si3 0.360067 0.816678 0.947879
Si Si4 0.121883 0.318839 0.768905
Si Si5 0.011605 0.671559 0.386025
Si Si6 0.945554 0.683603 0.030192
Si Si7 0.612087 0.817645 0.398185
Si Si8 0.708902 0.181172 0.853952
O O1 0.587742 0.500000 0.598484
O O2 0.612361 0.741502 0.678057
O O3 0.529622 0.730070 0.637887
O O4 0.605463 0.747552 0.500634
O O5 0.344737 0.767517 0.855320
O O6 0.340270 0.774230 0.678362
O O7 0.260178 0.754769 0.818671
O O8 0.311267 0.000000 0.787255
O O9 0.361502 0.000000 0.946686
O O10 0.410854 0.766954 0.964573
O O11 0.318862 0.773352 0.040161
O O12 0.119758 0.500000 0.759135
O O13 0.081577 0.276120 0.863068
O O14 0.172651 0.281116 0.789703
O O15 0.008466 0.500000 0.352334
O O16 0.066173 0.724456 0.358310
O O17 0.000000 0.667101 0.500000
O O18 0.946568 0.500000 0.026912
O O19 0.000000 0.737080 0.000000
O O20 0.609940 0.000000 0.408069
O O21 0.713843 0.000000 0.853772
#
# Coordination Sequence:
#
# PCOD9179701 Si02
#       8
#     8   8   8   8   8   8   8   8
#     4  11  21  32  50  74  99 130 167 205 243 288
#     4  10  19  31  51  76 100 126 159 205 252 291
#     4   8  15  28  46  72 102 128 158 195 239 293
#     4   9  18  33  52  72  97 132 169 203 241 289
#     4   8  15  30  50  69  93 126 160 194 236 286
#     4   8  14  26  48  77 103 127 160 202 240 278
#     4   9  19  34  50  72 101 131 164 202 244 290
#     4   9  18  33  51  71  98 130 163 200 244 296
#
# _framework density 17.517645000000002
#
# number of rings (size 3 to 8) (size 9 to 14) (size 15 to 20)
#    0.000    3.000    0.000    3.750    0.000    4.250 
#    0.000    4.375    0.000    1.125    0.000    0.000 
#    0.000    0.000    0.000    0.000    0.000    0.000 
#
# Total GULP energy -178319.376231 kJ/mol
# GULP energy per Si atom -5572.480507 kJ/mol
# Density = 1.747777 g / cm^3
# Si number density = 17.517645 Si / 1000 Ang^3
#
#
#
# Elastic Constant Matrix: (Units=GPa)
#
#
# Indices 1 2 3 4 5 6 
#
# 1 133.1802 28.9440 72.9133 0.0000 -8.0027 0.0000
# 2 28.9440 22.7659 31.9775 0.0000 6.8531 0.0000
# 3 72.9133 31.9775 91.5810 0.0000 13.9143 0.0000
# 4 0.0000 0.0000 0.0000 7.1140 0.0000 -7.2235
# 5 -8.0027 6.8531 13.9143 0.0000 24.0228 0.0000
# 6 0.0000 0.0000 0.0000 -7.2235 0.0000 15.3378
#
#
#
# Elastic Compliance Matrix: (Units=1/GPa)
#
#
# Indices 1 2 3 4 5 6 
#
# 1 0.017818 -0.008148 -0.013811 0.000000 0.016260 0.000000
# 2 -0.008148 0.091302 -0.023052 0.000000 -0.015409 0.000000
# 3 -0.013811 -0.023052 0.032527 0.000000 -0.016865 0.000000
# 4 0.000000 0.000000 0.000000 0.269397 0.000000 0.126876
# 5 0.016260 -0.015409 -0.016865 0.000000 0.061208 0.000000
# 6 0.000000 0.000000 0.000000 0.126876 0.000000 0.124953
#
#
# Mechanical properties :
#
#
# Convention : Reuss Voigt Hill
#
# Bulk Modulus (GPa) = 19.37066 57.24409 38.30738
# Shear Modulus (GPa) = 7.09789 16.87439 11.98614
#
# Velocity S-wave (km/s) = 2.01510 3.10704 2.61862
# Velocity P-wave (km/s) = 4.06153 6.75430 5.57299
#
# Compressibility (1/GPa) = 0.05162445
#
# Stress axis : x y z
#
# Youngs Moduli (GPa) = 56.12348 10.95262 30.74413
#
# Poissons Ratio (x) = 0.08925 0.42461
# Poissons Ratio (y) = 0.45731 0.70870
# Poissons Ratio (z) = 0.77513 0.25248
#
# Static dielectric constant tensor:
#      x y z
#    x 1.602920 0.000000 -0.003940 
#    y 0.000000 1.589500 0.000000 
#    z -0.003940 0.000000 1.589110 
# 
# From -- ./inp_files/248279.got.cif
#   From: 2010.05.17/outbox.cif.g08.bks.cpg/sg12_125_cif.got.tgz:248279.got - 2010.06.03 13:09:07.
