data_PCOD9179539
_publ_section_title
;
Structure prediction by ZEFSAII (Michael W. Deem and Ramdas Pophale) SiO2 
 PCOD9179539
Probable space group: C 2/M
;
_chemical_formula_sum "Si O2"
_cell_formula_units_Z 64
_cell_length_a 20.183858
_cell_length_b 9.007344
_cell_length_c 20.630730
_cell_angle_alpha 90.000000
_cell_angle_beta 95.613899
_cell_angle_gamma 90.000000
_cell_volume 3732.738001
_symmetry_space_group_name_H-M "C 2/M"
_symmetry_group_IT_number 12
_symmetry_cell_setting 'monoclinic'
loop_
_space_group_symop_operation_xyz
x,y,z
-x,y,-z
-x,-y,-z
x,-y,z
1/2+x,1/2+y,z
1/2-x,1/2+y,-z
1/2-x,1/2-y,-z
1/2+x,1/2-y,z
loop_
_atom_site_type_symbol
_atom_site_label
_atom_site_fract_x
_atom_site_fract_y
_atom_site_fract_z
Si Si1 0.932918 0.329078 0.804703
Si Si2 0.707878 0.676374 0.052817
Si Si3 0.910213 0.177549 0.669687
Si Si4 0.691392 0.676785 0.535856
Si Si5 0.435660 0.827117 0.539101
Si Si6 0.726652 0.169751 0.185340
Si Si7 0.765585 0.677713 0.672249
Si Si8 0.446192 0.678823 0.940227
O O1 0.954271 0.500000 0.800679
O O2 0.942769 0.240684 0.738817
O O3 0.852784 0.329125 0.808131
O O4 0.960980 0.253079 0.872198
O O5 0.710626 0.500000 0.046961
O O6 0.737283 0.727757 0.124730
O O7 0.629358 0.720466 0.045861
O O8 0.750000 0.750000 0.000000
O O9 0.943217 0.244097 0.608335
O O10 0.833479 0.235713 0.662046
O O11 0.911200 0.000000 0.669540
O O12 0.689506 0.500000 0.524833
O O13 0.750000 0.750000 0.500000
O O14 0.624044 0.750617 0.505491
O O15 0.710619 0.703867 0.612470
O O16 0.500000 0.819406 0.500000
O O17 0.419551 0.000000 0.550439
O O18 0.757020 0.216762 0.257120
O O19 0.746049 0.000000 0.172137
O O20 0.781059 0.500000 0.674157
O O21 0.447161 0.500000 0.932498
O O22 0.500000 0.719517 0.000000
#
# Coordination Sequence:
#
# PCOD9179539 Si02
#       8
#     8   8   8   8   8   8   8   8
#     4   9  17  30  50  76 106 136 170 213 261 313
#     4  10  19  31  50  75 103 136 170 209 251 303
#     4  11  20  31  53  80 105 136 176 221 264 316
#     4  11  21  34  56  84 111 139 176 220 265 317
#     4  11  24  40  56  75 106 145 182 223 270 320
#     4   8  15  29  48  72 101 134 169 207 251 302
#     4   9  18  32  52  78 109 137 168 215 267 313
#     4   9  18  33  53  78 106 134 172 217 259 302
#
# _framework density 17.145591
#
# number of rings (size 3 to 8) (size 9 to 14) (size 15 to 20)
#    0.000    2.250    1.250    3.375    0.000    5.250 
#    0.000    0.000    2.750    0.000    0.000    0.000 
#    0.000    0.000    0.000    0.000    0.000    0.000 
#
# Total GULP energy -178461.645636 kJ/mol
# GULP energy per Si atom -5576.926426 kJ/mol
# Density = 1.710657 g / cm^3
# Si number density = 17.145591 Si / 1000 Ang^3
#
#
#
# Elastic Constant Matrix: (Units=GPa)
#
#
# Indices 1 2 3 4 5 6 
#
# 1 47.0697 36.2200 49.7472 0.0000 6.7370 0.0000
# 2 36.2200 97.2290 79.9757 0.0000 1.4694 0.0000
# 3 49.7472 79.9757 176.5399 0.0000 10.9910 0.0000
# 4 0.0000 0.0000 0.0000 34.3534 0.0000 0.4176
# 5 6.7370 1.4694 10.9910 0.0000 25.2740 0.0000
# 6 0.0000 0.0000 0.0000 0.4176 0.0000 17.3635
#
#
#
# Elastic Compliance Matrix: (Units=1/GPa)
#
#
# Indices 1 2 3 4 5 6 
#
# 1 0.034272 -0.008046 -0.005625 0.000000 -0.006222 0.000000
# 2 -0.008046 0.018419 -0.006314 0.000000 0.003820 0.000000
# 3 -0.005625 -0.006314 0.010272 0.000000 -0.002600 0.000000
# 4 0.000000 0.000000 0.000000 0.029118 0.000000 -0.000700
# 5 -0.006222 0.003820 -0.002600 0.000000 0.042134 0.000000
# 6 0.000000 0.000000 0.000000 -0.000700 0.000000 0.057609
#
#
# Mechanical properties :
#
#
# Convention : Reuss Voigt Hill
#
# Bulk Modulus (GPa) = 43.49479 72.52493 58.00986
# Shear Modulus (GPa) = 20.88047 25.72456 23.30251
#
# Velocity S-wave (km/s) = 3.49353 3.87765 3.69059
# Velocity P-wave (km/s) = 6.45725 7.90187 7.21580
#
# Compressibility (1/GPa) = 0.02299126
#
# Stress axis : x y z
#
# Youngs Moduli (GPa) = 29.17817 54.29299 97.35197
#
# Poissons Ratio (x) = 0.43685 0.54762
# Poissons Ratio (y) = 0.23477 0.61472
# Poissons Ratio (z) = 0.16413 0.34283
#
# Static dielectric constant tensor:
#      x y z
#    x 1.583800 0.000000 0.034650 
#    y 0.000000 1.579830 0.000000 
#    z 0.034650 0.000000 1.623270 
# 
# From -- ./inp_files/319163.got.cif
#   From: 2010.05.17/outbox.cif.g08.bks.cpg/sg12_160_cif.got.tgz:319163.got - 2010.06.03 13:09:07.
