data_PCOD9179351
_publ_section_title
;
Structure prediction by ZEFSAII (Michael W. Deem and Ramdas Pophale) SiO2 
 PCOD9179351
Probable space group: C 2/M
;
_chemical_formula_sum "Si O2"
_cell_formula_units_Z 48
_cell_length_a 13.692759
_cell_length_b 15.097565
_cell_length_c 23.055076
_cell_angle_alpha 90.000000
_cell_angle_beta 33.121091
_cell_angle_gamma 90.000000
_cell_volume 2604.253782
_symmetry_space_group_name_H-M "C 2/M"
_symmetry_group_IT_number 12
_symmetry_cell_setting 'monoclinic'
loop_
_space_group_symop_operation_xyz
x,y,z
-x,y,-z
-x,-y,-z
x,-y,z
1/2+x,1/2+y,z
1/2-x,1/2+y,-z
1/2-x,1/2-y,-z
1/2+x,1/2-y,z
loop_
_atom_site_type_symbol
_atom_site_label
_atom_site_fract_x
_atom_site_fract_y
_atom_site_fract_z
Si Si1 0.708956 0.398398 0.496040
Si Si2 0.609571 0.402814 0.672089
Si Si3 0.187205 0.897290 0.882680
Si Si4 0.951834 0.705063 0.283448
Si Si5 0.184282 0.403182 0.308197
Si Si6 0.101231 0.219242 0.389041
O O1 0.717726 0.500000 0.472087
O O2 0.732850 0.395186 0.553522
O O3 0.842080 0.340618 0.390835
O O4 0.510107 0.359571 0.584228
O O5 0.518135 0.500000 0.712065
O O6 0.509593 0.308944 0.724273
O O7 0.718222 0.405995 0.678147
O O8 0.362873 0.845667 0.816044
O O9 0.191160 0.896970 0.810472
O O10 0.203240 0.000000 0.893030
O O11 0.000000 0.862149 0.000000
O O12 0.807355 0.699755 0.302758
O O13 0.090617 0.500000 0.348352
O O14 0.089323 0.308554 0.358107
O O15 0.000000 0.237268 0.500000
#
# Coordination Sequence:
#
# PCOD9179351 Si02
#       6
#     8   8   8   8   8   8
#     4  10  19  31  49  74 106 138 165 196 237 292
#     4   9  18  32  51  76 104 133 163 198 243 295
#     4  10  21  36  54  75  97 125 165 212 255 291
#     4  10  19  33  52  73 100 134 167 203 244 291
#     4   9  18  33  51  72 101 132 164 204 247 292
#     4   9  19  32  49  76 105 133 164 197 238 294
#
# _framework density 18.431383
#
# number of rings (size 3 to 8) (size 9 to 14) (size 15 to 20)
#    0.000    2.500    0.000    2.000    0.000    6.667 
#    0.000   12.500    0.000    0.500    0.000    0.000 
#    0.000    0.000    0.000    0.000    0.000    0.000 
#
# Total GULP energy -133702.047995 kJ/mol
# GULP energy per Si atom -5570.918666 kJ/mol
# Density = 1.838943 g / cm^3
# Si number density = 18.431383 Si / 1000 Ang^3
#
#
#
# Elastic Constant Matrix: (Units=GPa)
#
#
# Indices 1 2 3 4 5 6 
#
# 1 89.1390 43.0745 50.2838 0.0002 -7.9107 -0.0001
# 2 43.0745 137.9859 43.2935 -0.0008 -13.9736 0.0002
# 3 50.2838 43.2935 82.2781 -0.0029 -23.2800 0.0005
# 4 0.0002 -0.0008 -0.0029 22.3286 0.0001 -3.6946
# 5 -7.9107 -13.9736 -23.2800 0.0001 24.0363 0.0001
# 6 -0.0001 0.0002 0.0005 -3.6946 0.0001 7.3492
#
#
#
# Elastic Compliance Matrix: (Units=1/GPa)
#
#
# Indices 1 2 3 4 5 6 
#
# 1 0.018678 -0.002799 -0.011934 -0.000002 -0.007038 0.000000
# 2 -0.002799 0.009113 -0.002543 0.000000 0.001914 0.000000
# 3 -0.011934 -0.002543 0.026524 0.000003 0.020284 0.000000
# 4 -0.000002 0.000000 0.000003 0.048849 0.000003 0.024557
# 5 -0.007038 0.001914 0.020284 0.000003 0.060045 -0.000001
# 6 0.000000 0.000000 0.000000 0.024557 -0.000001 0.148415
#
#
# Mechanical properties :
#
#
# Convention : Reuss Voigt Hill
#
# Bulk Modulus (GPa) = 50.59729 64.74516 57.67122
# Shear Modulus (GPa) = 14.17380 22.25956 18.21668
#
# Velocity S-wave (km/s) = 2.77610 3.47897 3.14722
# Velocity P-wave (km/s) = 6.14711 7.16530 6.67565
#
# Compressibility (1/GPa) = 0.01976391
#
# Stress axis : x y z
#
# Youngs Moduli (GPa) = 53.53796 109.73922 37.70151
#
# Poissons Ratio (x) = 0.30719 0.44992
# Poissons Ratio (y) = 0.14987 0.09586
# Poissons Ratio (z) = 0.63890 0.27903
#
# Static dielectric constant tensor:
#      x y z
#    x 1.699720 0.000000 -0.012900 
#    y 0.000000 1.687260 0.000000 
#    z -0.012900 0.000000 1.610660 
# 
# From -- ./inp_files/214089.got.cif
#   From: 2010.05.17/outbox.cif.g08.bks.cpg/sg12_108_cif.got.tgz:214089.got - 2010.06.03 13:09:07.
