data_PCOD9179668
_publ_section_title
;
Structure prediction by ZEFSAII (Michael W. Deem and Ramdas Pophale) SiO2 
 PCOD9179668
Probable space group: C 2/M
;
_chemical_formula_sum "Si O2"
_cell_formula_units_Z 52
_cell_length_a 19.664019
_cell_length_b 14.169044
_cell_length_c 18.068204
_cell_angle_alpha 90.000000
_cell_angle_beta 32.800469
_cell_angle_gamma 90.000000
_cell_volume 2727.085496
_symmetry_space_group_name_H-M "C 2/M"
_symmetry_group_IT_number 12
_symmetry_cell_setting 'monoclinic'
loop_
_space_group_symop_operation_xyz
x,y,z
-x,y,-z
-x,-y,-z
x,-y,z
1/2+x,1/2+y,z
1/2-x,1/2+y,-z
1/2-x,1/2-y,-z
1/2+x,1/2-y,z
loop_
_atom_site_type_symbol
_atom_site_label
_atom_site_fract_x
_atom_site_fract_y
_atom_site_fract_z
Si Si1 0.500000 0.296336 0.000000
Si Si2 0.480404 0.389196 0.606676
Si Si3 0.231246 0.745549 0.204827
Si Si4 0.348272 0.895491 0.597142
Si Si5 0.435566 0.107991 0.718725
Si Si6 0.397260 0.732961 0.378989
Si Si7 0.415609 0.605715 0.227240
O O1 0.622285 0.240303 0.915316
O O2 0.539447 0.359590 0.893953
O O3 0.500000 0.382230 0.500000
O O4 0.486721 0.500000 0.620730
O O5 0.345989 0.339195 0.742108
O O6 0.574561 0.326319 0.571195
O O7 0.179216 0.693851 0.326581
O O8 0.191264 0.666533 0.180857
O O9 0.479913 0.891973 0.434302
O O10 0.236286 0.894471 0.639640
O O11 0.334038 0.000000 0.646849
O O12 0.524782 0.170068 0.689079
O O13 0.415927 0.000000 0.758454
O O14 0.250000 0.750000 0.500000
O O15 0.450602 0.672824 0.262048
O O16 0.459746 0.500000 0.200289
#
# Coordination Sequence:
#
# PCOD9179668 Si02
#       7
#     4   8   8   8   8   8   8
#     4  10  23  38  61  84 114 160 209 248 301 358
#     4  10  22  38  60  91 126 162 199 243 304 370
#     4  10  19  34  55  80 113 153 198 248 291 351
#     4   9  16  28  51  82 114 146 183 240 309 361
#     4  10  19  31  50  82 117 147 185 241 309 365
#     4  11  21  35  60  89 122 158 197 249 309 363
#     4  10  20  35  56  86 121 154 198 249 299 357
#
# _framework density 19.067976000000002
#
# number of rings (size 3 to 8) (size 9 to 14) (size 15 to 20)
#    0.000    2.000    1.538    3.462    2.154    3.692 
#    0.000    3.462    0.000    2.769    0.000    0.000 
#    0.000    0.000    0.000    0.000    0.000    0.000 
#
# Total GULP energy -144937.413362 kJ/mol
# GULP energy per Si atom -5574.515899 kJ/mol
# Density = 1.902458 g / cm^3
# Si number density = 19.067976 Si / 1000 Ang^3
#
#
#
# Elastic Constant Matrix: (Units=GPa)
#
#
# Indices 1 2 3 4 5 6 
#
# 1 101.1201 53.7182 33.1902 0.0000 -16.6952 0.0000
# 2 53.7182 117.4041 18.7467 0.0000 -13.8036 0.0000
# 3 33.1902 18.7467 54.0932 0.0000 -22.2579 0.0000
# 4 0.0000 0.0000 0.0000 8.6222 0.0000 0.1627
# 5 -16.6952 -13.8036 -22.2579 0.0000 42.5289 0.0000
# 6 0.0000 0.0000 0.0000 0.1627 0.0000 34.8080
#
#
#
# Elastic Compliance Matrix: (Units=1/GPa)
#
#
# Indices 1 2 3 4 5 6 
#
# 1 0.015463 -0.005867 -0.007316 0.000000 0.000337 0.000000
# 2 -0.005867 0.011334 0.000303 0.000000 0.001534 0.000000
# 3 -0.007316 0.000303 0.027692 0.000000 0.011720 0.000000
# 4 0.000000 0.000000 0.000000 0.115990 0.000000 -0.000542
# 5 0.000337 0.001534 0.011720 0.000000 0.030277 0.000000
# 6 0.000000 0.000000 0.000000 -0.000542 0.000000 0.028732
#
#
# Mechanical properties :
#
#
# Convention : Reuss Voigt Hill
#
# Bulk Modulus (GPa) = 34.80624 53.76972 44.28798
# Shear Modulus (GPa) = 18.88046 28.32265 23.60156
#
# Velocity S-wave (km/s) = 3.15010 3.85821 3.52200
# Velocity P-wave (km/s) = 5.61465 6.93598 6.31000
#
# Compressibility (1/GPa) = 0.02873048
#
# Stress axis : x y z
#
# Youngs Moduli (GPa) = 64.67081 88.22923 36.11091
#
# Poissons Ratio (x) = 0.51767 0.26417
# Poissons Ratio (y) = 0.37944 -0.01095
# Poissons Ratio (z) = 0.47310 -0.02676
#
# Static dielectric constant tensor:
#      x y z
#    x 1.725980 0.000000 -0.003680 
#    y 0.000000 1.672210 0.000000 
#    z -0.003680 0.000000 1.684590 
# 
# From -- ./inp_files/321944.got.cif
#   From: 2010.05.17/outbox.cif.g08.bks.cpg/sg12_161_cif.got.tgz:321944.got - 2010.06.03 13:09:07.
