data_PCOD9179105
_publ_section_title
;
Structure prediction by ZEFSAII (Michael W. Deem and Ramdas Pophale) SiO2 
 PCOD9179105
Probable space group: C 2/M
;
_chemical_formula_sum "Si O2"
_cell_formula_units_Z 64
_cell_length_a 31.321668
_cell_length_b 7.965075
_cell_length_c 16.577773
_cell_angle_alpha 90.000000
_cell_angle_beta 132.566858
_cell_angle_gamma 90.000000
_cell_volume 3045.979010
_symmetry_space_group_name_H-M "C 2/M"
_symmetry_group_IT_number 12
_symmetry_cell_setting 'monoclinic'
loop_
_space_group_symop_operation_xyz
x,y,z
-x,y,-z
-x,-y,-z
x,-y,z
1/2+x,1/2+y,z
1/2-x,1/2+y,-z
1/2-x,1/2-y,-z
1/2+x,1/2-y,z
loop_
_atom_site_type_symbol
_atom_site_label
_atom_site_fract_x
_atom_site_fract_y
_atom_site_fract_z
Si Si1 0.867648 0.795896 0.409297
Si Si2 0.660499 0.190330 0.331498
Si Si3 0.051696 0.301543 0.623959
Si Si4 0.448292 0.695894 0.192878
Si Si5 0.738480 0.796124 0.286818
Si Si6 0.575583 0.300217 0.356920
Si Si7 0.866232 0.303539 0.958895
Si Si8 0.436556 0.691860 0.906658
O O1 0.890324 0.730582 0.353275
O O2 0.803216 0.740409 0.351344
O O3 0.910250 0.736655 0.535370
O O4 0.868236 0.000000 0.408199
O O5 0.710253 0.265527 0.335920
O O6 0.632806 0.270601 0.375769
O O7 0.604769 0.199263 0.201609
O O8 0.676868 0.000000 0.371909
O O9 0.043374 0.500000 0.625600
O O10 0.052337 0.217016 0.711678
O O11 0.000000 0.237004 0.500000
O O12 0.445399 0.500000 0.168972
O O13 0.512287 0.763712 0.246801
O O14 0.391747 0.779313 0.080481
O O15 0.697050 0.756965 0.157132
O O16 0.738989 0.000000 0.294859
O O17 0.568582 0.500000 0.352994
O O18 0.873249 0.500000 0.947832
O O19 0.908284 0.193390 0.957820
O O20 0.439391 0.500000 0.877956
O O21 0.500000 0.760393 0.000000
#
# Coordination Sequence:
#
# PCOD9179105 Si02
#       8
#     8   8   8   8   8   8   8   8
#     4  10  20  39  63  82 108 149 190 230 278 335
#     4  10  20  33  51  77 111 150 189 230 277 328
#     4  11  23  39  60  88 118 142 175 228 288 340
#     4  11  22  37  58  86 116 148 188 228 276 339
#     4   8  18  37  58  80 110 150 194 232 271 326
#     4  10  21  34  53  83 114 145 187 234 279 331
#     4  10  20  35  55  81 112 147 185 230 282 327
#     4  10  19  31  48  72 105 145 190 235 277 328
#
# _framework density 21.011308
#
# number of rings (size 3 to 8) (size 9 to 14) (size 15 to 20)
#    0.000    2.000    1.250    3.375    0.000    6.500 
#    0.000    4.375    0.000    0.000    0.000    0.000 
#    0.000    0.000    0.000    0.000    0.000    0.000 
#
# Total GULP energy -178448.497927 kJ/mol
# GULP energy per Si atom -5576.515560 kJ/mol
# Density = 2.096348 g / cm^3
# Si number density = 21.011308 Si / 1000 Ang^3
#
#
#
# Elastic Constant Matrix: (Units=GPa)
#
#
# Indices 1 2 3 4 5 6 
#
# 1 94.6499 -5.3532 14.9205 0.0000 5.6566 0.0000
# 2 -5.3532 30.2441 3.8003 0.0000 5.4510 0.0000
# 3 14.9205 3.8003 53.8750 0.0000 -11.9603 0.0000
# 4 0.0000 0.0000 0.0000 10.3200 0.0000 -3.4568
# 5 5.6566 5.4510 -11.9603 0.0000 23.6315 0.0000
# 6 0.0000 0.0000 0.0000 -3.4568 0.0000 25.9575
#
#
#
# Elastic Compliance Matrix: (Units=1/GPa)
#
#
# Indices 1 2 3 4 5 6 
#
# 1 0.011942 0.003868 -0.004971 0.000000 -0.006267 0.000000
# 2 0.003868 0.036856 -0.006494 0.000000 -0.012714 0.000000
# 3 -0.004971 -0.006494 0.023650 0.000000 0.014658 0.000000
# 4 0.000000 0.000000 0.000000 0.101423 0.000000 0.013507
# 5 -0.006267 -0.012714 0.014658 0.000000 0.054168 0.000000
# 6 0.000000 0.000000 0.000000 0.013507 0.000000 0.040323
#
#
# Mechanical properties :
#
#
# Convention : Reuss Voigt Hill
#
# Bulk Modulus (GPa) = 17.46573 22.83377 20.14975
# Shear Modulus (GPa) = 16.52117 23.00857 19.76487
#
# Velocity S-wave (km/s) = 2.80714 3.31275 3.07037
# Velocity P-wave (km/s) = 4.34020 5.05207 4.70960
#
# Compressibility (1/GPa) = 0.05725497
#
# Stress axis : x y z
#
# Youngs Moduli (GPa) = 83.73634 27.13237 42.28265
#
# Poissons Ratio (x) = -0.10495 0.21021
# Poissons Ratio (y) = -0.32389 0.27456
# Poissons Ratio (z) = 0.41629 0.17618
#
# Static dielectric constant tensor:
#      x y z
#    x 1.770510 0.000000 -0.003070 
#    y 0.000000 1.745870 0.000000 
#    z -0.003070 0.000000 1.845210 
# 
# From -- ./inp_files/250078.got.cif
#   From: 2010.05.17/outbox.cif.g08.bks.cpg/sg12_126_cif.got.tgz:250078.got - 2010.06.03 13:09:07.
