data_PCOD9179352
_publ_section_title
;
Structure prediction by ZEFSAII (Michael W. Deem and Ramdas Pophale) SiO2 
 PCOD9179352
Probable space group: C 2/M
;
_chemical_formula_sum "Si O2"
_cell_formula_units_Z 48
_cell_length_a 28.304133
_cell_length_b 8.649541
_cell_length_c 21.361562
_cell_angle_alpha 90.000000
_cell_angle_beta 147.833402
_cell_angle_gamma 90.000000
_cell_volume 2784.197262
_symmetry_space_group_name_H-M "C 2/M"
_symmetry_group_IT_number 12
_symmetry_cell_setting 'monoclinic'
loop_
_space_group_symop_operation_xyz
x,y,z
-x,y,-z
-x,-y,-z
x,-y,z
1/2+x,1/2+y,z
1/2-x,1/2+y,-z
1/2-x,1/2-y,-z
1/2+x,1/2-y,z
loop_
_atom_site_type_symbol
_atom_site_label
_atom_site_fract_x
_atom_site_fract_y
_atom_site_fract_z
Si Si1 0.318196 0.185677 0.526329
Si Si2 0.476817 0.185472 0.243364
Si Si3 0.514358 0.318264 0.611934
Si Si4 0.803805 0.184065 0.000315
Si Si5 0.177778 0.317047 0.610946
Si Si6 0.796327 0.817531 0.230996
O O1 0.250000 0.250000 0.500000
O O2 0.420860 0.225205 0.657006
O O3 0.298409 0.237947 0.432668
O O4 0.313092 0.000000 0.520308
O O5 0.456097 0.272518 0.285052
O O6 0.401858 0.241738 0.111928
O O7 0.471204 0.000000 0.245995
O O8 0.491010 0.500000 0.581984
O O9 0.427333 0.218295 0.501876
O O10 0.598591 0.290147 0.662725
O O11 0.808752 0.000000 0.012068
O O12 0.750000 0.250000 0.000000
O O13 0.755286 0.229421 0.881601
O O14 0.192428 0.500000 0.631159
O O15 0.224170 0.235866 0.721614
O O16 0.780933 0.000000 0.206329
#
# Coordination Sequence:
#
# PCOD9179352 Si02
#       6
#     8   8   8   8   8   8
#     4   9  20  37  59  84 107 136 174 223 277 326
#     4  10  20  35  54  79 110 142 182 225 268 317
#     4  10  19  31  49  74 106 143 182 219 261 314
#     4  12  23  35  53  77 109 150 188 222 261 311
#     4  10  21  35  51  76 108 140 178 222 273 323
#     4  11  22  34  50  75 108 146 185 220 261 316
#
# _framework density 17.240158000000001
#
# number of rings (size 3 to 8) (size 9 to 14) (size 15 to 20)
#    0.000    1.667    1.667    5.000    0.000    8.000 
#    0.000    0.000    0.000    1.000    0.000    7.000 
#    0.000    0.000    0.000    0.000    0.000    0.000 
#
# Total GULP energy -133965.015671 kJ/mol
# GULP energy per Si atom -5581.875653 kJ/mol
# Density = 1.720092 g / cm^3
# Si number density = 17.240158 Si / 1000 Ang^3
#
#
#
# Elastic Constant Matrix: (Units=GPa)
#
#
# Indices 1 2 3 4 5 6 
#
# 1 109.9036 40.0931 45.4255 0.0000 -3.4054 0.0000
# 2 40.0931 34.9026 10.1985 0.0000 -0.0422 0.0000
# 3 45.4255 10.1985 60.2897 0.0000 -14.2222 0.0000
# 4 0.0000 0.0000 0.0000 31.8600 0.0000 -1.9004
# 5 -3.4054 -0.0422 -14.2222 0.0000 18.7337 0.0000
# 6 0.0000 0.0000 0.0000 -1.9004 0.0000 23.9450
#
#
#
# Elastic Compliance Matrix: (Units=1/GPa)
#
#
# Indices 1 2 3 4 5 6 
#
# 1 0.023599 -0.022500 -0.015805 0.000000 -0.007760 0.000000
# 2 -0.022500 0.051926 0.008809 0.000000 0.002715 0.000000
# 3 -0.015805 0.008809 0.032077 0.000000 0.021499 0.000000
# 4 0.000000 0.000000 0.000000 0.031537 0.000000 0.002503
# 5 -0.007760 0.002715 0.021499 0.000000 0.068297 0.000000
# 6 0.000000 0.000000 0.000000 0.002503 0.000000 0.041961
#
#
# Mechanical properties :
#
#
# Convention : Reuss Voigt Hill
#
# Bulk Modulus (GPa) = 20.57194 44.05892 32.31543
# Shear Modulus (GPa) = 15.40400 22.19966 18.80183
#
# Velocity S-wave (km/s) = 2.99238 3.59231 3.30598
# Velocity P-wave (km/s) = 4.88852 6.54352 5.77561
#
# Compressibility (1/GPa) = 0.04860990
#
# Stress axis : x y z
#
# Youngs Moduli (GPa) = 42.37450 19.25813 31.17542
#
# Poissons Ratio (x) = 0.43330 0.49274
# Poissons Ratio (y) = 0.95341 -0.27463
# Poissons Ratio (z) = 0.66975 -0.16965
#
# Static dielectric constant tensor:
#      x y z
#    x 1.577280 0.000000 -0.014810 
#    y 0.000000 1.575300 0.000000 
#    z -0.014810 0.000000 1.601070 
# 
# From -- ./inp_files/323487.got.cif
#   From: 2010.05.17/outbox.cif.g08.bks.cpg/sg12_162_cif.got.tgz:323487.got - 2010.06.03 13:09:07.
