data_PCOD9179211
_publ_section_title
;
Structure prediction by ZEFSAII (Michael W. Deem and Ramdas Pophale) SiO2 
 PCOD9179211
Probable space group: C 2/M
;
_chemical_formula_sum "Si O2"
_cell_formula_units_Z 56
_cell_length_a 11.748316
_cell_length_b 16.508586
_cell_length_c 19.484596
_cell_angle_alpha 90.000000
_cell_angle_beta 34.302873
_cell_angle_gamma 90.000000
_cell_volume 2129.721521
_symmetry_space_group_name_H-M "C 2/M"
_symmetry_group_IT_number 12
_symmetry_cell_setting 'monoclinic'
loop_
_space_group_symop_operation_xyz
x,y,z
-x,y,-z
-x,-y,-z
x,-y,z
1/2+x,1/2+y,z
1/2-x,1/2+y,-z
1/2-x,1/2-y,-z
1/2+x,1/2-y,z
loop_
_atom_site_type_symbol
_atom_site_label
_atom_site_fract_x
_atom_site_fract_y
_atom_site_fract_z
Si Si1 0.254045 0.594582 0.232083
Si Si2 0.745587 0.655942 0.061600
Si Si3 0.762210 0.590238 0.489340
Si Si4 0.265896 0.178270 0.619832
Si Si5 0.720507 0.845226 0.102579
Si Si6 0.184581 0.591691 0.832894
Si Si7 0.262146 0.131328 0.339257
O O1 0.304053 0.500000 0.202962
O O2 0.324659 0.633984 0.268643
O O3 0.309886 0.639126 0.133117
O O4 0.006444 0.600511 0.359697
O O5 0.692629 0.748868 0.104664
O O6 0.704052 0.605138 0.150662
O O7 0.680400 0.626500 0.018409
O O8 0.992010 0.651334 0.930577
O O9 0.723514 0.500000 0.536464
O O10 0.689976 0.655357 0.581669
O O11 0.686246 0.595726 0.448749
O O12 0.500000 0.152955 0.500000
O O13 0.259103 0.272954 0.638939
O O14 0.501561 0.887695 0.215330
O O15 0.107278 0.500000 0.869834
O O16 0.307317 0.606510 0.702110
#
# Coordination Sequence:
#
# PCOD9179211 Si02
#       7
#     8   8   8   8   8   8   8
#     4   9  17  29  47  70  93 118 154 199 237 272
#     4   9  17  30  47  71  96 119 152 194 235 278
#     4   9  17  30  48  69  92 119 156 200 239 274
#     4  10  19  31  49  71  95 126 162 197 235 280
#     4   9  18  30  47  71  95 122 153 191 241 282
#     4  10  19  31  51  74  94 123 161 197 233 275
#     4  10  19  31  49  71  97 126 158 197 236 282
#
# _framework density 26.294518
#
# number of rings (size 3 to 8) (size 9 to 14) (size 15 to 20)
#    0.000    2.571    0.000    3.000    0.000    5.714 
#    0.000    0.000    0.000    6.857    0.000   29.000 
#    0.000    0.000    0.000    0.000    0.000    0.000 
#
# Total GULP energy -156623.155684 kJ/mol
# GULP energy per Si atom -5593.684132 kJ/mol
# Density = 2.623467 g / cm^3
# Si number density = 26.294518 Si / 1000 Ang^3
#
#
#
# Elastic Constant Matrix: (Units=GPa)
#
#
# Indices 1 2 3 4 5 6 
#
# 1 124.9693 -4.6567 39.7019 0.0031 42.7406 -0.0021
# 2 -4.6567 91.4843 39.9816 0.0057 35.8182 0.0051
# 3 39.7019 39.9816 196.4259 0.0056 39.8284 0.0032
# 4 0.0031 0.0057 0.0056 -19.4345 0.0193 -10.1216
# 5 42.7406 35.8182 39.8284 0.0193 66.4457 0.0062
# 6 -0.0021 0.0051 0.0032 -10.1216 0.0062 13.5142
#
#
#
# Elastic Compliance Matrix: (Units=1/GPa)
#
#
# Indices 1 2 3 4 5 6 
#
# 1 0.011880 0.004944 -0.001500 -0.000006 -0.009408 0.000000
# 2 0.004944 0.016304 -0.002153 -0.000004 -0.010678 -0.000003
# 3 -0.001500 -0.002153 0.006149 0.000000 -0.001560 0.000000
# 4 -0.000006 -0.000004 0.000000 -0.037016 0.000020 -0.027724
# 5 -0.009408 -0.010678 -0.001560 0.000020 0.027793 0.000005
# 6 0.000000 -0.000003 0.000000 -0.027724 0.000005 0.053232
#
#
# Mechanical properties :
#
#
# Convention : Reuss Voigt Hill
#
# Bulk Modulus (GPa) = 27.08930 62.54813 44.81871
# Shear Modulus (GPa) = 56.77633 34.62861 45.70247
#
# Velocity S-wave (km/s) = 4.65181 3.63292 4.17357
# Velocity P-wave (km/s) = 6.25916 6.43713 6.34877
#
# Compressibility (1/GPa) = 0.03691495
#
# Stress axis : x y z
#
# Youngs Moduli (GPa) = 84.17387 61.33428 162.63610
#
# Poissons Ratio (x) = -0.30321 0.24394
# Poissons Ratio (y) = -0.41612 0.35009
# Poissons Ratio (z) = 0.12626 0.13203
#
# Static dielectric constant tensor:
#      x y z
#    x 2.170230 0.000000 -0.042510 
#    y 0.000000 1.940380 0.000000 
#    z -0.042510 0.000000 2.084120 
# 
# From -- ./inp_files/270193.got.cif
#   From: 2010.05.17/outbox.cif.g08.bks.cpg/sg12_136_cif.got.tgz:270193.got - 2010.06.03 13:09:07.
