data_PCOD9179123
_publ_section_title
;
Structure prediction by ZEFSAII (Michael W. Deem and Ramdas Pophale) SiO2 
 PCOD9179123
Probable space group: C 2/M
;
_chemical_formula_sum "Si O2"
_cell_formula_units_Z 64
_cell_length_a 33.319456
_cell_length_b 7.608857
_cell_length_c 16.493335
_cell_angle_alpha 90.000000
_cell_angle_beta 42.182751
_cell_angle_gamma 90.000000
_cell_volume 2807.826246
_symmetry_space_group_name_H-M "C 2/M"
_symmetry_group_IT_number 12
_symmetry_cell_setting 'monoclinic'
loop_
_space_group_symop_operation_xyz
x,y,z
-x,y,-z
-x,-y,-z
x,-y,z
1/2+x,1/2+y,z
1/2-x,1/2+y,-z
1/2-x,1/2-y,-z
1/2+x,1/2-y,z
loop_
_atom_site_type_symbol
_atom_site_label
_atom_site_fract_x
_atom_site_fract_y
_atom_site_fract_z
Si Si1 0.227839 0.300847 0.341057
Si Si2 0.844902 0.285790 0.847149
Si Si3 0.528817 0.798774 0.303347
Si Si4 0.941673 0.291948 0.201835
Si Si5 0.904007 0.285187 0.439534
Si Si6 0.148434 0.212066 0.807530
Si Si7 0.260425 0.204853 0.117017
Si Si8 0.434209 0.297952 0.930098
O O1 0.219694 0.500000 0.384337
O O2 0.161800 0.220754 0.439060
O O3 0.283993 0.220390 0.304719
O O4 0.251053 0.304175 0.214304
O O5 0.845017 0.500000 0.846055
O O6 0.913103 0.222118 0.739214
O O7 0.800081 0.224000 0.844977
O O8 0.813936 0.232160 0.978580
O O9 0.462181 0.720291 0.402085
O O10 0.548732 0.798413 0.178467
O O11 0.523440 0.000000 0.339647
O O12 0.952254 0.500000 0.186692
O O13 0.914639 0.240918 0.329538
O O14 0.895756 0.251518 0.199638
O O15 0.006884 0.206365 0.101152
O O16 0.905655 0.500000 0.444548
O O17 0.151668 0.000000 0.809943
O O18 0.118766 0.277252 0.935805
O O19 0.269951 0.000000 0.120704
O O20 0.421898 0.500000 0.926897
#
# Coordination Sequence:
#
# PCOD9179123 Si02
#       8
#     8   8   8   8   8   8   8   8
#     4  10  20  36  54  70  97 135 168 200 245 297
#     4   9  18  33  54  78 104 133 161 195 245 298
#     4   9  17  32  54  77  99 127 168 208 241 287
#     4  10  20  34  52  73  97 128 168 210 248 288
#     4   8  17  34  53  72  95 127 168 209 243 284
#     4  10  21  33  48  73 101 130 164 202 248 302
#     4  10  20  33  51  78 107 130 160 203 244 289
#     4  10  19  31  48  73 105 133 159 198 249 301
#
# _framework density 22.793434000000001
#
# number of rings (size 3 to 8) (size 9 to 14) (size 15 to 20)
#    0.000    2.500    0.000    3.000    0.000    4.500 
#    0.000    3.750    0.000    3.750    0.000    0.000 
#    0.000    0.000    0.000    0.000    0.000    0.000 
#
# Total GULP energy -178648.843417 kJ/mol
# GULP energy per Si atom -5582.776357 kJ/mol
# Density = 2.274156 g / cm^3
# Si number density = 22.793434 Si / 1000 Ang^3
#
#
#
# Elastic Constant Matrix: (Units=GPa)
#
#
# Indices 1 2 3 4 5 6 
#
# 1 95.4259 -1.8994 27.8366 -0.0008 -41.0737 -0.0001
# 2 -1.8994 59.7530 2.8702 0.0067 -4.0463 0.0023
# 3 27.8366 2.8702 48.6792 0.0020 -38.1543 0.0007
# 4 -0.0008 0.0067 0.0020 9.3624 0.0002 2.9850
# 5 -41.0737 -4.0463 -38.1543 0.0002 42.7902 0.0001
# 6 -0.0001 0.0023 0.0007 2.9850 0.0001 9.9990
#
#
#
# Elastic Compliance Matrix: (Units=1/GPa)
#
#
# Indices 1 2 3 4 5 6 
#
# 1 0.019968 0.002095 0.012076 -0.000003 0.030133 0.000000
# 2 0.002095 0.017074 0.002115 -0.000013 0.005512 0.000000
# 3 0.012076 0.002115 0.075565 -0.000018 0.079170 -0.000001
# 4 -0.000003 -0.000013 -0.000018 0.118046 -0.000021 -0.035240
# 5 0.030133 0.005512 0.079170 -0.000021 0.123408 -0.000001
# 6 0.000000 0.000000 -0.000001 -0.035240 -0.000001 0.110530
#
#
# Mechanical properties :
#
#
# Convention : Reuss Voigt Hill
#
# Bulk Modulus (GPa) = 6.88799 29.05254 17.97026
# Shear Modulus (GPa) = 10.40771 24.10035 17.25403
#
# Velocity S-wave (km/s) = 2.13916 3.25520 2.75430
# Velocity P-wave (km/s) = 3.02156 5.18673 4.24452
#
# Compressibility (1/GPa) = 0.14518021
#
# Stress axis : x y z
#
# Youngs Moduli (GPa) = 50.07897 58.56926 13.23359
#
# Poissons Ratio (x) = -0.12272 -0.15981
# Poissons Ratio (y) = -0.10493 -0.02799
# Poissons Ratio (z) = -0.60474 -0.12389
#
# Static dielectric constant tensor:
#      x y z
#    x 1.883110 0.000000 -0.048460 
#    y 0.000000 1.864940 0.000000 
#    z -0.048460 0.000000 1.838910 
# 
# From -- ./inp_files/249726.got.cif
#   From: 2010.05.17/outbox.cif.g08.bks.cpg/sg12_125_cif.got.tgz:249726.got - 2010.06.03 13:09:07.
