data_PCOD9179240
_publ_section_title
;
Structure prediction by ZEFSAII (Michael W. Deem and Ramdas Pophale) SiO2 
 PCOD9179240
Probable space group: C 2/M
;
_chemical_formula_sum "Si O2"
_cell_formula_units_Z 64
_cell_length_a 21.443554
_cell_length_b 23.943686
_cell_length_c 8.773723
_cell_angle_alpha 90.000000
_cell_angle_beta 65.848353
_cell_angle_gamma 90.000000
_cell_volume 4110.439470
_symmetry_space_group_name_H-M "C 2/M"
_symmetry_group_IT_number 12
_symmetry_cell_setting 'monoclinic'
loop_
_space_group_symop_operation_xyz
x,y,z
-x,y,-z
-x,-y,-z
x,-y,z
1/2+x,1/2+y,z
1/2-x,1/2+y,-z
1/2-x,1/2-y,-z
1/2+x,1/2-y,z
loop_
_atom_site_type_symbol
_atom_site_label
_atom_site_fract_x
_atom_site_fract_y
_atom_site_fract_z
Si Si1 0.776426 0.832604 0.040730
Si Si2 0.365520 0.564155 0.318017
Si Si3 0.641390 0.229047 0.177003
Si Si4 0.865520 0.064155 0.950942
Si Si5 0.276426 0.667396 0.406416
Si Si6 0.141391 0.729047 0.540217
Si Si7 0.500000 0.621642 0.681767
Si Si8 1.000000 0.753423 0.180946
O O1 0.698286 0.817541 0.080685
O O2 0.784049 0.824280 0.215950
O O3 0.824445 0.787386 0.910196
O O4 0.803151 0.894178 0.976724
O O5 0.354442 0.500000 0.373942
O O6 0.303152 0.605823 0.416972
O O7 0.433183 0.589205 0.326640
O O8 0.375082 0.565757 0.124917
O O9 0.631840 0.229924 0.368160
O O10 0.568801 0.223721 0.169057
O O11 0.933182 0.089205 0.806993
O O12 0.854442 0.000000 0.917172
O O13 0.198287 0.682459 0.522741
O O14 0.324445 0.712614 0.440912
O O15 0.068802 0.723721 0.693341
O O16 0.500000 0.624896 0.500000
O O17 0.500000 0.684116 0.749149
O O18 0.000000 0.758155 0.000000
#
# Coordination Sequence:
#
# PCOD9179240 Si02
#       8
#     8   8   8   8   8   8   8   8
#     4   9  18  32  49  70  97 128 159 195 238 285
#     4  10  20  34  51  70  96 133 168 196 232 282
#     4  10  19  31  49  72  96 124 159 199 241 286
#     4  10  20  34  51  70  96 133 168 196 232 282
#     4   9  18  32  49  70  97 128 159 195 238 285
#     4  10  19  31  49  72  96 124 159 199 241 286
#     4  12  23  33  46  69  98 131 169 205 236 274
#     4  12  22  33  49  70  97 130 162 198 248 295
#
# _framework density 15.570112
#
# number of rings (size 3 to 8) (size 9 to 14) (size 15 to 20)
#    0.000    1.750    2.500    3.375    0.000    3.000 
#    0.000    0.000    0.000    0.000    0.000    0.875 
#    0.000    7.000    0.000    0.000    0.000    0.000 
#
# Total GULP energy -178605.178142 kJ/mol
# GULP energy per Si atom -5581.411817 kJ/mol
# Density = 1.553467 g / cm^3
# Si number density = 15.570112 Si / 1000 Ang^3
#
#
#
# Elastic Constant Matrix: (Units=GPa)
#
#
# Indices 1 2 3 4 5 6 
#
# 1 123.8036 63.2124 48.8338 0.0000 -18.0215 0.0000
# 2 63.2124 92.7151 44.5595 0.0000 -13.5753 0.0000
# 3 48.8338 44.5595 69.5271 0.0000 -21.4799 0.0000
# 4 0.0000 0.0000 0.0000 16.0059 0.0000 -0.5296
# 5 -18.0215 -13.5753 -21.4799 0.0000 22.5868 0.0000
# 6 0.0000 0.0000 0.0000 -0.5296 0.0000 16.7339
#
#
#
# Elastic Compliance Matrix: (Units=1/GPa)
#
#
# Indices 1 2 3 4 5 6 
#
# 1 0.013689 -0.006817 -0.004442 0.000000 0.002600 0.000000
# 2 -0.006817 0.018982 -0.007835 0.000000 -0.001482 0.000000
# 3 -0.004442 -0.007835 0.028285 0.000000 0.018645 0.000000
# 4 0.000000 0.000000 0.000000 0.062543 0.000000 0.001979
# 5 0.002600 -0.001482 0.018645 0.000000 0.063189 0.000000
# 6 0.000000 0.000000 0.000000 0.001979 0.000000 0.059821
#
#
# Mechanical properties :
#
#
# Convention : Reuss Voigt Hill
#
# Bulk Modulus (GPa) = 43.92386 66.58415 55.25401
# Shear Modulus (GPa) = 17.10646 19.69465 18.40056
#
# Velocity S-wave (km/s) = 3.31822 3.56040 3.44144
# Velocity P-wave (km/s) = 6.55381 7.73039 7.16628
#
# Compressibility (1/GPa) = 0.02276667
#
# Stress axis : x y z
#
# Youngs Moduli (GPa) = 73.05242 52.68041 35.35477
#
# Poissons Ratio (x) = 0.35914 0.15705
# Poissons Ratio (y) = 0.49802 0.27701
# Poissons Ratio (z) = 0.32451 0.41276
#
# Static dielectric constant tensor:
#      x y z
#    x 1.522020 0.000000 0.000830 
#    y 0.000000 1.504080 0.000000 
#    z 0.000830 0.000000 1.523160 
# 
# From -- ./inp_files/90399.got.cif
#   From: 2010.05.17/outbox.cif.g08.bks.cpg/sg12_46_cif.got.tgz:90399.got - 2010.06.03 13:09:07.
