data_PCOD9179704
_publ_section_title
;
Structure prediction by ZEFSAII (Michael W. Deem and Ramdas Pophale) SiO2 
 PCOD9179704
Probable space group: C 2/M
;
_chemical_formula_sum "Si O2"
_cell_formula_units_Z 48
_cell_length_a 5.438257
_cell_length_b 26.444555
_cell_length_c 17.566510
_cell_angle_alpha 90.000000
_cell_angle_beta 51.775379
_cell_angle_gamma 90.000000
_cell_volume 1984.623006
_symmetry_space_group_name_H-M "C 2/M"
_symmetry_group_IT_number 12
_symmetry_cell_setting 'monoclinic'
loop_
_space_group_symop_operation_xyz
x,y,z
-x,y,-z
-x,-y,-z
x,-y,z
1/2+x,1/2+y,z
1/2-x,1/2+y,-z
1/2-x,1/2-y,-z
1/2+x,1/2-y,z
loop_
_atom_site_type_symbol
_atom_site_label
_atom_site_fract_x
_atom_site_fract_y
_atom_site_fract_z
Si Si1 0.101113 0.558552 0.632832
Si Si2 0.239226 0.231017 0.610368
Si Si3 0.487657 0.770375 0.890691
Si Si4 0.901243 0.886304 0.365665
Si Si5 0.121798 0.941894 0.869672
Si Si6 0.624806 0.887805 0.868536
O O1 0.158858 0.500000 0.603304
O O2 0.412591 0.586567 0.602076
O O3 0.915129 0.586630 0.601466
O O4 0.861660 0.559004 0.751300
O O5 0.500000 0.249431 0.500000
O O6 0.425084 0.237858 0.653556
O O7 0.161478 0.172702 0.609491
O O8 0.813202 0.742617 0.845888
O O9 0.531632 0.829644 0.894036
O O10 0.250000 0.750000 0.000000
O O11 0.137034 0.889753 0.248622
O O12 0.325242 0.920348 0.900299
O O13 0.825332 0.908720 0.900656
O O14 0.029796 0.000000 0.899101
#
# Coordination Sequence:
#
# PCOD9179704 Si02
#       6
#     8   8   8   8   8   8
#     4   9  17  30  49  74 105 135 162 199 254 306
#     4  10  21  36  52  70  96 134 174 211 255 301
#     4  10  21  36  52  73  99 135 169 198 244 299
#     4  10  19  31  51  76 101 131 166 210 251 291
#     4   9  17  30  49  77 108 133 160 203 254 298
#     4  10  19  31  51  79 104 129 167 207 248 299
#
# _framework density 24.185955
#
# number of rings (size 3 to 8) (size 9 to 14) (size 15 to 20)
#    0.000    2.333    0.000    3.000    0.000    5.333 
#    0.000    0.000    0.000    3.000    0.000   46.667 
#    0.000    0.000    0.000    0.000    0.000    0.000 
#
# Total GULP energy -134383.888227 kJ/mol
# GULP energy per Si atom -5599.328676 kJ/mol
# Density = 2.413091 g / cm^3
# Si number density = 24.185955 Si / 1000 Ang^3
#
#
#
# Elastic Constant Matrix: (Units=GPa)
#
#
# Indices 1 2 3 4 5 6 
#
# 1 247.8479 115.7425 34.0589 0.0000 -25.3833 0.0000
# 2 115.7425 201.8573 -7.5346 0.0000 -24.1163 0.0000
# 3 34.0589 -7.5346 85.5427 0.0000 -6.9615 0.0000
# 4 0.0000 0.0000 0.0000 18.4202 0.0000 -8.4903
# 5 -25.3833 -24.1163 -6.9615 0.0000 43.6311 0.0000
# 6 0.0000 0.0000 0.0000 -8.4903 0.0000 54.8586
#
#
#
# Elastic Compliance Matrix: (Units=1/GPa)
#
#
# Indices 1 2 3 4 5 6 
#
# 1 0.006150 -0.003478 -0.002655 0.000000 0.001232 0.000000
# 2 -0.003478 0.007315 0.002222 0.000000 0.002374 0.000000
# 3 -0.002655 0.002222 0.013087 0.000000 0.001772 0.000000
# 4 0.000000 0.000000 0.000000 0.058459 0.000000 0.009047
# 5 0.001232 0.002374 0.001772 0.000000 0.025231 0.000000
# 6 0.000000 0.000000 0.000000 0.009047 0.000000 0.019629
#
#
# Mechanical properties :
#
#
# Convention : Reuss Voigt Hill
#
# Bulk Modulus (GPa) = 53.38806 91.08684 72.23745
# Shear Modulus (GPa) = 34.73779 49.58073 42.15926
#
# Velocity S-wave (km/s) = 3.79394 4.53258 4.17961
# Velocity P-wave (km/s) = 6.42759 8.07064 7.29552
#
# Compressibility (1/GPa) = 0.01873078
#
# Stress axis : x y z
#
# Youngs Moduli (GPa) = 162.60116 136.70522 76.41162
#
# Poissons Ratio (x) = 0.47550 0.20285
# Poissons Ratio (y) = 0.56557 -0.16982
# Poissons Ratio (z) = 0.43167 -0.30381
#
# Static dielectric constant tensor:
#      x y z
#    x 1.928930 0.000000 0.016160 
#    y 0.000000 1.811860 0.000000 
#    z 0.016160 0.000000 1.958560 
# 
# From -- ./inp_files/253156.got.cif
#   From: 2010.05.17/outbox.cif.g08.bks.cpg/sg12_127_cif.got.tgz:253156.got - 2010.06.03 13:09:07.
