data_PCOD9179176
_publ_section_title
;
Structure prediction by ZEFSAII (Michael W. Deem and Ramdas Pophale) SiO2 
 PCOD9179176
Probable space group: C 2/M
;
_chemical_formula_sum "Si O2"
_cell_formula_units_Z 64
_cell_length_a 15.944152
_cell_length_b 7.480775
_cell_length_c 19.593302
_cell_angle_alpha 90.000000
_cell_angle_beta 80.377559
_cell_angle_gamma 90.000000
_cell_volume 2304.103672
_symmetry_space_group_name_H-M "C 2/M"
_symmetry_group_IT_number 12
_symmetry_cell_setting 'monoclinic'
loop_
_space_group_symop_operation_xyz
x,y,z
-x,y,-z
-x,-y,-z
x,-y,z
1/2+x,1/2+y,z
1/2-x,1/2+y,-z
1/2-x,1/2-y,-z
1/2+x,1/2-y,z
loop_
_atom_site_type_symbol
_atom_site_label
_atom_site_fract_x
_atom_site_fract_y
_atom_site_fract_z
Si Si1 0.325108 0.714006 0.544337
Si Si2 0.689259 0.790133 0.663968
Si Si3 0.340518 0.214388 0.916004
Si Si4 0.524321 0.293030 0.826879
Si Si5 0.250178 0.705731 0.201128
Si Si6 0.956060 0.205861 0.421077
Si Si7 0.067161 0.780524 0.290321
Si Si8 0.411642 0.285696 0.044799
O O1 0.336924 0.500000 0.548837
O O2 0.250000 0.750000 0.500000
O O3 0.279623 0.775066 0.620025
O O4 0.409551 0.783779 0.494221
O O5 0.689559 0.768864 0.745355
O O6 0.616075 0.703087 0.628666
O O7 0.683432 0.000000 0.650124
O O8 0.431246 0.287610 0.876491
O O9 0.270208 0.283414 0.871486
O O10 0.341364 0.254761 0.996447
O O11 0.342240 0.000000 0.909414
O O12 0.545102 0.500000 0.811541
O O13 0.501817 0.214149 0.756362
O O14 0.587381 0.219285 0.876989
O O15 0.271665 0.500000 0.186654
O O16 0.157217 0.720370 0.249371
O O17 0.036762 0.280831 0.369074
O O18 0.976052 0.000000 0.432815
O O19 0.069390 0.000000 0.290604
O O20 0.418455 0.500000 0.049832
O O21 0.500000 0.215841 0.000000
#
# Coordination Sequence:
#
# PCOD9179176 Si02
#       8
#     8   8   8   8   8   8   8   8
#     4   8  15  28  46  68  90 113 145 184 223 262
#     4  10  19  31  49  70  91 118 152 187 223 268
#     4   9  16  24  36  56  81 110 144 181 220 258
#     4   8  14  24  37  56  83 113 144 175 211 258
#     4  10  20  32  45  64  93 124 152 187 228 266
#     4   9  17  31  51  72  93 117 147 185 226 266
#     4   9  17  30  48  68  92 123 153 181 220 270
#     4   8  13  21  34  53  79 110 141 175 213 255
#
# _framework density 27.776526
#
# number of rings (size 3 to 8) (size 9 to 14) (size 15 to 20)
#    0.000    3.125    0.000    1.875    0.000    4.750 
#    0.000    0.625    0.000    3.750    0.000    0.875 
#    0.000    0.000    0.000    0.000    0.000    0.000 
#
# Total GULP energy -178854.884212 kJ/mol
# GULP energy per Si atom -5589.215132 kJ/mol
# Density = 2.771331 g / cm^3
# Si number density = 27.776526 Si / 1000 Ang^3
#
#
#
# Elastic Constant Matrix: (Units=GPa)
#
#
# Indices 1 2 3 4 5 6 
#
# 1 122.4575 -2.6731 38.3410 0.0000 20.4364 0.0000
# 2 -2.6731 95.4465 -3.6426 0.0000 6.5424 0.0000
# 3 38.3410 -3.6426 244.1164 0.0000 6.9663 0.0000
# 4 0.0000 0.0000 0.0000 -20.8043 0.0000 -36.3739
# 5 20.4364 6.5424 6.9663 0.0000 71.3909 0.0000
# 6 0.0000 0.0000 0.0000 -36.3739 0.0000 -54.5375
#
#
#
# Elastic Compliance Matrix: (Units=1/GPa)
#
#
# Indices 1 2 3 4 5 6 
#
# 1 0.009007 0.000371 -0.001338 0.000000 -0.002482 0.000000
# 2 0.000371 0.010567 0.000130 0.000000 -0.001087 0.000000
# 3 -0.001338 0.000130 0.004310 0.000000 -0.000049 0.000000
# 4 0.000000 0.000000 0.000000 0.289408 0.000000 -0.193021
# 5 -0.002482 -0.001087 -0.000049 0.000000 0.014822 0.000000
# 6 0.000000 0.000000 0.000000 -0.193021 0.000000 0.110400
#
#
# Mechanical properties :
#
#
# Convention : Reuss Voigt Hill
#
# Bulk Modulus (GPa) = 45.02257 58.45234 51.73746
# Shear Modulus (GPa) = 11.17091 27.87617 19.52354
#
# Velocity S-wave (km/s) = 2.00760 3.17138 2.65406
# Velocity P-wave (km/s) = 4.64951 5.87364 5.29706
#
# Compressibility (1/GPa) = 0.02221108
#
# Stress axis : x y z
#
# Youngs Moduli (GPa) = 111.01952 94.63436 232.02062
#
# Poissons Ratio (x) = -0.03514 0.31052
# Poissons Ratio (y) = -0.04122 -0.03025
# Poissons Ratio (z) = 0.14858 -0.01234
#
# Static dielectric constant tensor:
#      x y z
#    x 2.277530 0.000000 -0.010830 
#    y 0.000000 2.068230 0.000000 
#    z -0.010830 0.000000 2.192040 
# 
# From -- ./inp_files/319092.got.cif
#   From: 2010.05.17/outbox.cif.g08.bks.cpg/sg12_160_cif.got.tgz:319092.got - 2010.06.03 13:09:07.
