data_PCOD9179458
_publ_section_title
;
Structure prediction by ZEFSAII (Michael W. Deem and Ramdas Pophale) SiO2 
 PCOD9179458
Probable space group: C 2/M
;
_chemical_formula_sum "Si O2"
_cell_formula_units_Z 56
_cell_length_a 19.777463
_cell_length_b 29.114964
_cell_length_c 9.078213
_cell_angle_alpha 90.000000
_cell_angle_beta 37.563949
_cell_angle_gamma 90.000000
_cell_volume 3186.877067
_symmetry_space_group_name_H-M "C 2/M"
_symmetry_group_IT_number 12
_symmetry_cell_setting 'monoclinic'
loop_
_space_group_symop_operation_xyz
x,y,z
-x,y,-z
-x,-y,-z
x,-y,z
1/2+x,1/2+y,z
1/2-x,1/2+y,-z
1/2-x,1/2-y,-z
1/2+x,1/2-y,z
loop_
_atom_site_type_symbol
_atom_site_label
_atom_site_fract_x
_atom_site_fract_y
_atom_site_fract_z
Si Si1 0.891402 0.552510 0.390741
Si Si2 0.155582 0.551377 0.862819
Si Si3 0.073120 0.352780 0.564712
Si Si4 0.839933 0.686662 0.300833
Si Si5 0.242676 0.202759 0.920970
Si Si6 0.181520 0.639892 0.975900
Si Si7 0.880536 0.792417 0.161987
O O1 0.864905 0.500000 0.485343
O O2 0.834643 0.560769 0.329179
O O3 0.873395 0.595855 0.529989
O O4 0.023595 0.552950 0.127363
O O5 0.194884 0.500000 0.822444
O O6 0.208383 0.588944 0.876781
O O7 0.077330 0.339218 0.731410
O O8 0.145934 0.313022 0.361140
O O9 0.944458 0.357032 0.742370
O O10 0.872588 0.739957 0.233031
O O11 0.720014 0.682080 0.584330
O O12 0.827022 0.668349 0.159661
O O13 0.234494 0.162695 0.055790
O O14 0.147292 0.206555 0.963425
O O15 0.250000 0.250000 0.000000
O O16 0.000000 0.810768 0.000000
#
# Coordination Sequence:
#
# PCOD9179458 Si02
#       7
#     8   8   8   8   8   8   8
#     4   8  13  24  44  73 101 133 174 203 230 293
#     4   8  14  24  44  72 104 136 165 198 243 298
#     4  10  19  31  50  73 104 145 168 204 250 301
#     4  10  19  31  53  75  94 131 181 203 242 307
#     4  11  23  35  45  71 102 131 176 213 251 301
#     4  11  18  32  49  75 108 136 167 208 251 300
#     4  10  21  38  52  68  95 133 171 220 255 290
#
# _framework density 17.572061000000001
#
# number of rings (size 3 to 8) (size 9 to 14) (size 15 to 20)
#    0.000    2.286    2.857    2.571    0.000    0.000 
#    2.571    1.429    0.000    3.429    0.000    0.000 
#    0.000   21.714    0.000    0.000    0.000    0.000 
#
# Total GULP energy -155965.679064 kJ/mol
# GULP energy per Si atom -5570.202824 kJ/mol
# Density = 1.753207 g / cm^3
# Si number density = 17.572061 Si / 1000 Ang^3
#
#
#
# Elastic Constant Matrix: (Units=GPa)
#
#
# Indices 1 2 3 4 5 6 
#
# 1 89.9536 22.1397 19.2602 0.0000 -6.0746 0.0000
# 2 22.1397 88.3271 10.9660 0.0000 1.3437 0.0000
# 3 19.2602 10.9660 43.3284 0.0000 3.0099 0.0000
# 4 0.0000 0.0000 0.0000 15.9201 0.0000 5.7404
# 5 -6.0746 1.3437 3.0099 0.0000 20.0635 0.0000
# 6 0.0000 0.0000 0.0000 5.7404 0.0000 20.2555
#
#
#
# Elastic Compliance Matrix: (Units=1/GPa)
#
#
# Indices 1 2 3 4 5 6 
#
# 1 0.013324 -0.002723 -0.005585 0.000000 0.005054 0.000000
# 2 -0.002723 0.012248 -0.001794 0.000000 -0.001376 0.000000
# 3 -0.005585 -0.001794 0.026400 0.000000 -0.005531 0.000000
# 4 0.000000 0.000000 0.000000 0.069963 0.000000 -0.019827
# 5 0.005054 -0.001376 -0.005531 0.000000 0.052294 0.000000
# 6 0.000000 0.000000 0.000000 -0.019827 0.000000 0.054988
#
#
# Mechanical properties :
#
#
# Convention : Reuss Voigt Hill
#
# Bulk Modulus (GPa) = 31.47735 36.26009 33.86872
# Shear Modulus (GPa) = 19.22999 22.53070 20.88035
#
# Velocity S-wave (km/s) = 3.31169 3.58465 3.45087
# Velocity P-wave (km/s) = 5.70747 6.14921 5.93245
#
# Compressibility (1/GPa) = 0.03176887
#
# Stress axis : x y z
#
# Youngs Moduli (GPa) = 75.05154 81.64744 37.87847
#
# Poissons Ratio (x) = 0.22235 0.21154
# Poissons Ratio (y) = 0.20439 0.06794
# Poissons Ratio (z) = 0.41914 0.14645
#
# Static dielectric constant tensor:
#      x y z
#    x 1.625500 0.000000 0.032380 
#    y 0.000000 1.650220 0.000000 
#    z 0.032380 0.000000 1.636360 
# 
# From -- ./inp_files/80405.got.cif
#   From: 2010.05.17/outbox.cif.g08.bks.cpg/sg12_41_cif.got.tgz:80405.got - 2010.06.03 13:09:07.
