data_PCOD9179386
_publ_section_title
;
Structure prediction by ZEFSAII (Michael W. Deem and Ramdas Pophale) SiO2 
 PCOD9179386
Probable space group: C 2/M
;
_chemical_formula_sum "Si O2"
_cell_formula_units_Z 44
_cell_length_a 5.170939
_cell_length_b 13.911782
_cell_length_c 30.226550
_cell_angle_alpha 90.000000
_cell_angle_beta 105.023815
_cell_angle_gamma 90.000000
_cell_volume 2100.081397
_symmetry_space_group_name_H-M "C 2/M"
_symmetry_group_IT_number 12
_symmetry_cell_setting 'monoclinic'
loop_
_space_group_symop_operation_xyz
x,y,z
-x,y,-z
-x,-y,-z
x,-y,z
1/2+x,1/2+y,z
1/2-x,1/2+y,-z
1/2-x,1/2-y,-z
1/2+x,1/2-y,z
loop_
_atom_site_type_symbol
_atom_site_label
_atom_site_fract_x
_atom_site_fract_y
_atom_site_fract_z
Si Si1 0.975138 0.682383 0.299313
Si Si2 0.248418 0.386131 0.899158
Si Si3 0.865245 0.314064 0.201154
Si Si4 0.587265 0.819110 0.400344
Si Si5 0.298572 0.000000 0.532098
Si Si6 0.326575 0.117333 0.950412
O O1 0.744010 0.759866 0.299419
O O2 0.892060 0.631524 0.249629
O O3 0.024070 0.634812 0.348997
O O4 0.252430 0.500000 0.905159
O O5 0.242039 0.366548 0.846847
O O6 0.519936 0.350571 0.934407
O O7 0.981627 0.353868 0.912598
O O8 0.654622 0.228593 0.201284
O O9 0.334515 0.754945 0.404817
O O10 0.652992 0.904411 0.436719
O O11 0.500000 0.000000 0.500000
O O12 0.000000 0.000000 0.500000
O O13 0.320615 0.000000 0.952208
O O14 0.500000 0.149416 0.000000
#
# Coordination Sequence:
#
# PCOD9179386 Si02
#       6
#     8   8   8   8   4   8
#     4   8  16  32  55  78 102 140 184 217 260 330
#     4  10  19  31  49  75  99 121 166 217 256 309
#     4  10  19  33  53  75 104 138 168 206 267 328
#     4  10  21  40  63  86 120 161 202 249 297 348
#     4  12  26  40  60  94 126 158 208 250 295 358
#     4   9  17  30  49  69  93 128 168 211 256 305
#
# _framework density 20.951567000000001
#
# number of rings (size 3 to 8) (size 9 to 14) (size 15 to 20)
#    0.000    2.364    0.000    2.727    0.000    4.364 
#    1.636    0.000    0.000   10.909    0.000    0.000 
#    0.000    0.000    0.000    0.000    0.000    0.000 
#
# Total GULP energy -122715.027254 kJ/mol
# GULP energy per Si atom -5577.955784 kJ/mol
# Density = 2.090388 g / cm^3
# Si number density = 20.951567 Si / 1000 Ang^3
#
#
#
# Elastic Constant Matrix: (Units=GPa)
#
#
# Indices 1 2 3 4 5 6 
#
# 1 86.4708 -10.0121 23.9432 0.0000 -6.1551 0.0000
# 2 -10.0121 56.9790 11.9553 0.0000 1.3407 0.0000
# 3 23.9432 11.9553 110.7109 0.0000 4.5696 0.0000
# 4 0.0000 0.0000 0.0000 -12.3040 0.0000 -5.7720
# 5 -6.1551 1.3407 4.5696 0.0000 35.3011 0.0000
# 6 0.0000 0.0000 0.0000 -5.7720 0.0000 2.4827
#
#
#
# Elastic Compliance Matrix: (Units=1/GPa)
#
#
# Indices 1 2 3 4 5 6 
#
# 1 0.012976 0.002896 -0.003225 0.000000 0.002570 0.000000
# 2 0.002896 0.018610 -0.002642 0.000000 0.000140 0.000000
# 3 -0.003225 -0.002642 0.010088 0.000000 -0.001768 0.000000
# 4 0.000000 0.000000 0.000000 -0.038875 0.000000 -0.090382
# 5 0.002570 0.000140 -0.001768 0.000000 0.028999 0.000000
# 6 0.000000 0.000000 0.000000 -0.090382 0.000000 0.192663
#
#
# Mechanical properties :
#
#
# Convention : Reuss Voigt Hill
#
# Bulk Modulus (GPa) = 27.98521 33.99260 30.98890
# Shear Modulus (GPa) = 20.63441 20.31425 20.47433
#
# Velocity S-wave (km/s) = 3.14166 3.11719 3.12945
# Velocity P-wave (km/s) = 5.15229 5.40513 5.28022
#
# Compressibility (1/GPa) = 0.03573316
#
# Stress axis : x y z
#
# Youngs Moduli (GPa) = 77.06598 53.73379 99.12497
#
# Poissons Ratio (x) = -0.15563 0.31969
# Poissons Ratio (y) = -0.22321 0.26187
# Poissons Ratio (z) = 0.24855 0.14196
#
# Static dielectric constant tensor:
#      x y z
#    x 1.735310 0.000000 0.000680 
#    y 0.000000 1.737840 0.000000 
#    z 0.000680 0.000000 1.802300 
# 
# From -- ./inp_files/354772.got.cif
#   From: 2010.05.17/outbox.cif.g08.bks.cpg/sg12_178_cif.got.tgz:354772.got - 2010.06.03 13:09:07.
