data_PCOD9179179
_publ_section_title
;
Structure prediction by ZEFSAII (Michael W. Deem and Ramdas Pophale) SiO2 
 PCOD9179179
Probable space group: C 2/M
;
_chemical_formula_sum "Si O2"
_cell_formula_units_Z 56
_cell_length_a 6.971952
_cell_length_b 17.697454
_cell_length_c 18.995200
_cell_angle_alpha 90.000000
_cell_angle_beta 101.097888
_cell_angle_gamma 90.000000
_cell_volume 2299.909482
_symmetry_space_group_name_H-M "C 2/M"
_symmetry_group_IT_number 12
_symmetry_cell_setting 'monoclinic'
loop_
_space_group_symop_operation_xyz
x,y,z
-x,y,-z
-x,-y,-z
x,-y,z
1/2+x,1/2+y,z
1/2-x,1/2+y,-z
1/2-x,1/2-y,-z
1/2+x,1/2-y,z
loop_
_atom_site_type_symbol
_atom_site_label
_atom_site_fract_x
_atom_site_fract_y
_atom_site_fract_z
Si Si1 0.942069 0.084921 0.209116
Si Si2 0.955439 0.824944 0.655060
Si Si3 0.513723 0.915840 0.776635
Si Si4 0.186899 0.848813 0.937053
Si Si5 0.717899 0.412711 0.479673
Si Si6 0.611952 0.851368 0.370062
Si Si7 0.377548 0.828580 0.087827
O O1 0.052562 0.146202 0.265236
O O2 0.713990 0.088840 0.216291
O O3 0.936095 0.100795 0.125397
O O4 0.009535 0.000000 0.230369
O O5 0.165267 0.853105 0.642729
O O6 0.798611 0.862372 0.591553
O O7 0.950725 0.735389 0.643986
O O8 0.511491 0.900499 0.693541
O O9 0.628762 0.856342 0.832728
O O10 0.581584 0.000000 0.798437
O O11 0.411765 0.854591 0.926085
O O12 0.127160 0.761821 0.919226
O O13 0.211924 0.859408 0.022734
O O14 0.500000 0.410313 0.500000
O O15 0.758753 0.500000 0.466231
O O16 0.864055 0.380876 0.549213
#
# Coordination Sequence:
#
# PCOD9179179 Si02
#       7
#     8   8   8   8   8   8   8
#     4   9  17  29  46  68  91 116 150 189 224 259
#     4  10  19  31  49  70  92 119 150 185 223 264
#     4   9  17  29  46  68  91 116 150 189 224 259
#     4   9  17  29  46  67  90 117 148 183 223 266
#     4   9  17  30  49  71  92 117 152 188 220 259
#     4  10  19  31  49  70  92 119 150 185 223 264
#     4   9  17  29  46  67  90 117 148 183 223 266
#
# _framework density 24.348784999999999
#
# number of rings (size 3 to 8) (size 9 to 14) (size 15 to 20)
#    0.000    2.714    0.000    2.143    0.000    4.000 
#    0.000    2.857    0.000    6.857    0.000    4.000 
#    0.000    0.000    0.000    0.000    0.000    0.000 
#
# Total GULP energy -156594.456245 kJ/mol
# GULP energy per Si atom -5592.659152 kJ/mol
# Density = 2.429337 g / cm^3
# Si number density = 24.348785 Si / 1000 Ang^3
#
#
#
# Elastic Constant Matrix: (Units=GPa)
#
#
# Indices 1 2 3 4 5 6 
#
# 1 77.7595 -28.6944 2.9194 0.0000 5.5407 0.0000
# 2 -28.6944 97.1300 59.8598 0.0000 -2.1506 0.0000
# 3 2.9194 59.8598 158.8914 0.0000 -11.4922 0.0000
# 4 0.0000 0.0000 0.0000 39.9934 0.0000 -8.8110
# 5 5.5407 -2.1506 -11.4922 0.0000 35.0310 0.0000
# 6 0.0000 0.0000 0.0000 -8.8110 0.0000 -194.5323
#
#
#
# Elastic Compliance Matrix: (Units=1/GPa)
#
#
# Indices 1 2 3 4 5 6 
#
# 1 0.015499 0.006280 -0.002868 0.000000 -0.003007 0.000000
# 2 0.006280 0.015978 -0.006285 0.000000 -0.002074 0.000000
# 3 -0.002868 -0.006285 0.008931 0.000000 0.002998 0.000000
# 4 0.000000 0.000000 0.000000 0.024757 0.000000 -0.001121
# 5 -0.003007 -0.002074 0.002998 0.000000 0.029878 0.000000
# 6 0.000000 0.000000 0.000000 -0.001121 0.000000 -0.005090
#
#
# Mechanical properties :
#
#
# Convention : Reuss Voigt Hill
#
# Bulk Modulus (GPa) = 28.84991 44.66118 36.75554
# Shear Modulus (GPa) = 46.61845 -3.92183 21.34831
#
# Velocity S-wave (km/s) = 4.38037 -1.27051 2.96424
# Velocity P-wave (km/s) = 6.12029 4.02863 5.18111
#
# Compressibility (1/GPa) = 0.03466216
#
# Stress axis : x y z
#
# Youngs Moduli (GPa) = 64.51838 62.58586 111.97155
#
# Poissons Ratio (x) = -0.39303 0.32115
# Poissons Ratio (y) = -0.40517 0.70373
# Poissons Ratio (z) = 0.18505 0.39334
#
# Static dielectric constant tensor:
#      x y z
#    x 2.037740 0.000000 -0.000930 
#    y 0.000000 1.861450 0.000000 
#    z -0.000930 0.000000 1.906270 
# 
# From -- ./inp_files/305996.got.cif
#   From: 2010.05.17/outbox.cif.g08.bks.cpg/sg12_153_cif.got.tgz:305996.got - 2010.06.03 13:09:07.
