data_PCOD9179350
_publ_section_title
;
Structure prediction by ZEFSAII (Michael W. Deem and Ramdas Pophale) SiO2 
 PCOD9179350
Probable space group: C 2/M
;
_chemical_formula_sum "Si O2"
_cell_formula_units_Z 56
_cell_length_a 28.256892
_cell_length_b 8.675750
_cell_length_c 12.706511
_cell_angle_alpha 90.000000
_cell_angle_beta 124.912430
_cell_angle_gamma 90.000000
_cell_volume 2554.384543
_symmetry_space_group_name_H-M "C 2/M"
_symmetry_group_IT_number 12
_symmetry_cell_setting 'monoclinic'
loop_
_space_group_symop_operation_xyz
x,y,z
-x,y,-z
-x,-y,-z
x,-y,z
1/2+x,1/2+y,z
1/2-x,1/2+y,-z
1/2-x,1/2-y,-z
1/2+x,1/2-y,z
loop_
_atom_site_type_symbol
_atom_site_label
_atom_site_fract_x
_atom_site_fract_y
_atom_site_fract_z
Si Si1 0.272479 0.819811 0.855554
Si Si2 0.096076 0.314561 0.996521
Si Si3 0.589921 0.671904 0.210621
Si Si4 0.455362 0.187041 0.287374
Si Si5 0.581064 0.185486 0.428921
Si Si6 0.227732 0.174063 0.366053
Si Si7 0.846444 0.314105 0.285165
O O1 0.338542 0.761658 0.952016
O O2 0.261275 0.784420 0.718171
O O3 0.215773 0.743257 0.833324
O O4 0.272313 0.000000 0.879991
O O5 0.099328 0.500000 0.009303
O O6 0.074216 0.251890 0.080304
O O7 0.054980 0.273480 0.847833
O O8 0.565207 0.500000 0.184995
O O9 0.581200 0.758586 0.309314
O O10 0.659170 0.661256 0.288876
O O11 0.519646 0.235839 0.400318
O O12 0.399827 0.240295 0.281327
O O13 0.454615 0.000000 0.295198
O O14 0.633673 0.234461 0.571301
O O15 0.582002 0.000000 0.428887
O O16 0.250000 0.250000 0.500000
O O17 0.251274 0.000000 0.378772
O O18 0.844549 0.500000 0.280108
#
# Coordination Sequence:
#
# PCOD9179350 Si02
#       7
#     8   8   8   8   8   8   8
#     4  10  20  33  51  77 108 141 177 217 262 316
#     4   9  19  37  58  79 106 142 182 219 261 316
#     4  10  21  35  52  77 110 142 174 218 269 319
#     4   9  19  37  59  80 104 139 184 228 263 308
#     4  10  20  35  57  82 107 139 180 222 266 317
#     4  10  19  31  49  74 105 141 177 217 266 318
#     4  10  20  35  57  83 109 139 177 222 271 318
#
# _framework density 21.923088
#
# number of rings (size 3 to 8) (size 9 to 14) (size 15 to 20)
#    0.000    2.286    0.000    2.571    0.000    8.000 
#    0.000    5.000    0.000    1.714    0.000    0.000 
#    0.000    0.000    0.000    0.000    0.000    0.000 
#
# Total GULP energy -156235.189247 kJ/mol
# GULP energy per Si atom -5579.828187 kJ/mol
# Density = 2.187319 g / cm^3
# Si number density = 21.923088 Si / 1000 Ang^3
#
#
#
# Elastic Constant Matrix: (Units=GPa)
#
#
# Indices 1 2 3 4 5 6 
#
# 1 78.8936 9.4168 12.8141 0.0000 5.6221 0.0000
# 2 9.4168 23.1299 9.2756 0.0000 3.7662 0.0000
# 3 12.8141 9.2756 57.5349 0.0000 10.2731 0.0000
# 4 0.0000 0.0000 0.0000 7.3654 0.0000 2.5992
# 5 5.6221 3.7662 10.2731 0.0000 31.6441 0.0000
# 6 0.0000 0.0000 0.0000 2.5992 0.0000 22.4046
#
#
#
# Elastic Compliance Matrix: (Units=1/GPa)
#
#
# Indices 1 2 3 4 5 6 
#
# 1 0.013641 -0.004517 -0.002094 0.000000 -0.001206 0.000000
# 2 -0.004517 0.048040 -0.006222 0.000000 -0.002895 0.000000
# 3 -0.002094 -0.006222 0.019799 0.000000 -0.005315 0.000000
# 4 0.000000 0.000000 0.000000 0.141565 0.000000 -0.016423
# 5 -0.001206 -0.002895 -0.005315 0.000000 0.033886 0.000000
# 6 0.000000 0.000000 0.000000 -0.016423 0.000000 0.046539
#
#
# Mechanical properties :
#
#
# Convention : Reuss Voigt Hill
#
# Bulk Modulus (GPa) = 17.91707 24.73013 21.32360
# Shear Modulus (GPa) = 14.37854 20.81962 17.59908
#
# Velocity S-wave (km/s) = 2.56376 3.08501 2.83638
# Velocity P-wave (km/s) = 4.11756 4.89843 4.52487
#
# Compressibility (1/GPa) = 0.05581270
#
# Stress axis : x y z
#
# Youngs Moduli (GPa) = 73.31061 20.81620 50.50676
#
# Poissons Ratio (x) = 0.09403 0.10578
# Poissons Ratio (y) = 0.33116 0.31424
# Poissons Ratio (z) = 0.15355 0.12951
#
# Static dielectric constant tensor:
#      x y z
#    x 1.868440 0.000000 -0.024970 
#    y 0.000000 1.781150 0.000000 
#    z -0.024970 0.000000 1.842560 
# 
# From -- ./inp_files/187773.got.cif
#   From: 2010.05.17/outbox.cif.g08.bks.cpg/sg12_94_cif.got.tgz:187773.got - 2010.06.03 13:09:07.
