data_PCOD9179061
_publ_section_title
;
Structure prediction by ZEFSAII (Michael W. Deem and Ramdas Pophale) SiO2 
 PCOD9179061
Probable space group: C 2/M
;
_chemical_formula_sum "Si O2"
_cell_formula_units_Z 48
_cell_length_a 23.777982
_cell_length_b 8.959836
_cell_length_c 23.284471
_cell_angle_alpha 90.000000
_cell_angle_beta 35.059935
_cell_angle_gamma 90.000000
_cell_volume 2849.579755
_symmetry_space_group_name_H-M "C 2/M"
_symmetry_group_IT_number 12
_symmetry_cell_setting 'monoclinic'
loop_
_space_group_symop_operation_xyz
x,y,z
-x,y,-z
-x,-y,-z
x,-y,z
1/2+x,1/2+y,z
1/2-x,1/2+y,-z
1/2-x,1/2-y,-z
1/2+x,1/2-y,z
loop_
_atom_site_type_symbol
_atom_site_label
_atom_site_fract_x
_atom_site_fract_y
_atom_site_fract_z
Si Si1 0.144016 0.174270 0.924198
Si Si2 0.103392 0.179585 0.385863
Si Si3 0.302851 0.673628 0.254143
Si Si4 0.007531 0.677779 0.870494
Si Si5 0.355074 0.821869 0.896136
Si Si6 0.654433 0.678002 0.213605
O O1 0.157663 0.183398 0.844545
O O2 0.233242 0.268196 0.876026
O O3 0.151103 0.000000 0.934703
O O4 0.045671 0.243513 0.031339
O O5 0.195427 0.254243 0.340680
O O6 0.108107 0.218798 0.314074
O O7 0.000000 0.221781 0.500000
O O8 0.114304 0.000000 0.380330
O O9 0.297412 0.500000 0.274409
O O10 0.382862 0.759083 0.225237
O O11 0.010106 0.500000 0.876531
O O12 0.937355 0.711838 0.875051
O O13 0.387230 0.758542 0.807491
O O14 0.342621 0.000000 0.903980
O O15 0.250000 0.750000 0.000000
O O16 0.650160 0.500000 0.210263
#
# Coordination Sequence:
#
# PCOD9179061 Si02
#       6
#     8   8   8   8   8   8
#     4  10  19  31  48  71 103 139 173 211 254 304
#     4   9  19  37  60  82 104 132 168 215 268 318
#     4  10  21  34  50  76 105 134 170 214 264 311
#     4  11  22  33  48  71 102 142 179 211 253 306
#     4  11  22  34  50  73 105 144 182 216 252 300
#     4  10  19  32  52  78 105 136 175 214 257 308
#
# _framework density 16.844588000000002
#
# number of rings (size 3 to 8) (size 9 to 14) (size 15 to 20)
#    0.000    1.833    1.667    3.000    0.000    7.000 
#    0.000    0.000    0.000    1.000    0.000    0.000 
#    0.000    0.000    0.000    0.000    0.000    0.000 
#
# Total GULP energy -133951.706111 kJ/mol
# GULP energy per Si atom -5581.321088 kJ/mol
# Density = 1.680625 g / cm^3
# Si number density = 16.844588 Si / 1000 Ang^3
#
#
#
# Elastic Constant Matrix: (Units=GPa)
#
#
# Indices 1 2 3 4 5 6 
#
# 1 88.9185 49.8020 51.8403 0.0000 -17.3342 0.0000
# 2 49.8020 62.6279 40.5271 0.0001 -11.4728 0.0000
# 3 51.8403 40.5271 112.6652 0.0000 -19.3156 -0.0001
# 4 0.0000 0.0001 0.0000 20.1424 0.0000 1.3082
# 5 -17.3342 -11.4728 -19.3156 0.0000 19.4045 0.0000
# 6 0.0000 0.0000 -0.0001 1.3082 0.0000 22.9714
#
#
#
# Elastic Compliance Matrix: (Units=1/GPa)
#
#
# Indices 1 2 3 4 5 6 
#
# 1 0.023296 -0.014333 -0.004158 0.000000 0.008197 0.000000
# 2 -0.014333 0.030196 -0.004101 0.000000 0.000967 0.000000
# 3 -0.004158 -0.004101 0.013519 0.000000 0.007318 0.000000
# 4 0.000000 0.000000 0.000000 0.049831 0.000000 -0.002838
# 5 0.008197 0.000967 0.007318 0.000000 0.066713 0.000000
# 6 0.000000 0.000000 0.000000 -0.002838 0.000000 0.043694
#
#
# Mechanical properties :
#
#
# Convention : Reuss Voigt Hill
#
# Bulk Modulus (GPa) = 45.81502 60.95003 53.38253
# Shear Modulus (GPa) = 17.87575 20.63980 19.25778
#
# Velocity S-wave (km/s) = 3.26117 3.50424 3.38488
# Velocity P-wave (km/s) = 6.43723 7.25501 6.85832
#
# Compressibility (1/GPa) = 0.02182690
#
# Stress axis : x y z
#
# Youngs Moduli (GPa) = 42.92568 33.11712 73.97050
#
# Poissons Ratio (x) = 0.47466 0.30758
# Poissons Ratio (y) = 0.61524 0.30336
# Poissons Ratio (z) = 0.17849 0.13582
#
# Static dielectric constant tensor:
#      x y z
#    x 1.592690 0.000000 0.006490 
#    y 0.000000 1.561620 0.000000 
#    z 0.006490 0.000000 1.555310 
# 
# From -- ./inp_files/172137.got.cif
#   From: 2010.05.17/outbox.cif.g08.bks.cpg/sg12_87_cif.got.tgz:172137.got - 2010.06.03 13:09:07.
