data_PCOD9179201
_publ_section_title
;
Structure prediction by ZEFSAII (Michael W. Deem and Ramdas Pophale) SiO2 
 PCOD9179201
Probable space group: C 2/M
;
_chemical_formula_sum "Si O2"
_cell_formula_units_Z 48
_cell_length_a 25.944603
_cell_length_b 9.068193
_cell_length_c 29.232367
_cell_angle_alpha 90.000000
_cell_angle_beta 153.981334
_cell_angle_gamma 90.000000
_cell_volume 3016.919328
_symmetry_space_group_name_H-M "C 2/M"
_symmetry_group_IT_number 12
_symmetry_cell_setting 'monoclinic'
loop_
_space_group_symop_operation_xyz
x,y,z
-x,y,-z
-x,-y,-z
x,-y,z
1/2+x,1/2+y,z
1/2-x,1/2+y,-z
1/2-x,1/2-y,-z
1/2+x,1/2-y,z
loop_
_atom_site_type_symbol
_atom_site_label
_atom_site_fract_x
_atom_site_fract_y
_atom_site_fract_z
Si Si1 0.577279 0.668642 0.014960
Si Si2 0.869429 0.676008 0.613676
Si Si3 0.526147 0.676405 0.385275
Si Si4 0.227898 0.323771 0.369074
Si Si5 0.654750 0.677208 0.216738
Si Si6 0.226419 0.175618 0.776180
O O1 0.614701 0.500000 0.035765
O O2 0.687527 0.769716 0.114657
O O3 0.500000 0.666207 0.000000
O O4 0.482252 0.718025 0.901642
O O5 0.863380 0.500000 0.603357
O O6 0.750000 0.750000 0.500000
O O7 0.967198 0.742948 0.658367
O O8 0.865567 0.707206 0.664763
O O9 0.530439 0.500000 0.381019
O O10 0.642821 0.714336 0.507667
O O11 0.407372 0.711738 0.317516
O O12 0.227430 0.500000 0.360076
O O13 0.198887 0.237416 0.300114
O O14 0.661491 0.500000 0.219559
O O15 0.730674 0.745760 0.235940
O O16 0.237152 0.000000 0.779130
#
# Coordination Sequence:
#
# PCOD9179201 Si02
#       6
#     8   8   8   8   8   8
#     4   8  16  31  47  65  91 120 154 195 233 271
#     4   9  17  30  49  70  92 122 158 194 230 271
#     4   9  19  33  48  70  98 125 154 191 234 276
#     4   9  18  32  48  68  95 124 154 189 230 275
#     4  10  20  32  47  69  96 125 156 192 233 275
#     4  10  19  31  49  71  95 124 156 191 232 278
#
# _framework density 15.910270000000001
#
# number of rings (size 3 to 8) (size 9 to 14) (size 15 to 20)
#    0.000    2.833    0.000    3.500    0.000    9.000 
#    0.000    3.333    0.000    1.000    0.000    0.000 
#    0.000    0.000    0.000    0.000    0.000    0.000 
#
# Total GULP energy -133633.956527 kJ/mol
# GULP energy per Si atom -5568.081522 kJ/mol
# Density = 1.587406 g / cm^3
# Si number density = 15.910270 Si / 1000 Ang^3
#
#
#
# Elastic Constant Matrix: (Units=GPa)
#
#
# Indices 1 2 3 4 5 6 
#
# 1 102.6028 52.6677 61.6980 0.0000 -16.1297 0.0000
# 2 52.6677 48.1368 41.6905 0.0000 -9.5460 0.0000
# 3 61.6980 41.6905 88.8470 0.0000 -14.5805 0.0000
# 4 0.0000 0.0000 0.0000 26.1460 0.0000 -3.1197
# 5 -16.1297 -9.5460 -14.5805 0.0000 0.3621 0.0000
# 6 0.0000 0.0000 0.0000 -3.1197 0.0000 26.2145
#
#
#
# Elastic Compliance Matrix: (Units=1/GPa)
#
#
# Indices 1 2 3 4 5 6 
#
# 1 0.021619 -0.021308 -0.010848 0.000000 -0.035549 0.000000
# 2 -0.021308 0.052082 -0.010684 0.000000 -0.006350 0.000000
# 3 -0.010848 -0.010684 0.018139 0.000000 -0.034509 0.000000
# 4 0.000000 0.000000 0.000000 0.038798 0.000000 0.004617
# 5 -0.035549 -0.006350 -0.034509 0.000000 -0.378867 0.000000
# 6 0.000000 0.000000 0.000000 0.004617 0.000000 0.038696
#
#
# Mechanical properties :
#
#
# Convention : Reuss Voigt Hill
#
# Bulk Modulus (GPa) = 162.36253 61.29989 111.83121
# Shear Modulus (GPa) = -41.05092 16.11318 -12.46887
#
# Velocity S-wave (km/s) = -5.08503 3.18583 -2.80250
# Velocity P-wave (km/s) = 8.23369 7.22114 7.74398
#
# Compressibility (1/GPa) = 0.00615906
#
# Stress axis : x y z
#
# Youngs Moduli (GPa) = 46.25560 19.20046 55.13097
#
# Poissons Ratio (x) = 0.40913 0.59806
# Poissons Ratio (y) = 0.98563 0.58902
# Poissons Ratio (z) = 0.50178 0.20514
#
# Static dielectric constant tensor:
#      x y z
#    x 1.537180 0.000000 0.003140 
#    y 0.000000 1.531880 0.000000 
#    z 0.003140 0.000000 1.536250 
# 
# From -- ./inp_files/172243.got.cif
#   From: 2010.05.17/outbox.cif.g08.bks.cpg/sg12_87_cif.got.tgz:172243.got - 2010.06.03 13:09:07.
