data_PCOD9179130
_publ_section_title
;
Structure prediction by ZEFSAII (Michael W. Deem and Ramdas Pophale) SiO2 
 PCOD9179130
Probable space group: C 2/M
;
_chemical_formula_sum "Si O2"
_cell_formula_units_Z 64
_cell_length_a 14.627308
_cell_length_b 7.622497
_cell_length_c 30.406752
_cell_angle_alpha 90.000000
_cell_angle_beta 75.036519
_cell_angle_gamma 90.000000
_cell_volume 3275.288457
_symmetry_space_group_name_H-M "C 2/M"
_symmetry_group_IT_number 12
_symmetry_cell_setting 'monoclinic'
loop_
_space_group_symop_operation_xyz
x,y,z
-x,y,-z
-x,-y,-z
x,-y,z
1/2+x,1/2+y,z
1/2-x,1/2+y,-z
1/2-x,1/2-y,-z
1/2+x,1/2-y,z
loop_
_atom_site_type_symbol
_atom_site_label
_atom_site_fract_x
_atom_site_fract_y
_atom_site_fract_z
Si Si1 0.602168 0.290885 0.000840
Si Si2 0.714967 0.715435 0.751321
Si Si3 0.099547 0.288839 0.322419
Si Si4 0.494313 0.708201 0.246974
Si Si5 0.040006 0.285100 0.425850
Si Si6 0.316047 0.794494 0.825850
Si Si7 0.788900 0.712357 0.927479
Si Si8 0.143370 0.290251 0.500318
O O1 0.599913 0.500000 0.993847
O O2 0.629446 0.260864 0.048131
O O3 0.500000 0.219446 0.000000
O O4 0.690059 0.222917 0.960819
O O5 0.715401 0.500000 0.751339
O O6 0.797346 0.771257 0.707286
O O7 0.610378 0.774296 0.751301
O O8 0.748820 0.776393 0.795394
O O9 0.103865 0.500000 0.324173
O O10 0.069345 0.223034 0.374006
O O11 0.025568 0.244427 0.293117
O O12 0.494079 0.500000 0.240523
O O13 0.577318 0.780502 0.205604
O O14 0.040494 0.500000 0.424564
O O15 0.111561 0.228974 0.455770
O O16 0.935751 0.228511 0.454978
O O17 0.304565 0.720943 0.876149
O O18 0.292521 0.000000 0.832063
O O19 0.786384 0.500000 0.926910
O O20 0.134396 0.500000 0.500341
O O21 0.250000 0.250000 0.500000
#
# Coordination Sequence:
#
# PCOD9179130 Si02
#       8
#     8   8   8   8   8   8   8   8
#     4   9  18  32  50  72  97 125 156 191 234 281
#     4   8  16  30  48  67  90 120 153 188 231 281
#     4   9  17  33  52  67  89 127 163 189 227 284
#     4  10  19  31  48  73  98 119 151 199 241 272
#     4   8  16  31  50  68  92 127 162 189 225 284
#     4   9  18  34  51  67  92 129 163 187 224 284
#     4   9  18  32  50  71  95 123 158 197 231 270
#     4   9  17  31  49  71  96 124 158 195 232 275
#
# _framework density 19.540265000000002
#
# number of rings (size 3 to 8) (size 9 to 14) (size 15 to 20)
#    0.000    3.125    0.000    1.875    0.000    2.750 
#    0.000   11.250    0.000    0.000    0.000    0.000 
#    0.000    0.000    0.000    0.000    0.000    0.000 
#
# Total GULP energy -178408.626860 kJ/mol
# GULP energy per Si atom -5575.269589 kJ/mol
# Density = 1.949579 g / cm^3
# Si number density = 19.540265 Si / 1000 Ang^3
#
#
#
# Elastic Constant Matrix: (Units=GPa)
#
#
# Indices 1 2 3 4 5 6 
#
# 1 175.7745 -8.7092 78.9647 0.0000 15.8479 0.0000
# 2 -8.7092 32.1875 -8.7717 0.0000 0.1976 0.0000
# 3 78.9647 -8.7717 168.6798 0.0000 11.1301 0.0000
# 4 0.0000 0.0000 0.0000 11.0364 0.0000 4.4053
# 5 15.8479 0.1976 11.1301 0.0000 7.4495 0.0000
# 6 0.0000 0.0000 0.0000 4.4053 0.0000 16.8640
#
#
#
# Elastic Compliance Matrix: (Units=1/GPa)
#
#
# Indices 1 2 3 4 5 6 
#
# 1 0.008273 0.001525 -0.002917 0.000000 -0.013281 0.000000
# 2 0.001525 0.031885 0.001347 0.000000 -0.006102 0.000000
# 3 -0.002917 0.001347 0.007718 0.000000 -0.005361 0.000000
# 4 0.000000 0.000000 0.000000 0.101157 0.000000 -0.026424
# 5 -0.013281 -0.006102 -0.005361 0.000000 0.170662 0.000000
# 6 0.000000 0.000000 0.000000 -0.026424 0.000000 0.066200
#
#
# Mechanical properties :
#
#
# Convention : Reuss Voigt Hill
#
# Bulk Modulus (GPa) = 20.92708 55.51214 38.21961
# Shear Modulus (GPa) = 12.44051 28.08053 20.26052
#
# Velocity S-wave (km/s) = 2.52595 3.79497 3.22352
# Velocity P-wave (km/s) = 4.38637 6.90458 5.78418
#
# Compressibility (1/GPa) = 0.04778498
#
# Stress axis : x y z
#
# Youngs Moduli (GPa) = 120.88202 31.36259 129.57192
#
# Poissons Ratio (x) = -0.04783 0.37796
# Poissons Ratio (y) = -0.18434 -0.17452
# Poissons Ratio (z) = 0.35262 -0.04224
#
# Static dielectric constant tensor:
#      x y z
#    x 1.667960 0.000000 -0.003540 
#    y 0.000000 1.729490 0.000000 
#    z -0.003540 0.000000 1.676270 
# 
# From -- ./inp_files/374804.got.cif
#   From: 2010.05.17/outbox.cif.g08.bks.cpg/sg12_188_cif.got.tgz:374804.got - 2010.06.03 13:09:07.
