data_PCOD9179909
_publ_section_title
;
Structure prediction by ZEFSAII (Michael W. Deem and Ramdas Pophale) SiO2 
 PCOD9179909
Probable space group: C 2/M
;
_chemical_formula_sum "Si O2"
_cell_formula_units_Z 48
_cell_length_a 23.640308
_cell_length_b 14.185406
_cell_length_c 11.634876
_cell_angle_alpha 90.000000
_cell_angle_beta 47.635152
_cell_angle_gamma 90.000000
_cell_volume 2882.863276
_symmetry_space_group_name_H-M "C 2/M"
_symmetry_group_IT_number 12
_symmetry_cell_setting 'monoclinic'
loop_
_space_group_symop_operation_xyz
x,y,z
-x,y,-z
-x,-y,-z
x,-y,z
1/2+x,1/2+y,z
1/2-x,1/2+y,-z
1/2-x,1/2-y,-z
1/2+x,1/2-y,z
loop_
_atom_site_type_symbol
_atom_site_label
_atom_site_fract_x
_atom_site_fract_y
_atom_site_fract_z
Si Si1 0.167283 0.764978 0.772164
Si Si2 0.450480 0.606459 0.186216
Si Si3 0.572513 0.890588 0.317235
Si Si4 0.539179 0.224769 0.138059
Si Si5 0.610061 0.891632 0.702359
Si Si6 0.806008 0.392250 0.652879
O O1 0.108362 0.740523 0.955229
O O2 0.170430 0.670193 0.692232
O O3 0.242866 0.812849 0.717902
O O4 0.127599 0.842513 0.743460
O O5 0.440250 0.500000 0.240209
O O6 0.496517 0.674633 0.208666
O O7 0.500000 0.604595 0.000000
O O8 0.500000 0.876227 0.500000
O O9 0.567092 0.821702 0.217091
O O10 0.647231 0.878334 0.293903
O O11 0.569468 0.000000 0.281802
O O12 0.472931 0.157538 0.175631
O O13 0.635219 0.888501 0.534647
O O14 0.607583 0.000000 0.742682
O O15 0.773829 0.500000 0.697352
#
# Coordination Sequence:
#
# PCOD9179909 Si02
#       6
#     8   8   8   8   8   8
#     4  10  20  31  49  80 110 133 163 215 272 308
#     4   8  15  29  48  71 100 134 169 202 245 302
#     4  10  19  34  55  76 100 136 179 217 255 307
#     4  10  19  31  52  79 104 134 174 218 256 302
#     4  10  19  33  53  78 107 139 171 208 260 316
#     4  10  20  34  54  76 102 137 177 215 251 306
#
# _framework density 16.650113000000001
#
# number of rings (size 3 to 8) (size 9 to 14) (size 15 to 20)
#    0.000    2.333    1.667    3.000    0.000    3.333 
#    0.000    0.000    0.000    1.500    0.000    0.000 
#    0.000    0.000    0.000    0.000    0.000    0.000 
#
# Total GULP energy -133798.853957 kJ/mol
# GULP energy per Si atom -5574.952248 kJ/mol
# Density = 1.661222 g / cm^3
# Si number density = 16.650113 Si / 1000 Ang^3
#
#
#
# Elastic Constant Matrix: (Units=GPa)
#
#
# Indices 1 2 3 4 5 6 
#
# 1 81.5542 54.6328 24.1486 0.0000 8.5637 0.0000
# 2 54.6328 135.9810 30.0609 0.0000 7.7043 0.0000
# 3 24.1486 30.0609 40.3454 0.0000 2.2740 0.0000
# 4 0.0000 0.0000 0.0000 12.5923 0.0000 7.4276
# 5 8.5637 7.7043 2.2740 0.0000 23.3497 0.0000
# 6 0.0000 0.0000 0.0000 7.4276 0.0000 29.9707
#
#
#
# Elastic Compliance Matrix: (Units=1/GPa)
#
#
# Indices 1 2 3 4 5 6 
#
# 1 0.018494 -0.005741 -0.006553 0.000000 -0.004251 0.000000
# 2 -0.005741 0.010709 -0.004487 0.000000 -0.000991 0.000000
# 3 -0.006553 -0.004487 0.032008 0.000000 0.000766 0.000000
# 4 0.000000 0.000000 0.000000 0.093010 0.000000 -0.023051
# 5 -0.004251 -0.000991 0.000766 0.000000 0.044638 0.000000
# 6 0.000000 0.000000 0.000000 -0.023051 0.000000 0.039079
#
#
# Mechanical properties :
#
#
# Convention : Reuss Voigt Hill
#
# Bulk Modulus (GPa) = 36.16630 52.84060 44.50345
# Shear Modulus (GPa) = 17.81167 23.11841 20.46504
#
# Velocity S-wave (km/s) = 3.27427 3.73028 3.50969
# Velocity P-wave (km/s) = 6.00525 7.09634 6.57347
#
# Compressibility (1/GPa) = 0.02765005
#
# Stress axis : x y z
#
# Youngs Moduli (GPa) = 54.07094 93.38357 31.24241
#
# Poissons Ratio (x) = 0.53612 0.20472
# Poissons Ratio (y) = 0.31042 0.14018
# Poissons Ratio (z) = 0.35430 0.41898
#
# Static dielectric constant tensor:
#      x y z
#    x 1.556590 0.000000 -0.013320 
#    y 0.000000 1.573970 0.000000 
#    z -0.013320 0.000000 1.560910 
# 
# From -- ./inp_files/166540.got.cif
#   From: 2010.05.17/outbox.cif.g08.bks.cpg/sg12_84_cif.got.tgz:166540.got - 2010.06.03 13:09:07.
