data_PCOD9179855
_publ_section_title
;
Structure prediction by ZEFSAII (Michael W. Deem and Ramdas Pophale) SiO2 
 PCOD9179855
Probable space group: C 2/M
;
_chemical_formula_sum "Si O2"
_cell_formula_units_Z 56
_cell_length_a 5.342991
_cell_length_b 25.463983
_cell_length_c 23.054661
_cell_angle_alpha 90.000000
_cell_angle_beta 69.915201
_cell_angle_gamma 90.000000
_cell_volume 2945.919323
_symmetry_space_group_name_H-M "C 2/M"
_symmetry_group_IT_number 12
_symmetry_cell_setting 'monoclinic'
loop_
_space_group_symop_operation_xyz
x,y,z
-x,y,-z
-x,-y,-z
x,-y,z
1/2+x,1/2+y,z
1/2-x,1/2+y,-z
1/2-x,1/2-y,-z
1/2+x,1/2-y,z
loop_
_atom_site_type_symbol
_atom_site_label
_atom_site_fract_x
_atom_site_fract_y
_atom_site_fract_z
Si Si1 0.478674 0.110066 0.720781
Si Si2 0.492094 0.766144 0.729004
Si Si3 0.938225 0.939782 0.332395
Si Si4 0.308926 0.606807 0.459807
Si Si5 0.199512 0.222932 0.590515
Si Si6 0.811733 0.936332 0.144599
Si Si7 0.079067 0.563650 0.929589
O O1 0.504324 0.172629 0.714114
O O2 0.774514 0.086184 0.701729
O O3 0.314817 0.092039 0.790108
O O4 0.306085 0.088971 0.680380
O O5 0.693834 0.751733 0.763310
O O6 0.594164 0.732417 0.664805
O O7 0.890738 0.934746 0.404676
O O8 0.943898 0.000000 0.312458
O O9 0.500000 0.604018 0.500000
O O10 0.340213 0.664133 0.427592
O O11 0.000000 0.600424 0.500000
O O12 0.507974 0.239622 0.567810
O O13 0.636848 0.922416 0.102012
O O14 0.120368 0.921499 0.111492
O O15 0.796952 0.000000 0.153790
O O16 0.079257 0.500000 0.931982
O O17 0.000000 0.582598 0.000000
#
# Coordination Sequence:
#
# PCOD9179855 Si02
#       7
#     8   8   8   8   8   8   8
#     4  12  23  40  62  88 119 151 194 239 289 348
#     4  10  20  36  59  82 111 144 176 227 294 351
#     4  12  25  42  62  82 112 154 193 234 287 344
#     4  12  26  41  59  82 106 138 185 234 285 353
#     4  10  19  35  55  78 104 131 166 216 284 345
#     4  10  19  31  51  82 118 154 194 234 271 324
#     4   9  17  30  49  76 116 162 198 231 273 317
#
# _framework density 19.009347999999999
#
# number of rings (size 3 to 8) (size 9 to 14) (size 15 to 20)
#    0.000    1.286    0.000    8.571    0.000    5.143 
#    0.000    0.000    0.000    0.000    0.000    0.000 
#    0.000   11.429    0.000    0.000    0.000    0.000 
#
# Total GULP energy -156505.226245 kJ/mol
# GULP energy per Si atom -5589.472366 kJ/mol
# Density = 1.896608 g / cm^3
# Si number density = 19.009348 Si / 1000 Ang^3
#
#
#
# Elastic Constant Matrix: (Units=GPa)
#
#
# Indices 1 2 3 4 5 6 
#
# 1 117.2157 21.3712 -15.0537 0.0000 0.8617 0.0000
# 2 21.3712 68.2983 -9.4029 0.0000 -0.3579 0.0000
# 3 -15.0537 -9.4029 53.2406 0.0000 -2.4145 0.0000
# 4 0.0000 0.0000 0.0000 7.4768 0.0000 -3.0573
# 5 0.8617 -0.3579 -2.4145 0.0000 25.3531 0.0000
# 6 0.0000 0.0000 0.0000 -3.0573 0.0000 50.9238
#
#
#
# Elastic Compliance Matrix: (Units=1/GPa)
#
#
# Indices 1 2 3 4 5 6 
#
# 1 0.009285 -0.002609 0.002158 0.000000 -0.000147 0.000000
# 2 -0.002609 0.015745 0.002066 0.000000 0.000508 0.000000
# 3 0.002158 0.002066 0.019841 0.000000 0.001845 0.000000
# 4 0.000000 0.000000 0.000000 0.137113 0.000000 0.008232
# 5 -0.000147 0.000508 0.001845 0.000000 0.039631 0.000000
# 6 0.000000 0.000000 0.000000 0.008232 0.000000 0.020131
#
#
# Mechanical properties :
#
#
# Convention : Reuss Voigt Hill
#
# Bulk Modulus (GPa) = 20.78935 25.84264 23.31600
# Shear Modulus (GPa) = 19.64240 32.87340 26.25790
#
# Velocity S-wave (km/s) = 3.21799 4.16303 3.72064
# Velocity P-wave (km/s) = 4.97669 6.06069 5.54524
#
# Compressibility (1/GPa) = 0.04810156
#
# Stress axis : x y z
#
# Youngs Moduli (GPa) = 107.69824 63.51147 50.39965
#
# Poissons Ratio (x) = 0.16571 -0.10876
# Poissons Ratio (y) = 0.28100 -0.10413
# Poissons Ratio (z) = -0.23240 -0.13122
#
# Static dielectric constant tensor:
#      x y z
#    x 1.724490 0.000000 0.008160 
#    y 0.000000 1.640170 0.000000 
#    z 0.008160 0.000000 1.657810 
# 
# From -- ./inp_files/298074.got.cif
#   From: 2010.05.17/outbox.cif.g08.bks.cpg/sg12_150_cif.got.tgz:298074.got - 2010.06.03 13:09:07.
