data_PCOD9179971
_publ_section_title
;
Structure prediction by ZEFSAII (Michael W. Deem and Ramdas Pophale) SiO2 
 PCOD9179971
Probable space group: C 2/M
;
_chemical_formula_sum "Si O2"
_cell_formula_units_Z 64
_cell_length_a 32.080846
_cell_length_b 8.996337
_cell_length_c 20.317235
_cell_angle_alpha 90.000000
_cell_angle_beta 142.578248
_cell_angle_gamma 90.000000
_cell_volume 3563.273929
_symmetry_space_group_name_H-M "C 2/M"
_symmetry_group_IT_number 12
_symmetry_cell_setting 'monoclinic'
loop_
_space_group_symop_operation_xyz
x,y,z
-x,y,-z
-x,-y,-z
x,-y,z
1/2+x,1/2+y,z
1/2-x,1/2+y,-z
1/2-x,1/2-y,-z
1/2+x,1/2-y,z
loop_
_atom_site_type_symbol
_atom_site_label
_atom_site_fract_x
_atom_site_fract_y
_atom_site_fract_z
Si Si1 0.352776 0.174827 0.665188
Si Si2 0.515813 0.677266 0.221329
Si Si3 0.725484 0.322844 0.819789
Si Si4 0.984903 0.674715 0.635960
Si Si5 0.227305 0.674890 0.574110
Si Si6 0.141777 0.822805 0.977039
Si Si7 0.644705 0.824831 0.837382
Si Si8 0.141323 0.177059 0.582603
O O1 0.427188 0.248582 0.752999
O O2 0.301252 0.255903 0.650384
O O3 0.317852 0.191323 0.549080
O O4 0.357100 0.000000 0.685013
O O5 0.525795 0.500000 0.236671
O O6 0.524182 0.744594 0.305126
O O7 0.437093 0.707686 0.102362
O O8 0.730744 0.500000 0.834370
O O9 0.691896 0.250378 0.842180
O O10 0.677229 0.290832 0.697015
O O11 0.800747 0.252715 0.906124
O O12 0.969552 0.500000 0.625147
O O13 0.932324 0.746306 0.519045
O O14 0.064600 0.690125 0.717006
O O15 0.232490 0.500000 0.595153
O O16 0.189211 0.759501 0.584730
O O17 0.151541 0.754632 0.916322
O O18 0.151262 0.000000 0.986639
O O19 0.660338 0.000000 0.863552
O O20 0.134152 0.000000 0.566535
#
# Coordination Sequence:
#
# PCOD9179971 Si02
#       8
#     8   8   8   8   8   8   8   8
#     4  10  19  31  52  82 113 143 176 214 262 314
#     4  10  19  32  54  82 111 140 174 219 269 317
#     4  11  24  39  55  77 105 143 185 223 269 321
#     4  10  20  34  53  79 108 141 178 216 268 321
#     4  10  20  33  52  79 111 145 178 215 260 314
#     4  10  21  37  58  82 107 139 179 226 273 315
#     4  10  21  37  58  81 107 138 176 227 274 318
#     4  11  23  37  54  76 109 147 180 219 266 320
#
# _framework density 17.961009000000001
#
# number of rings (size 3 to 8) (size 9 to 14) (size 15 to 20)
#    0.000    1.750    1.250    3.375    0.000    6.500 
#    0.000    2.500    0.000    0.750    0.000    5.250 
#    0.000    0.000    0.000    0.000    0.000    0.000 
#
# Total GULP energy -178776.605417 kJ/mol
# GULP energy per Si atom -5586.768919 kJ/mol
# Density = 1.792013 g / cm^3
# Si number density = 17.961009 Si / 1000 Ang^3
#
#
#
# Elastic Constant Matrix: (Units=GPa)
#
#
# Indices 1 2 3 4 5 6 
#
# 1 36.9660 18.2558 11.2925 0.0000 20.3163 0.0000
# 2 18.2558 69.7320 42.5139 0.0000 17.1626 0.0000
# 3 11.2925 42.5139 86.6025 0.0000 24.2765 0.0000
# 4 0.0000 0.0000 0.0000 29.6149 0.0000 6.3491
# 5 20.3163 17.1626 24.2765 0.0000 20.7298 0.0000
# 6 0.0000 0.0000 0.0000 6.3491 0.0000 27.8722
#
#
#
# Elastic Compliance Matrix: (Units=1/GPa)
#
#
# Indices 1 2 3 4 5 6 
#
# 1 0.073880 -0.009851 0.019671 0.000000 -0.087286 0.000000
# 2 -0.009851 0.022642 -0.010841 0.000000 0.003605 0.000000
# 3 0.019671 -0.010841 0.025594 0.000000 -0.040276 0.000000
# 4 0.000000 0.000000 0.000000 0.035500 0.000000 -0.008087
# 5 -0.087286 0.003605 -0.040276 0.000000 0.177966 0.000000
# 6 0.000000 0.000000 0.000000 -0.008087 0.000000 0.037720
#
#
# Mechanical properties :
#
#
# Convention : Reuss Voigt Hill
#
# Bulk Modulus (GPa) = 8.32832 37.49165 22.90999
# Shear Modulus (GPa) = 12.03745 23.72594 17.88170
#
# Velocity S-wave (km/s) = 2.59163 3.63846 3.15871
# Velocity P-wave (km/s) = 3.68814 6.21051 5.10748
#
# Compressibility (1/GPa) = 0.12007223
#
# Stress axis : x y z
#
# Youngs Moduli (GPa) = 13.53551 44.16573 39.07133
#
# Poissons Ratio (x) = 0.43509 -0.76856
# Poissons Ratio (y) = 0.13334 0.42358
# Poissons Ratio (z) = -0.26625 0.47881
#
# Static dielectric constant tensor:
#      x y z
#    x 1.594470 0.000000 0.028420 
#    y 0.000000 1.595020 0.000000 
#    z 0.028420 0.000000 1.620760 
# 
# From -- ./inp_files/295754.got.cif
#   From: 2010.05.17/outbox.cif.g08.bks.cpg/sg12_148_cif.got.tgz:295754.got - 2010.06.03 13:09:07.
