data_PCOD9179936
_publ_section_title
;
Structure prediction by ZEFSAII (Michael W. Deem and Ramdas Pophale) SiO2 
 PCOD9179936
Probable space group: C 2/M
;
_chemical_formula_sum "Si O2"
_cell_formula_units_Z 56
_cell_length_a 14.466657
_cell_length_b 19.915062
_cell_length_c 14.259189
_cell_angle_alpha 90.000000
_cell_angle_beta 129.790047
_cell_angle_gamma 90.000000
_cell_volume 3156.668944
_symmetry_space_group_name_H-M "C 2/M"
_symmetry_group_IT_number 12
_symmetry_cell_setting 'monoclinic'
loop_
_space_group_symop_operation_xyz
x,y,z
-x,y,-z
-x,-y,-z
x,-y,z
1/2+x,1/2+y,z
1/2-x,1/2+y,-z
1/2-x,1/2-y,-z
1/2+x,1/2-y,z
loop_
_atom_site_type_symbol
_atom_site_label
_atom_site_fract_x
_atom_site_fract_y
_atom_site_fract_z
Si Si1 0.310863 0.576190 0.931404
Si Si2 0.076636 0.421353 0.906214
Si Si3 0.114516 0.801030 0.140980
Si Si4 0.724957 0.832239 0.141767
Si Si5 0.570178 0.419438 0.450550
Si Si6 0.800184 0.579950 0.699933
Si Si7 0.540410 0.643038 0.807688
O O1 0.330829 0.500000 0.912261
O O2 0.178987 0.580898 0.892811
O O3 0.325298 0.631117 0.859647
O O4 0.407069 0.593929 0.076583
O O5 0.076288 0.500000 0.940690
O O6 0.942075 0.404456 0.785065
O O7 0.120801 0.367552 0.011885
O O8 0.192804 0.735743 0.173927
O O9 0.059946 0.811672 0.207964
O O10 0.000000 0.790306 0.000000
O O11 0.749381 0.887106 0.237433
O O12 0.839293 0.819886 0.149646
O O13 0.500000 0.398167 0.500000
O O14 0.561286 0.500000 0.440240
O O15 0.710057 0.400296 0.558117
O O16 0.515454 0.391410 0.319597
O O17 0.791229 0.500000 0.703477
#
# Coordination Sequence:
#
# PCOD9179936 Si02
#       7
#     8   8   8   8   8   8   8
#     4   9  19  35  55  80 109 137 172 218 263 314
#     4   9  18  31  52  80 107 139 174 214 266 311
#     4  10  22  35  52  80 107 142 177 211 266 318
#     4  11  20  33  53  76 110 138 173 219 264 314
#     4  10  19  33  55  80 107 138 174 217 263 309
#     4  10  19  31  52  80 108 139 174 215 264 311
#     4  10  21  35  54  78 106 138 177 216 265 313
#
# _framework density 17.740219
#
# number of rings (size 3 to 8) (size 9 to 14) (size 15 to 20)
#    0.000    2.143    1.429    2.143    0.000   11.714 
#    0.000    0.714    0.000    0.857    0.000    4.000 
#    0.000    0.000    0.000    0.000    0.000    0.000 
#
# Total GULP energy -156081.828492 kJ/mol
# GULP energy per Si atom -5574.351018 kJ/mol
# Density = 1.769984 g / cm^3
# Si number density = 17.740219 Si / 1000 Ang^3
#
#
#
# Elastic Constant Matrix: (Units=GPa)
#
#
# Indices 1 2 3 4 5 6 
#
# 1 101.6029 42.9488 44.3873 0.0000 7.6522 0.0000
# 2 42.9488 42.4904 30.5237 0.0000 15.2951 0.0000
# 3 44.3873 30.5237 85.4510 0.0000 10.2526 0.0000
# 4 0.0000 0.0000 0.0000 -0.0422 0.0000 -2.5642
# 5 7.6522 15.2951 10.2526 0.0000 16.7440 0.0000
# 6 0.0000 0.0000 0.0000 -2.5642 0.0000 21.4943
#
#
#
# Elastic Compliance Matrix: (Units=1/GPa)
#
#
# Indices 1 2 3 4 5 6 
#
# 1 0.019962 -0.022132 -0.004096 0.000000 0.013601 0.000000
# 2 -0.022132 0.068272 -0.007147 0.000000 -0.047873 0.000000
# 3 -0.004096 -0.007147 0.016594 0.000000 -0.001761 0.000000
# 4 0.000000 0.000000 0.000000 -2.872899 0.000000 -0.342727
# 5 0.013601 -0.047873 -0.001761 0.000000 0.098315 0.000000
# 6 0.000000 0.000000 0.000000 -0.342727 0.000000 0.005638
#
#
# Mechanical properties :
#
#
# Convention : Reuss Voigt Hill
#
# Bulk Modulus (GPa) = 26.26050 51.69597 38.97824
# Shear Modulus (GPa) = -1.93448 15.08487 6.57520
#
# Velocity S-wave (km/s) = -1.04538 2.91919 1.92728
# Velocity P-wave (km/s) = 3.65757 6.36915 5.19345
#
# Compressibility (1/GPa) = 0.03808000
#
# Stress axis : x y z
#
# Youngs Moduli (GPa) = 50.09396 14.64728 60.26124
#
# Poissons Ratio (x) = 0.32417 0.24682
# Poissons Ratio (y) = 1.10866 0.43069
# Poissons Ratio (z) = 0.20518 0.10469
#
# Static dielectric constant tensor:
#      x y z
#    x 1.651290 0.000000 0.023130 
#    y 0.000000 1.616700 0.000000 
#    z 0.023130 0.000000 1.602960 
# 
# From -- ./inp_files/146212.got.cif
#   From: 2010.05.17/outbox.cif.g08.bks.cpg/sg12_74_cif.got.tgz:146212.got - 2010.06.03 13:09:07.
