data_PCOD9179952
_publ_section_title
;
Structure prediction by ZEFSAII (Michael W. Deem and Ramdas Pophale) SiO2 
 PCOD9179952
Probable space group: C 2/M
;
_chemical_formula_sum "Si O2"
_cell_formula_units_Z 56
_cell_length_a 29.829244
_cell_length_b 8.438125
_cell_length_c 21.059302
_cell_angle_alpha 90.000000
_cell_angle_beta 32.117177
_cell_angle_gamma 90.000000
_cell_volume 2818.123682
_symmetry_space_group_name_H-M "C 2/M"
_symmetry_group_IT_number 12
_symmetry_cell_setting 'monoclinic'
loop_
_space_group_symop_operation_xyz
x,y,z
-x,y,-z
-x,-y,-z
x,-y,z
1/2+x,1/2+y,z
1/2-x,1/2+y,-z
1/2-x,1/2-y,-z
1/2+x,1/2-y,z
loop_
_atom_site_type_symbol
_atom_site_label
_atom_site_fract_x
_atom_site_fract_y
_atom_site_fract_z
Si Si1 0.193529 0.187304 0.733066
Si Si2 0.982096 0.308585 0.813091
Si Si3 0.946219 0.808466 0.721241
Si Si4 0.376416 0.691721 0.552237
Si Si5 0.828964 0.807790 0.749062
Si Si6 0.144074 0.308183 0.927224
Si Si7 0.337058 0.187845 0.367201
O O1 0.291399 0.237597 0.624692
O O2 0.146168 0.239894 0.853977
O O3 0.158728 0.269637 0.711964
O O4 0.188674 0.000000 0.731088
O O5 0.982603 0.500000 0.811999
O O6 0.936922 0.251208 0.803699
O O7 0.078594 0.249775 0.699800
O O8 0.932393 0.258878 0.936008
O O9 0.875954 0.750976 0.755609
O O10 0.038245 0.758584 0.584775
O O11 0.944895 0.000000 0.722922
O O12 0.369852 0.500000 0.556600
O O13 0.376995 0.735267 0.626230
O O14 0.732168 0.759377 0.855093
O O15 0.829375 0.000000 0.751220
O O16 0.144485 0.500000 0.921636
O O17 0.250000 0.250000 0.500000
O O18 0.336445 0.000000 0.375245
#
# Coordination Sequence:
#
# PCOD9179952 Si02
#       7
#     8   8   8   8   8   8   8
#     4  11  22  36  57  84 111 139 176 224 274 319
#     4  10  23  39  55  77 107 143 181 223 267 318
#     4  10  19  31  52  81 110 143 182 223 266 313
#     4   9  17  32  54  79 110 146 182 219 264 320
#     4   8  15  30  54  80 105 139 183 223 260 313
#     4   9  19  39  60  77 104 144 185 219 261 318
#     4  11  23  40  60  83 111 142 178 218 266 322
#
# _framework density 19.871376999999999
#
# number of rings (size 3 to 8) (size 9 to 14) (size 15 to 20)
#    0.000    2.286    0.000    3.857    0.000    7.429 
#    0.000    5.714    0.000    4.286    0.000    0.000 
#    0.000    0.000    0.000    0.000    0.000    0.000 
#
# Total GULP energy -156355.471278 kJ/mol
# GULP energy per Si atom -5584.123974 kJ/mol
# Density = 1.982615 g / cm^3
# Si number density = 19.871377 Si / 1000 Ang^3
#
#
#
# Elastic Constant Matrix: (Units=GPa)
#
#
# Indices 1 2 3 4 5 6 
#
# 1 67.3528 -9.4645 -1.4684 -0.0037 15.1727 0.0028
# 2 -9.4645 11.4080 6.8412 0.0013 -3.8083 -0.0022
# 3 -1.4684 6.8412 73.3246 -0.0057 4.8662 0.0074
# 4 -0.0037 0.0013 -0.0057 22.9923 0.0007 7.0758
# 5 15.1727 -3.8083 4.8662 0.0007 15.4108 -0.0012
# 6 0.0028 -0.0022 0.0074 7.0758 -0.0012 21.7421
#
#
#
# Elastic Compliance Matrix: (Units=1/GPa)
#
#
# Indices 1 2 3 4 5 6 
#
# 1 0.020308 0.010644 0.000578 0.000005 -0.017547 -0.000004
# 2 0.010644 0.110121 -0.011411 -0.000014 0.020336 0.000019
# 3 0.000578 -0.011411 0.015259 0.000008 -0.008207 -0.000009
# 4 0.000005 -0.000014 0.000008 0.048334 -0.000014 -0.015730
# 5 -0.017547 0.020336 -0.008207 -0.000014 0.089782 0.000017
# 6 -0.000004 0.000019 -0.000009 -0.015730 0.000017 0.051113
#
#
# Mechanical properties :
#
#
# Convention : Reuss Voigt Hill
#
# Bulk Modulus (GPa) = 6.88178 15.98913 11.43546
# Shear Modulus (GPa) = 13.03000 22.44085 17.73542
#
# Velocity S-wave (km/s) = 2.56347 3.36416 2.99073
# Velocity P-wave (km/s) = 3.49751 4.81185 4.20633
#
# Compressibility (1/GPa) = 0.14531118
#
# Stress axis : x y z
#
# Youngs Moduli (GPa) = 49.24089 9.08095 65.53574
#
# Poissons Ratio (x) = -0.09666 -0.03788
# Poissons Ratio (y) = -0.52414 0.74781
# Poissons Ratio (z) = -0.02846 0.10362
#
# Static dielectric constant tensor:
#      x y z
#    x 1.703310 0.000000 -0.016560 
#    y 0.000000 1.685020 0.000000 
#    z -0.016560 0.000000 1.695920 
# 
# From -- ./inp_files/288255.got.cif
#   From: 2010.05.17/outbox.cif.g08.bks.cpg/sg12_145_cif.got.tgz:288255.got - 2010.06.03 13:09:07.
