data_PCOD9179556
_publ_section_title
;
Structure prediction by ZEFSAII (Michael W. Deem and Ramdas Pophale) SiO2 
 PCOD9179556
Probable space group: C 2/M
;
_chemical_formula_sum "Si O2"
_cell_formula_units_Z 60
_cell_length_a 5.192166
_cell_length_b 14.867339
_cell_length_c 39.044709
_cell_angle_alpha 90.000000
_cell_angle_beta 74.552063
_cell_angle_gamma 90.000000
_cell_volume 2905.117936
_symmetry_space_group_name_H-M "C 2/M"
_symmetry_group_IT_number 12
_symmetry_cell_setting 'monoclinic'
loop_
_space_group_symop_operation_xyz
x,y,z
-x,y,-z
-x,-y,-z
x,-y,z
1/2+x,1/2+y,z
1/2-x,1/2+y,-z
1/2-x,1/2-y,-z
1/2+x,1/2-y,z
loop_
_atom_site_type_symbol
_atom_site_label
_atom_site_fract_x
_atom_site_fract_y
_atom_site_fract_z
Si Si1 0.500000 0.188353 0.000000
Si Si2 0.626770 0.809434 0.658461
Si Si3 0.271830 0.107903 0.076417
Si Si4 0.277822 0.391888 0.581905
Si Si5 0.591142 0.188894 0.733372
Si Si6 0.172091 0.690731 0.191248
Si Si7 0.191606 0.608210 0.116246
Si Si8 0.861256 0.389808 0.539999
O O1 0.581705 0.132211 0.963781
O O2 0.750000 0.250000 0.000000
O O3 0.336898 0.770995 0.658589
O O4 0.739924 0.862307 0.622180
O O5 0.609326 0.859018 0.695909
O O6 0.441309 0.141646 0.102947
O O7 0.967548 0.140747 0.089312
O O8 0.261134 0.000000 0.079066
O O9 0.280442 0.500000 0.580871
O O10 0.557429 0.360465 0.555931
O O11 0.035319 0.361476 0.566465
O O12 0.379771 0.270683 0.733309
O O13 0.460245 0.142201 0.771060
O O14 0.963661 0.772212 0.190968
O O15 0.184534 0.636065 0.155885
O O16 0.188314 0.500000 0.114687
O O17 0.860330 0.500000 0.539150
O O18 0.000000 0.359757 0.500000
#
# Coordination Sequence:
#
# PCOD9179556 Si02
#       8
#     4   8   8   8   8   8   8   8
#     4  12  25  38  57  84 108 130 172 228 263 288
#     4  10  19  33  52  71  98 134 167 198 241 300
#     4  10  22  40  57  74 105 145 174 200 251 317
#     4  10  19  31  50  75  97 120 161 209 245 284
#     4   8  16  30  48  71  97 130 168 199 236 294
#     4  10  19  32  53  78 103 132 168 210 250 289
#     4  10  21  36  55  79 106 138 173 207 249 305
#     4   9  17  30  49  71  95 125 160 199 244 295
#
# _framework density 20.653207999999999
#
# number of rings (size 3 to 8) (size 9 to 14) (size 15 to 20)
#    0.000    2.267    0.000    3.000    0.000    4.800 
#    0.000    3.333    0.000    8.000    0.000   16.800 
#    0.000    0.000    0.000    0.000    0.000    0.000 
#
# Total GULP energy -167479.385619 kJ/mol
# GULP energy per Si atom -5582.646187 kJ/mol
# Density = 2.060620 g / cm^3
# Si number density = 20.653208 Si / 1000 Ang^3
#
#
#
# Elastic Constant Matrix: (Units=GPa)
#
#
# Indices 1 2 3 4 5 6 
#
# 1 83.5014 -3.9431 -25.5751 0.0000 -0.0049 0.0000
# 2 -3.9431 21.6963 -7.5700 0.0000 -0.2651 0.0000
# 3 -25.5751 -7.5700 92.0450 0.0000 -0.9622 0.0000
# 4 0.0000 0.0000 0.0000 45.2306 0.0000 5.0682
# 5 -0.0049 -0.2651 -0.9622 0.0000 37.0493 0.0000
# 6 0.0000 0.0000 0.0000 5.0682 0.0000 3.5028
#
#
#
# Elastic Compliance Matrix: (Units=1/GPa)
#
#
# Indices 1 2 3 4 5 6 
#
# 1 0.013395 0.003845 0.004039 0.000000 0.000134 0.000000
# 2 0.003845 0.048563 0.005067 0.000000 0.000480 0.000000
# 3 0.004039 0.005067 0.012407 0.000000 0.000359 0.000000
# 4 0.000000 0.000000 0.000000 0.026387 0.000000 -0.038180
# 5 0.000134 0.000480 0.000359 0.000000 0.027004 0.000000
# 6 0.000000 0.000000 0.000000 -0.038180 0.000000 0.340731
#
#
# Mechanical properties :
#
#
# Convention : Reuss Voigt Hill
#
# Bulk Modulus (GPa) = 9.97311 13.67405 11.82358
# Shear Modulus (GPa) = 10.50407 32.77859 21.64133
#
# Velocity S-wave (km/s) = 2.25765 3.98816 3.24055
# Velocity P-wave (km/s) = 3.41105 5.27659 4.44284
#
# Compressibility (1/GPa) = 0.10026959
#
# Stress axis : x y z
#
# Youngs Moduli (GPa) = 74.65669 20.59160 80.59883
#
# Poissons Ratio (x) = -0.07918 -0.32557
# Poissons Ratio (y) = -0.28708 -0.40843
# Poissons Ratio (z) = -0.30157 -0.10435
#
# Static dielectric constant tensor:
#      x y z
#    x 1.724210 0.000000 -0.004960 
#    y 0.000000 1.728890 0.000000 
#    z -0.004960 0.000000 1.761000 
# 
# From -- ./inp_files/371599.got.cif
#   From: 2010.05.17/outbox.cif.g08.bks.cpg/sg12_186_cif.got.tgz:371599.got - 2010.06.03 13:09:07.
