data_PCOD9179723
_publ_section_title
;
Structure prediction by ZEFSAII (Michael W. Deem and Ramdas Pophale) SiO2 
 PCOD9179723
Probable space group: C 2/M
;
_chemical_formula_sum "Si O2"
_cell_formula_units_Z 36
_cell_length_a 13.032748
_cell_length_b 21.275561
_cell_length_c 7.406299
_cell_angle_alpha 90.000000
_cell_angle_beta 115.627925
_cell_angle_gamma 90.000000
_cell_volume 1851.580834
_symmetry_space_group_name_H-M "C 2/M"
_symmetry_group_IT_number 12
_symmetry_cell_setting 'monoclinic'
loop_
_space_group_symop_operation_xyz
x,y,z
-x,y,-z
-x,-y,-z
x,-y,z
1/2+x,1/2+y,z
1/2-x,1/2+y,-z
1/2-x,1/2-y,-z
1/2+x,1/2-y,z
loop_
_atom_site_type_symbol
_atom_site_label
_atom_site_fract_x
_atom_site_fract_y
_atom_site_fract_z
Si Si1 0.343813 0.929434 0.565164
Si Si2 0.603610 0.070062 0.829314
Si Si3 0.314940 0.684283 0.586328
Si Si4 0.706950 0.809775 0.862229
Si Si5 0.000000 0.243018 0.500000
O O1 0.368587 0.928470 0.366352
O O2 0.468405 0.920602 0.746967
O O3 0.256355 0.874350 0.545311
O O4 0.303425 0.000000 0.576840
O O5 0.672985 0.129603 0.952877
O O6 0.632551 0.000000 0.916979
O O7 0.250000 0.750000 0.500000
O O8 0.305081 0.674273 0.792652
O O9 0.436522 0.698129 0.594009
O O10 0.592673 0.787494 0.668415
O O11 0.750000 0.750000 0.000000
#
# Coordination Sequence:
#
# PCOD9179723 Si02
#       5
#     8   8   8   8   4
#     4   8  13  24  46  73  97 124 159 201 250 294
#     4   8  13  24  45  73 100 122 154 204 253 294
#     4   9  17  30  48  70  99 130 161 200 241 291
#     4  10  19  31  51  77 100 129 164 204 249 293
#     4  10  20  34  48  70 102 132 166 204 242 292
#
# _framework density 19.442845999999999
#
# number of rings (size 3 to 8) (size 9 to 14) (size 15 to 20)
#    0.000    3.111    0.000    5.333    0.000    0.889 
#    0.000    0.556    0.000    6.667    0.000   20.222 
#    0.000    0.000    0.000    0.000    0.000    0.000 
#
# Total GULP energy -100304.422413 kJ/mol
# GULP energy per Si atom -5572.467912 kJ/mol
# Density = 1.939859 g / cm^3
# Si number density = 19.442846 Si / 1000 Ang^3
#
#
#
# Elastic Constant Matrix: (Units=GPa)
#
#
# Indices 1 2 3 4 5 6 
#
# 1 101.4551 44.4915 1.3653 0.0000 -0.8765 0.0000
# 2 44.4915 178.4445 15.9393 0.0000 8.5065 0.0000
# 3 1.3653 15.9393 37.4850 0.0000 -0.0177 0.0000
# 4 0.0000 0.0000 0.0000 25.4496 0.0000 14.2221
# 5 -0.8765 8.5065 -0.0177 0.0000 7.2113 0.0000
# 6 0.0000 0.0000 0.0000 14.2221 0.0000 35.1053
#
#
#
# Elastic Compliance Matrix: (Units=1/GPa)
#
#
# Indices 1 2 3 4 5 6 
#
# 1 0.011261 -0.003132 0.000924 0.000000 0.005065 0.000000
# 2 -0.003132 0.007058 -0.002891 0.000000 -0.008714 0.000000
# 3 0.000924 -0.002891 0.027875 0.000000 0.003591 0.000000
# 4 0.000000 0.000000 0.000000 0.050793 0.000000 -0.020577
# 5 0.005065 -0.008714 0.003591 0.000000 0.149574 0.000000
# 6 0.000000 0.000000 0.000000 -0.020577 0.000000 0.036822
#
#
# Mechanical properties :
#
#
# Convention : Reuss Voigt Hill
#
# Bulk Modulus (GPa) = 27.78079 48.99743 38.38911
# Shear Modulus (GPa) = 16.36225 30.59246 23.47735
#
# Velocity S-wave (km/s) = 2.90411 3.97098 3.47869
# Velocity P-wave (km/s) = 5.05614 6.80297 5.99354
#
# Compressibility (1/GPa) = 0.03599610
#
# Stress axis : x y z
#
# Youngs Moduli (GPa) = 88.79978 141.67320 35.87455
#
# Poissons Ratio (x) = 0.44369 -0.03314
# Poissons Ratio (y) = 0.27810 0.10373
# Poissons Ratio (z) = -0.08204 0.40964
#
# Static dielectric constant tensor:
#      x y z
#    x 1.709870 0.000000 -0.063850 
#    y 0.000000 1.729470 0.000000 
#    z -0.063850 0.000000 1.763160 
# 
# From -- ./inp_files/48395.got.cif
#   From: 2010.05.17/outbox.cif.g08.bks.cpg/sg12_25_cif.got.tgz:48395.got - 2010.06.03 13:09:07.
