data_PCOD9179316
_publ_section_title
;
Structure prediction by ZEFSAII (Michael W. Deem and Ramdas Pophale) SiO2 
 PCOD9179316
Probable space group: C 2/M
;
_chemical_formula_sum "Si O2"
_cell_formula_units_Z 56
_cell_length_a 19.675619
_cell_length_b 7.713935
_cell_length_c 19.115972
_cell_angle_alpha 90.000000
_cell_angle_beta 83.708017
_cell_angle_gamma 90.000000
_cell_volume 2883.877405
_symmetry_space_group_name_H-M "C 2/M"
_symmetry_group_IT_number 12
_symmetry_cell_setting 'monoclinic'
loop_
_space_group_symop_operation_xyz
x,y,z
-x,y,-z
-x,-y,-z
x,-y,z
1/2+x,1/2+y,z
1/2-x,1/2+y,-z
1/2-x,1/2-y,-z
1/2+x,1/2-y,z
loop_
_atom_site_type_symbol
_atom_site_label
_atom_site_fract_x
_atom_site_fract_y
_atom_site_fract_z
Si Si1 0.349659 0.713545 0.854825
Si Si2 0.295514 0.205476 0.599911
Si Si3 0.897017 0.799682 0.701106
Si Si4 0.651348 0.207396 0.557287
Si Si5 0.787973 0.705868 0.068610
Si Si6 0.574856 0.705051 0.012380
Si Si7 0.002309 0.202003 0.578002
O O1 0.349066 0.500000 0.855561
O O2 0.383654 0.774736 0.779128
O O3 0.269715 0.767352 0.869961
O O4 0.392297 0.772227 0.918422
O O5 0.327777 0.292481 0.663757
O O6 0.332977 0.267538 0.524236
O O7 0.216217 0.241934 0.596006
O O8 0.306106 0.000000 0.604267
O O9 0.952984 0.719511 0.642195
O O10 0.917291 0.000000 0.710351
O O11 0.580765 0.285278 0.591111
O O12 0.645973 0.000000 0.556379
O O13 0.793883 0.500000 0.074604
O O14 0.750000 0.750000 0.000000
O O15 0.865174 0.773946 0.052384
O O16 0.565853 0.500000 0.024382
O O17 0.500000 0.775946 0.000000
O O18 0.000000 0.280676 0.500000
O O19 0.981675 0.000000 0.572922
#
# Coordination Sequence:
#
# PCOD9179316 Si02
#       7
#     8   8   8   8   8   8   8
#     4   8  16  31  50  72  98 133 169 201 245 298
#     4  10  20  33  50  72  96 123 162 209 252 299
#     4  10  19  33  52  71  99 134 166 204 253 303
#     4  10  20  33  51  71  95 126 162 208 256 301
#     4   9  16  29  50  74 100 129 165 202 238 288
#     4   9  17  31  52  77 104 133 166 202 241 292
#     4  10  19  31  49  73  98 129 170 212 251 295
#
# _framework density 19.418301
#
# number of rings (size 3 to 8) (size 9 to 14) (size 15 to 20)
#    0.000    2.571    1.429    2.143    0.000    2.286 
#    0.000    5.000    0.000    1.714    0.000    0.000 
#    0.000    0.000    0.000    0.000    0.000    0.000 
#
# Total GULP energy -156024.345145 kJ/mol
# GULP energy per Si atom -5572.298041 kJ/mol
# Density = 1.937410 g / cm^3
# Si number density = 19.418301 Si / 1000 Ang^3
#
#
#
# Elastic Constant Matrix: (Units=GPa)
#
#
# Indices 1 2 3 4 5 6 
#
# 1 141.7933 -3.0989 66.0991 0.0000 -17.4958 0.0000
# 2 -3.0989 33.4368 2.8215 0.0000 -0.6808 0.0000
# 3 66.0991 2.8215 121.7798 0.0000 -24.7057 0.0000
# 4 0.0000 0.0000 0.0000 7.6434 0.0000 0.3646
# 5 -17.4958 -0.6808 -24.7057 0.0000 24.7502 0.0000
# 6 0.0000 0.0000 0.0000 0.3646 0.0000 19.7384
#
#
#
# Elastic Compliance Matrix: (Units=1/GPa)
#
#
# Indices 1 2 3 4 5 6 
#
# 1 0.009577 0.001335 -0.004825 0.000000 0.001990 0.000000
# 2 0.001335 0.030152 -0.001334 0.000000 0.000442 0.000000
# 3 -0.004825 -0.001334 0.012742 0.000000 0.009272 0.000000
# 4 0.000000 0.000000 0.000000 0.130947 0.000000 -0.002419
# 5 0.001990 0.000442 0.009272 0.000000 0.051078 0.000000
# 6 0.000000 0.000000 0.000000 -0.002419 0.000000 0.050707
#
#
# Mechanical properties :
#
#
# Convention : Reuss Voigt Hill
#
# Bulk Modulus (GPa) = 23.35126 47.62814 35.48970
# Shear Modulus (GPa) = 16.17464 25.83895 21.00679
#
# Velocity S-wave (km/s) = 2.88923 3.65176 3.29265
# Velocity P-wave (km/s) = 4.81474 6.50855 5.72464
#
# Compressibility (1/GPa) = 0.04282424
#
# Stress axis : x y z
#
# Youngs Moduli (GPa) = 104.42163 33.16480 78.47778
#
# Poissons Ratio (x) = -0.04428 0.37867
# Poissons Ratio (y) = -0.13943 0.10466
# Poissons Ratio (z) = 0.50385 0.04423
#
# Static dielectric constant tensor:
#      x y z
#    x 1.693940 0.000000 -0.027840 
#    y 0.000000 1.714660 0.000000 
#    z -0.027840 0.000000 1.697440 
# 
# From -- ./inp_files/313272.got.cif
#   From: 2010.05.17/outbox.cif.g08.bks.cpg/sg12_157_cif.got.tgz:313272.got - 2010.06.03 13:09:07.
