data_PCOD9179405
_publ_section_title
;
Structure prediction by ZEFSAII (Michael W. Deem and Ramdas Pophale) SiO2 
 PCOD9179405
Probable space group: C 2/M
;
_chemical_formula_sum "Si O2"
_cell_formula_units_Z 42
_cell_length_a 5.045817
_cell_length_b 13.636600
_cell_length_c 27.640221
_cell_angle_alpha 90.000000
_cell_angle_beta 74.370144
_cell_angle_gamma 90.000000
_cell_volume 1831.535981
_symmetry_space_group_name_H-M "C 2/M"
_symmetry_group_IT_number 12
_symmetry_cell_setting 'monoclinic'
loop_
_space_group_symop_operation_xyz
x,y,z
-x,y,-z
-x,-y,-z
x,-y,z
1/2+x,1/2+y,z
1/2-x,1/2+y,-z
1/2-x,1/2-y,-z
1/2+x,1/2-y,z
loop_
_atom_site_type_symbol
_atom_site_label
_atom_site_fract_x
_atom_site_fract_y
_atom_site_fract_z
Si Si1 0.037526 0.183064 0.674107
Si Si2 0.351055 0.677902 0.437638
Si Si3 0.957543 0.119373 0.947226
Si Si4 0.500000 0.500000 0.500000
Si Si5 0.456550 0.116458 0.111134
Si Si6 0.754438 0.314078 0.221779
O O1 0.835490 0.276708 0.674901
O O2 0.061615 0.137149 0.619965
O O3 0.893860 0.129735 0.726592
O O4 0.071657 0.738988 0.442917
O O5 0.355452 0.587519 0.473764
O O6 0.225995 0.146991 0.902795
O O7 0.690014 0.151104 0.930854
O O8 0.944174 0.000000 0.950323
O O9 0.000000 0.152844 0.000000
O O10 0.289267 0.139504 0.167631
O O11 0.463987 0.000000 0.106769
O O12 0.554556 0.220833 0.223595
#
# Coordination Sequence:
#
# PCOD9179405 Si02
#       6
#     8   8   8   2   8   8
#     4   8  16  33  55  75 103 144 183 219 269 327
#     4  10  22  40  60  87 124 160 202 253 295 351
#     4   9  17  30  49  70  97 131 169 209 257 315
#     4  12  24  38  64  96 120 166 208 242 306 356
#     4  10  19  31  49  76  98 123 168 221 262 305
#     4  10  19  33  54  75 101 139 174 210 268 333
#
# _framework density 22.931570000000001
#
# number of rings (size 3 to 8) (size 9 to 14) (size 15 to 20)
#    0.000    2.476    0.000    2.286    0.000    3.810 
#    1.714    0.000    0.000   11.429    0.000    0.000 
#    0.000    0.000    0.000    0.000    0.000    0.000 
#
# Total GULP energy -116945.517095 kJ/mol
# GULP energy per Si atom -5568.834147 kJ/mol
# Density = 2.287938 g / cm^3
# Si number density = 22.931570 Si / 1000 Ang^3
#
#
#
# Elastic Constant Matrix: (Units=GPa)
#
#
# Indices 1 2 3 4 5 6 
#
# 1 95.5655 -8.0004 1.4961 0.0000 18.1178 0.0000
# 2 -8.0004 78.3692 1.6257 0.0000 8.4909 0.0000
# 3 1.4961 1.6257 97.2792 0.0000 17.7685 0.0000
# 4 0.0000 0.0000 0.0000 12.2782 0.0000 2.6630
# 5 18.1178 8.4909 17.7685 0.0000 34.1173 0.0000
# 6 0.0000 0.0000 0.0000 2.6630 0.0000 -1.4150
#
#
#
# Elastic Compliance Matrix: (Units=1/GPa)
#
#
# Indices 1 2 3 4 5 6 
#
# 1 0.012035 0.002016 0.001150 0.000000 -0.007492 0.000000
# 2 0.002016 0.013467 0.000610 0.000000 -0.004740 0.000000
# 3 0.001150 0.000610 0.011483 0.000000 -0.006743 0.000000
# 4 0.000000 0.000000 0.000000 0.057838 0.000000 0.108847
# 5 -0.007492 -0.004740 -0.006743 0.000000 0.037981 0.000000
# 6 0.000000 0.000000 0.000000 0.108847 0.000000 -0.501865
#
#
# Mechanical properties :
#
#
# Convention : Reuss Voigt Hill
#
# Bulk Modulus (GPa) = 22.45322 29.05076 25.75199
# Shear Modulus (GPa) = -13.82105 27.40226 6.79060
#
# Velocity S-wave (km/s) = -2.45768 3.46057 1.72269
# Velocity P-wave (km/s) = 1.32631 5.35381 3.90015
#
# Compressibility (1/GPa) = 0.04453704
#
# Stress axis : x y z
#
# Youngs Moduli (GPa) = 83.08982 74.25633 87.08195
#
# Poissons Ratio (x) = -0.14974 -0.10011
# Poissons Ratio (y) = -0.16755 -0.05309
# Poissons Ratio (z) = -0.09552 -0.04527
#
# Static dielectric constant tensor:
#      x y z
#    x 1.837500 0.000000 -0.024870 
#    y 0.000000 1.820810 0.000000 
#    z -0.024870 0.000000 1.949950 
# 
# From -- ./inp_files/354766.got.cif
#   From: 2010.05.17/outbox.cif.g08.bks.cpg/sg12_178_cif.got.tgz:354766.got - 2010.06.03 13:09:07.
