data_PCOD9179013
_publ_section_title
;
Structure prediction by ZEFSAII (Michael W. Deem and Ramdas Pophale) SiO2 
 PCOD9179013
Probable space group: C 2/M
;
_chemical_formula_sum "Si O2"
_cell_formula_units_Z 64
_cell_length_a 12.801408
_cell_length_b 15.528040
_cell_length_c 27.612306
_cell_angle_alpha 90.000000
_cell_angle_beta 31.069899
_cell_angle_gamma 90.000000
_cell_volume 2832.676338
_symmetry_space_group_name_H-M "C 2/M"
_symmetry_group_IT_number 12
_symmetry_cell_setting 'monoclinic'
loop_
_space_group_symop_operation_xyz
x,y,z
-x,y,-z
-x,-y,-z
x,-y,z
1/2+x,1/2+y,z
1/2-x,1/2+y,-z
1/2-x,1/2-y,-z
1/2+x,1/2-y,z
loop_
_atom_site_type_symbol
_atom_site_label
_atom_site_fract_x
_atom_site_fract_y
_atom_site_fract_z
Si Si1 0.999052 0.595048 0.695644
Si Si2 0.246512 0.405925 0.405466
Si Si3 0.737865 0.217478 0.328050
Si Si4 0.387360 0.400577 0.994761
Si Si5 0.317677 0.152403 0.467936
Si Si6 0.802729 0.091932 0.657985
Si Si7 0.423330 0.906499 0.154279
Si Si8 0.874342 0.219494 0.168119
O O1 0.915946 0.500000 0.716051
O O2 0.834864 0.670048 0.759508
O O3 0.183504 0.615133 0.585267
O O4 0.093987 0.590544 0.710737
O O5 0.314221 0.500000 0.361365
O O6 0.324359 0.326821 0.342008
O O7 0.289831 0.396105 0.445370
O O8 0.000000 0.402979 0.500000
O O9 0.558823 0.153236 0.382811
O O10 0.631619 0.310283 0.379832
O O11 0.882143 0.225646 0.223993
O O12 0.449002 0.500000 0.961076
O O13 0.457922 0.339059 0.923508
O O14 0.500000 0.375171 0.000000
O O15 0.144294 0.399190 0.091667
O O16 0.250000 0.250000 0.500000
O O17 0.745644 0.090972 0.736865
O O18 0.905365 0.000000 0.604758
O O19 0.385494 0.816198 0.143018
O O20 0.418854 0.000000 0.130522
#
# Coordination Sequence:
#
# PCOD9179013 Si02
#       8
#     8   8   8   8   8   8   8   8
#     4  10  19  31  50  75  99 125 162 209 254 293
#     4   9  17  30  47  65  89 122 157 193 235 281
#     4   9  19  32  49  71  94 126 164 200 239 288
#     4  10  19  31  50  78 107 132 164 204 243 287
#     4  10  19  31  48  69  98 130 162 199 242 295
#     4   9  17  32  51  70  96 127 159 199 247 292
#     4   9  18  32  50  73 102 136 168 199 242 292
#     4  10  19  31  50  75 101 129 163 204 247 291
#
# _framework density 22.593472999999999
#
# number of rings (size 3 to 8) (size 9 to 14) (size 15 to 20)
#    0.000    2.500    0.000    2.625    0.000    5.500 
#    0.000    1.250    0.000   12.000    0.000    8.750 
#    0.000    0.000    0.000    0.000    0.000    0.000 
#
# Total GULP energy -178374.038138 kJ/mol
# GULP energy per Si atom -5574.188692 kJ/mol
# Density = 2.254205 g / cm^3
# Si number density = 22.593473 Si / 1000 Ang^3
#
#
#
# Elastic Constant Matrix: (Units=GPa)
#
#
# Indices 1 2 3 4 5 6 
#
# 1 20.3754 21.8431 13.7574 0.0024 -7.6292 -0.0005
# 2 21.8431 175.9513 40.2033 -0.0012 3.7422 0.0009
# 3 13.7574 40.2033 73.5428 0.0051 0.7373 -0.0057
# 4 0.0024 -0.0012 0.0051 31.2232 -0.0074 -2.6000
# 5 -7.6292 3.7422 0.7373 -0.0074 23.4977 0.0061
# 6 -0.0005 0.0009 -0.0057 -2.6000 0.0061 29.7638
#
#
#
# Elastic Compliance Matrix: (Units=1/GPa)
#
#
# Indices 1 2 3 4 5 6 
#
# 1 0.073082 -0.007345 -0.009909 0.000001 0.025209 -0.000006
# 2 -0.007345 0.007253 -0.002556 0.000000 -0.003460 0.000000
# 3 -0.009909 -0.002556 0.016882 -0.000003 -0.003340 0.000004
# 4 0.000001 0.000000 -0.000003 0.032262 0.000010 0.002818
# 5 0.025209 -0.003460 -0.003340 0.000010 0.051398 -0.000010
# 6 -0.000006 0.000000 0.000004 0.002818 -0.000010 0.033844
#
#
# Mechanical properties :
#
#
# Convention : Reuss Voigt Hill
#
# Bulk Modulus (GPa) = 17.36195 46.83081 32.09638
# Shear Modulus (GPa) = 18.27889 29.83465 24.05677
#
# Velocity S-wave (km/s) = 2.84744 3.63781 3.26662
# Velocity P-wave (km/s) = 4.30252 6.19818 5.33522
#
# Compressibility (1/GPa) = 0.05759721
#
# Stress axis : x y z
#
# Youngs Moduli (GPa) = 13.68327 137.87714 59.23456
#
# Poissons Ratio (x) = 1.01266 0.58695
# Poissons Ratio (y) = 0.10050 0.15142
# Poissons Ratio (z) = 0.13559 0.35245
#
# Static dielectric constant tensor:
#      x y z
#    x 1.904790 0.000000 -0.007170 
#    y 0.000000 1.906190 0.000000 
#    z -0.007170 0.000000 1.869740 
# 
# From -- ./inp_files/361235.got.cif
#   From: 2010.05.17/outbox.cif.g08.bks.cpg/sg12_181_cif.got.tgz:361235.got - 2010.06.03 13:09:07.
