data_PCOD9179039
_publ_section_title
;
Structure prediction by ZEFSAII (Michael W. Deem and Ramdas Pophale) SiO2 
 PCOD9179039
Probable space group: C 2/M
;
_chemical_formula_sum "Si O2"
_cell_formula_units_Z 56
_cell_length_a 33.109427
_cell_length_b 9.173153
_cell_length_c 18.834274
_cell_angle_alpha 90.000000
_cell_angle_beta 37.041028
_cell_angle_gamma 90.000000
_cell_volume 3445.835948
_symmetry_space_group_name_H-M "C 2/M"
_symmetry_group_IT_number 12
_symmetry_cell_setting 'monoclinic'
loop_
_space_group_symop_operation_xyz
x,y,z
-x,y,-z
-x,-y,-z
x,-y,z
1/2+x,1/2+y,z
1/2-x,1/2+y,-z
1/2-x,1/2-y,-z
1/2+x,1/2-y,z
loop_
_atom_site_type_symbol
_atom_site_label
_atom_site_fract_x
_atom_site_fract_y
_atom_site_fract_z
Si Si1 0.762861 0.673570 0.751610
Si Si2 0.110734 0.173724 0.014973
Si Si3 0.143577 0.826959 0.666129
Si Si4 0.152125 0.667945 0.095724
Si Si5 0.777324 0.673558 0.567670
Si Si6 0.307680 0.667562 0.825084
Si Si7 0.507604 0.826983 0.905045
O O1 0.772992 0.500000 0.746603
O O2 0.779546 0.712740 0.647327
O O3 0.804724 0.758794 0.752205
O O4 0.683963 0.701225 0.877449
O O5 0.113675 0.240566 0.089867
O O6 0.053671 0.250921 0.049496
O O7 0.100625 0.000000 0.031576
O O8 0.172450 0.763879 0.552013
O O9 0.202681 0.801986 0.640973
O O10 0.076742 0.744349 0.782403
O O11 0.131969 0.000000 0.677693
O O12 0.130122 0.500000 0.128658
O O13 0.151333 0.742132 0.173911
O O14 0.230257 0.668624 0.961196
O O15 0.790829 0.500000 0.541580
O O16 0.329494 0.500000 0.791529
O O17 0.507495 0.000000 0.891310
O O18 0.500000 0.804363 0.000000
#
# Coordination Sequence:
#
# PCOD9179039 Si02
#       7
#     8   8   8   8   8   8   8
#     4   9  17  29  46  69  97 128 159 194 239 286
#     4  10  19  31  48  70  97 128 162 198 237 283
#     4  10  20  34  52  72  94 124 161 199 240 282
#     4   9  16  27  42  62  92 127 160 193 234 284
#     4   9  18  33  51  71  96 125 158 197 240 285
#     4   9  16  25  40  64  93 124 158 196 236 279
#     4  11  23  36  50  70  97 128 161 197 237 282
#
# _framework density 16.2515
#
# number of rings (size 3 to 8) (size 9 to 14) (size 15 to 20)
#    0.000    2.429    0.000    3.000    0.000    7.429 
#    0.000    0.000    0.000    0.000    0.000    1.000 
#    0.000    8.000    0.000    0.000    0.000    0.000 
#
# Total GULP energy -156179.157814 kJ/mol
# GULP energy per Si atom -5577.827065 kJ/mol
# Density = 1.621451 g / cm^3
# Si number density = 16.251500 Si / 1000 Ang^3
#
#
#
# Elastic Constant Matrix: (Units=GPa)
#
#
# Indices 1 2 3 4 5 6 
#
# 1 126.9403 84.5642 54.5433 0.0011 27.4251 -0.0008
# 2 84.5642 110.6859 58.1652 -0.0046 13.5053 0.0048
# 3 54.5433 58.1652 64.7133 -0.0026 16.4440 0.0016
# 4 0.0011 -0.0046 -0.0026 21.3189 0.0021 1.6879
# 5 27.4251 13.5053 16.4440 0.0021 27.4329 -0.0006
# 6 -0.0008 0.0048 0.0016 1.6879 -0.0006 32.1784
#
#
#
# Elastic Compliance Matrix: (Units=1/GPa)
#
#
# Indices 1 2 3 4 5 6 
#
# 1 0.019807 -0.012319 -0.002514 -0.000003 -0.012229 0.000002
# 2 -0.012319 0.024804 -0.014083 0.000004 0.008546 -0.000003
# 3 -0.002514 -0.014083 0.032829 0.000002 -0.010233 0.000000
# 4 -0.000003 0.000004 0.000002 0.047102 -0.000004 -0.002471
# 5 -0.012229 0.008546 -0.010233 -0.000004 0.050605 0.000000
# 6 0.000002 -0.000003 0.000000 -0.002471 0.000000 0.031206
#
#
# Mechanical properties :
#
#
# Convention : Reuss Voigt Hill
#
# Bulk Modulus (GPa) = 50.99720 77.43166 64.21443
# Shear Modulus (GPa) = 18.46917 23.19051 20.82984
#
# Velocity S-wave (km/s) = 3.37480 3.78163 3.58399
# Velocity P-wave (km/s) = 6.82889 8.17416 7.53162
#
# Compressibility (1/GPa) = 0.01960892
#
# Stress axis : x y z
#
# Youngs Moduli (GPa) = 50.48807 40.31587 30.46052
#
# Poissons Ratio (x) = 0.49666 0.07657
# Poissons Ratio (y) = 0.62197 0.42897
# Poissons Ratio (z) = 0.12691 0.56776
#
# Static dielectric constant tensor:
#      x y z
#    x 1.530600 0.000000 0.007090 
#    y 0.000000 1.540950 0.000000 
#    z 0.007090 0.000000 1.518430 
# 
# From -- ./inp_files/295066.got.cif
#   From: 2010.05.17/outbox.cif.g08.bks.cpg/sg12_148_cif.got.tgz:295066.got - 2010.06.03 13:09:07.
