data_PCOD9179914
_publ_section_title
;
Structure prediction by ZEFSAII (Michael W. Deem and Ramdas Pophale) SiO2 
 PCOD9179914
Probable space group: C 2/M
;
_chemical_formula_sum "Si O2"
_cell_formula_units_Z 64
_cell_length_a 23.954117
_cell_length_b 14.147442
_cell_length_c 14.949745
_cell_angle_alpha 90.000000
_cell_angle_beta 131.002075
_cell_angle_gamma 90.000000
_cell_volume 3823.473316
_symmetry_space_group_name_H-M "C 2/M"
_symmetry_group_IT_number 12
_symmetry_cell_setting 'monoclinic'
loop_
_space_group_symop_operation_xyz
x,y,z
-x,y,-z
-x,-y,-z
x,-y,z
1/2+x,1/2+y,z
1/2-x,1/2+y,-z
1/2-x,1/2-y,-z
1/2+x,1/2-y,z
loop_
_atom_site_type_symbol
_atom_site_label
_atom_site_fract_x
_atom_site_fract_y
_atom_site_fract_z
Si Si1 0.170652 0.227821 0.460917
Si Si2 0.064418 0.190144 0.687738
Si Si3 0.102975 0.887903 0.913011
Si Si4 0.068511 0.889013 0.220547
Si Si5 0.401952 0.613147 0.471271
Si Si6 0.316673 0.890968 0.401502
Si Si7 0.665892 0.613076 0.159336
Si Si8 0.069888 0.397248 0.639549
O O1 0.250000 0.250000 0.500000
O O2 0.116292 0.182493 0.330617
O O3 0.163523 0.152938 0.535378
O O4 0.147478 0.325326 0.485444
O O5 0.107714 0.153562 0.819240
O O6 0.098812 0.156612 0.629258
O O7 0.063325 0.303386 0.690012
O O8 0.980553 0.148443 0.596117
O O9 0.017966 0.874870 0.854685
O O10 0.115619 0.000000 0.919669
O O11 0.154025 0.849382 0.046957
O O12 0.093775 0.875468 0.144911
O O13 0.085605 0.000000 0.261808
O O14 0.402761 0.500000 0.468131
O O15 0.235726 0.852506 0.289925
O O16 0.361714 0.889232 0.356602
O O17 0.311851 0.000000 0.426644
O O18 0.678303 0.500000 0.163747
O O19 0.072800 0.500000 0.688403
O O20 0.000000 0.396934 0.500000
#
# Coordination Sequence:
#
# PCOD9179914 Si02
#       8
#     8   8   8   8   8   8   8   8
#     4  12  21  31  51  76 106 143 176 212 262 327
#     4  11  18  32  53  81 108 139 173 216 271 328
#     4  10  19  31  52  79 106 139 179 217 264 328
#     4  10  19  32  50  76 110 139 172 219 268 319
#     4  11  21  33  50  77 113 142 166 212 278 332
#     4  10  20  35  51  71 103 139 178 224 267 309
#     4   9  18  33  51  73 104 142 180 220 266 313
#     4  10  19  33  52  73 101 137 178 223 259 302
#
# _framework density 16.738707000000002
#
# number of rings (size 3 to 8) (size 9 to 14) (size 15 to 20)
#    0.000    1.625    5.000    2.250    0.000    2.000 
#    0.000    0.625    0.000    0.000    0.000    1.750 
#    0.000    2.000    0.000    0.000    0.000    0.000 
#
# Total GULP energy -178298.259488 kJ/mol
# GULP energy per Si atom -5571.820609 kJ/mol
# Density = 1.670061 g / cm^3
# Si number density = 16.738707 Si / 1000 Ang^3
#
#
#
# Elastic Constant Matrix: (Units=GPa)
#
#
# Indices 1 2 3 4 5 6 
#
# 1 48.6459 11.0838 10.1522 0.0000 -5.1700 0.0000
# 2 11.0838 100.4605 29.8982 0.0000 -4.2548 0.0000
# 3 10.1522 29.8982 58.2192 0.0000 -23.3587 0.0000
# 4 0.0000 0.0000 0.0000 15.6246 0.0000 -6.5381
# 5 -5.1700 -4.2548 -23.3587 0.0000 20.6855 0.0000
# 6 0.0000 0.0000 0.0000 -6.5381 0.0000 27.3404
#
#
#
# Elastic Compliance Matrix: (Units=1/GPa)
#
#
# Indices 1 2 3 4 5 6 
#
# 1 0.021636 -0.001795 -0.001517 0.000000 0.003325 0.000000
# 2 -0.001795 0.012679 -0.009748 0.000000 -0.008849 0.000000
# 3 -0.001517 -0.009748 0.039293 0.000000 0.041987 0.000000
# 4 0.000000 0.000000 0.000000 0.071118 0.000000 0.017007
# 5 0.003325 -0.008849 0.041987 0.000000 0.094767 0.000000
# 6 0.000000 0.000000 0.000000 0.017007 0.000000 0.040643
#
#
# Mechanical properties :
#
#
# Convention : Reuss Voigt Hill
#
# Bulk Modulus (GPa) = 21.05831 34.39931 27.72881
# Shear Modulus (GPa) = 15.52388 23.14288 19.33338
#
# Velocity S-wave (km/s) = 3.04867 3.72236 3.40223
# Velocity P-wave (km/s) = 5.00004 6.25060 5.65997
#
# Compressibility (1/GPa) = 0.04748720
#
# Stress axis : x y z
#
# Youngs Moduli (GPa) = 46.22002 78.87269 25.44973
#
# Poissons Ratio (x) = 0.14156 0.03860
# Poissons Ratio (y) = 0.08295 0.24810
# Poissons Ratio (z) = 0.07011 0.76889
#
# Static dielectric constant tensor:
#      x y z
#    x 1.654330 0.000000 0.011400 
#    y 0.000000 1.578350 0.000000 
#    z 0.011400 0.000000 1.577000 
# 
# From -- ./inp_files/240714.got.cif
#   From: 2010.05.17/outbox.cif.g08.bks.cpg/sg12_121_cif.got.tgz:240714.got - 2010.06.03 13:09:07.
