data_PCOD9179481
_publ_section_title
;
Structure prediction by ZEFSAII (Michael W. Deem and Ramdas Pophale) SiO2 
 PCOD9179481
Probable space group: C 2/M
;
_chemical_formula_sum "Si O2"
_cell_formula_units_Z 56
_cell_length_a 15.004936
_cell_length_b 9.367716
_cell_length_c 25.006147
_cell_angle_alpha 90.000000
_cell_angle_beta 131.675515
_cell_angle_gamma 90.000000
_cell_volume 2625.367622
_symmetry_space_group_name_H-M "C 2/M"
_symmetry_group_IT_number 12
_symmetry_cell_setting 'monoclinic'
loop_
_space_group_symop_operation_xyz
x,y,z
-x,y,-z
-x,-y,-z
x,-y,z
1/2+x,1/2+y,z
1/2-x,1/2+y,-z
1/2-x,1/2-y,-z
1/2+x,1/2-y,z
loop_
_atom_site_type_symbol
_atom_site_label
_atom_site_fract_x
_atom_site_fract_y
_atom_site_fract_z
Si Si1 0.284793 0.162222 0.233400
Si Si2 0.344591 0.340441 0.070572
Si Si3 0.536451 0.334645 0.630435
Si Si4 0.356516 0.661865 0.662525
Si Si5 0.659515 0.171351 0.504720
Si Si6 0.534354 0.158028 0.791628
Si Si7 0.936406 0.838080 0.922378
O O1 0.341567 0.259402 0.302016
O O2 0.391702 0.146790 0.233536
O O3 0.175259 0.224629 0.154697
O O4 0.252643 0.000000 0.238402
O O5 0.300918 0.500000 0.065116
O O6 0.387061 0.257391 0.139444
O O7 0.459966 0.350494 0.079267
O O8 0.250000 0.250000 0.000000
O O9 0.552556 0.500000 0.621734
O O10 0.446000 0.334624 0.646284
O O11 0.467028 0.243351 0.557871
O O12 0.361220 0.500000 0.684781
O O13 0.224782 0.692899 0.587543
O O14 0.409843 0.768862 0.726944
O O15 0.750000 0.250000 0.500000
O O16 0.655410 0.000000 0.493368
O O17 0.520061 0.000000 0.809147
O O18 0.896414 0.000000 0.923376
O O19 0.000000 0.771251 0.000000
#
# Coordination Sequence:
#
# PCOD9179481 Si02
#       7
#     8   8   8   8   8   8   8
#     4   9  17  31  51  72  96 129 168 205 241 286
#     4  11  22  36  55  76 100 128 159 199 243 290
#     4   9  16  25  39  63  96 130 163 201 246 293
#     4   8  15  26  40  62  94 129 164 202 241 283
#     4   9  15  23  37  60  92 128 165 205 247 290
#     4  10  19  31  50  74 100 130 163 201 244 291
#     4   9  18  34  55  76  96 123 162 202 239 284
#
# _framework density 21.330345999999999
#
# number of rings (size 3 to 8) (size 9 to 14) (size 15 to 20)
#    0.000    2.714    0.000    3.429    0.000    6.857 
#    0.000    1.429    0.000    3.000    0.000    1.000 
#    0.000    8.000    0.000    0.000    0.000    0.000 
#
# Total GULP energy -156152.345485 kJ/mol
# GULP energy per Si atom -5576.869482 kJ/mol
# Density = 2.128180 g / cm^3
# Si number density = 21.330346 Si / 1000 Ang^3
#
#
#
# Elastic Constant Matrix: (Units=GPa)
#
#
# Indices 1 2 3 4 5 6 
#
# 1 27.4084 1.2030 7.3933 0.0000 7.4114 0.0000
# 2 1.2030 154.6123 112.4532 0.0000 2.6095 0.0000
# 3 7.3933 112.4532 197.9881 0.0000 28.8943 0.0000
# 4 0.0000 0.0000 0.0000 -58.6150 0.0000 -138.3131
# 5 7.4114 2.6095 28.8943 0.0000 22.8552 0.0000
# 6 0.0000 0.0000 0.0000 -138.3131 0.0000 -206.2701
#
#
#
# Elastic Compliance Matrix: (Units=1/GPa)
#
#
# Indices 1 2 3 4 5 6 
#
# 1 0.040088 -0.000843 0.001061 0.000000 -0.014244 0.000000
# 2 -0.000843 0.012437 -0.008418 0.000000 0.009496 0.000000
# 3 0.001061 -0.008418 0.011898 0.000000 -0.014424 0.000000
# 4 0.000000 0.000000 0.000000 0.029300 0.000000 -0.019647
# 5 -0.014244 0.009496 -0.014424 0.000000 0.065524 0.000000
# 6 0.000000 0.000000 0.000000 -0.019647 0.000000 0.008326
#
#
# Mechanical properties :
#
#
# Convention : Reuss Voigt Hill
#
# Bulk Modulus (GPa) = 20.82414 69.12309 44.97362
# Shear Modulus (GPa) = 25.00243 -31.14203 -3.06980
#
# Velocity S-wave (km/s) = 3.42739 -3.82512 -1.20096
# Velocity P-wave (km/s) = 5.04445 3.60105 4.38258
#
# Compressibility (1/GPa) = 0.04802119
#
# Stress axis : x y z
#
# Youngs Moduli (GPa) = 24.94524 80.40602 84.05013
#
# Poissons Ratio (x) = 0.06777 -0.08914
# Poissons Ratio (y) = 0.02102 0.70756
# Poissons Ratio (z) = -0.02645 0.67688
#
# Static dielectric constant tensor:
#      x y z
#    x 1.867510 0.000000 -0.036320 
#    y 0.000000 1.777030 0.000000 
#    z -0.036320 0.000000 1.803350 
# 
# From -- ./inp_files/377731.got.cif
#   From: 2010.05.17/outbox.cif.g08.bks.cpg/sg12_189_cif.got.tgz:377731.got - 2010.06.03 13:09:07.
