data_PCOD9179054
_publ_section_title
;
Structure prediction by ZEFSAII (Michael W. Deem and Ramdas Pophale) SiO2 
 PCOD9179054
Probable space group: C 2/M
;
_chemical_formula_sum "Si O2"
_cell_formula_units_Z 56
_cell_length_a 19.463062
_cell_length_b 8.720296
_cell_length_c 26.679998
_cell_angle_alpha 90.000000
_cell_angle_beta 139.812830
_cell_angle_gamma 90.000000
_cell_volume 2922.004348
_symmetry_space_group_name_H-M "C 2/M"
_symmetry_group_IT_number 12
_symmetry_cell_setting 'monoclinic'
loop_
_space_group_symop_operation_xyz
x,y,z
-x,y,-z
-x,-y,-z
x,-y,z
1/2+x,1/2+y,z
1/2-x,1/2+y,-z
1/2-x,1/2-y,-z
1/2+x,1/2-y,z
loop_
_atom_site_type_symbol
_atom_site_label
_atom_site_fract_x
_atom_site_fract_y
_atom_site_fract_z
Si Si1 0.913160 0.682425 0.723556
Si Si2 0.535603 0.686757 0.075152
Si Si3 0.643046 0.684582 0.416649
Si Si4 0.209174 0.816483 0.249162
Si Si5 0.085703 0.181306 0.677292
Si Si6 0.814666 0.816210 0.990272
Si Si7 0.643684 0.182681 0.815733
O O1 0.896121 0.500000 0.713982
O O2 0.872855 0.751485 0.648374
O O3 0.852834 0.754791 0.736932
O O4 0.041015 0.708923 0.794097
O O5 0.540576 0.500000 0.075017
O O6 0.643642 0.735889 0.162761
O O7 0.500000 0.739406 0.000000
O O8 0.436815 0.731856 0.055449
O O9 0.645948 0.500000 0.416401
O O10 0.750000 0.750000 0.500000
O O11 0.538252 0.730148 0.390692
O O12 0.330465 0.760423 0.312831
O O13 0.207236 0.000000 0.248920
O O14 0.124893 0.224172 0.754975
O O15 0.089922 0.000000 0.671722
O O16 0.751218 0.775554 0.904271
O O17 0.812555 0.000000 0.992166
O O18 0.750000 0.750000 0.000000
O O19 0.646679 0.000000 0.805330
#
# Coordination Sequence:
#
# PCOD9179054 Si02
#       7
#     8   8   8   8   8   8   8
#     4  10  20  35  56  82 113 146 181 224 272 321
#     4   9  18  32  50  72 101 141 186 230 274 318
#     4  10  21  39  63  89 114 140 173 213 263 323
#     4  11  21  34  54  79 110 148 189 229 271 323
#     4  10  21  36  56  81 108 139 175 217 264 317
#     4  10  19  31  48  71 100 134 176 226 275 320
#     4   9  18  33  53  75 101 139 184 226 270 323
#
# _framework density 19.164926999999999
#
# number of rings (size 3 to 8) (size 9 to 14) (size 15 to 20)
#    0.000    2.143    0.000    3.429    0.000    5.143 
#    0.000    1.429    0.000    7.286    0.000    0.000 
#    0.000    0.000    0.000    0.000    0.000    0.000 
#
# Total GULP energy -156285.174631 kJ/mol
# GULP energy per Si atom -5581.613380 kJ/mol
# Density = 1.912131 g / cm^3
# Si number density = 19.164927 Si / 1000 Ang^3
#
#
#
# Elastic Constant Matrix: (Units=GPa)
#
#
# Indices 1 2 3 4 5 6 
#
# 1 98.6537 28.4498 26.3900 0.0000 20.4780 0.0000
# 2 28.4498 36.5759 24.3707 0.0000 12.2444 0.0000
# 3 26.3900 24.3707 91.7618 0.0000 26.2557 0.0000
# 4 0.0000 0.0000 0.0000 19.8339 0.0000 -2.8514
# 5 20.4780 12.2444 26.2557 0.0000 28.0346 0.0000
# 6 0.0000 0.0000 0.0000 -2.8514 0.0000 33.8395
#
#
#
# Elastic Compliance Matrix: (Units=1/GPa)
#
#
# Indices 1 2 3 4 5 6 
#
# 1 0.013986 -0.008815 0.000192 0.000000 -0.006546 0.000000
# 2 -0.008815 0.040340 -0.006803 0.000000 -0.004809 0.000000
# 3 0.000192 -0.006803 0.016173 0.000000 -0.012316 0.000000
# 4 0.000000 0.000000 0.000000 0.051037 0.000000 0.004300
# 5 -0.006546 -0.004809 -0.012316 0.000000 0.054086 0.000000
# 6 0.000000 0.000000 0.000000 0.004300 0.000000 0.029914
#
#
# Mechanical properties :
#
#
# Convention : Reuss Voigt Hill
#
# Bulk Modulus (GPa) = 25.22272 42.82361 34.02317
# Shear Modulus (GPa) = 20.03181 26.19368 23.11274
#
# Velocity S-wave (km/s) = 3.23651 3.70097 3.47651
# Velocity P-wave (km/s) = 5.21116 6.37622 5.82290
#
# Compressibility (1/GPa) = 0.03964679
#
# Stress axis : x y z
#
# Youngs Moduli (GPa) = 71.49990 24.78958 61.83054
#
# Poissons Ratio (x) = 0.21853 -0.01186
# Poissons Ratio (y) = 0.63029 0.42061
# Poissons Ratio (z) = -0.01372 0.16863
#
# Static dielectric constant tensor:
#      x y z
#    x 1.681000 0.000000 0.017150 
#    y 0.000000 1.648990 0.000000 
#    z 0.017150 0.000000 1.656830 
# 
# From -- ./inp_files/342596.got.cif
#   From: 2010.05.17/outbox.cif.g08.bks.cpg/sg12_172_cif.got.tgz:342596.got - 2010.06.03 13:09:07.
