data_PCOD9179867
_publ_section_title
;
Structure prediction by ZEFSAII (Michael W. Deem and Ramdas Pophale) SiO2 
 PCOD9179867
Probable space group: C 2/M
;
_chemical_formula_sum "Si O2"
_cell_formula_units_Z 40
_cell_length_a 17.765176
_cell_length_b 10.989981
_cell_length_c 16.283454
_cell_angle_alpha 90.000000
_cell_angle_beta 38.426650
_cell_angle_gamma 90.000000
_cell_volume 1975.889569
_symmetry_space_group_name_H-M "C 2/M"
_symmetry_group_IT_number 12
_symmetry_cell_setting 'monoclinic'
loop_
_space_group_symop_operation_xyz
x,y,z
-x,y,-z
-x,-y,-z
x,-y,z
1/2+x,1/2+y,z
1/2-x,1/2+y,-z
1/2-x,1/2-y,-z
1/2+x,1/2-y,z
loop_
_atom_site_type_symbol
_atom_site_label
_atom_site_fract_x
_atom_site_fract_y
_atom_site_fract_z
Si Si1 0.511038 0.000000 0.711559
Si Si2 0.079089 0.500000 0.053145
Si Si3 0.127132 0.500000 0.440439
Si Si4 0.247872 0.739278 0.263497
Si Si5 0.354661 0.500000 0.635407
Si Si6 0.151060 0.258174 0.157868
Si Si7 0.146115 0.000000 0.169644
Si Si8 0.000000 0.294648 0.000000
O O1 0.535691 0.000000 0.787661
O O2 0.433037 0.875879 0.772310
O O3 0.604044 0.000000 0.557842
O O4 0.066866 0.617071 0.006932
O O5 0.212581 0.500000 0.980150
O O6 0.191984 0.623874 0.357072
O O7 0.000000 0.500000 0.500000
O O8 0.205477 0.737815 0.203730
O O9 0.204489 0.869671 0.338854
O O10 0.392914 0.726106 0.137166
O O11 0.500000 0.500000 0.500000
O O12 0.336357 0.500000 0.748321
O O13 0.084567 0.127803 0.202307
O O14 0.250000 0.250000 0.000000
#
# Coordination Sequence:
#
# PCOD9179867 Si02
#       8
#     4   4   4   8   4   8   4   4
#     4  12  23  37  60  85 129 159 189 245 307 373
#     4  11  19  38  62  91 109 162 201 251 304 331
#     4  12  24  40  56  87 129 165 189 226 319 388
#     4  11  22  37  58  91 113 162 200 241 300 349
#     4  10  19  32  55  84 122 144 197 252 285 351
#     4  11  18  33  55  88 120 147 193 248 302 346
#     4  10  19  31  51  90 114 143 197 235 301 338
#     4  11  20  39  66  84 118 146 220 256 278 352
#
# _framework density 20.244046999999998
#
# number of rings (size 3 to 8) (size 9 to 14) (size 15 to 20)
#    0.000    1.000    8.000    1.200    2.800    0.400 
#    0.000    1.000    0.000    1.200    0.000    0.000 
#    0.000    0.000    0.000    0.000    0.000    0.000 
#
# Total GULP energy -111368.205088 kJ/mol
# GULP energy per Si atom -5568.410254 kJ/mol
# Density = 2.019797 g / cm^3
# Si number density = 20.244047 Si / 1000 Ang^3
#
#
#
# Elastic Constant Matrix: (Units=GPa)
#
#
# Indices 1 2 3 4 5 6 
#
# 1 7.9019 10.8766 12.6493 0.0000 3.6366 0.0000
# 2 10.8766 199.6791 76.7857 0.0000 -6.4802 0.0000
# 3 12.6493 76.7857 146.4340 0.0000 3.3400 0.0000
# 4 0.0000 0.0000 0.0000 42.0003 0.0000 9.9150
# 5 3.6366 -6.4802 3.3400 0.0000 39.5560 0.0000
# 6 0.0000 0.0000 0.0000 9.9150 0.0000 -11.7489
#
#
#
# Elastic Compliance Matrix: (Units=1/GPa)
#
#
# Indices 1 2 3 4 5 6 
#
# 1 0.156976 -0.004919 -0.010653 0.000000 -0.014338 0.000000
# 2 -0.004919 0.006495 -0.003021 0.000000 0.001771 0.000000
# 3 -0.010653 -0.003021 0.009341 0.000000 -0.000304 0.000000
# 4 0.000000 0.000000 0.000000 0.019854 0.000000 0.016755
# 5 -0.014338 0.001771 -0.000304 0.000000 0.026915 0.000000
# 6 0.000000 0.000000 0.000000 0.016755 0.000000 -0.070975
#
#
# Mechanical properties :
#
#
# Convention : Reuss Voigt Hill
#
# Bulk Modulus (GPa) = 7.37333 61.62645 34.49989
# Shear Modulus (GPa) = 21.64486 30.87505 26.25996
#
# Velocity S-wave (km/s) = 3.27340 3.90954 3.60553
# Velocity P-wave (km/s) = 4.23521 7.13353 5.86619
#
# Compressibility (1/GPa) = 0.13562391
#
# Stress axis : x y z
#
# Youngs Moduli (GPa) = 6.37040 153.95606 107.05965
#
# Poissons Ratio (x) = 0.75733 1.14055
# Poissons Ratio (y) = 0.03134 0.32348
# Poissons Ratio (z) = 0.06787 0.46517
#
# Static dielectric constant tensor:
#      x y z
#    x 1.780790 0.000000 -0.056460 
#    y 0.000000 1.808840 0.000000 
#    z -0.056460 0.000000 1.973500 
# 
# From -- ./inp_files/283206.got.cif
#   From: 2010.05.17/outbox.cif.g08.bks.cpg/sg12_142_cif.got.tgz:283206.got - 2010.06.03 13:09:07.
