data_PCOD9179434
_publ_section_title
;
Structure prediction by ZEFSAII (Michael W. Deem and Ramdas Pophale) SiO2 
 PCOD9179434
Probable space group: C 2/M
;
_chemical_formula_sum "Si O2"
_cell_formula_units_Z 44
_cell_length_a 10.775525
_cell_length_b 21.147900
_cell_length_c 10.852820
_cell_angle_alpha 90.000000
_cell_angle_beta 83.506205
_cell_angle_gamma 90.000000
_cell_volume 2457.270258
_symmetry_space_group_name_H-M "C 2/M"
_symmetry_group_IT_number 12
_symmetry_cell_setting 'monoclinic'
loop_
_space_group_symop_operation_xyz
x,y,z
-x,y,-z
-x,-y,-z
x,-y,z
1/2+x,1/2+y,z
1/2-x,1/2+y,-z
1/2-x,1/2-y,-z
1/2+x,1/2-y,z
loop_
_atom_site_type_symbol
_atom_site_label
_atom_site_fract_x
_atom_site_fract_y
_atom_site_fract_z
Si Si1 0.190710 0.928158 0.718319
Si Si2 0.500000 0.172862 0.000000
Si Si3 0.441716 0.388077 0.874973
Si Si4 0.199057 0.569437 0.021697
Si Si5 0.545005 0.743615 0.235161
Si Si6 0.772695 0.208607 0.375445
O O1 0.268710 0.919881 0.837285
O O2 0.217984 0.868603 0.625804
O O3 0.048034 0.921798 0.782766
O O4 0.212040 0.000000 0.669787
O O5 0.383126 0.125921 0.019993
O O6 0.481212 0.215564 0.882948
O O7 0.403157 0.324958 0.809033
O O8 0.500000 0.367455 0.000000
O O9 0.326109 0.429698 0.929237
O O10 0.141528 0.500000 0.018287
O O11 0.652683 0.775979 0.303802
O O12 0.408725 0.731039 0.310475
O O13 0.750000 0.250000 0.500000
#
# Coordination Sequence:
#
# PCOD9179434 Si02
#       6
#     8   4   8   8   8   8
#     4   9  18  34  57  82 109 147 192 234 282 335
#     4  12  21  32  54  84 123 148 184 226 286 350
#     4   9  17  30  53  82 112 145 183 230 281 338
#     4  10  19  31  49  80 122 155 179 216 278 350
#     4  11  22  36  59  86 115 149 189 240 289 335
#     4  11  23  40  60  82 113 153 199 242 284 335
#
# _framework density 17.906047000000001
#
# number of rings (size 3 to 8) (size 9 to 14) (size 15 to 20)
#    0.000    1.818    2.727    2.455    0.000    3.636 
#    0.000    0.000    0.000   16.364    0.000    0.000 
#    0.000    0.000    0.000    0.000    0.000    0.000 
#
# Total GULP energy -122565.600440 kJ/mol
# GULP energy per Si atom -5571.163656 kJ/mol
# Density = 1.786529 g / cm^3
# Si number density = 17.906047 Si / 1000 Ang^3
#
#
#
# Elastic Constant Matrix: (Units=GPa)
#
#
# Indices 1 2 3 4 5 6 
#
# 1 67.9597 37.0201 21.2516 0.0000 -2.8212 0.0000
# 2 37.0201 147.0919 55.8847 0.0000 0.5583 0.0000
# 3 21.2516 55.8847 71.9441 0.0000 -4.2530 0.0000
# 4 0.0000 0.0000 0.0000 -4.9748 0.0000 -65.1254
# 5 -2.8212 0.5583 -4.2530 0.0000 12.8150 0.0000
# 6 0.0000 0.0000 0.0000 -65.1254 0.0000 -177.4087
#
#
#
# Elastic Compliance Matrix: (Units=1/GPa)
#
#
# Indices 1 2 3 4 5 6 
#
# 1 0.017486 -0.003582 -0.002189 0.000000 0.003279 0.000000
# 2 -0.003582 0.010490 -0.007308 0.000000 -0.003671 0.000000
# 3 -0.002189 -0.007308 0.020618 0.000000 0.006679 0.000000
# 4 0.000000 0.000000 0.000000 0.052820 0.000000 -0.019390
# 5 0.003279 -0.003671 0.006679 0.000000 0.081132 0.000000
# 6 0.000000 0.000000 0.000000 -0.019390 0.000000 0.001481
#
#
# Mechanical properties :
#
#
# Convention : Reuss Voigt Hill
#
# Bulk Modulus (GPa) = 44.56908 57.25648 50.91278
# Shear Modulus (GPa) = 22.97127 -22.39108 0.29009
#
# Velocity S-wave (km/s) = 3.58561 -3.54004 0.40294
# Velocity P-wave (km/s) = 6.48743 3.91616 5.35831
#
# Compressibility (1/GPa) = 0.02243708
#
# Stress axis : x y z
#
# Youngs Moduli (GPa) = 57.18737 95.32711 48.50228
#
# Poissons Ratio (x) = 0.34143 0.10619
# Poissons Ratio (y) = 0.20482 0.35443
# Poissons Ratio (z) = 0.12520 0.69661
#
# Static dielectric constant tensor:
#      x y z
#    x 1.640990 0.000000 0.003290 
#    y 0.000000 1.626940 0.000000 
#    z 0.003290 0.000000 1.597530 
# 
# From -- ./inp_files/49264.got.cif
#   From: 2010.05.17/outbox.cif.g08.bks.cpg/sg12_25_cif.got.tgz:49264.got - 2010.06.03 13:09:07.
