data_PCOD9179950
_publ_section_title
;
Structure prediction by ZEFSAII (Michael W. Deem and Ramdas Pophale) SiO2 
 PCOD9179950
Probable space group: C 2/M
;
_chemical_formula_sum "Si O2"
_cell_formula_units_Z 64
_cell_length_a 21.176970
_cell_length_b 7.584312
_cell_length_c 20.850911
_cell_angle_alpha 90.000000
_cell_angle_beta 112.458536
_cell_angle_gamma 90.000000
_cell_volume 3094.927237
_symmetry_space_group_name_H-M "C 2/M"
_symmetry_group_IT_number 12
_symmetry_cell_setting 'monoclinic'
loop_
_space_group_symop_operation_xyz
x,y,z
-x,y,-z
-x,-y,-z
x,-y,z
1/2+x,1/2+y,z
1/2-x,1/2+y,-z
1/2-x,1/2-y,-z
1/2+x,1/2-y,z
loop_
_atom_site_type_symbol
_atom_site_label
_atom_site_fract_x
_atom_site_fract_y
_atom_site_fract_z
Si Si1 0.358527 0.702816 0.079555
Si Si2 0.387733 0.287765 0.705314
Si Si3 0.213589 0.205865 0.072354
Si Si4 0.672069 0.288428 0.452056
Si Si5 0.421168 0.284248 0.466568
Si Si6 0.359580 0.284634 0.306855
Si Si7 0.707985 0.791447 0.212378
Si Si8 0.544170 0.716463 0.773619
O O1 0.378353 0.500000 0.075617
O O2 0.287981 0.707338 0.092920
O O3 0.417284 0.779927 0.147266
O O4 0.337111 0.778759 0.002097
O O5 0.390251 0.500000 0.702142
O O6 0.349864 0.221535 0.626504
O O7 0.345605 0.243755 0.752449
O O8 0.465969 0.225927 0.738668
O O9 0.188448 0.220506 0.134945
O O10 0.224604 0.000000 0.061385
O O11 0.664955 0.500000 0.447772
O O12 0.750000 0.250000 0.500000
O O13 0.621712 0.224009 0.488511
O O14 0.500000 0.229255 0.500000
O O15 0.420814 0.500000 0.466777
O O16 0.385742 0.228026 0.386669
O O17 0.358735 0.500000 0.307106
O O18 0.282954 0.223101 0.261753
O O19 0.411555 0.230526 0.271026
O O20 0.714503 0.000000 0.206903
O O21 0.545111 0.500000 0.774765
#
# Coordination Sequence:
#
# PCOD9179950 Si02
#       8
#     8   8   8   8   8   8   8   8
#     4   9  17  32  54  80 108 139 174 214 261 311
#     4  10  21  35  53  76 105 139 177 223 267 309
#     4  10  19  31  52  81 110 137 172 217 261 309
#     4  10  20  34  52  76 105 139 175 215 262 311
#     4   9  16  27  46  75 103 125 162 215 261 300
#     4   9  16  27  49  75  97 128 171 214 254 303
#     4  11  21  35  54  76 105 139 176 219 263 316
#     4   9  16  31  53  77 104 136 176 219 263 308
#
# _framework density 20.678999999999998
#
# number of rings (size 3 to 8) (size 9 to 14) (size 15 to 20)
#    0.000    2.375    1.250    2.250    0.000    5.000 
#    0.000    1.250    0.000    4.125    0.000    0.000 
#    0.000    0.000    0.000    0.000    0.000    0.000 
#
# Total GULP energy -178697.311069 kJ/mol
# GULP energy per Si atom -5584.290971 kJ/mol
# Density = 2.063193 g / cm^3
# Si number density = 20.679000 Si / 1000 Ang^3
#
#
#
# Elastic Constant Matrix: (Units=GPa)
#
#
# Indices 1 2 3 4 5 6 
#
# 1 135.0255 -4.6957 72.3854 0.0000 -17.4770 0.0000
# 2 -4.6957 48.3659 2.0404 0.0000 0.9915 0.0000
# 3 72.3854 2.0404 176.2515 0.0000 -17.7690 0.0000
# 4 0.0000 0.0000 0.0000 6.8832 0.0000 0.7564
# 5 -17.4770 0.9915 -17.7690 0.0000 26.5596 0.0000
# 6 0.0000 0.0000 0.0000 0.7564 0.0000 14.6924
#
#
#
# Elastic Compliance Matrix: (Units=1/GPa)
#
#
# Indices 1 2 3 4 5 6 
#
# 1 0.009942 0.001038 -0.003688 0.000000 0.004036 0.000000
# 2 0.001038 0.020819 -0.000726 0.000000 -0.000580 0.000000
# 3 -0.003688 -0.000726 0.007458 0.000000 0.002590 0.000000
# 4 0.000000 0.000000 0.000000 0.146108 0.000000 -0.007522
# 5 0.004036 -0.000580 0.002590 0.000000 0.042061 0.000000
# 6 0.000000 0.000000 0.000000 -0.007522 0.000000 0.068450
#
#
# Mechanical properties :
#
#
# Convention : Reuss Voigt Hill
#
# Bulk Modulus (GPa) = 31.77949 55.45590 43.61769
# Shear Modulus (GPa) = 16.02165 28.95456 22.48810
#
# Velocity S-wave (km/s) = 2.78650 3.74597 3.30128
# Velocity P-wave (km/s) = 5.07486 6.75170 5.97242
#
# Compressibility (1/GPa) = 0.03146683
#
# Stress axis : x y z
#
# Youngs Moduli (GPa) = 100.58721 48.03306 134.08627
#
# Poissons Ratio (x) = -0.04986 0.49453
# Poissons Ratio (y) = -0.10442 0.09732
# Poissons Ratio (z) = 0.37098 0.03486
#
# Static dielectric constant tensor:
#      x y z
#    x 1.682660 0.000000 -0.004500 
#    y 0.000000 1.799890 0.000000 
#    z -0.004500 0.000000 1.806620 
# 
# From -- ./inp_files/320008.got.cif
#   From: 2010.05.17/outbox.cif.g08.bks.cpg/sg12_161_cif.got.tgz:320008.got - 2010.06.03 13:09:07.
