data_PCOD9179788
_publ_section_title
;
Structure prediction by ZEFSAII (Michael W. Deem and Ramdas Pophale) SiO2 
 PCOD9179788
Probable space group: C 2/M
;
_chemical_formula_sum "Si O2"
_cell_formula_units_Z 48
_cell_length_a 18.618569
_cell_length_b 8.214679
_cell_length_c 21.602232
_cell_angle_alpha 90.000000
_cell_angle_beta 49.765788
_cell_angle_gamma 90.000000
_cell_volume 2522.282000
_symmetry_space_group_name_H-M "C 2/M"
_symmetry_group_IT_number 12
_symmetry_cell_setting 'monoclinic'
loop_
_space_group_symop_operation_xyz
x,y,z
-x,y,-z
-x,-y,-z
x,-y,z
1/2+x,1/2+y,z
1/2-x,1/2+y,-z
1/2-x,1/2-y,-z
1/2+x,1/2-y,z
loop_
_atom_site_type_symbol
_atom_site_label
_atom_site_fract_x
_atom_site_fract_y
_atom_site_fract_z
Si Si1 0.607758 0.698392 0.586389
Si Si2 0.726857 0.693544 0.412793
Si Si3 0.029648 0.803482 0.235791
Si Si4 0.232841 0.194552 0.079483
Si Si5 0.897592 0.194443 0.078188
Si Si6 0.363533 0.195414 0.236506
O O1 0.614956 0.500000 0.584312
O O2 0.634755 0.752275 0.501711
O O3 0.688001 0.771338 0.586607
O O4 0.510751 0.744765 0.674111
O O5 0.714977 0.500000 0.411821
O O6 0.769126 0.757304 0.324665
O O7 0.132858 0.741950 0.161044
O O8 0.953304 0.750115 0.227159
O O9 0.031966 0.000000 0.233587
O O10 0.317840 0.247826 0.075679
O O11 0.228279 0.000000 0.082334
O O12 0.250000 0.250000 0.000000
O O13 0.873970 0.246449 0.160967
O O14 0.900916 0.000000 0.074368
O O15 0.000000 0.257770 0.000000
O O16 0.361229 0.000000 0.238213
#
# Coordination Sequence:
#
# PCOD9179788 Si02
#       6
#     8   8   8   8   8   8
#     4   8  13  24  43  67  98 133 165 199 240 284
#     4   8  14  24  41  69 101 130 163 202 241 284
#     4   9  18  32  51  76 105 136 169 205 246 295
#     4  11  23  38  56  78 103 131 166 206 250 301
#     4  11  24  40  56  74  98 130 169 210 252 300
#     4  10  19  31  51  79 107 134 167 207 250 296
#
# _framework density 19.030387000000001
#
# number of rings (size 3 to 8) (size 9 to 14) (size 15 to 20)
#    0.000    2.500    0.000    2.500    0.000    7.333 
#    0.000    0.000    0.000    1.000    0.000    7.000 
#    0.000    0.000    0.000    0.000    0.000    0.000 
#
# Total GULP energy -133713.669873 kJ/mol
# GULP energy per Si atom -5571.402911 kJ/mol
# Density = 1.898707 g / cm^3
# Si number density = 19.030387 Si / 1000 Ang^3
#
#
#
# Elastic Constant Matrix: (Units=GPa)
#
#
# Indices 1 2 3 4 5 6 
#
# 1 86.1488 9.8624 93.3643 0.0000 -0.6997 0.0001
# 2 9.8624 -0.4978 26.3594 0.0000 3.4782 0.0001
# 3 93.3643 26.3594 247.8946 0.0000 0.5788 0.0000
# 4 0.0000 0.0000 0.0000 15.4142 0.0000 -1.0606
# 5 -0.6997 3.4782 0.5788 0.0000 21.9012 0.0000
# 6 0.0001 0.0001 0.0000 -1.0606 0.0000 20.5463
#
#
#
# Elastic Compliance Matrix: (Units=1/GPa)
#
#
# Indices 1 2 3 4 5 6 
#
# 1 0.019628 0.000398 -0.007437 0.000000 0.000760 0.000000
# 2 0.000398 -0.260833 0.027490 0.000000 0.040710 0.000001
# 3 -0.007437 0.027490 0.003923 0.000000 -0.004707 0.000000
# 4 0.000000 0.000000 0.000000 0.065107 0.000000 0.003361
# 5 0.000760 0.040710 -0.004707 0.000000 0.039343 0.000000
# 6 0.000000 0.000001 0.000000 0.003361 0.000000 0.048844
#
#
# Mechanical properties :
#
#
# Convention : Reuss Voigt Hill
#
# Bulk Modulus (GPa) = -5.09221 65.85753 30.38266
# Shear Modulus (GPa) = -26.26714 25.16962 -0.54876
#
# Velocity S-wave (km/s) = -3.71923 3.64070 -0.53757
# Velocity P-wave (km/s) = 4.59622 7.23565 3.95154
#
# Compressibility (1/GPa) = -0.19637832
#
# Stress axis : x y z
#
# Youngs Moduli (GPa) = 50.94814 -3.83388 254.92734
#
# Poissons Ratio (x) = 0.00153 1.89578
# Poissons Ratio (y) = -0.02030 -7.00796
# Poissons Ratio (z) = 0.37888 0.10539
#
# Static dielectric constant tensor:
#      x y z
#    x 1.603180 0.000000 -0.022890 
#    y 0.000000 1.608890 0.000000 
#    z -0.022890 0.000000 1.745640 
# 
# From -- ./inp_files/313629.got.cif
#   From: 2010.05.17/outbox.cif.g08.bks.cpg/sg12_157_cif.got.tgz:313629.got - 2010.06.03 13:09:07.
