data_PCOD9179885
_publ_section_title
;
Structure prediction by ZEFSAII (Michael W. Deem and Ramdas Pophale) SiO2 
 PCOD9179885
Probable space group: C 2/M
;
_chemical_formula_sum "Si O2"
_cell_formula_units_Z 48
_cell_length_a 13.506491
_cell_length_b 30.125876
_cell_length_c 12.716847
_cell_angle_alpha 90.000000
_cell_angle_beta 157.300333
_cell_angle_gamma 90.000000
_cell_volume 1996.812140
_symmetry_space_group_name_H-M "C 2/M"
_symmetry_group_IT_number 12
_symmetry_cell_setting 'monoclinic'
loop_
_space_group_symop_operation_xyz
x,y,z
-x,y,-z
-x,-y,-z
x,-y,z
1/2+x,1/2+y,z
1/2-x,1/2+y,-z
1/2-x,1/2-y,-z
1/2+x,1/2-y,z
loop_
_atom_site_type_symbol
_atom_site_label
_atom_site_fract_x
_atom_site_fract_y
_atom_site_fract_z
Si Si1 0.905401 0.677724 0.531556
Si Si2 0.774225 0.548262 0.138107
Si Si3 0.259697 0.868228 0.686630
Si Si4 0.406523 0.641952 0.015381
Si Si5 0.288380 0.548960 0.512305
Si Si6 0.258613 0.229338 0.684706
O O1 0.681915 0.642823 0.340959
O O2 0.787293 0.726557 0.428493
O O3 0.000000 0.673420 0.500000
O O4 0.179410 0.667018 0.852916
O O5 0.740253 0.500000 0.158184
O O6 0.707978 0.594234 0.129453
O O7 0.567331 0.550276 0.840470
O O8 0.062183 0.550130 0.377429
O O9 0.252839 0.910771 0.606156
O O10 0.282389 0.819199 0.656237
O O11 0.000000 0.868653 0.500000
O O12 0.500000 0.871632 0.000000
O O13 0.500000 0.665510 0.000000
O O14 0.265351 0.500000 0.438354
O O15 0.000000 0.227341 0.500000
O O16 0.500000 0.234499 0.000000
#
# Coordination Sequence:
#
# PCOD9179885 Si02
#       6
#     8   8   8   8   8   8
#     4   9  16  28  47  73 102 129 162 206 253 299
#     4  10  21  37  54  72 100 139 173 204 256 316
#     4  10  20  33  54  82 105 130 169 215 253 289
#     4  10  19  31  52  78 100 128 172 218 251 286
#     4  10  21  37  55  74 102 140 172 203 255 315
#     4   9  16  28  47  73 104 133 162 201 251 303
#
# _framework density 24.038315000000001
#
# number of rings (size 3 to 8) (size 9 to 14) (size 15 to 20)
#    0.000    2.333    0.000    4.500    0.000    1.000 
#    0.000    0.000    0.000   12.000    0.000    0.000 
#    0.000    0.000    0.000    0.000    0.000    0.000 
#
# Total GULP energy -133942.803237 kJ/mol
# GULP energy per Si atom -5580.950135 kJ/mol
# Density = 2.398360 g / cm^3
# Si number density = 24.038315 Si / 1000 Ang^3
#
#
#
# Elastic Constant Matrix: (Units=GPa)
#
#
# Indices 1 2 3 4 5 6 
#
# 1 36.8735 31.6049 21.0687 -0.0001 7.5542 0.0000
# 2 31.6049 192.3363 31.1950 0.0000 1.4029 0.0000
# 3 21.0687 31.1950 164.3565 -0.0003 26.8569 -0.0002
# 4 -0.0001 0.0000 -0.0003 34.6311 -0.0001 0.1822
# 5 7.5542 1.4029 26.8569 -0.0001 25.9618 0.0000
# 6 0.0000 0.0000 -0.0002 0.1822 0.0000 37.8991
#
#
#
# Elastic Compliance Matrix: (Units=1/GPa)
#
#
# Indices 1 2 3 4 5 6 
#
# 1 0.034394 -0.005241 -0.002196 0.000000 -0.007452 0.000000
# 2 -0.005241 0.006181 -0.000838 0.000000 0.002057 0.000000
# 3 -0.002196 -0.000838 0.007718 0.000000 -0.007299 0.000000
# 4 0.000000 0.000000 0.000000 0.028877 0.000000 -0.000139
# 5 -0.007452 0.002057 -0.007299 0.000000 0.048126 0.000000
# 6 0.000000 0.000000 0.000000 -0.000139 0.000000 0.026387
#
#
# Mechanical properties :
#
#
# Convention : Reuss Voigt Hill
#
# Bulk Modulus (GPa) = 31.50343 62.36705 46.93524
# Shear Modulus (GPa) = 27.96221 40.34490 34.15355
#
# Velocity S-wave (km/s) = 3.41432 4.10122 3.77343
# Velocity P-wave (km/s) = 5.35513 6.95901 6.20908
#
# Compressibility (1/GPa) = 0.03174258
#
# Stress axis : x y z
#
# Youngs Moduli (GPa) = 29.07516 161.77902 129.57364
#
# Poissons Ratio (x) = 0.84788 0.28460
# Poissons Ratio (y) = 0.15238 0.10853
# Poissons Ratio (z) = 0.06386 0.13550
#
# Static dielectric constant tensor:
#      x y z
#    x 1.923790 0.000000 -0.074070 
#    y 0.000000 1.991640 0.000000 
#    z -0.074070 0.000000 2.011310 
# 
# From -- ./inp_files/219607.got.cif
#   From: 2010.05.17/outbox.cif.g08.bks.cpg/sg12_110_cif.got.tgz:219607.got - 2010.06.03 13:09:07.
