data_PCOD9179877
_publ_section_title
;
Structure prediction by ZEFSAII (Michael W. Deem and Ramdas Pophale) SiO2 
 PCOD9179877
Probable space group: C 2/M
;
_chemical_formula_sum "Si O2"
_cell_formula_units_Z 56
_cell_length_a 29.149329
_cell_length_b 7.621933
_cell_length_c 12.863390
_cell_angle_alpha 90.000000
_cell_angle_beta 104.414972
_cell_angle_gamma 90.000000
_cell_volume 2767.941368
_symmetry_space_group_name_H-M "C 2/M"
_symmetry_group_IT_number 12
_symmetry_cell_setting 'monoclinic'
loop_
_space_group_symop_operation_xyz
x,y,z
-x,y,-z
-x,-y,-z
x,-y,z
1/2+x,1/2+y,z
1/2-x,1/2+y,-z
1/2-x,1/2-y,-z
1/2+x,1/2-y,z
loop_
_atom_site_type_symbol
_atom_site_label
_atom_site_fract_x
_atom_site_fract_y
_atom_site_fract_z
Si Si1 0.062486 0.285612 0.632112
Si Si2 0.253789 0.796438 0.168285
Si Si3 0.620962 0.208912 0.270920
Si Si4 0.149136 0.209513 0.060746
Si Si5 0.273658 0.209413 0.622897
Si Si6 0.956295 0.714228 0.612555
Si Si7 0.644415 0.792310 0.828981
O O1 0.062857 0.500000 0.634474
O O2 0.064371 0.234929 0.511998
O O3 0.105892 0.221745 0.726457
O O4 0.011095 0.229937 0.646246
O O5 0.203206 0.719076 0.104514
O O6 0.253606 0.786877 0.293352
O O7 0.302533 0.716731 0.153994
O O8 0.252771 0.000000 0.135038
O O9 0.620305 0.240029 0.147302
O O10 0.672102 0.275648 0.339505
O O11 0.577205 0.277452 0.313546
O O12 0.621568 0.000000 0.287428
O O13 0.151606 0.000000 0.061377
O O14 0.129286 0.270016 0.939573
O O15 0.250000 0.250000 0.500000
O O16 0.274172 0.000000 0.637416
O O17 0.957061 0.500000 0.614819
O O18 0.648279 0.000000 0.809150
#
# Coordination Sequence:
#
# PCOD9179877 Si02
#       7
#     8   8   8   8   8   8   8
#     4   8  15  27  48  78 103 121 152 204 255 291
#     4   9  19  33  49  70  98 132 166 202 244 288
#     4   9  18  32  53  73  94 129 168 202 242 292
#     4  10  20  34  49  69 101 135 166 203 243 290
#     4  10  20  31  46  71 102 132 164 202 239 289
#     4   8  14  28  50  76 101 123 154 201 253 296
#     4  10  19  31  52  76  99 128 165 206 245 291
#
# _framework density 20.231642000000001
#
# number of rings (size 3 to 8) (size 9 to 14) (size 15 to 20)
#    0.000    2.857    0.000    2.143    2.000    1.714 
#    0.000    0.714    0.000    5.143    0.000    2.000 
#    0.000    0.000    0.000    0.000    0.000    0.000 
#
# Total GULP energy -156198.603371 kJ/mol
# GULP energy per Si atom -5578.521549 kJ/mol
# Density = 2.018559 g / cm^3
# Si number density = 20.231642 Si / 1000 Ang^3
#
#
#
# Elastic Constant Matrix: (Units=GPa)
#
#
# Indices 1 2 3 4 5 6 
#
# 1 117.3702 6.5084 55.8005 0.0000 -27.2577 0.0000
# 2 6.5084 39.8738 -10.4136 0.0000 1.7895 0.0000
# 3 55.8005 -10.4136 91.7219 0.0000 -6.4528 0.0000
# 4 0.0000 0.0000 0.0000 11.5043 0.0000 -5.8961
# 5 -27.2577 1.7895 -6.4528 0.0000 17.9117 0.0000
# 6 0.0000 0.0000 0.0000 -5.8961 0.0000 3.4162
#
#
#
# Elastic Compliance Matrix: (Units=1/GPa)
#
#
# Indices 1 2 3 4 5 6 
#
# 1 0.021286 -0.007856 -0.011807 0.000000 0.028925 0.000000
# 2 -0.007856 0.028788 0.007187 0.000000 -0.012243 0.000000
# 3 -0.011807 0.007187 0.018044 0.000000 -0.012185 0.000000
# 4 0.000000 0.000000 0.000000 0.752937 0.000000 1.299504
# 5 0.028925 -0.012243 -0.012185 0.000000 0.096680 0.000000
# 6 0.000000 0.000000 0.000000 1.299504 0.000000 2.535553
#
#
# Mechanical properties :
#
#
# Convention : Reuss Voigt Hill
#
# Bulk Modulus (GPa) = 23.16687 39.19519 31.18103
# Shear Modulus (GPa) = 1.43159 19.70446 10.56803
#
# Velocity S-wave (km/s) = 0.84210 3.12419 2.28798
# Velocity P-wave (km/s) = 3.52437 5.69468 4.73553
#
# Compressibility (1/GPa) = 0.04316509
#
# Stress axis : x y z
#
# Youngs Moduli (GPa) = 46.97834 34.73699 55.41953
#
# Poissons Ratio (x) = 0.27290 0.65434
# Poissons Ratio (y) = 0.36907 -0.39828
# Poissons Ratio (z) = 0.55467 -0.24964
#
# Static dielectric constant tensor:
#      x y z
#    x 1.729190 0.000000 0.002320 
#    y 0.000000 1.769070 0.000000 
#    z 0.002320 0.000000 1.690100 
# 
# From -- ./inp_files/181039.got.cif
#   From: 2010.05.17/outbox.cif.g08.bks.cpg/sg12_91_cif.got.tgz:181039.got - 2010.06.03 13:09:07.
