data_PCOD9179727
_publ_section_title
;
Structure prediction by ZEFSAII (Michael W. Deem and Ramdas Pophale) SiO2 
 PCOD9179727
Probable space group: C 2/M
;
_chemical_formula_sum "Si O2"
_cell_formula_units_Z 64
_cell_length_a 17.258992
_cell_length_b 8.744237
_cell_length_c 28.204279
_cell_angle_alpha 90.000000
_cell_angle_beta 48.958865
_cell_angle_gamma 90.000000
_cell_volume 3210.413509
_symmetry_space_group_name_H-M "C 2/M"
_symmetry_group_IT_number 12
_symmetry_cell_setting 'monoclinic'
loop_
_space_group_symop_operation_xyz
x,y,z
-x,y,-z
-x,-y,-z
x,-y,z
1/2+x,1/2+y,z
1/2-x,1/2+y,-z
1/2-x,1/2-y,-z
1/2+x,1/2-y,z
loop_
_atom_site_type_symbol
_atom_site_label
_atom_site_fract_x
_atom_site_fract_y
_atom_site_fract_z
Si Si1 0.011159 0.185582 0.069132
Si Si2 0.135936 0.680069 0.459995
Si Si3 0.422017 0.818936 0.258093
Si Si4 0.011629 0.676534 0.400719
Si Si5 0.295999 0.318833 0.668642
Si Si6 0.658962 0.814379 0.927265
Si Si7 0.389299 0.682403 0.868669
Si Si8 0.831230 0.327604 0.399095
O O1 0.898954 0.250111 0.097059
O O2 0.062144 0.233056 0.099523
O O3 0.006917 0.000000 0.069303
O O4 0.088986 0.250409 0.998210
O O5 0.121049 0.500000 0.461113
O O6 0.040520 0.737514 0.529687
O O7 0.167141 0.752988 0.397154
O O8 0.240744 0.711291 0.446156
O O9 0.318133 0.765436 0.272491
O O10 0.523121 0.730403 0.203496
O O11 0.386636 0.799549 0.326550
O O12 0.438373 0.000000 0.242969
O O13 0.043177 0.500000 0.394879
O O14 0.918400 0.677556 0.402487
O O15 0.107334 0.765658 0.340161
O O16 0.290976 0.500000 0.667564
O O17 0.776464 0.767028 0.894505
O O18 0.654926 0.000000 0.927002
O O19 0.381452 0.500000 0.875511
O O20 0.786714 0.500000 0.414872
#
# Coordination Sequence:
#
# PCOD9179727 Si02
#       8
#     8   8   8   8   8   8   8   8
#     4  10  20  36  58  88 121 152 188 229 274 330
#     4  10  19  31  51  77 102 132 170 212 266 330
#     4   9  20  38  56  73 100 139 182 222 265 317
#     4  10  20  33  51  77 105 132 168 216 271 329
#     4  10  21  36  52  73 102 136 174 220 269 320
#     4  10  20  36  58  88 122 153 185 229 280 326
#     4  10  22  38  58  84 114 151 194 233 277 329
#     4   9  19  36  53  73 103 136 171 218 270 321
#
# _framework density 19.935127000000001
#
# number of rings (size 3 to 8) (size 9 to 14) (size 15 to 20)
#    0.000    2.250    0.000    4.125    0.000    7.500 
#    2.250    0.000    0.000    0.000    0.000    0.000 
#    0.000    0.000    0.000    0.000    0.000    0.000 
#
# Total GULP energy -178165.054170 kJ/mol
# GULP energy per Si atom -5567.657943 kJ/mol
# Density = 1.988975 g / cm^3
# Si number density = 19.935127 Si / 1000 Ang^3
#
#
#
# Elastic Constant Matrix: (Units=GPa)
#
#
# Indices 1 2 3 4 5 6 
#
# 1 125.9136 30.9672 39.1362 0.0000 -33.6814 0.0000
# 2 30.9672 34.2239 13.6453 -0.0009 -12.4128 0.0006
# 3 39.1362 13.6453 60.2871 0.0000 -33.6242 0.0001
# 4 0.0000 -0.0009 0.0000 20.3791 0.0000 -3.1008
# 5 -33.6814 -12.4128 -33.6242 0.0000 34.1722 0.0000
# 6 0.0000 0.0006 0.0001 -3.1008 0.0000 24.4128
#
#
#
# Elastic Compliance Matrix: (Units=1/GPa)
#
#
# Indices 1 2 3 4 5 6 
#
# 1 0.012508 -0.007772 -0.002347 0.000000 0.007195 0.000000
# 2 -0.007772 0.038568 -0.000317 0.000002 0.006037 -0.000001
# 3 -0.002347 -0.000317 0.037296 0.000000 0.034269 0.000000
# 4 0.000000 0.000002 0.000000 0.050037 0.000000 0.006356
# 5 0.007195 0.006037 0.034269 0.000000 0.072268 0.000000
# 6 0.000000 -0.000001 0.000000 0.006356 0.000000 0.041769
#
#
# Mechanical properties :
#
#
# Convention : Reuss Voigt Hill
#
# Bulk Modulus (GPa) = 14.81506 43.10245 28.95876
# Shear Modulus (GPa) = 16.90231 24.90454 20.90343
#
# Velocity S-wave (km/s) = 2.91497 3.53835 3.24168
# Velocity P-wave (km/s) = 4.33327 6.19367 5.34503
#
# Compressibility (1/GPa) = 0.06749888
#
# Stress axis : x y z
#
# Youngs Moduli (GPa) = 79.95093 25.92838 26.81258
#
# Poissons Ratio (x) = 0.20151 0.06294
# Poissons Ratio (y) = 0.62137 0.00850
# Poissons Ratio (z) = 0.18768 0.00822
#
# Static dielectric constant tensor:
#      x y z
#    x 1.931270 0.000000 -0.003970 
#    y 0.000000 1.706610 0.000000 
#    z -0.003970 0.000000 1.677240 
# 
# From -- ./inp_files/378213.got.cif
#   From: 2010.05.17/outbox.cif.g08.bks.cpg/sg12_190_cif.got.tgz:378213.got - 2010.06.03 13:09:07.
