data_PCOD9179741
_publ_section_title
;
Structure prediction by ZEFSAII (Michael W. Deem and Ramdas Pophale) SiO2 
 PCOD9179741
Probable space group: C 2/M
;
_chemical_formula_sum "Si O2"
_cell_formula_units_Z 40
_cell_length_a 24.824014
_cell_length_b 8.994964
_cell_length_c 21.086938
_cell_angle_alpha 90.000000
_cell_angle_beta 30.975280
_cell_angle_gamma 90.000000
_cell_volume 2423.328548
_symmetry_space_group_name_H-M "C 2/M"
_symmetry_group_IT_number 12
_symmetry_cell_setting 'monoclinic'
loop_
_space_group_symop_operation_xyz
x,y,z
-x,y,-z
-x,-y,-z
x,-y,z
1/2+x,1/2+y,z
1/2-x,1/2+y,-z
1/2-x,1/2-y,-z
1/2+x,1/2-y,z
loop_
_atom_site_type_symbol
_atom_site_label
_atom_site_fract_x
_atom_site_fract_y
_atom_site_fract_z
Si Si1 0.829083 0.676044 0.831000
Si Si2 0.508883 0.322758 0.565643
Si Si3 0.599991 0.323422 0.695512
Si Si4 0.329580 0.176683 0.507794
Si Si5 0.385034 0.824201 0.923028
O O1 0.825466 0.500000 0.822627
O O2 0.910388 0.754665 0.702446
O O3 0.868116 0.697444 0.864226
O O4 0.713914 0.747046 0.944068
O O5 0.500000 0.292357 0.500000
O O6 0.511807 0.500000 0.572390
O O7 0.611655 0.249396 0.492634
O O8 0.585276 0.500000 0.702246
O O9 0.624212 0.249963 0.602798
O O10 0.704722 0.299311 0.631111
O O11 0.495497 0.249857 0.828033
O O12 0.349768 0.000000 0.485473
O O13 0.385691 0.000000 0.934645
#
# Coordination Sequence:
#
# PCOD9179741 Si02
#       5
#     8   8   8   8   8
#     4  10  20  33  51  76 105 138 175 213 259 310
#     4  11  23  37  54  76 105 141 178 217 259 305
#     4  10  19  31  51  77 108 138 168 213 262 311
#     4  10  20  33  50  76 105 138 176 212 259 309
#     4  10  19  31  51  78 108 138 169 211 263 314
#
# _framework density 16.506222999999999
#
# number of rings (size 3 to 8) (size 9 to 14) (size 15 to 20)
#    0.000    1.800    2.000    3.000    0.000    5.600 
#    0.000    0.000    0.000    1.200    0.000    8.400 
#    0.000    0.000    0.000    0.000    0.000    0.000 
#
# Total GULP energy -111665.135744 kJ/mol
# GULP energy per Si atom -5583.256787 kJ/mol
# Density = 1.646865 g / cm^3
# Si number density = 16.506223 Si / 1000 Ang^3
#
#
#
# Elastic Constant Matrix: (Units=GPa)
#
#
# Indices 1 2 3 4 5 6 
#
# 1 98.6340 72.5415 53.7981 -0.0001 -16.9974 0.0000
# 2 72.5415 108.3244 71.3789 -0.0013 -13.8527 0.0006
# 3 53.7981 71.3789 95.6459 -0.0006 -26.9067 0.0003
# 4 -0.0001 -0.0013 -0.0006 32.0090 0.0004 -5.1923
# 5 -16.9974 -13.8527 -26.9067 0.0004 26.0605 -0.0001
# 6 0.0000 0.0006 0.0003 -5.1923 -0.0001 25.0664
#
#
#
# Elastic Compliance Matrix: (Units=1/GPa)
#
#
# Indices 1 2 3 4 5 6 
#
# 1 0.021009 -0.013100 -0.000205 -0.000001 0.006529 0.000000
# 2 -0.013100 0.027051 -0.015753 0.000001 -0.010430 0.000000
# 3 -0.000205 -0.015753 0.028093 0.000000 0.020498 0.000000
# 4 -0.000001 0.000001 0.000000 0.032327 -0.000001 0.006696
# 5 0.006529 -0.010430 0.020498 -0.000001 0.058250 0.000000
# 6 0.000000 0.000000 0.000000 0.006696 0.000000 0.041281
#
#
# Mechanical properties :
#
#
# Convention : Reuss Voigt Hill
#
# Bulk Modulus (GPa) = 55.43807 77.56016 66.49911
# Shear Modulus (GPa) = 18.37291 23.61957 20.99624
#
# Velocity S-wave (km/s) = 3.33992 3.78689 3.57041
# Velocity P-wave (km/s) = 6.96653 8.13703 7.57442
#
# Compressibility (1/GPa) = 0.01803815
#
# Stress axis : x y z
#
# Youngs Moduli (GPa) = 47.59765 36.96767 35.59584
#
# Poissons Ratio (x) = 0.48427 0.00728
# Poissons Ratio (y) = 0.62352 0.56075
# Poissons Ratio (z) = 0.00973 0.58236
#
# Static dielectric constant tensor:
#      x y z
#    x 1.540350 0.000000 -0.025310 
#    y 0.000000 1.546160 0.000000 
#    z -0.025310 0.000000 1.543760 
# 
# From -- ./inp_files/162729.got.cif
#   From: 2010.05.17/outbox.cif.g08.bks.cpg/sg12_82_cif.got.tgz:162729.got - 2010.06.03 13:09:07.
