data_PCOD9179139
_publ_section_title
;
Structure prediction by ZEFSAII (Michael W. Deem and Ramdas Pophale) SiO2 
 PCOD9179139
Probable space group: C 2/M
;
_chemical_formula_sum "Si O2"
_cell_formula_units_Z 64
_cell_length_a 29.142608
_cell_length_b 9.116211
_cell_length_c 19.509921
_cell_angle_alpha 90.000000
_cell_angle_beta 138.873609
_cell_angle_gamma 90.000000
_cell_volume 3409.108662
_symmetry_space_group_name_H-M "C 2/M"
_symmetry_group_IT_number 12
_symmetry_cell_setting 'monoclinic'
loop_
_space_group_symop_operation_xyz
x,y,z
-x,y,-z
-x,-y,-z
x,-y,z
1/2+x,1/2+y,z
1/2-x,1/2+y,-z
1/2-x,1/2-y,-z
1/2+x,1/2-y,z
loop_
_atom_site_type_symbol
_atom_site_label
_atom_site_fract_x
_atom_site_fract_y
_atom_site_fract_z
Si Si1 0.575890 0.676138 0.617620
Si Si2 0.421855 0.821305 0.830975
Si Si3 0.848440 0.323366 0.883390
Si Si4 0.185711 0.666394 0.396466
Si Si5 0.946406 0.323012 0.112791
Si Si6 0.297007 0.174456 0.319311
Si Si7 0.389993 0.834096 0.548030
Si Si8 0.030476 0.826723 0.715829
O O1 0.500000 0.714941 0.500000
O O2 0.584226 0.500000 0.617798
O O3 0.638798 0.760354 0.652173
O O4 0.574679 0.708291 0.697541
O O5 0.408055 0.782656 0.894244
O O6 0.352926 0.770173 0.712733
O O7 0.488611 0.773457 0.862224
O O8 0.423932 0.000000 0.830769
O O9 0.840731 0.500000 0.871136
O O10 0.775447 0.250344 0.781785
O O11 0.877623 0.286103 0.991317
O O12 0.207052 0.500000 0.404720
O O13 0.250000 0.750000 0.500000
O O14 0.129122 0.663213 0.393733
O O15 0.950645 0.500000 0.123695
O O16 0.949498 0.254847 0.191610
O O17 0.322253 0.200545 0.426188
O O18 0.290939 0.000000 0.302659
O O19 0.451977 0.721242 0.607858
O O20 0.412642 0.000000 0.554083
O O21 0.033335 0.000000 0.730515
#
# Coordination Sequence:
#
# PCOD9179139 Si02
#       8
#     8   8   8   8   8   8   8   8
#     4  10  21  39  61  86 116 147 186 234 284 346
#     4   9  17  33  57  83 110 148 197 238 274 328
#     4  10  21  37  60  85 113 155 199 238 282 334
#     4  10  19  31  48  74 112 151 184 227 274 327
#     4  10  20  38  61  84 115 153 196 242 283 334
#     4  11  23  37  58  87 120 153 187 235 289 344
#     4  10  20  35  54  79 115 153 184 224 282 342
#     4  11  22  36  59  88 113 143 184 236 287 336
#
# _framework density 18.773236000000001
#
# number of rings (size 3 to 8) (size 9 to 14) (size 15 to 20)
#    0.000    1.875    2.500    1.875    0.000    4.250 
#    0.000    1.250    0.000    1.500    0.000    0.000 
#    0.000    0.000    0.000    0.000    0.000    0.000 
#
# Total GULP energy -178530.766857 kJ/mol
# GULP energy per Si atom -5579.086464 kJ/mol
# Density = 1.873051 g / cm^3
# Si number density = 18.773236 Si / 1000 Ang^3
#
#
#
# Elastic Constant Matrix: (Units=GPa)
#
#
# Indices 1 2 3 4 5 6 
#
# 1 65.9092 21.2388 36.4937 0.0000 -11.8845 0.0000
# 2 21.2388 26.5271 35.7200 0.0000 -6.5955 0.0000
# 3 36.4937 35.7200 126.3701 0.0000 -18.2695 0.0000
# 4 0.0000 0.0000 0.0000 28.2547 0.0000 0.3575
# 5 -11.8845 -6.5955 -18.2695 0.0000 25.7116 0.0000
# 6 0.0000 0.0000 0.0000 0.3575 0.0000 20.5426
#
#
#
# Elastic Compliance Matrix: (Units=1/GPa)
#
#
# Indices 1 2 3 4 5 6 
#
# 1 0.021407 -0.013772 -0.001526 0.000000 0.005278 0.000000
# 2 -0.013772 0.070054 -0.015766 0.000000 0.000401 0.000000
# 3 -0.001526 -0.015766 0.013512 0.000000 0.004851 0.000000
# 4 0.000000 0.000000 0.000000 0.035400 0.000000 -0.000616
# 5 0.005278 0.000401 0.004851 0.000000 0.044882 0.000000
# 6 0.000000 0.000000 0.000000 -0.000616 0.000000 0.048690
#
#
# Mechanical properties :
#
#
# Convention : Reuss Voigt Hill
#
# Bulk Modulus (GPa) = 23.34084 45.07906 34.20995
# Shear Modulus (GPa) = 16.11054 23.25871 19.68463
#
# Velocity S-wave (km/s) = 2.93262 3.52366 3.24164
# Velocity P-wave (km/s) = 4.89153 6.37334 5.68096
#
# Compressibility (1/GPa) = 0.04284336
#
# Stress axis : x y z
#
# Youngs Moduli (GPa) = 46.71358 14.27475 74.00912
#
# Poissons Ratio (x) = 0.19660 0.11295
# Poissons Ratio (y) = 0.64335 1.16685
# Poissons Ratio (z) = 0.07129 0.22506
#
# Static dielectric constant tensor:
#      x y z
#    x 1.652730 0.000000 -0.009250 
#    y 0.000000 1.634410 0.000000 
#    z -0.009250 0.000000 1.659500 
# 
# From -- ./inp_files/295724.got.cif
#   From: 2010.05.17/outbox.cif.g08.bks.cpg/sg12_148_cif.got.tgz:295724.got - 2010.06.03 13:09:07.
