data_PCOD9179473
_publ_section_title
;
Structure prediction by ZEFSAII (Michael W. Deem and Ramdas Pophale) SiO2 
 PCOD9179473
Probable space group: C 2/M
;
_chemical_formula_sum "Si O2"
_cell_formula_units_Z 40
_cell_length_a 27.699805
_cell_length_b 13.656737
_cell_length_c 9.333212
_cell_angle_alpha 90.000000
_cell_angle_beta 136.064101
_cell_angle_gamma 90.000000
_cell_volume 2449.753334
_symmetry_space_group_name_H-M "C 2/M"
_symmetry_group_IT_number 12
_symmetry_cell_setting 'monoclinic'
loop_
_space_group_symop_operation_xyz
x,y,z
-x,y,-z
-x,-y,-z
x,-y,z
1/2+x,1/2+y,z
1/2-x,1/2+y,-z
1/2-x,1/2-y,-z
1/2+x,1/2-y,z
loop_
_atom_site_type_symbol
_atom_site_label
_atom_site_fract_x
_atom_site_fract_y
_atom_site_fract_z
Si Si1 0.568673 0.705441 0.552428
Si Si2 0.699459 0.262701 0.524861
Si Si3 0.843644 0.615010 0.339189
Si Si4 0.567656 0.614404 0.240247
Si Si5 0.285176 0.615803 0.153142
O O1 0.500000 0.697716 0.500000
O O2 0.592246 0.817507 0.575107
O O3 0.553236 0.652313 0.369217
O O4 0.641492 0.654089 0.756206
O O5 0.750000 0.250000 0.500000
O O6 0.678905 0.160320 0.556135
O O7 0.631311 0.319488 0.324257
O O8 0.724548 0.327693 0.716151
O O9 0.858470 0.500000 0.376767
O O10 0.779238 0.631277 0.091582
O O11 0.586836 0.500000 0.283552
O O12 0.500000 0.626401 0.000000
O O13 0.291053 0.500000 0.192178
#
# Coordination Sequence:
#
# PCOD9179473 Si02
#       5
#     8   8   8   8   8
#     4  10  19  31  50  73  98 124 158 200 240 283
#     4  10  19  31  50  74 101 127 160 201 242 287
#     4   9  19  35  52  70  97 131 164 198 237 287
#     4   9  19  34  49  69  99 129 156 193 243 292
#     4   9  18  34  52  72  99 127 159 201 246 289
#
# _framework density 16.328175000000002
#
# number of rings (size 3 to 8) (size 9 to 14) (size 15 to 20)
#    0.000    3.000    0.000    4.800    0.000    6.800 
#    0.000    4.000    0.000    9.600    0.000    0.000 
#    0.000    0.000    0.000    0.000    0.000    0.000 
#
# Total GULP energy -111371.735450 kJ/mol
# GULP energy per Si atom -5568.586772 kJ/mol
# Density = 1.629101 g / cm^3
# Si number density = 16.328175 Si / 1000 Ang^3
#
#
#
# Elastic Constant Matrix: (Units=GPa)
#
#
# Indices 1 2 3 4 5 6 
#
# 1 140.5207 25.1882 20.6773 0.0000 7.3748 0.0000
# 2 25.1882 99.1785 29.3308 0.0000 4.3674 0.0000
# 3 20.6773 29.3308 67.7030 0.0000 13.3256 0.0000
# 4 0.0000 0.0000 0.0000 30.8563 0.0000 4.5028
# 5 7.3748 4.3674 13.3256 0.0000 5.7549 0.0000
# 6 0.0000 0.0000 0.0000 4.5028 0.0000 4.3066
#
#
#
# Elastic Compliance Matrix: (Units=1/GPa)
#
#
# Indices 1 2 3 4 5 6 
#
# 1 0.007870 -0.001624 0.000078 0.000000 -0.009033 0.000000
# 2 -0.001624 0.011985 -0.006092 0.000000 0.007092 0.000000
# 3 0.000078 -0.006092 0.030309 0.000000 -0.065656 0.000000
# 4 0.000000 0.000000 0.000000 0.038243 0.000000 -0.039986
# 5 -0.009033 0.007092 -0.065656 0.000000 0.331985 0.000000
# 6 0.000000 0.000000 0.000000 -0.039986 0.000000 0.274009
#
#
# Mechanical properties :
#
#
# Convention : Reuss Voigt Hill
#
# Bulk Modulus (GPa) = 28.66382 50.86609 39.76495
# Shear Modulus (GPa) = 6.93187 23.66396 15.29792
#
# Velocity S-wave (km/s) = 2.06266 3.81106 3.06421
# Velocity P-wave (km/s) = 4.82345 7.11235 6.07664
#
# Compressibility (1/GPa) = 0.03488719
#
# Stress axis : x y z
#
# Youngs Moduli (GPa) = 127.06292 83.44035 32.99394
#
# Poissons Ratio (x) = 0.13551 -0.00257
# Poissons Ratio (y) = 0.20635 0.20100
# Poissons Ratio (z) = -0.00990 0.50832
#
# Static dielectric constant tensor:
#      x y z
#    x 1.495430 0.000000 0.014740 
#    y 0.000000 1.568530 0.000000 
#    z 0.014740 0.000000 1.556640 
# 
# From -- ./inp_files/103775.got.cif
#   From: 2010.05.17/outbox.cif.g08.bks.cpg/sg12_52_cif.got.tgz:103775.got - 2010.06.03 13:09:07.
