data_PCOD9179396
_publ_section_title
;
Structure prediction by ZEFSAII (Michael W. Deem and Ramdas Pophale) SiO2 
 PCOD9179396
Probable space group: C 2/M
;
_chemical_formula_sum "Si O2"
_cell_formula_units_Z 64
_cell_length_a 29.732377
_cell_length_b 8.545332
_cell_length_c 14.644937
_cell_angle_alpha 90.000000
_cell_angle_beta 120.588682
_cell_angle_gamma 90.000000
_cell_volume 3203.094942
_symmetry_space_group_name_H-M "C 2/M"
_symmetry_group_IT_number 12
_symmetry_cell_setting 'monoclinic'
loop_
_space_group_symop_operation_xyz
x,y,z
-x,y,-z
-x,-y,-z
x,-y,z
1/2+x,1/2+y,z
1/2-x,1/2+y,-z
1/2-x,1/2-y,-z
1/2+x,1/2-y,z
loop_
_atom_site_type_symbol
_atom_site_label
_atom_site_fract_x
_atom_site_fract_y
_atom_site_fract_z
Si Si1 0.049988 0.191116 0.609426
Si Si2 0.804732 0.178971 0.029370
Si Si3 0.737313 0.681226 0.209253
Si Si4 0.555858 0.690875 0.017962
Si Si5 0.840304 0.185708 0.365202
Si Si6 0.851129 0.810178 0.750344
Si Si7 0.306932 0.185883 0.528204
Si Si8 0.080852 0.808023 0.837766
O O1 0.104791 0.241430 0.620052
O O2 0.048640 0.237595 0.714754
O O3 0.000000 0.243866 0.500000
O O4 0.050125 0.000000 0.608366
O O5 0.801909 0.182945 0.916514
O O6 0.804518 0.000000 0.060139
O O7 0.750000 0.250000 0.000000
O O8 0.859614 0.249178 0.115775
O O9 0.751778 0.500000 0.239736
O O10 0.790670 0.773598 0.250209
O O11 0.703211 0.740261 0.258292
O O12 0.557401 0.500000 0.018119
O O13 0.601537 0.739916 0.135103
O O14 0.500000 0.738744 0.000000
O O15 0.563028 0.742292 0.920211
O O16 0.824892 0.257210 0.447080
O O17 0.843819 0.000000 0.378930
O O18 0.848817 0.744373 0.646435
O O19 0.851177 0.000000 0.747313
O O20 0.250000 0.250000 0.500000
O O21 0.303628 0.000000 0.524890
O O22 0.082161 0.000000 0.841469
#
# Coordination Sequence:
#
# PCOD9179396 Si02
#       8
#     8   8   8   8   8   8   8   8
#     4   9  19  34  53  80 115 150 187 236 286 329
#     4  10  19  31  49  76 108 146 184 227 279 333
#     4  10  19  32  52  76 111 149 184 232 289 344
#     4   9  17  30  53  85 116 149 189 232 282 337
#     4  11  22  36  57  86 115 148 192 239 288 347
#     4  10  19  34  55  82 113 148 189 236 285 340
#     4  12  24  38  57  83 115 154 193 236 291 349
#     4   9  16  30  50  74 109 146 179 222 274 326
#
# _framework density 19.980675000000002
#
# number of rings (size 3 to 8) (size 9 to 14) (size 15 to 20)
#    0.000    2.000    2.500    2.250    0.000    2.500 
#    0.000    3.750    0.000    1.875    0.000    3.500 
#    0.000    0.000    0.000    0.000    0.000    0.000 
#
# Total GULP energy -178533.952470 kJ/mol
# GULP energy per Si atom -5579.186015 kJ/mol
# Density = 1.993520 g / cm^3
# Si number density = 19.980675 Si / 1000 Ang^3
#
#
#
# Elastic Constant Matrix: (Units=GPa)
#
#
# Indices 1 2 3 4 5 6 
#
# 1 99.2241 16.7987 60.9818 0.0000 9.8410 0.0000
# 2 16.7987 22.0253 15.3316 0.0000 2.9901 0.0000
# 3 60.9818 15.3316 155.1186 0.0000 11.0920 0.0000
# 4 0.0000 0.0000 0.0000 17.7010 0.0000 -0.0219
# 5 9.8410 2.9901 11.0920 0.0000 29.8361 0.0000
# 6 0.0000 0.0000 0.0000 -0.0219 0.0000 16.8972
#
#
#
# Elastic Compliance Matrix: (Units=1/GPa)
#
#
# Indices 1 2 3 4 5 6 
#
# 1 0.014515 -0.007415 -0.004812 0.000000 -0.002255 0.000000
# 2 -0.007415 0.052840 -0.002161 0.000000 -0.002046 0.000000
# 3 -0.004812 -0.002161 0.008653 0.000000 -0.001413 0.000000
# 4 0.000000 0.000000 0.000000 0.056494 0.000000 0.000073
# 5 -0.002255 -0.002046 -0.001413 0.000000 0.034991 0.000000
# 6 0.000000 0.000000 0.000000 0.000073 0.000000 0.059182
#
#
# Mechanical properties :
#
#
# Convention : Reuss Voigt Hill
#
# Bulk Modulus (GPa) = 21.17224 51.39914 36.28569
# Shear Modulus (GPa) = 18.43701 25.10391 21.77046
#
# Velocity S-wave (km/s) = 3.04096 3.54843 3.30445
# Velocity P-wave (km/s) = 4.79054 6.52447 5.72355
#
# Compressibility (1/GPa) = 0.04723165
#
# Stress axis : x y z
#
# Youngs Moduli (GPa) = 68.89631 18.92515 115.56558
#
# Poissons Ratio (x) = 0.14032 0.55610
# Poissons Ratio (y) = 0.51083 0.24978
# Poissons Ratio (z) = 0.33153 0.04090
#
# Static dielectric constant tensor:
#      x y z
#    x 1.713450 0.000000 -0.016740 
#    y 0.000000 1.699080 0.000000 
#    z -0.016740 0.000000 1.746690 
# 
# From -- ./inp_files/249205.got.cif
#   From: 2010.05.17/outbox.cif.g08.bks.cpg/sg12_125_cif.got.tgz:249205.got - 2010.06.03 13:09:07.
