data_PCOD9179960
_publ_section_title
;
Structure prediction by ZEFSAII (Michael W. Deem and Ramdas Pophale) SiO2 
 PCOD9179960
Probable space group: C 2/M
;
_chemical_formula_sum "Si O2"
_cell_formula_units_Z 48
_cell_length_a 14.000649
_cell_length_b 19.226552
_cell_length_c 8.969576
_cell_angle_alpha 90.000000
_cell_angle_beta 73.012538
_cell_angle_gamma 90.000000
_cell_volume 2309.121838
_symmetry_space_group_name_H-M "C 2/M"
_symmetry_group_IT_number 12
_symmetry_cell_setting 'monoclinic'
loop_
_space_group_symop_operation_xyz
x,y,z
-x,y,-z
-x,-y,-z
x,-y,z
1/2+x,1/2+y,z
1/2-x,1/2+y,-z
1/2-x,1/2-y,-z
1/2+x,1/2-y,z
loop_
_atom_site_type_symbol
_atom_site_label
_atom_site_fract_x
_atom_site_fract_y
_atom_site_fract_z
Si Si1 0.005943 0.582963 0.162622
Si Si2 0.704378 0.844222 0.079947
Si Si3 0.255900 0.713734 0.747637
Si Si4 0.316601 0.334539 0.414417
Si Si5 0.112439 0.582782 0.511145
Si Si6 0.103500 0.917738 0.867646
O O1 0.010852 0.500000 0.156611
O O2 0.910337 0.599042 0.305046
O O3 0.112145 0.608757 0.172198
O O4 0.000000 0.611586 0.000000
O O5 0.709426 0.833486 0.899023
O O6 0.689911 0.771040 0.171835
O O7 0.807802 0.878959 0.084277
O O8 0.322096 0.676882 0.589527
O O9 0.183601 0.761237 0.675292
O O10 0.208662 0.371262 0.430605
O O11 0.395602 0.384054 0.297467
O O12 0.132648 0.500000 0.479795
O O13 0.000000 0.595672 0.500000
O O14 0.123416 0.000000 0.851180
O O15 0.000000 0.906523 0.000000
#
# Coordination Sequence:
#
# PCOD9179960 Si02
#       6
#     8   8   8   8   8   8
#     4  10  20  33  54  85 113 138 171 211 268 338
#     4  10  19  38  57  79 116 147 178 227 270 320
#     4   9  20  35  55  79 108 147 187 218 265 333
#     4  10  19  37  55  77 112 143 179 233 275 318
#     4  10  19  31  52  82 109 137 173 214 274 341
#     4  10  21  38  60  80 101 142 194 237 282 325
#
# _framework density 20.787123999999999
#
# number of rings (size 3 to 8) (size 9 to 14) (size 15 to 20)
#    0.000    2.167    0.000    4.000    0.000    1.333 
#    0.000   32.500    0.000    2.000    0.000    0.000 
#    0.000    0.000    0.000    0.000    0.000    0.000 
#
# Total GULP energy -133751.345090 kJ/mol
# GULP energy per Si atom -5572.972712 kJ/mol
# Density = 2.073981 g / cm^3
# Si number density = 20.787124 Si / 1000 Ang^3
#
#
#
# Elastic Constant Matrix: (Units=GPa)
#
#
# Indices 1 2 3 4 5 6 
#
# 1 44.9828 23.0970 23.5471 0.0000 -8.6513 0.0000
# 2 23.0970 63.9310 53.2402 0.0000 -16.0443 0.0000
# 3 23.5471 53.2402 168.7251 0.0000 -6.1576 0.0000
# 4 0.0000 0.0000 0.0000 35.7371 0.0000 -0.1882
# 5 -8.6513 -16.0443 -6.1576 0.0000 32.9235 0.0000
# 6 0.0000 0.0000 0.0000 -0.1882 0.0000 -5.2117
#
#
#
# Elastic Compliance Matrix: (Units=1/GPa)
#
#
# Indices 1 2 3 4 5 6 
#
# 1 0.027662 -0.008293 -0.001134 0.000000 0.003015 0.000000
# 2 -0.008293 0.026847 -0.006964 0.000000 0.009601 0.000000
# 3 -0.001134 -0.006964 0.008204 0.000000 -0.002157 0.000000
# 4 0.000000 0.000000 0.000000 0.027977 0.000000 -0.001011
# 5 0.003015 0.009601 -0.002157 0.000000 0.035441 0.000000
# 6 0.000000 0.000000 0.000000 -0.001011 0.000000 -0.191839
#
#
# Mechanical properties :
#
#
# Convention : Reuss Voigt Hill
#
# Bulk Modulus (GPa) = 33.40893 53.04528 43.22711
# Shear Modulus (GPa) = -217.85971 24.54009 -96.65981
#
# Velocity S-wave (km/s) = -10.24854 3.43963 -6.82648
# Velocity P-wave (km/s) = 11.13269 6.43028 6.42605
#
# Compressibility (1/GPa) = 0.02993211
#
# Stress axis : x y z
#
# Youngs Moduli (GPa) = 36.15043 37.24865 121.89784
#
# Poissons Ratio (x) = 0.30890 0.13819
# Poissons Ratio (y) = 0.29979 0.84884
# Poissons Ratio (z) = 0.04098 0.25938
#
# Static dielectric constant tensor:
#      x y z
#    x 1.744460 0.000000 0.062830 
#    y 0.000000 1.742070 0.000000 
#    z 0.062830 0.000000 1.848120 
# 
# From -- ./inp_files/64714.got.cif
#   From: 2010.05.17/outbox.cif.g08.bks.cpg/sg12_33_cif.got.tgz:64714.got - 2010.06.03 13:09:07.
