data_PCOD9179583
_publ_section_title
;
Structure prediction by ZEFSAII (Michael W. Deem and Ramdas Pophale) SiO2 
 PCOD9179583
Probable space group: C 2/M
;
_chemical_formula_sum "Si O2"
_cell_formula_units_Z 52
_cell_length_a 5.288295
_cell_length_b 14.907401
_cell_length_c 28.692077
_cell_angle_alpha 90.000000
_cell_angle_beta 108.450364
_cell_angle_gamma 90.000000
_cell_volume 2145.664837
_symmetry_space_group_name_H-M "C 2/M"
_symmetry_group_IT_number 12
_symmetry_cell_setting 'monoclinic'
loop_
_space_group_symop_operation_xyz
x,y,z
-x,y,-z
-x,-y,-z
x,-y,z
1/2+x,1/2+y,z
1/2-x,1/2+y,-z
1/2-x,1/2-y,-z
1/2+x,1/2-y,z
loop_
_atom_site_type_symbol
_atom_site_label
_atom_site_fract_x
_atom_site_fract_y
_atom_site_fract_z
Si Si1 0.556447 0.109323 0.642344
Si Si2 0.566231 0.609136 0.866109
Si Si3 0.532306 0.109434 0.191828
Si Si4 0.213136 0.148848 0.978508
Si Si5 0.340460 0.390732 0.301823
Si Si6 0.723401 0.099285 0.553962
Si Si7 0.000000 0.190633 0.500000
O O1 0.314483 0.141740 0.660707
O O2 0.598316 0.145715 0.591844
O O3 0.845925 0.130183 0.681630
O O4 0.524797 0.000000 0.639076
O O5 0.569455 0.500000 0.870292
O O6 0.275168 0.636051 0.830462
O O7 0.618242 0.648428 0.920048
O O8 0.795786 0.635573 0.843223
O O9 0.678926 0.140752 0.247202
O O10 0.534904 0.000000 0.193470
O O11 0.500000 0.104719 0.000000
O O12 0.250000 0.250000 0.000000
O O13 0.000000 0.104997 0.000000
O O14 0.328445 0.500000 0.301405
O O15 0.500000 0.093570 0.500000
O O16 0.996778 0.130285 0.545612
O O17 0.786310 0.000000 0.573764
O O18 0.750000 0.250000 0.500000
#
# Coordination Sequence:
#
# PCOD9179583 Si02
#       7
#     8   8   8   8   8   8   4
#     4   9  18  29  48  77 111 147 184 225 283 343
#     4  10  19  31  50  76 105 142 178 214 266 324
#     4   9  17  29  47  73 110 143 174 219 273 328
#     4  10  21  36  52  72 105 134 175 214 255 308
#     4   9  16  28  45  72 111 146 173 221 281 334
#     4  10  22  39  61  88 123 161 202 254 306 361
#     4  12  25  42  59  82 120 152 210 250 297 360
#
# _framework density 24.234912999999999
#
# number of rings (size 3 to 8) (size 9 to 14) (size 15 to 20)
#    0.000    2.308    0.769    2.077    2.154    4.308 
#    0.000    0.000    0.000    0.000    0.000    0.000 
#   92.308    0.000    0.000    0.000    0.000    0.000 
#
# Total GULP energy -145243.425967 kJ/mol
# GULP energy per Si atom -5586.285614 kJ/mol
# Density = 2.417975 g / cm^3
# Si number density = 24.234913 Si / 1000 Ang^3
#
#
#
# Elastic Constant Matrix: (Units=GPa)
#
#
# Indices 1 2 3 4 5 6 
#
# 1 124.4231 -2.3635 -13.2229 0.0000 -14.8237 0.0000
# 2 -2.3635 51.1857 -5.2696 0.0000 -5.9767 0.0000
# 3 -13.2229 -5.2696 96.9824 0.0000 -3.0908 0.0000
# 4 0.0000 0.0000 0.0000 46.1879 0.0000 -5.8816
# 5 -14.8237 -5.9767 -3.0908 0.0000 45.4701 0.0000
# 6 0.0000 0.0000 0.0000 -5.8816 0.0000 0.9164
#
#
#
# Elastic Compliance Matrix: (Units=1/GPa)
#
#
# Indices 1 2 3 4 5 6 
#
# 1 0.008549 0.000879 0.001309 0.000000 0.002992 0.000000
# 2 0.000879 0.020063 0.001306 0.000000 0.003012 0.000000
# 3 0.001309 0.001306 0.010603 0.000000 0.001319 0.000000
# 4 0.000000 0.000000 0.000000 0.118496 0.000000 0.760526
# 5 0.002992 0.003012 0.001319 0.000000 0.023453 0.000000
# 6 0.000000 0.000000 0.000000 0.760526 0.000000 5.972401
#
#
# Mechanical properties :
#
#
# Convention : Reuss Voigt Hill
#
# Bulk Modulus (GPa) = 21.64391 25.65327 23.64859
# Shear Modulus (GPa) = 0.81143 38.07804 19.44473
#
# Velocity S-wave (km/s) = 0.57926 3.96814 2.83564
# Velocity P-wave (km/s) = 3.06556 5.62167 4.52774
#
# Compressibility (1/GPa) = 0.04620238
#
# Stress axis : x y z
#
# Youngs Moduli (GPa) = 116.96882 49.84183 94.31667
#
# Poissons Ratio (x) = -0.04380 -0.12343
# Poissons Ratio (y) = -0.10279 -0.12318
# Poissons Ratio (z) = -0.15308 -0.06509
#
# Static dielectric constant tensor:
#      x y z
#    x -1.544120 0.000000 4.440840 
#    y 0.000000 2.150860 0.000000 
#    z 4.440840 0.000000 -3.706510 
# 
# From -- ./inp_files/331210.got.cif
#   From: 2010.05.17/outbox.cif.g08.bks.cpg/sg12_166_cif.got.tgz:331210.got - 2010.06.03 13:09:07.
