data_PCOD9179118
_publ_section_title
;
Structure prediction by ZEFSAII (Michael W. Deem and Ramdas Pophale) SiO2 
 PCOD9179118
Probable space group: C 2/M
;
_chemical_formula_sum "Si O2"
_cell_formula_units_Z 64
_cell_length_a 25.819215
_cell_length_b 8.838144
_cell_length_c 17.877641
_cell_angle_alpha 90.000000
_cell_angle_beta 78.206473
_cell_angle_gamma 90.000000
_cell_volume 3993.451612
_symmetry_space_group_name_H-M "C 2/M"
_symmetry_group_IT_number 12
_symmetry_cell_setting 'monoclinic'
loop_
_space_group_symop_operation_xyz
x,y,z
-x,y,-z
-x,-y,-z
x,-y,z
1/2+x,1/2+y,z
1/2-x,1/2+y,-z
1/2-x,1/2-y,-z
1/2+x,1/2-y,z
loop_
_atom_site_type_symbol
_atom_site_label
_atom_site_fract_x
_atom_site_fract_y
_atom_site_fract_z
Si Si1 0.211071 0.818872 0.669396
Si Si2 0.099938 0.681777 0.305637
Si Si3 0.009092 0.317835 0.583238
Si Si4 0.156236 0.819185 0.151731
Si Si5 0.307055 0.181293 0.004226
Si Si6 0.177794 0.818426 0.406978
Si Si7 0.275784 0.180776 0.173719
Si Si8 0.621801 0.681682 0.580231
O O1 0.263141 0.744431 0.617995
O O2 0.209111 0.766722 0.755813
O O3 0.159359 0.772833 0.637790
O O4 0.216208 0.000000 0.663626
O O5 0.104029 0.500000 0.303593
O O6 0.114289 0.747967 0.220642
O O7 0.142300 0.747965 0.351773
O O8 0.041825 0.724815 0.352556
O O9 0.012252 0.500000 0.581355
O O10 0.063970 0.253232 0.596939
O O11 0.000000 0.266889 0.500000
O O12 0.214897 0.783590 0.168391
O O13 0.151796 0.000000 0.150360
O O14 0.154265 0.751481 0.068803
O O15 0.312230 0.216200 0.090813
O O16 0.305463 0.000000 0.996989
O O17 0.250000 0.250000 0.000000
O O18 0.151501 0.777970 0.494047
O O19 0.178454 0.000000 0.399090
O O20 0.277775 0.000000 0.186171
O O21 0.616567 0.500000 0.582939
#
# Coordination Sequence:
#
# PCOD9179118 Si02
#       8
#     8   8   8   8   8   8   8   8
#     4  11  22  34  50  74 103 136 175 211 249 301
#     4  11  21  33  52  76 102 132 169 211 256 303
#     4  10  21  37  55  76  98 127 171 217 260 304
#     4  10  19  31  48  73 104 133 169 205 248 305
#     4   9  17  29  46  69 100 134 169 204 247 300
#     4  11  21  34  51  72 101 135 172 210 255 303
#     4   9  18  31  47  71 102 135 169 202 245 302
#     4  10  23  38  52  73  99 134 176 215 256 302
#
# _framework density 16.026236999999998
#
# number of rings (size 3 to 8) (size 9 to 14) (size 15 to 20)
#    0.000    1.875    2.500    3.000    0.000    5.250 
#    0.000    0.000    0.000    0.000    0.000    0.875 
#    0.000    7.000    0.000    0.000    0.000    0.000 
#
# Total GULP energy -178564.946740 kJ/mol
# GULP energy per Si atom -5580.154586 kJ/mol
# Density = 1.598976 g / cm^3
# Si number density = 16.026237 Si / 1000 Ang^3
#
#
#
# Elastic Constant Matrix: (Units=GPa)
#
#
# Indices 1 2 3 4 5 6 
#
# 1 105.1272 32.7175 51.7240 0.0000 -11.4311 0.0000
# 2 32.7175 41.5371 41.7271 0.0000 -9.1516 0.0000
# 3 51.7240 41.7271 111.2657 0.0000 -28.0524 0.0000
# 4 0.0000 0.0000 0.0000 27.0915 0.0000 -2.0122
# 5 -11.4311 -9.1516 -28.0524 0.0000 16.1745 0.0000
# 6 0.0000 0.0000 0.0000 -2.0122 0.0000 24.7139
#
#
#
# Elastic Compliance Matrix: (Units=1/GPa)
#
#
# Indices 1 2 3 4 5 6 
#
# 1 0.013488 -0.006868 -0.004035 0.000000 -0.001352 0.000000
# 2 -0.006868 0.042434 -0.014023 0.000000 -0.005166 0.000000
# 3 -0.004035 -0.014023 0.023818 0.000000 0.030522 0.000000
# 4 0.000000 0.000000 0.000000 0.037136 0.000000 0.003024
# 5 -0.001352 -0.005166 0.030522 0.000000 0.110883 0.000000
# 6 0.000000 0.000000 0.000000 0.003024 0.000000 0.040709
#
#
# Mechanical properties :
#
#
# Convention : Reuss Voigt Hill
#
# Bulk Modulus (GPa) = 33.46073 56.69634 45.07853
# Shear Modulus (GPa) = 15.23064 22.38008 18.80536
#
# Velocity S-wave (km/s) = 3.08613 3.74098 3.42922
# Velocity P-wave (km/s) = 5.79853 7.35622 6.62333
#
# Compressibility (1/GPa) = 0.02988578
#
# Stress axis : x y z
#
# Youngs Moduli (GPa) = 74.13833 23.56594 41.98536
#
# Poissons Ratio (x) = 0.16186 0.16943
# Poissons Ratio (y) = 0.50921 0.58878
# Poissons Ratio (z) = 0.29919 0.33047
#
# Static dielectric constant tensor:
#      x y z
#    x 1.507290 0.000000 -0.015330 
#    y 0.000000 1.535190 0.000000 
#    z -0.015330 0.000000 1.563290 
# 
# From -- ./inp_files/287604.got.cif
#   From: 2010.05.17/outbox.cif.g08.bks.cpg/sg12_144_cif.got.tgz:287604.got - 2010.06.03 13:09:07.
