data_PCOD9179509
_publ_section_title
;
Structure prediction by ZEFSAII (Michael W. Deem and Ramdas Pophale) SiO2 
 PCOD9179509
Probable space group: C 2/M
;
_chemical_formula_sum "Si O2"
_cell_formula_units_Z 48
_cell_length_a 8.904350
_cell_length_b 19.848322
_cell_length_c 12.540979
_cell_angle_alpha 90.000000
_cell_angle_beta 75.791606
_cell_angle_gamma 90.000000
_cell_volume 2148.645098
_symmetry_space_group_name_H-M "C 2/M"
_symmetry_group_IT_number 12
_symmetry_cell_setting 'monoclinic'
loop_
_space_group_symop_operation_xyz
x,y,z
-x,y,-z
-x,-y,-z
x,-y,z
1/2+x,1/2+y,z
1/2-x,1/2+y,-z
1/2-x,1/2-y,-z
1/2+x,1/2-y,z
loop_
_atom_site_type_symbol
_atom_site_label
_atom_site_fract_x
_atom_site_fract_y
_atom_site_fract_z
Si Si1 0.326610 0.925848 0.490916
Si Si2 0.350217 0.078441 0.099790
Si Si3 0.016361 0.077985 0.625901
Si Si4 0.912002 0.668676 0.295960
Si Si5 0.927344 0.161560 0.846659
Si Si6 0.747966 0.213998 0.210607
O O1 0.500000 0.927636 0.500000
O O2 0.201976 0.917325 0.604948
O O3 0.323736 0.866751 0.407003
O O4 0.294001 0.000000 0.447746
O O5 0.389296 0.121273 0.197760
O O6 0.192363 0.109618 0.079172
O O7 0.328820 0.000000 0.127414
O O8 0.500000 0.085881 0.000000
O O9 0.000000 0.089778 0.500000
O O10 0.946441 0.129694 0.722949
O O11 0.972079 0.000000 0.655967
O O12 0.096392 0.676253 0.280772
O O13 0.832622 0.739933 0.284710
O O14 0.833746 0.232364 0.855752
O O15 0.102335 0.172999 0.858394
#
# Coordination Sequence:
#
# PCOD9179509 Si02
#       6
#     8   8   8   8   8   8
#     4  10  20  33  52  79 108 143 187 227 271 325
#     4  10  21  38  62  87 107 136 177 220 276 333
#     4  10  19  31  50  74  99 136 182 222 269 321
#     4  10  19  38  56  78 115 147 179 231 270 311
#     4  10  19  37  54  76 110 140 175 227 265 311
#     4   9  20  35  55  78 107 147 187 215 264 327
#
# _framework density 22.339659999999999
#
# number of rings (size 3 to 8) (size 9 to 14) (size 15 to 20)
#    0.000    2.167    0.000    4.000    0.000    1.333 
#    0.000   33.333    0.000    2.000    0.000    0.000 
#    0.000    0.000    0.000    0.000    0.000    0.000 
#
# Total GULP energy -133881.727601 kJ/mol
# GULP energy per Si atom -5578.405317 kJ/mol
# Density = 2.228881 g / cm^3
# Si number density = 22.339660 Si / 1000 Ang^3
#
#
#
# Elastic Constant Matrix: (Units=GPa)
#
#
# Indices 1 2 3 4 5 6 
#
# 1 169.1491 42.5238 32.7624 0.0000 -41.2797 0.0000
# 2 42.5238 92.8934 32.1535 0.0000 -16.5284 0.0000
# 3 32.7624 32.1535 48.8736 0.0000 -21.9335 0.0000
# 4 0.0000 0.0000 0.0000 29.1409 0.0000 -16.4662
# 5 -41.2797 -16.5284 -21.9335 0.0000 38.6169 0.0000
# 6 0.0000 0.0000 0.0000 -16.4662 0.0000 37.2286
#
#
#
# Elastic Compliance Matrix: (Units=1/GPa)
#
#
# Indices 1 2 3 4 5 6 
#
# 1 0.008505 -0.002261 -0.000762 0.000000 0.007691 0.000000
# 2 -0.002261 0.014570 -0.008530 0.000000 -0.001026 0.000000
# 3 -0.000762 -0.008530 0.032988 0.000000 0.014271 0.000000
# 4 0.000000 0.000000 0.000000 0.045750 0.000000 0.020235
# 5 0.007691 -0.001026 0.014271 0.000000 0.041783 0.000000
# 6 0.000000 0.000000 0.000000 0.020235 0.000000 0.035811
#
#
# Mechanical properties :
#
#
# Convention : Reuss Voigt Hill
#
# Bulk Modulus (GPa) = 30.34332 58.42171 44.38251
# Shear Modulus (GPa) = 23.41922 34.56237 28.99080
#
# Velocity S-wave (km/s) = 3.24130 3.93763 3.60631
# Velocity P-wave (km/s) = 5.25549 6.84701 6.10335
#
# Compressibility (1/GPa) = 0.03295619
#
# Stress axis : x y z
#
# Youngs Moduli (GPa) = 117.58002 68.63349 30.31369
#
# Poissons Ratio (x) = 0.15518 0.02311
# Poissons Ratio (y) = 0.26585 0.25858
# Poissons Ratio (z) = 0.08964 0.58546
#
# Static dielectric constant tensor:
#      x y z
#    x 1.940370 0.000000 0.014190 
#    y 0.000000 1.837170 0.000000 
#    z 0.014190 0.000000 1.823630 
# 
# From -- ./inp_files/196517.got.cif
#   From: 2010.05.17/outbox.cif.g08.bks.cpg/sg12_99_cif.got.tgz:196517.got - 2010.06.03 13:09:07.
