data_PCOD9179360
_publ_section_title
;
Structure prediction by ZEFSAII (Michael W. Deem and Ramdas Pophale) SiO2 
 PCOD9179360
Probable space group: C 2/M
;
_chemical_formula_sum "Si O2"
_cell_formula_units_Z 40
_cell_length_a 18.628545
_cell_length_b 13.809389
_cell_length_c 13.294166
_cell_angle_alpha 90.000000
_cell_angle_beta 151.535161
_cell_angle_gamma 90.000000
_cell_volume 1629.994644
_symmetry_space_group_name_H-M "C 2/M"
_symmetry_group_IT_number 12
_symmetry_cell_setting 'monoclinic'
loop_
_space_group_symop_operation_xyz
x,y,z
-x,y,-z
-x,-y,-z
x,-y,z
1/2+x,1/2+y,z
1/2-x,1/2+y,-z
1/2-x,1/2-y,-z
1/2+x,1/2-y,z
loop_
_atom_site_type_symbol
_atom_site_label
_atom_site_fract_x
_atom_site_fract_y
_atom_site_fract_z
Si Si1 0.487836 0.107071 0.819898
Si Si2 0.144403 0.309475 0.611399
Si Si3 0.734033 0.500000 0.318105
Si Si4 0.738034 0.394256 0.680111
Si Si5 0.372011 0.706928 0.073093
Si Si6 0.461264 0.500000 0.130999
O O1 0.338607 0.112674 0.703617
O O2 0.492997 0.000000 0.777149
O O3 0.633918 0.106298 0.074558
O O4 0.507009 0.207522 0.785651
O O5 0.179357 0.397786 0.580053
O O6 0.132855 0.199035 0.559642
O O7 0.286608 0.302125 0.861286
O O8 0.000000 0.335410 0.500000
O O9 0.623519 0.500000 0.277143
O O10 0.645134 0.500000 0.100579
O O11 0.663850 0.500000 0.593078
O O12 0.250000 0.750000 0.000000
O O13 0.431237 0.597504 0.157520
#
# Coordination Sequence:
#
# PCOD9179360 Si02
#       6
#     8   8   4   8   8   4
#     4   8  14  26  46  68  91 122 158 201 234 272
#     4  10  19  31  49  75 100 128 158 202 249 288
#     4   9  17  32  54  74  95 121 171 213 238 276
#     4   8  14  26  45  69  93 120 161 197 232 275
#     4  10  20  31  48  74 101 127 158 198 250 293
#     4   9  18  32  52  76  95 125 167 209 239 278
#
# _framework density 24.539959
#
# number of rings (size 3 to 8) (size 9 to 14) (size 15 to 20)
#    0.000    3.000    0.000    2.700    1.400    5.200 
#    0.000    0.000    0.000    4.800    0.000    0.000 
#    0.000    0.000    0.000    0.000    0.000    0.000 
#
# Total GULP energy -111764.461070 kJ/mol
# GULP energy per Si atom -5588.223054 kJ/mol
# Density = 2.448410 g / cm^3
# Si number density = 24.539959 Si / 1000 Ang^3
#
#
#
# Elastic Constant Matrix: (Units=GPa)
#
#
# Indices 1 2 3 4 5 6 
#
# 1 60.1598 104.0227 11.4602 0.0000 12.2221 0.0000
# 2 104.0227 301.9385 49.5038 0.0000 22.6780 0.0000
# 3 11.4602 49.5038 50.5836 0.0000 -16.7898 0.0000
# 4 0.0000 0.0000 0.0000 88.8516 0.0000 34.9360
# 5 12.2221 22.6780 -16.7898 0.0000 38.1953 0.0000
# 6 0.0000 0.0000 0.0000 34.9360 0.0000 92.7570
#
#
#
# Elastic Compliance Matrix: (Units=1/GPa)
#
#
# Indices 1 2 3 4 5 6 
#
# 1 0.042597 -0.015174 0.004291 0.000000 -0.002735 0.000000
# 2 -0.015174 0.010245 -0.008191 0.000000 -0.004828 0.000000
# 3 0.004291 -0.008191 0.032751 0.000000 0.017887 0.000000
# 4 0.000000 0.000000 0.000000 0.013211 0.000000 -0.004976
# 5 -0.002735 -0.004828 0.017887 0.000000 0.037786 0.000000
# 6 0.000000 0.000000 0.000000 -0.004976 0.000000 0.012655
#
#
# Mechanical properties :
#
#
# Convention : Reuss Voigt Hill
#
# Bulk Modulus (GPa) = 21.07700 82.51726 51.79713
# Shear Modulus (GPa) = 24.60530 60.47378 42.53954
#
# Velocity S-wave (km/s) = 3.16992 4.96956 4.16803
# Velocity P-wave (km/s) = 4.69099 8.16256 6.65705
#
# Compressibility (1/GPa) = 0.04744508
#
# Stress axis : x y z
#
# Youngs Moduli (GPa) = 23.47557 97.60772 30.53387
#
# Poissons Ratio (x) = 1.48106 -0.13102
# Poissons Ratio (y) = 0.35621 0.25011
# Poissons Ratio (z) = -0.10073 0.79953
#
# Static dielectric constant tensor:
#      x y z
#    x 1.983550 0.000000 -0.092520 
#    y 0.000000 1.937350 0.000000 
#    z -0.092520 0.000000 2.009390 
# 
# From -- ./inp_files/84572.got.cif
#   From: 2010.05.17/outbox.cif.g08.bks.cpg/sg12_43_cif.got.tgz:84572.got - 2010.06.03 13:09:07.
