data_PCOD9179415
_publ_section_title
;
Structure prediction by ZEFSAII (Michael W. Deem and Ramdas Pophale) SiO2 
 PCOD9179415
Probable space group: C 2/M
;
_chemical_formula_sum "Si O2"
_cell_formula_units_Z 56
_cell_length_a 24.868744
_cell_length_b 8.949353
_cell_length_c 14.006863
_cell_angle_alpha 90.000000
_cell_angle_beta 125.005218
_cell_angle_gamma 90.000000
_cell_volume 2553.425515
_symmetry_space_group_name_H-M "C 2/M"
_symmetry_group_IT_number 12
_symmetry_cell_setting 'monoclinic'
loop_
_space_group_symop_operation_xyz
x,y,z
-x,y,-z
-x,-y,-z
x,-y,z
1/2+x,1/2+y,z
1/2-x,1/2+y,-z
1/2-x,1/2-y,-z
1/2+x,1/2-y,z
loop_
_atom_site_type_symbol
_atom_site_label
_atom_site_fract_x
_atom_site_fract_y
_atom_site_fract_z
Si Si1 0.142441 0.322237 0.194151
Si Si2 0.398568 0.166829 0.323186
Si Si3 0.289545 0.320227 0.341642
Si Si4 0.072058 0.823421 0.959859
Si Si5 0.850412 0.825448 0.594331
Si Si6 0.317134 0.830288 0.044254
Si Si7 0.998848 0.826085 0.696524
O O1 0.137242 0.500000 0.182083
O O2 0.216246 0.277554 0.233652
O O3 0.143090 0.269861 0.304000
O O4 0.082499 0.250475 0.073789
O O5 0.349566 0.253622 0.343108
O O6 0.357516 0.157381 0.183053
O O7 0.465097 0.243748 0.353470
O O8 0.411064 0.000000 0.372677
O O9 0.294006 0.500000 0.342598
O O10 0.298650 0.275344 0.461787
O O11 0.140212 0.775700 0.979493
O O12 0.020690 0.771971 0.825520
O O13 0.064062 0.000000 0.964608
O O14 0.920958 0.818152 0.613627
O O15 0.838710 0.000000 0.607694
O O16 0.308884 0.000000 0.997218
O O17 0.250000 0.750000 0.000000
O O18 0.019527 0.000000 0.713174
#
# Coordination Sequence:
#
# PCOD9179415 Si02
#       7
#     8   8   8   8   8   8   8
#     4  11  23  38  58  86 116 148 185 231 285 337
#     4  10  21  35  55  83 115 148 183 228 281 333
#     4  10  22  39  59  83 113 149 189 231 280 334
#     4  10  20  35  56  81 110 146 185 229 277 331
#     4  10  22  41  62  82 108 148 194 238 277 325
#     4  10  19  31  49  77 111 147 185 227 277 332
#     4   9  20  39  61  84 112 148 190 230 276 332
#
# _framework density 21.931322000000002
#
# number of rings (size 3 to 8) (size 9 to 14) (size 15 to 20)
#    0.000    2.000    0.000    3.000    0.000    8.000 
#    0.000    5.714    0.000    0.000    0.000    0.000 
#    0.000    0.000    0.000    0.000    0.000    0.000 
#
# Total GULP energy -156359.069341 kJ/mol
# GULP energy per Si atom -5584.252476 kJ/mol
# Density = 2.188140 g / cm^3
# Si number density = 21.931322 Si / 1000 Ang^3
#
#
#
# Elastic Constant Matrix: (Units=GPa)
#
#
# Indices 1 2 3 4 5 6 
#
# 1 46.9618 9.0182 5.6228 0.0000 -9.8474 0.0000
# 2 9.0182 42.7699 21.8497 0.0000 -5.6426 0.0000
# 3 5.6228 21.8497 103.3079 0.0000 -4.9383 0.0000
# 4 0.0000 0.0000 0.0000 24.9476 0.0000 -9.2206
# 5 -9.8474 -5.6426 -4.9383 0.0000 31.6119 0.0000
# 6 0.0000 0.0000 0.0000 -9.2206 0.0000 28.9027
#
#
#
# Elastic Compliance Matrix: (Units=1/GPa)
#
#
# Indices 1 2 3 4 5 6 
#
# 1 0.023458 -0.004022 -0.000112 0.000000 0.006572 0.000000
# 2 -0.004022 0.027374 -0.005438 0.000000 0.002784 0.000000
# 3 -0.000112 -0.005438 0.010869 0.000000 0.000692 0.000000
# 4 0.000000 0.000000 0.000000 0.045442 0.000000 0.014497
# 5 0.006572 0.002784 0.000692 0.000000 0.034286 0.000000
# 6 0.000000 0.000000 0.000000 0.014497 0.000000 0.039224
#
#
# Mechanical properties :
#
#
# Convention : Reuss Voigt Hill
#
# Bulk Modulus (GPa) = 23.49743 29.55786 26.52764
# Shear Modulus (GPa) = 23.36646 27.52902 25.44774
#
# Velocity S-wave (km/s) = 3.26765 3.54678 3.41007
# Velocity P-wave (km/s) = 4.99740 5.50269 5.25612
#
# Compressibility (1/GPa) = 0.04255785
#
# Stress axis : x y z
#
# Youngs Moduli (GPa) = 42.62984 36.53075 92.00419
#
# Poissons Ratio (x) = 0.14693 0.01030
# Poissons Ratio (y) = 0.17146 0.50029
# Poissons Ratio (z) = 0.00477 0.19864
#
# Static dielectric constant tensor:
#      x y z
#    x 1.886820 0.000000 -0.028140 
#    y 0.000000 1.776370 0.000000 
#    z -0.028140 0.000000 1.840080 
# 
# From -- ./inp_files/238928.got.cif
#   From: 2010.05.17/outbox.cif.g08.bks.cpg/sg12_120_cif.got.tgz:238928.got - 2010.06.03 13:09:07.
