data_PCOD9179918
_publ_section_title
;
Structure prediction by ZEFSAII (Michael W. Deem and Ramdas Pophale) SiO2 
 PCOD9179918
Probable space group: C 2/M
;
_chemical_formula_sum "Si O2"
_cell_formula_units_Z 64
_cell_length_a 20.679145
_cell_length_b 7.748211
_cell_length_c 33.779352
_cell_angle_alpha 90.000000
_cell_angle_beta 146.137070
_cell_angle_gamma 90.000000
_cell_volume 3015.800846
_symmetry_space_group_name_H-M "C 2/M"
_symmetry_group_IT_number 12
_symmetry_cell_setting 'monoclinic'
loop_
_space_group_symop_operation_xyz
x,y,z
-x,y,-z
-x,-y,-z
x,-y,z
1/2+x,1/2+y,z
1/2-x,1/2+y,-z
1/2-x,1/2-y,-z
1/2+x,1/2-y,z
loop_
_atom_site_type_symbol
_atom_site_label
_atom_site_fract_x
_atom_site_fract_y
_atom_site_fract_z
Si Si1 0.467325 0.289415 0.795161
Si Si2 0.065669 0.788974 0.311535
Si Si3 0.131205 0.202897 0.062005
Si Si4 0.021877 0.288408 0.556630
Si Si5 0.272766 0.706241 0.057121
Si Si6 0.323114 0.702594 0.224292
Si Si7 0.261040 0.795995 0.281494
Si Si8 0.782810 0.707108 0.472236
O O1 0.473749 0.500000 0.800879
O O2 0.430338 0.242112 0.732202
O O3 0.597726 0.227004 0.868077
O O4 0.367272 0.227350 0.773866
O O5 0.179593 0.727392 0.391952
O O6 0.945485 0.727630 0.269961
O O7 0.064242 0.000000 0.312239
O O8 0.181931 0.226594 0.043564
O O9 0.223287 0.275155 0.140541
O O10 0.125427 0.000000 0.067655
O O11 0.000000 0.273497 0.000000
O O12 0.025557 0.500000 0.558510
O O13 0.138701 0.227586 0.638083
O O14 0.000000 0.236761 0.500000
O O15 0.909753 0.230680 0.524472
O O16 0.271716 0.500000 0.061213
O O17 0.250000 0.750000 0.000000
O O18 0.339136 0.500000 0.238694
O O19 0.291609 0.775986 0.251095
O O20 0.256030 0.000000 0.287335
O O21 0.785622 0.500000 0.469256
O O22 0.750000 0.750000 0.500000
#
# Coordination Sequence:
#
# PCOD9179918 Si02
#       8
#     8   8   8   8   8   8   8   8
#     4   9  18  35  58  81 109 148 192 230 276 335
#     4   9  17  33  56  79 105 147 192 232 281 338
#     4  11  25  44  65  89 118 153 193 239 296 354
#     4   9  17  31  53  83 112 145 196 246 284 332
#     4  11  23  41  64  91 123 156 195 238 285 345
#     4  11  22  38  59  84 117 153 193 238 288 352
#     4  10  20  34  56  84 116 153 193 242 291 339
#     4  10  19  31  52  79 110 144 185 234 283 335
#
# _framework density 21.221561000000001
#
# number of rings (size 3 to 8) (size 9 to 14) (size 15 to 20)
#    0.000    2.000    1.250    2.625    1.750    4.000 
#    0.000    1.250    0.000    3.000    0.000    0.000 
#    0.000    0.000    0.000    0.000    0.000    0.000 
#
# Total GULP energy -178742.057706 kJ/mol
# GULP energy per Si atom -5585.689303 kJ/mol
# Density = 2.117326 g / cm^3
# Si number density = 21.221561 Si / 1000 Ang^3
#
#
#
# Elastic Constant Matrix: (Units=GPa)
#
#
# Indices 1 2 3 4 5 6 
#
# 1 125.4680 -9.6491 23.1029 0.0001 12.2725 -0.0002
# 2 -9.6491 25.9997 -5.3209 -0.0001 10.4325 -0.0014
# 3 23.1029 -5.3209 91.5580 0.0001 5.3090 -0.0001
# 4 0.0001 -0.0001 0.0001 -0.5847 0.0001 -8.5261
# 5 12.2725 10.4325 5.3090 0.0001 41.6947 0.0000
# 6 -0.0002 -0.0014 -0.0001 -8.5261 0.0000 20.9485
#
#
#
# Elastic Compliance Matrix: (Units=1/GPa)
#
#
# Indices 1 2 3 4 5 6 
#
# 1 0.008982 0.004371 -0.001809 -0.000001 -0.003507 0.000000
# 2 0.004371 0.045789 0.002314 -0.000008 -0.013038 0.000000
# 3 -0.001809 0.002314 0.011601 0.000000 -0.001524 0.000000
# 4 -0.000001 -0.000008 0.000000 -0.246620 0.000003 -0.100375
# 5 -0.003507 -0.013038 -0.001524 0.000003 0.028472 0.000000
# 6 0.000000 0.000000 0.000000 -0.100375 0.000000 0.006883
#
#
# Mechanical properties :
#
#
# Convention : Reuss Voigt Hill
#
# Bulk Modulus (GPa) = 13.13641 28.81016 20.97329
# Shear Modulus (GPa) = -38.67926 28.07122 -5.30402
#
# Velocity S-wave (km/s) = -4.27387 3.64093 -1.58265
# Velocity P-wave (km/s) = 4.26041 5.59290 2.56218
#
# Compressibility (1/GPa) = 0.07612428
#
# Stress axis : x y z
#
# Youngs Moduli (GPa) = 111.32813 21.83922 86.19647
#
# Poissons Ratio (x) = -0.09545 0.15595
# Poissons Ratio (y) = -0.48657 -0.19948
# Poissons Ratio (z) = 0.20141 -0.05054
#
# Static dielectric constant tensor:
#      x y z
#    x 1.746090 0.000000 0.036400 
#    y 0.000000 1.912800 0.000000 
#    z 0.036400 0.000000 1.734080 
# 
# From -- ./inp_files/378372.got.cif
#   From: 2010.05.17/outbox.cif.g08.bks.cpg/sg12_190_cif.got.tgz:378372.got - 2010.06.03 13:09:07.
