data_PCOD9179526
_publ_section_title
;
Structure prediction by ZEFSAII (Michael W. Deem and Ramdas Pophale) SiO2 
 PCOD9179526
Probable space group: C 2/M
;
_chemical_formula_sum "Si O2"
_cell_formula_units_Z 56
_cell_length_a 18.196042
_cell_length_b 7.464803
_cell_length_c 29.485899
_cell_angle_alpha 90.000000
_cell_angle_beta 140.264801
_cell_angle_gamma 90.000000
_cell_volume 2560.199736
_symmetry_space_group_name_H-M "C 2/M"
_symmetry_group_IT_number 12
_symmetry_cell_setting 'monoclinic'
loop_
_space_group_symop_operation_xyz
x,y,z
-x,y,-z
-x,-y,-z
x,-y,z
1/2+x,1/2+y,z
1/2-x,1/2+y,-z
1/2-x,1/2-y,-z
1/2+x,1/2-y,z
loop_
_atom_site_type_symbol
_atom_site_label
_atom_site_fract_x
_atom_site_fract_y
_atom_site_fract_z
Si Si1 0.206232 0.787133 0.428651
Si Si2 0.123738 0.792210 0.571403
Si Si3 0.230473 0.780635 0.715647
Si Si4 0.945787 0.218992 0.289216
Si Si5 0.087822 0.280776 0.002146
Si Si6 0.844857 0.214038 0.145568
Si Si7 0.987644 0.714388 0.858783
O O1 0.250000 0.750000 0.500000
O O2 0.292821 0.713872 0.432052
O O3 0.076136 0.720822 0.359763
O O4 0.204728 0.000000 0.421488
O O5 0.186393 0.717705 0.645649
O O6 0.000000 0.711459 0.500000
O O7 0.100898 0.000000 0.572335
O O8 0.140088 0.727666 0.711396
O O9 0.359067 0.718449 0.788090
O O10 0.234587 0.000000 0.717186
O O11 0.897896 0.280533 0.217957
O O12 0.947466 0.000000 0.289893
O O13 0.089884 0.500000 0.002385
O O14 0.216885 0.218834 0.074067
O O15 0.042463 0.219177 0.931726
O O16 0.000000 0.228225 0.000000
O O17 0.929626 0.249065 0.144159
O O18 0.834762 0.000000 0.145852
O O19 0.978726 0.500000 0.859292
#
# Coordination Sequence:
#
# PCOD9179526 Si02
#       7
#     8   8   8   8   8   8   8
#     4  11  22  36  55  78 105 135 170 212 256 305
#     4  10  20  35  55  77 103 136 173 212 255 305
#     4   9  17  31  52  75  99 131 171 211 250 296
#     4   9  18  33  53  76 100 131 171 210 249 296
#     4   9  17  30  50  75  99 128 170 211 243 286
#     4  10  19  32  52  75 101 132 165 205 250 296
#     4  10  19  31  50  75 102 131 165 207 251 297
#
# _framework density 21.873294999999999
#
# number of rings (size 3 to 8) (size 9 to 14) (size 15 to 20)
#    0.000    2.286    0.000    3.429    0.000    6.000 
#    0.000    0.714    0.000    6.857    0.000    0.000 
#    0.000    0.000    0.000    0.000    0.000    0.000 
#
# Total GULP energy -156534.897819 kJ/mol
# GULP energy per Si atom -5590.532065 kJ/mol
# Density = 2.182351 g / cm^3
# Si number density = 21.873295 Si / 1000 Ang^3
#
#
#
# Elastic Constant Matrix: (Units=GPa)
#
#
# Indices 1 2 3 4 5 6 
#
# 1 202.9565 -17.0614 145.4145 0.0000 5.5024 0.0001
# 2 -17.0614 63.3201 3.5859 0.0002 3.5512 0.0002
# 3 145.4145 3.5859 274.3602 0.0000 4.6999 0.0000
# 4 0.0000 0.0002 0.0000 -1.0084 -0.0001 -2.9940
# 5 5.5024 3.5512 4.6999 -0.0001 52.7019 0.0000
# 6 0.0001 0.0002 0.0000 -2.9940 0.0000 24.1650
#
#
#
# Elastic Compliance Matrix: (Units=1/GPa)
#
#
# Indices 1 2 3 4 5 6 
#
# 1 0.008341 0.002535 -0.004443 0.000001 -0.000645 0.000000
# 2 0.002535 0.016633 -0.001540 0.000003 -0.001248 0.000000
# 3 -0.004443 -0.001540 0.006019 0.000000 0.000031 0.000000
# 4 0.000001 0.000003 0.000000 -0.724995 -0.000001 -0.089827
# 5 -0.000645 -0.001248 0.000031 -0.000001 0.019123 0.000000
# 6 0.000000 0.000000 0.000000 -0.089827 0.000000 0.030253
#
#
# Mechanical properties :
#
#
# Convention : Reuss Voigt Hill
#
# Bulk Modulus (GPa) = 41.49619 89.39053 65.44336
# Shear Modulus (GPa) = -7.94031 42.41822 17.23895
#
# Velocity S-wave (km/s) = -1.90736 4.40849 2.81041
# Velocity P-wave (km/s) = 3.76320 8.17736 6.36517
#
# Compressibility (1/GPa) = 0.02409860
#
# Stress axis : x y z
#
# Youngs Moduli (GPa) = 119.88841 60.12112 166.13313
#
# Poissons Ratio (x) = -0.15242 0.73812
# Poissons Ratio (y) = -0.30395 0.25580
# Poissons Ratio (z) = 0.53266 0.09257
#
# Static dielectric constant tensor:
#      x y z
#    x 1.679270 0.000000 0.026050 
#    y 0.000000 1.858200 0.000000 
#    z 0.026050 0.000000 1.767270 
# 
# From -- ./inp_files/313725.got.cif
#   From: 2010.05.17/outbox.cif.g08.bks.cpg/sg12_157_cif.got.tgz:313725.got - 2010.06.03 13:09:07.
