data_PCOD9179224
_publ_section_title
;
Structure prediction by ZEFSAII (Michael W. Deem and Ramdas Pophale) SiO2 
 PCOD9179224
Probable space group: C 2/M
;
_chemical_formula_sum "Si O2"
_cell_formula_units_Z 64
_cell_length_a 22.044451
_cell_length_b 9.761329
_cell_length_c 16.633987
_cell_angle_alpha 90.000000
_cell_angle_beta 123.403389
_cell_angle_gamma 90.000000
_cell_volume 2988.099099
_symmetry_space_group_name_H-M "C 2/M"
_symmetry_group_IT_number 12
_symmetry_cell_setting 'monoclinic'
loop_
_space_group_symop_operation_xyz
x,y,z
-x,y,-z
-x,-y,-z
x,-y,z
1/2+x,1/2+y,z
1/2-x,1/2+y,-z
1/2-x,1/2-y,-z
1/2+x,1/2-y,z
loop_
_atom_site_type_symbol
_atom_site_label
_atom_site_fract_x
_atom_site_fract_y
_atom_site_fract_z
Si Si1 0.919186 0.845609 0.827866
Si Si2 0.974375 0.349861 0.300909
Si Si3 0.353820 0.347251 0.236884
Si Si4 0.770284 0.853112 0.409951
Si Si5 0.372255 0.742827 0.618873
Si Si6 0.745754 0.661160 0.248071
Si Si7 0.180973 0.156149 0.971889
Si Si8 0.947018 0.342634 0.087194
O O1 0.901596 0.836063 0.719135
O O2 0.841384 0.821474 0.812639
O O3 0.980422 0.733380 0.890443
O O4 0.944607 0.000000 0.864685
O O5 0.955166 0.500000 0.317884
O O6 0.926687 0.235506 0.309773
O O7 0.956697 0.349986 0.191870
O O8 0.059469 0.320704 0.368062
O O9 0.350631 0.500000 0.268552
O O10 0.285910 0.251974 0.211026
O O11 0.354381 0.362354 0.141472
O O12 0.692070 0.839374 0.395554
O O13 0.832296 0.845049 0.522146
O O14 0.774863 0.726483 0.352517
O O15 0.772427 0.000000 0.369632
O O16 0.761245 0.500000 0.252803
O O17 0.122773 0.245990 0.978933
O O18 0.196483 0.000000 0.014201
O O19 0.250000 0.250000 0.000000
O O20 0.938855 0.500000 0.053170
#
# Coordination Sequence:
#
# PCOD9179224 Si02
#       8
#     8   8   8   8   8   8   8   8
#     4   9  17  30  49  73 100 131 168 208 249 294
#     4   9  17  30  49  71  97 129 164 203 247 294
#     4  10  21  36  54  75 100 130 165 202 241 291
#     4  10  19  31  49  72 100 132 168 212 257 301
#     4   9  18  29  48  74 100 129 166 210 259 301
#     4  10  21  35  51  71  98 134 172 208 250 299
#     4  10  20  34  55  82 108 133 160 196 242 291
#     4   9  17  29  48  76 105 132 163 200 243 290
#
# _framework density 21.418299000000001
#
# number of rings (size 3 to 8) (size 9 to 14) (size 15 to 20)
#    0.000    2.500    0.000    2.250    0.000   12.000 
#    0.000    0.625    0.000    3.750    0.000    5.250 
#    0.000    0.000    0.000    0.000    0.000    0.000 
#
# Total GULP energy -178517.922938 kJ/mol
# GULP energy per Si atom -5578.685092 kJ/mol
# Density = 2.136955 g / cm^3
# Si number density = 21.418299 Si / 1000 Ang^3
#
#
#
# Elastic Constant Matrix: (Units=GPa)
#
#
# Indices 1 2 3 4 5 6 
#
# 1 67.6841 65.8894 23.4057 0.0000 5.7918 0.0000
# 2 65.8894 199.9002 36.6758 0.0000 12.5672 0.0000
# 3 23.4057 36.6758 49.1703 0.0000 10.4210 0.0000
# 4 0.0000 0.0000 0.0000 59.3297 0.0000 38.0595
# 5 5.7918 12.5672 10.4210 0.0000 23.5061 0.0000
# 6 0.0000 0.0000 0.0000 38.0595 0.0000 46.8861
#
#
#
# Elastic Compliance Matrix: (Units=1/GPa)
#
#
# Indices 1 2 3 4 5 6 
#
# 1 0.023290 -0.006553 -0.006319 0.000000 0.000566 0.000000
# 2 -0.006553 0.007676 -0.002294 0.000000 -0.001472 0.000000
# 3 -0.006319 -0.002294 0.027004 0.000000 -0.009188 0.000000
# 4 0.000000 0.000000 0.000000 0.035168 0.000000 -0.028547
# 5 0.000566 -0.001472 -0.009188 0.000000 0.047263 0.000000
# 6 0.000000 0.000000 0.000000 -0.028547 0.000000 0.044501
#
#
# Mechanical properties :
#
#
# Convention : Reuss Voigt Hill
#
# Bulk Modulus (GPa) = 36.18141 63.18848 49.68494
# Shear Modulus (GPa) = 22.27706 38.66332 30.47019
#
# Velocity S-wave (km/s) = 3.22855 4.25332 3.77586
# Velocity P-wave (km/s) = 5.55225 7.32715 6.50056
#
# Compressibility (1/GPa) = 0.02763851
#
# Stress axis : x y z
#
# Youngs Moduli (GPa) = 42.93609 130.27769 37.03200
#
# Poissons Ratio (x) = 0.85372 0.23399
# Poissons Ratio (y) = 0.28136 0.08495
# Poissons Ratio (z) = 0.27130 0.29886
#
# Static dielectric constant tensor:
#      x y z
#    x 1.767160 0.000000 -0.030450 
#    y 0.000000 1.814090 0.000000 
#    z -0.030450 0.000000 1.795780 
# 
# From -- ./inp_files/320149.got.cif
#   From: 2010.05.17/outbox.cif.g08.bks.cpg/sg12_161_cif.got.tgz:320149.got - 2010.06.03 13:09:07.
