data_PCOD9179417
_publ_section_title
;
Structure prediction by ZEFSAII (Michael W. Deem and Ramdas Pophale) SiO2 
 PCOD9179417
Probable space group: C 2/M
;
_chemical_formula_sum "Si O2"
_cell_formula_units_Z 52
_cell_length_a 5.752161
_cell_length_b 22.467129
_cell_length_c 17.058175
_cell_angle_alpha 90.000000
_cell_angle_beta 97.671180
_cell_angle_gamma 90.000000
_cell_volume 2184.776166
_symmetry_space_group_name_H-M "C 2/M"
_symmetry_group_IT_number 12
_symmetry_cell_setting 'monoclinic'
loop_
_space_group_symop_operation_xyz
x,y,z
-x,y,-z
-x,-y,-z
x,-y,z
1/2+x,1/2+y,z
1/2-x,1/2+y,-z
1/2-x,1/2-y,-z
1/2+x,1/2-y,z
loop_
_atom_site_type_symbol
_atom_site_label
_atom_site_fract_x
_atom_site_fract_y
_atom_site_fract_z
Si Si1 0.519416 0.269046 0.875209
Si Si2 0.500000 0.898050 0.500000
Si Si3 0.912310 0.107774 0.194356
Si Si4 0.143621 0.188577 0.573567
Si Si5 0.258355 0.432152 0.027212
Si Si6 0.433848 0.190982 0.722886
Si Si7 0.709738 0.395466 0.347375
O O1 0.294218 0.242330 0.912113
O O2 0.473210 0.337969 0.851377
O O3 0.523945 0.236223 0.791026
O O4 0.681567 0.854854 0.464559
O O5 0.359725 0.929052 0.421695
O O6 0.799298 0.067999 0.122203
O O7 0.718848 0.142945 0.235919
O O8 0.077307 0.076359 0.266379
O O9 0.282549 0.222510 0.647523
O O10 0.000000 0.223030 0.500000
O O11 0.977309 0.143143 0.612693
O O12 0.243605 0.500000 0.995450
O O13 0.500000 0.406891 0.000000
O O14 0.000000 0.404038 0.000000
O O15 0.623920 0.151999 0.687317
#
# Coordination Sequence:
#
# PCOD9179417 Si02
#       7
#     8   4   8   8   8   8   8
#     4  10  19  31  49  77 111 150 195 233 273 325
#     4   8  14  24  42  68 111 146 200 246 281 314
#     4  10  20  33  59  82 112 152 195 231 290 350
#     4   8  14  24  41  64 100 151 202 246 284 318
#     4  10  24  45  69  95 121 144 177 235 301 357
#     4   9  17  28  47  75 110 149 200 240 278 329
#     4   9  15  27  46  76 105 153 198 239 280 331
#
# _framework density 23.801064
#
# number of rings (size 3 to 8) (size 9 to 14) (size 15 to 20)
#    0.000    2.769    1.538    0.000    2.154    0.000 
#    0.000    0.000    1.692   15.692    0.000    0.538 
#    0.000   55.385    0.000    9.231    0.000    0.615 
#
# Total GULP energy -144918.336112 kJ/mol
# GULP energy per Si atom -5573.782158 kJ/mol
# Density = 2.374689 g / cm^3
# Si number density = 23.801064 Si / 1000 Ang^3
#
#
#
# Elastic Constant Matrix: (Units=GPa)
#
#
# Indices 1 2 3 4 5 6 
#
# 1 144.2498 9.5556 67.8380 0.0000 8.4488 0.0000
# 2 9.5556 44.8343 18.5150 0.0000 4.8752 0.0000
# 3 67.8380 18.5150 145.1624 0.0000 0.8010 0.0000
# 4 0.0000 0.0000 0.0000 14.2030 0.0000 5.9550
# 5 8.4488 4.8752 0.8010 0.0000 32.0429 0.0000
# 6 0.0000 0.0000 0.0000 5.9550 0.0000 -4.7705
#
#
#
# Elastic Compliance Matrix: (Units=1/GPa)
#
#
# Indices 1 2 3 4 5 6 
#
# 1 0.009049 0.000065 -0.004224 0.000000 -0.002290 0.000000
# 2 0.000065 0.023946 -0.003065 0.000000 -0.003584 0.000000
# 3 -0.004224 -0.003065 0.009246 0.000000 0.001349 0.000000
# 4 0.000000 0.000000 0.000000 0.046218 0.000000 0.057693
# 5 -0.002290 -0.003584 0.001349 0.000000 0.032324 0.000000
# 6 0.000000 0.000000 0.000000 0.057693 0.000000 -0.137602
#
#
# Mechanical properties :
#
#
# Convention : Reuss Voigt Hill
#
# Bulk Modulus (GPa) = 35.98068 58.45154 47.21611
# Shear Modulus (GPa) = 725.31251 24.18425 374.74838
#
# Velocity S-wave (km/s) = 17.47573 3.19109 12.56153
# Velocity P-wave (km/s) = 20.55119 6.17973 15.17466
#
# Compressibility (1/GPa) = 0.02779269
#
# Stress axis : x y z
#
# Youngs Moduli (GPa) = 110.51024 41.76093 108.14917
#
# Poissons Ratio (x) = -0.00271 0.45687
# Poissons Ratio (y) = -0.00718 0.33146
# Poissons Ratio (z) = 0.46684 0.12799
#
# Static dielectric constant tensor:
#      x y z
#    x 2.042900 0.000000 0.097060 
#    y 0.000000 1.834360 0.000000 
#    z 0.097060 0.000000 1.959460 
# 
# From -- ./inp_files/253487.got.cif
#   From: 2010.05.17/outbox.cif.g08.bks.cpg/sg12_127_cif.got.tgz:253487.got - 2010.06.03 13:09:07.
