data_PCOD9179671
_publ_section_title
;
Structure prediction by ZEFSAII (Michael W. Deem and Ramdas Pophale) SiO2 
 PCOD9179671
Probable space group: C 2/M
;
_chemical_formula_sum "Si O2"
_cell_formula_units_Z 64
_cell_length_a 9.267380
_cell_length_b 21.899312
_cell_length_c 16.174488
_cell_angle_alpha 90.000000
_cell_angle_beta 87.276874
_cell_angle_gamma 90.000000
_cell_volume 3278.893368
_symmetry_space_group_name_H-M "C 2/M"
_symmetry_group_IT_number 12
_symmetry_cell_setting 'monoclinic'
loop_
_space_group_symop_operation_xyz
x,y,z
-x,y,-z
-x,-y,-z
x,-y,z
1/2+x,1/2+y,z
1/2-x,1/2+y,-z
1/2-x,1/2-y,-z
1/2+x,1/2-y,z
loop_
_atom_site_type_symbol
_atom_site_label
_atom_site_fract_x
_atom_site_fract_y
_atom_site_fract_z
Si Si1 0.841863 0.931909 0.546364
Si Si2 0.740832 0.796662 0.910385
Si Si3 0.764139 0.347559 0.923435
Si Si4 0.280363 0.298292 0.569854
Si Si5 0.996236 0.850465 0.173618
Si Si6 0.268534 0.568993 0.740343
Si Si7 0.016296 0.654646 0.789879
Si Si8 0.028910 0.241492 0.680765
O O1 0.765995 0.866468 0.532689
O O2 0.836469 0.931149 0.646457
O O3 0.000000 0.928441 0.500000
O O4 0.783038 0.000000 0.523918
O O5 0.723483 0.724831 0.925579
O O6 0.641265 0.809317 0.834936
O O7 0.908115 0.805147 0.884510
O O8 0.704216 0.849012 0.979654
O O9 0.627002 0.377550 0.881983
O O10 0.899206 0.362713 0.861914
O O11 0.250000 0.250000 0.500000
O O12 0.165354 0.278821 0.642701
O O13 0.435477 0.287947 0.609354
O O14 0.939033 0.811767 0.253798
O O15 0.114569 0.897295 0.205647
O O16 0.249654 0.500000 0.768696
O O17 0.110940 0.601283 0.745418
O O18 0.944155 0.703672 0.729968
#
# Coordination Sequence:
#
# PCOD9179671 Si02
#       8
#     8   8   8   8   8   8   8   8
#     4  10  20  38  61  85 111 153 203 240 279 347
#     4  10  19  31  50  83 125 156 188 223 302 367
#     4  11  19  30  52  86 121 155 183 238 299 358
#     4  12  24  37  58  87 123 153 192 241 301 356
#     4  11  20  34  56  84 119 150 194 250 285 343
#     4  10  22  41  63  82 110 160 207 239 289 357
#     4  11  20  35  56  82 118 152 190 245 291 355
#     4  12  20  36  53  87 116 148 187 237 301 348
#
# _framework density 19.518782000000002
#
# number of rings (size 3 to 8) (size 9 to 14) (size 15 to 20)
#    0.000    1.125    5.000    3.375    0.000    2.000 
#    0.000    0.625    0.000   14.250    0.000    0.000 
#    0.000    0.000    0.000    0.000    0.000    0.000 
#
# Total GULP energy -178140.029409 kJ/mol
# GULP energy per Si atom -5566.875919 kJ/mol
# Density = 1.947436 g / cm^3
# Si number density = 19.518782 Si / 1000 Ang^3
#
#
#
# Elastic Constant Matrix: (Units=GPa)
#
#
# Indices 1 2 3 4 5 6 
#
# 1 60.3774 7.3941 5.9904 0.0000 -6.2240 0.0000
# 2 7.3941 107.3882 15.1576 0.0000 4.0168 0.0000
# 3 5.9904 15.1576 65.8030 0.0000 -5.6549 0.0000
# 4 0.0000 0.0000 0.0000 13.4634 0.0000 4.3046
# 5 -6.2240 4.0168 -5.6549 0.0000 28.2471 0.0000
# 6 0.0000 0.0000 0.0000 4.3046 0.0000 15.5308
#
#
#
# Elastic Compliance Matrix: (Units=1/GPa)
#
#
# Indices 1 2 3 4 5 6 
#
# 1 0.017192 -0.001188 -0.000968 0.000000 0.003763 0.000000
# 2 -0.001188 0.009802 -0.002332 0.000000 -0.002123 0.000000
# 3 -0.000968 -0.002332 0.016110 0.000000 0.003343 0.000000
# 4 0.000000 0.000000 0.000000 0.081497 0.000000 -0.022588
# 5 0.003763 -0.002123 0.003343 0.000000 0.037202 0.000000
# 6 0.000000 0.000000 0.000000 -0.022588 0.000000 0.070649
#
#
# Mechanical properties :
#
#
# Convention : Reuss Voigt Hill
#
# Bulk Modulus (GPa) = 29.30182 32.29477 30.79829
# Shear Modulus (GPa) = 19.77815 25.11670 22.44743
#
# Velocity S-wave (km/s) = 3.18667 3.59109 3.39491
# Velocity P-wave (km/s) = 5.34645 5.81171 5.58393
#
# Compressibility (1/GPa) = 0.03412757
#
# Stress axis : x y z
#
# Youngs Moduli (GPa) = 58.16681 102.01605 62.07500
#
# Poissons Ratio (x) = 0.12118 0.06009
# Poissons Ratio (y) = 0.06909 0.14477
# Poissons Ratio (z) = 0.05631 0.23792
#
# Static dielectric constant tensor:
#      x y z
#    x 1.707630 0.000000 -0.027780 
#    y 0.000000 1.731190 0.000000 
#    z -0.027780 0.000000 1.831010 
# 
# From -- ./inp_files/198863.got.cif
#   From: 2010.05.17/outbox.cif.g08.bks.cpg/sg12_100_cif.got.tgz:198863.got - 2010.06.03 13:09:07.
