data_PCOD9179990
_publ_section_title
;
Structure prediction by ZEFSAII (Michael W. Deem and Ramdas Pophale) SiO2 
 PCOD9179990
Probable space group: C 2/M
;
_chemical_formula_sum "Si O2"
_cell_formula_units_Z 64
_cell_length_a 34.081336
_cell_length_b 9.096575
_cell_length_c 18.623842
_cell_angle_alpha 90.000000
_cell_angle_beta 143.922721
_cell_angle_gamma 90.000000
_cell_volume 3400.067768
_symmetry_space_group_name_H-M "C 2/M"
_symmetry_group_IT_number 12
_symmetry_cell_setting 'monoclinic'
loop_
_space_group_symop_operation_xyz
x,y,z
-x,y,-z
-x,-y,-z
x,-y,z
1/2+x,1/2+y,z
1/2-x,1/2+y,-z
1/2-x,1/2-y,-z
1/2+x,1/2-y,z
loop_
_atom_site_type_symbol
_atom_site_label
_atom_site_fract_x
_atom_site_fract_y
_atom_site_fract_z
Si Si1 0.568883 0.324159 0.642639
Si Si2 0.417928 0.675149 0.742279
Si Si3 0.805932 0.326151 0.804002
Si Si4 0.296770 0.825052 0.628504
Si Si5 0.928567 0.175166 0.053636
Si Si6 0.330399 0.674662 0.334447
Si Si7 0.400783 0.832184 0.569783
Si Si8 0.059453 0.668059 0.779553
O O1 0.500000 0.280893 0.500000
O O2 0.564811 0.500000 0.648467
O O3 0.630783 0.293343 0.681515
O O4 0.576198 0.244409 0.729252
O O5 0.410255 0.500000 0.739027
O O6 0.371079 0.761869 0.727521
O O7 0.496373 0.713227 0.861333
O O8 0.393318 0.727435 0.627370
O O9 0.821647 0.500000 0.828747
O O10 0.777427 0.293433 0.682356
O O11 0.748311 0.296981 0.777126
O O12 0.871851 0.235828 0.917955
O O13 0.250000 0.750000 0.500000
O O14 0.295335 0.000000 0.615800
O O15 0.917335 0.245629 0.115472
O O16 0.925738 0.000000 0.054886
O O17 0.340174 0.500000 0.363822
O O18 0.363446 0.768225 0.446301
O O19 0.479125 0.833131 0.666812
O O20 0.380551 0.000000 0.556931
O O21 0.083281 0.500000 0.816789
#
# Coordination Sequence:
#
# PCOD9179990 Si02
#       8
#     8   8   8   8   8   8   8   8
#     4  10  19  32  54  85 118 151 189 234 285 345
#     4  10  21  37  58  84 114 150 191 237 286 337
#     4  10  23  41  59  81 113 152 191 235 286 337
#     4  11  23  39  61  90 122 154 189 233 286 342
#     4  10  22  40  62  84 110 149 198 242 283 337
#     4  10  20  35  55  80 114 153 190 232 288 347
#     4  10  19  31  52  83 115 148 186 232 285 344
#     4  10  20  34  55  83 117 150 185 235 289 340
#
# _framework density 18.823155
#
# number of rings (size 3 to 8) (size 9 to 14) (size 15 to 20)
#    0.000    1.875    1.250    2.625    0.000    6.250 
#    0.000    3.125    0.000    0.000    0.000    0.000 
#    0.000    0.000    0.000    0.000    0.000    0.000 
#
# Total GULP energy -178698.598154 kJ/mol
# GULP energy per Si atom -5584.331192 kJ/mol
# Density = 1.878031 g / cm^3
# Si number density = 18.823155 Si / 1000 Ang^3
#
#
#
# Elastic Constant Matrix: (Units=GPa)
#
#
# Indices 1 2 3 4 5 6 
#
# 1 108.5458 41.4625 28.0718 0.0000 5.9469 0.0000
# 2 41.4625 54.7903 39.9110 0.0000 3.6176 0.0000
# 3 28.0718 39.9110 79.6936 0.0000 0.2053 0.0000
# 4 0.0000 0.0000 0.0000 31.2308 0.0000 -3.3397
# 5 5.9469 3.6176 0.2053 0.0000 14.9934 0.0000
# 6 0.0000 0.0000 0.0000 -3.3397 0.0000 29.2143
#
#
#
# Elastic Compliance Matrix: (Units=1/GPa)
#
#
# Indices 1 2 3 4 5 6 
#
# 1 0.013086 -0.010023 0.000418 0.000000 -0.002777 0.000000
# 2 -0.010023 0.037108 -0.015041 0.000000 -0.004772 0.000000
# 3 0.000418 -0.015041 0.019925 0.000000 0.003191 0.000000
# 4 0.000000 0.000000 0.000000 0.032416 0.000000 0.003706
# 5 -0.002777 -0.004772 0.003191 0.000000 0.068905 0.000000
# 6 0.000000 0.000000 0.000000 0.003706 0.000000 0.034653
#
#
# Mechanical properties :
#
#
# Convention : Reuss Voigt Hill
#
# Bulk Modulus (GPa) = 48.01802 51.32448 49.67125
# Shear Modulus (GPa) = 19.06009 23.99334 21.52671
#
# Velocity S-wave (km/s) = 3.18557 3.57413 3.38543
# Velocity P-wave (km/s) = 6.25267 6.66021 6.45966
#
# Compressibility (1/GPa) = 0.02082551
#
# Stress axis : x y z
#
# Youngs Moduli (GPa) = 76.41996 26.94854 50.18740
#
# Poissons Ratio (x) = 0.27011 -0.02095
# Poissons Ratio (y) = 0.76598 0.75486
# Poissons Ratio (z) = -0.03191 0.40533
#
# Static dielectric constant tensor:
#      x y z
#    x 1.661520 0.000000 0.020850 
#    y 0.000000 1.633910 0.000000 
#    z 0.020850 0.000000 1.633950 
# 
# From -- ./inp_files/295723.got.cif
#   From: 2010.05.17/outbox.cif.g08.bks.cpg/sg12_148_cif.got.tgz:295723.got - 2010.06.03 13:09:07.
