data_PCOD9179470
_publ_section_title
;
Structure prediction by ZEFSAII (Michael W. Deem and Ramdas Pophale) SiO2 
 PCOD9179470
Probable space group: C 2/M
;
_chemical_formula_sum "Si O2"
_cell_formula_units_Z 56
_cell_length_a 5.115510
_cell_length_b 19.931843
_cell_length_c 30.045920
_cell_angle_alpha 90.000000
_cell_angle_beta 109.287124
_cell_angle_gamma 90.000000
_cell_volume 2891.588436
_symmetry_space_group_name_H-M "C 2/M"
_symmetry_group_IT_number 12
_symmetry_cell_setting 'monoclinic'
loop_
_space_group_symop_operation_xyz
x,y,z
-x,y,-z
-x,-y,-z
x,-y,z
1/2+x,1/2+y,z
1/2-x,1/2+y,-z
1/2-x,1/2-y,-z
1/2+x,1/2-y,z
loop_
_atom_site_type_symbol
_atom_site_label
_atom_site_fract_x
_atom_site_fract_y
_atom_site_fract_z
Si Si1 0.856840 0.849256 0.945079
Si Si2 0.849244 0.215001 0.850534
Si Si3 0.601452 0.793418 0.556603
Si Si4 0.946440 0.576450 0.682083
Si Si5 0.820991 0.924147 0.617287
Si Si6 0.517701 0.798743 0.751794
Si Si7 0.354429 0.071422 0.944038
O O1 0.883744 0.802639 0.904003
O O2 0.538642 0.870411 0.932746
O O3 0.040969 0.912006 0.939027
O O4 0.000000 0.826423 0.000000
O O5 0.646689 0.279573 0.844177
O O6 0.654373 0.173977 0.805788
O O7 0.500000 0.801494 0.500000
O O8 0.352844 0.759676 0.569949
O O9 0.698502 0.864440 0.581031
O O10 0.957417 0.500000 0.701759
O O11 0.650834 0.582243 0.640750
O O12 0.970752 0.637872 0.717555
O O13 0.186109 0.581770 0.658652
O O14 0.757343 0.000000 0.597374
O O15 0.741704 0.744871 0.745455
O O16 0.377453 0.000000 0.921696
O O17 0.500000 0.066169 0.000000
#
# Coordination Sequence:
#
# PCOD9179470 Si02
#       7
#     8   8   8   8   8   8   8
#     4  10  19  31  50  73  97 129 165 201 249 305
#     4  10  21  36  52  72 101 131 165 212 256 307
#     4  10  21  36  54  80 115 152 191 235 274 312
#     4  10  21  37  56  82 113 139 176 233 282 321
#     4  10  21  36  56  82 112 147 183 225 279 330
#     4  10  21  37  58  80 104 141 181 216 267 331
#     4   9  17  30  47  68  95 124 156 197 240 287
#
# _framework density 19.366517999999999
#
# number of rings (size 3 to 8) (size 9 to 14) (size 15 to 20)
#    0.000    2.143    0.000    3.000    0.000    6.000 
#    0.000    1.429    0.000    6.857    0.000    0.000 
#    0.000    0.000    0.000    0.000    0.000    0.000 
#
# Total GULP energy -155880.862184 kJ/mol
# GULP energy per Si atom -5567.173649 kJ/mol
# Density = 1.932244 g / cm^3
# Si number density = 19.366518 Si / 1000 Ang^3
#
#
#
# Elastic Constant Matrix: (Units=GPa)
#
#
# Indices 1 2 3 4 5 6 
#
# 1 61.8462 -3.8620 -5.5316 0.0000 2.0405 0.0000
# 2 -3.8620 82.1862 43.5743 0.0000 6.8560 0.0000
# 3 -5.5316 43.5743 44.7528 0.0000 6.0793 0.0000
# 4 0.0000 0.0000 0.0000 -16.7594 0.0000 3.9760
# 5 2.0405 6.8560 6.0793 0.0000 17.6315 0.0000
# 6 0.0000 0.0000 0.0000 3.9760 0.0000 37.6880
#
#
#
# Elastic Compliance Matrix: (Units=1/GPa)
#
#
# Indices 1 2 3 4 5 6 
#
# 1 0.016488 -0.000568 0.002959 0.000000 -0.002707 0.000000
# 2 -0.000568 0.025204 -0.024432 0.000000 -0.001311 0.000000
# 3 0.002959 -0.024432 0.047479 0.000000 -0.007213 0.000000
# 4 0.000000 0.000000 0.000000 -0.058211 0.000000 0.006141
# 5 -0.002707 -0.001311 -0.007213 0.000000 0.060027 0.000000
# 6 0.000000 0.000000 0.000000 0.006141 0.000000 0.025886
#
#
# Mechanical properties :
#
#
# Convention : Reuss Voigt Hill
#
# Bulk Modulus (GPa) = 22.17899 28.57184 25.37542
# Shear Modulus (GPa) = 28.41159 18.01899 23.21529
#
# Velocity S-wave (km/s) = 3.83436 3.05359 3.46603
# Velocity P-wave (km/s) = 5.57496 5.21707 5.39898
#
# Compressibility (1/GPa) = 0.04508772
#
# Stress axis : x y z
#
# Youngs Moduli (GPa) = 60.65148 39.67641 21.06176
#
# Poissons Ratio (x) = 0.02254 -0.06232
# Poissons Ratio (y) = 0.03446 0.51459
# Poissons Ratio (z) = -0.17946 0.96939
#
# Static dielectric constant tensor:
#      x y z
#    x 1.742260 0.000000 0.001820 
#    y 0.000000 1.721060 0.000000 
#    z 0.001820 0.000000 1.690690 
# 
# From -- ./inp_files/354961.got.cif
#   From: 2010.05.17/outbox.cif.g08.bks.cpg/sg12_178_cif.got.tgz:354961.got - 2010.06.03 13:09:07.
