data_PCOD9179999
_publ_section_title
;
Structure prediction by ZEFSAII (Michael W. Deem and Ramdas Pophale) SiO2 
 PCOD9179999
Probable space group: C 2/M
;
_chemical_formula_sum "Si O2"
_cell_formula_units_Z 56
_cell_length_a 24.031655
_cell_length_b 14.122904
_cell_length_c 10.096655
_cell_angle_alpha 90.000000
_cell_angle_beta 139.685198
_cell_angle_gamma 90.000000
_cell_volume 2217.076184
_symmetry_space_group_name_H-M "C 2/M"
_symmetry_group_IT_number 12
_symmetry_cell_setting 'monoclinic'
loop_
_space_group_symop_operation_xyz
x,y,z
-x,y,-z
-x,-y,-z
x,-y,z
1/2+x,1/2+y,z
1/2-x,1/2+y,-z
1/2-x,1/2-y,-z
1/2+x,1/2-y,z
loop_
_atom_site_type_symbol
_atom_site_label
_atom_site_fract_x
_atom_site_fract_y
_atom_site_fract_z
Si Si1 0.874355 0.105348 0.224609
Si Si2 0.100765 0.390831 0.089677
Si Si3 0.913023 0.262587 0.139560
Si Si4 0.316829 0.392681 0.839478
Si Si5 0.303952 0.391564 0.391704
Si Si6 0.603060 0.889320 0.660996
Si Si7 0.357110 0.188393 0.558661
O O1 0.943876 0.178299 0.290344
O O2 0.833468 0.121025 0.292486
O O3 0.909453 0.000000 0.284369
O O4 0.802456 0.109259 0.974971
O O5 0.079975 0.500000 0.059325
O O6 0.201011 0.383032 0.222790
O O7 0.096257 0.346733 0.225751
O O8 0.046140 0.344302 0.872607
O O9 0.860162 0.322620 0.154631
O O10 0.879447 0.197195 0.955288
O O11 0.345409 0.500000 0.860949
O O12 0.236203 0.364181 0.606125
O O13 0.327518 0.500000 0.473861
O O14 0.346762 0.302058 0.541829
O O15 0.500000 0.886422 0.500000
O O16 0.617315 0.843614 0.543429
O O17 0.628874 0.000000 0.713644
#
# Coordination Sequence:
#
# PCOD9179999 Si02
#       7
#     8   8   8   8   8   8   8
#     4   8  16  30  50  81 115 143 178 224 276 335
#     4  11  23  33  50  85 123 157 187 225 284 356
#     4  10  19  36  57  81 113 145 189 234 290 333
#     4   9  18  30  54  85 114 147 180 218 279 349
#     4  10  19  31  52  84 124 150 183 227 278 350
#     4  11  25  42  61  81 104 147 207 253 282 328
#     4  12  21  39  55  81 122 159 185 230 292 337
#
# _framework density 25.258492
#
# number of rings (size 3 to 8) (size 9 to 14) (size 15 to 20)
#    0.857    1.000    2.857    2.143    2.000    1.714 
#    0.000    1.429    0.000    6.429    0.000    0.000 
#    0.000    5.714    0.000    0.000    0.000    0.000 
#
# Total GULP energy -156016.195369 kJ/mol
# GULP energy per Si atom -5572.006977 kJ/mol
# Density = 2.520100 g / cm^3
# Si number density = 25.258492 Si / 1000 Ang^3
#
#
#
# Elastic Constant Matrix: (Units=GPa)
#
#
# Indices 1 2 3 4 5 6 
#
# 1 66.5570 25.9438 32.2031 0.0000 -35.0429 0.0000
# 2 25.9438 222.5572 56.4709 0.0000 -29.3156 0.0000
# 3 32.2031 56.4709 119.2244 0.0000 -26.7026 0.0000
# 4 0.0000 0.0000 0.0000 20.2854 0.0000 -33.7726
# 5 -35.0429 -29.3156 -26.7026 0.0000 35.2685 0.0000
# 6 0.0000 0.0000 0.0000 -33.7726 0.0000 -23.9105
#
#
#
# Elastic Compliance Matrix: (Units=1/GPa)
#
#
# Indices 1 2 3 4 5 6 
#
# 1 0.031978 0.000883 -0.002138 0.000000 0.030890 0.000000
# 2 0.000883 0.005391 -0.001917 0.000000 0.003908 0.000000
# 3 -0.002138 -0.001917 0.010886 0.000000 0.004525 0.000000
# 4 0.000000 0.000000 0.000000 0.014709 0.000000 -0.020775
# 5 0.030890 0.003908 0.004525 0.000000 0.065720 0.000000
# 6 0.000000 0.000000 0.000000 -0.020775 0.000000 -0.012479
#
#
# Mechanical properties :
#
#
# Convention : Reuss Voigt Hill
#
# Bulk Modulus (GPa) = 23.85847 70.84156 47.35002
# Shear Modulus (GPa) = 36.62466 25.91008 31.26737
#
# Velocity S-wave (km/s) = 3.81201 3.20628 3.52219
# Velocity P-wave (km/s) = 5.37042 6.46641 5.94373
#
# Compressibility (1/GPa) = 0.04191383
#
# Stress axis : x y z
#
# Youngs Moduli (GPa) = 31.27111 185.48038 91.85790
#
# Poissons Ratio (x) = -0.16387 0.19636
# Poissons Ratio (y) = -0.02763 0.17610
# Poissons Ratio (z) = 0.06685 0.35558
#
# Static dielectric constant tensor:
#      x y z
#    x 2.105220 0.000000 0.099960 
#    y 0.000000 2.024120 0.000000 
#    z 0.099960 0.000000 2.003000 
# 
# From -- ./inp_files/111732.got.cif
#   From: 2010.05.17/outbox.cif.g08.bks.cpg/sg12_56_cif.got.tgz:111732.got - 2010.06.03 13:09:07.
