data_PCOD9179492
_publ_section_title
;
Structure prediction by ZEFSAII (Michael W. Deem and Ramdas Pophale) SiO2 
 PCOD9179492
Probable space group: C 2/M
;
_chemical_formula_sum "Si O2"
_cell_formula_units_Z 64
_cell_length_a 24.381997
_cell_length_b 8.469824
_cell_length_c 22.217415
_cell_angle_alpha 90.000000
_cell_angle_beta 50.993887
_cell_angle_gamma 90.000000
_cell_volume 3565.350702
_symmetry_space_group_name_H-M "C 2/M"
_symmetry_group_IT_number 12
_symmetry_cell_setting 'monoclinic'
loop_
_space_group_symop_operation_xyz
x,y,z
-x,y,-z
-x,-y,-z
x,-y,z
1/2+x,1/2+y,z
1/2-x,1/2+y,-z
1/2-x,1/2-y,-z
1/2+x,1/2-y,z
loop_
_atom_site_type_symbol
_atom_site_label
_atom_site_fract_x
_atom_site_fract_y
_atom_site_fract_z
Si Si1 0.743786 0.186700 0.813549
Si Si2 0.392566 0.186124 0.667699
Si Si3 0.281268 0.687541 0.916566
Si Si4 0.329264 0.312144 0.456283
Si Si5 0.431877 0.191223 0.767673
Si Si6 0.838397 0.691490 0.581828
Si Si7 0.316067 0.687284 0.258351
Si Si8 0.921220 0.311802 0.283262
O O1 0.812130 0.286250 0.745511
O O2 0.733013 0.223894 0.891144
O O3 0.684614 0.229808 0.806111
O O4 0.760388 0.000000 0.797308
O O5 0.436358 0.249232 0.694642
O O6 0.389824 0.245973 0.600834
O O7 0.407649 0.000000 0.652704
O O8 0.287163 0.500000 0.916580
O O9 0.358419 0.754745 0.847226
O O10 0.250000 0.750000 0.000000
O O11 0.330296 0.500000 0.447468
O O12 0.250000 0.250000 0.500000
O O13 0.352302 0.265781 0.507670
O O14 0.378411 0.231492 0.372922
O O15 0.498846 0.242434 0.760195
O O16 0.431884 0.000000 0.765344
O O17 0.842172 0.500000 0.574849
O O18 0.757672 0.732260 0.657055
O O19 0.313941 0.500000 0.251385
O O20 0.380705 0.734440 0.255681
O O21 0.920630 0.500000 0.275447
#
# Coordination Sequence:
#
# PCOD9179492 Si02
#       8
#     8   8   8   8   8   8   8   8
#     4   9  17  29  48  77 107 133 169 212 254 298
#     4   8  15  30  51  72  98 131 169 212 258 308
#     4  10  20  34  57  86 113 141 170 209 255 303
#     4  12  23  34  49  70 100 136 177 224 271 313
#     4   9  19  36  56  79 106 138 174 212 257 314
#     4   9  17  30  49  72  97 128 171 220 266 308
#     4  10  19  31  50  74 102 137 175 215 261 309
#     4  11  22  35  53  75 103 139 177 218 265 314
#
# _framework density 17.950548999999999
#
# number of rings (size 3 to 8) (size 9 to 14) (size 15 to 20)
#    0.000    2.250    1.250    3.375    0.000    4.500 
#    0.000    0.625    0.000    4.500    0.000    5.250 
#    0.000    0.000    0.000    0.000    0.000    0.000 
#
# Total GULP energy -178387.537106 kJ/mol
# GULP energy per Si atom -5574.610535 kJ/mol
# Density = 1.790969 g / cm^3
# Si number density = 17.950549 Si / 1000 Ang^3
#
#
#
# Elastic Constant Matrix: (Units=GPa)
#
#
# Indices 1 2 3 4 5 6 
#
# 1 114.3262 8.6833 38.8454 0.0000 19.0353 0.0001
# 2 8.6833 12.8290 -0.4617 -0.0015 1.6541 -0.0020
# 3 38.8454 -0.4617 58.5251 0.0000 19.7843 0.0002
# 4 0.0000 -0.0015 0.0000 21.9300 0.0003 5.3795
# 5 19.0353 1.6541 19.7843 0.0003 26.1485 -0.0002
# 6 0.0001 -0.0020 0.0002 5.3795 -0.0002 22.5505
#
#
#
# Elastic Compliance Matrix: (Units=1/GPa)
#
#
# Indices 1 2 3 4 5 6 
#
# 1 0.012327 -0.008221 -0.007241 0.000000 -0.002975 -0.000001
# 2 -0.008221 0.084490 0.007937 0.000004 -0.005365 0.000006
# 3 -0.007241 0.007937 0.027335 0.000001 -0.015913 0.000000
# 4 0.000000 0.000004 0.000001 0.048434 -0.000001 -0.011554
# 5 -0.002975 -0.005365 -0.015913 -0.000001 0.052788 0.000000
# 6 -0.000001 0.000006 0.000000 -0.011554 0.000000 0.047101
#
#
# Mechanical properties :
#
#
# Convention : Reuss Voigt Hill
#
# Bulk Modulus (GPa) = 9.16575 31.09045 20.12810
# Shear Modulus (GPa) = 15.43725 23.36669 19.40197
#
# Velocity S-wave (km/s) = 2.93574 3.61186 3.29121
# Velocity P-wave (km/s) = 4.07536 5.89506 5.06756
#
# Compressibility (1/GPa) = 0.10910181
#
# Stress axis : x y z
#
# Youngs Moduli (GPa) = 81.12311 11.83571 36.58349
#
# Poissons Ratio (x) = 0.09730 0.26490
# Poissons Ratio (y) = 0.66688 -0.29035
# Poissons Ratio (z) = 0.58742 -0.09394
#
# Static dielectric constant tensor:
#      x y z
#    x 1.655250 0.000000 0.035700 
#    y 0.000000 1.627570 0.000000 
#    z 0.035700 0.000000 1.586540 
# 
# From -- ./inp_files/323749.got.cif
#   From: 2010.05.17/outbox.cif.g08.bks.cpg/sg12_162_cif.got.tgz:323749.got - 2010.06.03 13:09:07.
