data_PCOD9179275
_publ_section_title
;
Structure prediction by ZEFSAII (Michael W. Deem and Ramdas Pophale) SiO2 
 PCOD9179275
Probable space group: C 2/M
;
_chemical_formula_sum "Si O2"
_cell_formula_units_Z 64
_cell_length_a 32.456348
_cell_length_b 9.047399
_cell_length_c 16.119266
_cell_angle_alpha 90.000000
_cell_angle_beta 54.311565
_cell_angle_gamma 90.000000
_cell_volume 3844.433344
_symmetry_space_group_name_H-M "C 2/M"
_symmetry_group_IT_number 12
_symmetry_cell_setting 'monoclinic'
loop_
_space_group_symop_operation_xyz
x,y,z
-x,y,-z
-x,-y,-z
x,-y,z
1/2+x,1/2+y,z
1/2-x,1/2+y,-z
1/2-x,1/2-y,-z
1/2+x,1/2-y,z
loop_
_atom_site_type_symbol
_atom_site_label
_atom_site_fract_x
_atom_site_fract_y
_atom_site_fract_z
Si Si1 0.676052 0.821813 0.910797
Si Si2 0.608174 0.676773 0.430083
Si Si3 0.022988 0.177989 0.841918
Si Si4 0.420723 0.677404 0.054039
Si Si5 0.454524 0.176691 0.359424
Si Si6 0.441987 0.825528 0.665479
Si Si7 0.289419 0.677577 0.782158
Si Si8 0.662843 0.824964 0.117393
O O1 0.631741 0.751603 0.908847
O O2 0.733336 0.778699 0.819182
O O3 0.671885 0.000000 0.911882
O O4 0.668970 0.776913 0.015502
O O5 0.605866 0.500000 0.439584
O O6 0.591109 0.752246 0.534993
O O7 0.570557 0.732760 0.401574
O O8 0.664427 0.720920 0.332548
O O9 0.058934 0.214505 0.877989
O O10 0.039614 0.257101 0.738814
O O11 0.023956 0.000000 0.830114
O O12 0.965864 0.219856 0.937233
O O13 0.416016 0.500000 0.055684
O O14 0.505965 0.212500 0.350195
O O15 0.449823 0.000000 0.361717
O O16 0.394814 0.803028 0.783435
O O17 0.443344 0.000000 0.641411
O O18 0.290305 0.500000 0.787967
O O19 0.301809 0.742841 0.858069
O O20 0.673792 0.000000 0.108526
#
# Coordination Sequence:
#
# PCOD9179275 Si02
#       8
#     8   8   8   8   8   8   8   8
#     4  10  19  31  49  73 100 129 163 202 242 285
#     4  10  20  33  48  67  95 132 170 205 241 281
#     4   9  19  36  54  74 102 129 154 190 236 288
#     4   9  19  35  54  76 101 128 156 189 235 289
#     4  11  21  32  50  74  98 127 163 201 243 289
#     4   9  18  31  45  67 100 130 158 197 242 288
#     4   9  19  33  47  67  97 132 168 205 242 279
#     4   9  17  29  46  69  98 130 161 196 240 287
#
# _framework density 16.647447
#
# number of rings (size 3 to 8) (size 9 to 14) (size 15 to 20)
#    0.000    2.500    0.000    3.000    0.000    6.000 
#    0.000    3.750    0.000    0.750    0.000    0.000 
#    0.000    0.000    0.000    0.000    0.000    0.000 
#
# Total GULP energy -178549.405070 kJ/mol
# GULP energy per Si atom -5579.668908 kJ/mol
# Density = 1.660956 g / cm^3
# Si number density = 16.647447 Si / 1000 Ang^3
#
#
#
# Elastic Constant Matrix: (Units=GPa)
#
#
# Indices 1 2 3 4 5 6 
#
# 1 118.9145 39.3367 65.5397 0.0000 -13.6955 0.0000
# 2 39.3367 26.8662 46.6966 0.0000 -0.2783 0.0000
# 3 65.5397 46.6966 122.5414 0.0000 7.4032 0.0000
# 4 0.0000 0.0000 0.0000 17.3607 0.0000 4.4988
# 5 -13.6955 -0.2783 7.4032 0.0000 14.9164 0.0000
# 6 0.0000 0.0000 0.0000 4.4988 0.0000 29.7671
#
#
#
# Elastic Compliance Matrix: (Units=1/GPa)
#
#
# Indices 1 2 3 4 5 6 
#
# 1 0.020406 -0.025677 -0.002301 0.000000 0.019398 0.000000
# 2 -0.025677 0.151248 -0.043967 0.000000 0.001068 0.000000
# 3 -0.002301 -0.043967 0.027136 0.000000 -0.016401 0.000000
# 4 0.000000 0.000000 0.000000 0.059949 0.000000 -0.009060
# 5 0.019398 0.001068 -0.016401 0.000000 0.093011 0.000000
# 6 0.000000 0.000000 0.000000 -0.009060 0.000000 0.034963
#
#
# Mechanical properties :
#
#
# Convention : Reuss Voigt Hill
#
# Bulk Modulus (GPa) = 18.21500 63.49644 40.85572
# Shear Modulus (GPa) = 9.10906 20.19213 14.65060
#
# Velocity S-wave (km/s) = 2.34171 3.48649 2.96978
# Velocity P-wave (km/s) = 4.27515 7.37781 6.02947
#
# Compressibility (1/GPa) = 0.05489981
#
# Stress axis : x y z
#
# Youngs Moduli (GPa) = 49.00617 6.61165 36.85080
#
# Poissons Ratio (x) = 0.16977 0.08479
# Poissons Ratio (y) = 1.25834 1.62023
# Poissons Ratio (z) = 0.11276 0.29070
#
# Static dielectric constant tensor:
#      x y z
#    x 1.541480 0.000000 -0.023210 
#    y 0.000000 1.554260 0.000000 
#    z -0.023210 0.000000 1.565700 
# 
# From -- ./inp_files/248954.got.cif
#   From: 2010.05.17/outbox.cif.g08.bks.cpg/sg12_125_cif.got.tgz:248954.got - 2010.06.03 13:09:07.
