data_PCOD9179880
_publ_section_title
;
Structure prediction by ZEFSAII (Michael W. Deem and Ramdas Pophale) SiO2 
 PCOD9179880
Probable space group: C 2/M
;
_chemical_formula_sum "Si O2"
_cell_formula_units_Z 56
_cell_length_a 21.204920
_cell_length_b 21.014443
_cell_length_c 5.990935
_cell_angle_alpha 90.000000
_cell_angle_beta 73.578878
_cell_angle_gamma 90.000000
_cell_volume 2560.723857
_symmetry_space_group_name_H-M "C 2/M"
_symmetry_group_IT_number 12
_symmetry_cell_setting 'monoclinic'
loop_
_space_group_symop_operation_xyz
x,y,z
-x,y,-z
-x,-y,-z
x,-y,z
1/2+x,1/2+y,z
1/2-x,1/2+y,-z
1/2-x,1/2-y,-z
1/2+x,1/2-y,z
loop_
_atom_site_type_symbol
_atom_site_label
_atom_site_fract_x
_atom_site_fract_y
_atom_site_fract_z
Si Si1 0.438909 0.568919 0.234379
Si Si2 0.295820 0.399110 0.231636
Si Si3 0.555151 0.710164 0.756405
Si Si4 0.161897 0.571528 0.136698
Si Si5 0.112290 0.688970 0.416650
Si Si6 0.280993 0.843300 0.310671
Si Si7 0.824169 0.227100 0.030039
O O1 0.441457 0.500000 0.353744
O O2 0.367637 0.570053 0.180828
O O3 0.444716 0.638461 0.346575
O O4 0.500000 0.568976 0.000000
O O5 0.227835 0.432526 0.226607
O O6 0.280598 0.369893 0.491877
O O7 0.299591 0.344461 0.039274
O O8 0.555398 0.771197 0.595630
O O9 0.500000 0.713758 0.000000
O O10 0.621656 0.716909 0.830899
O O11 0.137338 0.500000 0.128870
O O12 0.108939 0.620908 0.294806
O O13 0.186527 0.604530 0.883428
O O14 0.166878 0.673913 0.548570
O O15 0.140306 0.738478 0.207664
O O16 0.272262 0.776927 0.186524
#
# Coordination Sequence:
#
# PCOD9179880 Si02
#       7
#     8   8   8   8   8   8   8
#     4   9  18  33  52  74 105 145 182 217 259 304
#     4  10  19  31  52  77 104 139 181 222 259 309
#     4   9  18  33  55  81 107 140 183 224 262 311
#     4  10  21  34  50  76 108 142 178 219 272 329
#     4   9  19  35  54  78 107 139 175 222 274 319
#     4   9  19  32  49  74 104 136 172 217 270 323
#     4   9  18  32  50  77 108 137 170 217 270 315
#
# _framework density 21.868815999999999
#
# number of rings (size 3 to 8) (size 9 to 14) (size 15 to 20)
#    0.000    2.714    0.000    0.857    0.000   13.143 
#    0.000    0.000    0.000    6.429    0.000   33.000 
#    0.000    0.000    0.000    0.000    0.000    0.000 
#
# Total GULP energy -155957.650138 kJ/mol
# GULP energy per Si atom -5569.916076 kJ/mol
# Density = 2.181904 g / cm^3
# Si number density = 21.868816 Si / 1000 Ang^3
#
#
#
# Elastic Constant Matrix: (Units=GPa)
#
#
# Indices 1 2 3 4 5 6 
#
# 1 49.8446 18.1648 6.7405 0.0000 -5.5963 0.0000
# 2 18.1648 201.5353 56.6568 0.0000 -18.5665 0.0000
# 3 6.7405 56.6568 77.8647 0.0000 -7.7749 0.0000
# 4 0.0000 0.0000 0.0000 -9.9221 0.0000 8.6144
# 5 -5.5963 -18.5665 -7.7749 0.0000 23.6485 0.0000
# 6 0.0000 0.0000 0.0000 8.6144 0.0000 1.5547
#
#
#
# Elastic Compliance Matrix: (Units=1/GPa)
#
#
# Indices 1 2 3 4 5 6 
#
# 1 0.021060 -0.001443 -0.000402 0.000000 0.003719 0.000000
# 2 -0.001443 0.006634 -0.004359 0.000000 0.003434 0.000000
# 3 -0.000402 -0.004359 0.016231 0.000000 0.001819 0.000000
# 4 0.000000 0.000000 0.000000 -0.017345 0.000000 0.096107
# 5 0.003719 0.003434 0.001819 0.000000 0.046460 0.000000
# 6 0.000000 0.000000 0.000000 0.096107 0.000000 0.110696
#
#
# Mechanical properties :
#
#
# Convention : Reuss Voigt Hill
#
# Bulk Modulus (GPa) = 31.72876 54.70764 43.21820
# Shear Modulus (GPa) = 24.19568 19.56840 21.88204
#
# Velocity S-wave (km/s) = 3.32987 2.99458 3.16667
# Velocity P-wave (km/s) = 5.41518 6.08500 5.75984
#
# Compressibility (1/GPa) = 0.03151715
#
# Stress axis : x y z
#
# Youngs Moduli (GPa) = 47.48340 150.74467 61.61017
#
# Poissons Ratio (x) = 0.21745 0.02477
# Poissons Ratio (y) = 0.06850 0.26857
# Poissons Ratio (z) = 0.01909 0.65712
#
# Static dielectric constant tensor:
#      x y z
#    x 1.865090 0.000000 0.015100 
#    y 0.000000 1.864630 0.000000 
#    z 0.015100 0.000000 1.811350 
# 
# From -- ./inp_files/25609.got.cif
#   From: 2010.05.17/outbox.cif.g08.bks.cpg/sg12_13_cif.got.tgz:25609.got - 2010.06.03 13:09:07.
