data_PCOD9179090
_publ_section_title
;
Structure prediction by ZEFSAII (Michael W. Deem and Ramdas Pophale) SiO2 
 PCOD9179090
Probable space group: C 2/M
;
_chemical_formula_sum "Si O2"
_cell_formula_units_Z 64
_cell_length_a 25.711737
_cell_length_b 8.746166
_cell_length_c 18.250512
_cell_angle_alpha 90.000000
_cell_angle_beta 103.628883
_cell_angle_gamma 90.000000
_cell_volume 3988.595566
_symmetry_space_group_name_H-M "C 2/M"
_symmetry_group_IT_number 12
_symmetry_cell_setting 'monoclinic'
loop_
_space_group_symop_operation_xyz
x,y,z
-x,y,-z
-x,-y,-z
x,-y,z
1/2+x,1/2+y,z
1/2-x,1/2+y,-z
1/2-x,1/2-y,-z
1/2+x,1/2-y,z
loop_
_atom_site_type_symbol
_atom_site_label
_atom_site_fract_x
_atom_site_fract_y
_atom_site_fract_z
Si Si1 0.838246 0.316822 0.659583
Si Si2 0.130083 0.684649 0.925003
Si Si3 0.191111 0.183509 0.496859
Si Si4 0.783401 0.816433 0.336814
Si Si5 0.202892 0.684307 0.815831
Si Si6 0.319777 0.315690 0.912091
Si Si7 0.403899 0.316842 0.812963
Si Si8 0.991120 0.315510 0.082285
O O1 0.839293 0.500000 0.657570
O O2 0.844771 0.251747 0.579697
O O3 0.778679 0.269706 0.668719
O O4 0.881162 0.253651 0.730798
O O5 0.131556 0.500000 0.928523
O O6 0.157653 0.733478 0.858406
O O7 0.068341 0.731837 0.913240
O O8 0.163399 0.746879 0.004828
O O9 0.250000 0.250000 0.500000
O O10 0.182479 0.224619 0.579259
O O11 0.192184 0.000000 0.491612
O O12 0.803176 0.746073 0.267955
O O13 0.783436 0.000000 0.330958
O O14 0.203015 0.500000 0.812996
O O15 0.260909 0.733122 0.866357
O O16 0.320022 0.500000 0.917590
O O17 0.363207 0.270770 0.865000
O O18 0.403298 0.500000 0.807778
O O19 0.462261 0.257878 0.854158
O O20 0.994961 0.500000 0.088510
O O21 0.000000 0.273276 0.000000
#
# Coordination Sequence:
#
# PCOD9179090 Si02
#       8
#     8   8   8   8   8   8   8   8
#     4  10  19  31  48  72 100 131 165 199 241 292
#     4  10  21  35  51  69  92 128 171 208 245 289
#     4   9  17  29  45  69 100 132 165 198 237 289
#     4   9  18  30  46  70  99 132 163 192 235 289
#     4  10  20  33  48  70  99 130 165 203 242 289
#     4  10  20  32  47  70  98 127 161 202 249 291
#     4  11  21  32  50  74  98 128 163 203 248 294
#     4  10  20  35  52  69  92 127 167 209 251 290
#
# _framework density 16.045748
#
# number of rings (size 3 to 8) (size 9 to 14) (size 15 to 20)
#    0.000    2.125    2.500    2.250    0.000    4.750 
#    0.000    0.000    0.000    0.000    0.000    0.875 
#    0.000    7.000    0.000    0.000    0.000    0.000 
#
# Total GULP energy -178485.048134 kJ/mol
# GULP energy per Si atom -5577.657754 kJ/mol
# Density = 1.600923 g / cm^3
# Si number density = 16.045748 Si / 1000 Ang^3
#
#
#
# Elastic Constant Matrix: (Units=GPa)
#
#
# Indices 1 2 3 4 5 6 
#
# 1 78.1884 20.9667 70.0071 0.0000 -13.6361 0.0000
# 2 20.9667 22.9842 42.6880 0.0000 -0.4413 0.0000
# 3 70.0071 42.6880 182.6845 0.0000 0.0356 0.0000
# 4 0.0000 0.0000 0.0000 31.9621 0.0000 3.1875
# 5 -13.6361 -0.4413 0.0356 0.0000 17.8349 0.0000
# 6 0.0000 0.0000 0.0000 3.1875 0.0000 15.1635
#
#
#
# Elastic Compliance Matrix: (Units=1/GPa)
#
#
# Indices 1 2 3 4 5 6 
#
# 1 0.025307 -0.008302 -0.007762 0.000000 0.019159 0.000000
# 2 -0.008302 0.079659 -0.015432 0.000000 -0.004346 0.000000
# 3 -0.007762 -0.015432 0.012055 0.000000 -0.006340 0.000000
# 4 0.000000 0.000000 0.000000 0.031957 0.000000 -0.006718
# 5 0.019159 -0.004346 -0.006340 0.000000 0.070624 0.000000
# 6 0.000000 0.000000 0.000000 -0.006718 0.000000 0.067360
#
#
# Mechanical properties :
#
#
# Convention : Reuss Voigt Hill
#
# Bulk Modulus (GPa) = 18.50815 61.24230 39.87522
# Shear Modulus (GPa) = 13.58837 23.00512 18.29675
#
# Velocity S-wave (km/s) = 2.91323 3.79056 3.38048
# Velocity P-wave (km/s) = 4.78284 7.57680 6.33575
#
# Compressibility (1/GPa) = 0.05403026
#
# Stress axis : x y z
#
# Youngs Moduli (GPa) = 39.51515 12.55358 82.95009
#
# Poissons Ratio (x) = 0.10422 0.64383
# Poissons Ratio (y) = 0.32805 1.28005
# Poissons Ratio (z) = 0.30670 0.19372
#
# Static dielectric constant tensor:
#      x y z
#    x 1.524780 0.000000 -0.001740 
#    y 0.000000 1.539380 0.000000 
#    z -0.001740 0.000000 1.544170 
# 
# From -- ./inp_files/244051.got.cif
#   From: 2010.05.17/outbox.cif.g08.bks.cpg/sg12_123_cif.got.tgz:244051.got - 2010.06.03 13:09:07.
