data_PCOD9179223
_publ_section_title
;
Structure prediction by ZEFSAII (Michael W. Deem and Ramdas Pophale) SiO2 
 PCOD9179223
Probable space group: C 2/M
;
_chemical_formula_sum "Si O2"
_cell_formula_units_Z 64
_cell_length_a 11.386997
_cell_length_b 22.276345
_cell_length_c 21.010986
_cell_angle_alpha 90.000000
_cell_angle_beta 140.146217
_cell_angle_gamma 90.000000
_cell_volume 3415.409757
_symmetry_space_group_name_H-M "C 2/M"
_symmetry_group_IT_number 12
_symmetry_cell_setting 'monoclinic'
loop_
_space_group_symop_operation_xyz
x,y,z
-x,y,-z
-x,-y,-z
x,-y,z
1/2+x,1/2+y,z
1/2-x,1/2+y,-z
1/2-x,1/2-y,-z
1/2+x,1/2-y,z
loop_
_atom_site_type_symbol
_atom_site_label
_atom_site_fract_x
_atom_site_fract_y
_atom_site_fract_z
Si Si1 0.709215 0.430296 0.833438
Si Si2 0.692693 0.760132 0.119003
Si Si3 0.791637 0.073003 0.638471
Si Si4 0.851645 0.128050 0.883203
Si Si5 0.676013 0.351928 0.927701
Si Si6 0.045415 0.427240 0.417478
Si Si7 0.981482 0.429705 0.736405
Si Si8 0.546034 0.849538 0.152141
O O1 0.719298 0.500000 0.825434
O O2 0.502690 0.408392 0.730671
O O3 0.732335 0.413330 0.916491
O O4 0.865181 0.396671 0.860019
O O5 0.751077 0.691698 0.149692
O O6 0.815248 0.801255 0.123675
O O7 0.650680 0.789736 0.170447
O O8 0.500000 0.759208 0.000000
O O9 0.652969 0.092432 0.637248
O O10 0.695808 0.091077 0.532313
O O11 0.793061 0.000000 0.641039
O O12 0.701713 0.076461 0.820410
O O13 0.978526 0.138845 0.875078
O O14 0.000000 0.117229 0.000000
O O15 0.832202 0.339286 0.045315
O O16 0.041055 0.500000 0.415835
O O17 0.088052 0.410753 0.362658
O O18 0.933705 0.500000 0.729923
O O19 0.928569 0.382617 0.769797
#
# Coordination Sequence:
#
# PCOD9179223 Si02
#       8
#     8   8   8   8   8   8   8   8
#     4  10  19  31  49  71  98 135 174 206 242 294
#     4   8  19  33  54  69  90 126 180 227 239 270
#     4   8  14  28  50  70  93 126 170 214 243 283
#     4  11  21  33  51  73  98 135 169 213 255 290
#     4  10  20  34  48  73  98 132 175 208 245 289
#     4   8  15  29  48  71  98 129 162 205 253 295
#     4  11  22  33  47  74 112 139 160 197 259 324
#     4  10  20  35  47  69 102 139 169 203 247 298
#
# _framework density 18.738600999999999
#
# number of rings (size 3 to 8) (size 9 to 14) (size 15 to 20)
#    0.000    2.500    1.250    3.000    1.750    4.750 
#    0.000    0.625    0.000    3.000    0.000    3.500 
#    7.500    0.000    0.000    0.000    0.000    0.000 
#
# Total GULP energy -178214.339914 kJ/mol
# GULP energy per Si atom -5569.198122 kJ/mol
# Density = 1.869595 g / cm^3
# Si number density = 18.738601 Si / 1000 Ang^3
#
#
#
# Elastic Constant Matrix: (Units=GPa)
#
#
# Indices 1 2 3 4 5 6 
#
# 1 81.1586 11.5057 15.1196 0.0001 -16.1376 0.0001
# 2 11.5057 40.8274 6.2830 0.0000 -5.3346 0.0000
# 3 15.1196 6.2830 53.3612 -0.0003 -12.6280 -0.0001
# 4 0.0001 0.0000 -0.0003 0.8070 0.0000 -6.5030
# 5 -16.1376 -5.3346 -12.6280 0.0000 31.3095 0.0000
# 6 0.0001 0.0000 -0.0001 -6.5030 0.0000 19.4013
#
#
#
# Elastic Compliance Matrix: (Units=1/GPa)
#
#
# Indices 1 2 3 4 5 6 
#
# 1 0.014351 -0.002909 -0.002311 0.000002 0.005969 0.000000
# 2 -0.002909 0.025864 -0.001695 0.000000 0.002224 0.000000
# 3 -0.002311 -0.001695 0.021275 -0.000005 0.007101 -0.000002
# 4 0.000002 0.000000 -0.000005 -0.728493 -0.000001 -0.244178
# 5 0.005969 0.002224 0.007101 -0.000001 0.038259 0.000000
# 6 0.000000 0.000000 -0.000002 -0.244178 0.000000 -0.030301
#
#
# Mechanical properties :
#
#
# Convention : Reuss Voigt Hill
#
# Bulk Modulus (GPa) = 20.98148 26.79597 23.88873
# Shear Modulus (GPa) = -7.94499 19.79946 5.92724
#
# Velocity S-wave (km/s) = -2.06134 3.25409 1.78044
# Velocity P-wave (km/s) = 2.35707 5.33382 4.12344
#
# Compressibility (1/GPa) = 0.04766108
#
# Stress axis : x y z
#
# Youngs Moduli (GPa) = 69.67938 38.66305 47.00331
#
# Poissons Ratio (x) = 0.11246 0.10864
# Poissons Ratio (y) = 0.20268 0.07967
# Poissons Ratio (z) = 0.16105 0.06553
#
# Static dielectric constant tensor:
#      x y z
#    x 1.702130 0.000000 -0.023550 
#    y 0.000000 1.665380 0.000000 
#    z -0.023550 0.000000 1.669580 
# 
# From -- ./inp_files/307146.got.cif
#   From: 2010.05.17/outbox.cif.g08.bks.cpg/sg12_154_cif.got.tgz:307146.got - 2010.06.03 13:09:07.
