data_PCOD9179225
_publ_section_title
;
Structure prediction by ZEFSAII (Michael W. Deem and Ramdas Pophale) SiO2 
 PCOD9179225
Probable space group: C 2/M
;
_chemical_formula_sum "Si O2"
_cell_formula_units_Z 64
_cell_length_a 24.184887
_cell_length_b 8.736674
_cell_length_c 24.711595
_cell_angle_alpha 90.000000
_cell_angle_beta 136.779247
_cell_angle_gamma 90.000000
_cell_volume 3575.705659
_symmetry_space_group_name_H-M "C 2/M"
_symmetry_group_IT_number 12
_symmetry_cell_setting 'monoclinic'
loop_
_space_group_symop_operation_xyz
x,y,z
-x,y,-z
-x,-y,-z
x,-y,z
1/2+x,1/2+y,z
1/2-x,1/2+y,-z
1/2-x,1/2-y,-z
1/2+x,1/2-y,z
loop_
_atom_site_type_symbol
_atom_site_label
_atom_site_fract_x
_atom_site_fract_y
_atom_site_fract_z
Si Si1 0.461250 0.183673 0.226654
Si Si2 0.981816 0.814502 0.845349
Si Si3 0.154877 0.184793 0.171184
Si Si4 0.830408 0.182763 0.314478
Si Si5 0.223354 0.315473 0.923372
Si Si6 0.619568 0.685757 0.028239
Si Si7 0.490776 0.683318 0.362875
Si Si8 0.583440 0.824314 0.525188
O O1 0.504301 0.243732 0.203371
O O2 0.367035 0.233548 0.155643
O O3 0.496790 0.250402 0.307225
O O4 0.463727 0.000000 0.229932
O O5 0.898432 0.770909 0.815139
O O6 0.985234 0.000000 0.843608
O O7 0.053265 0.763806 0.937410
O O8 0.245044 0.247982 0.236928
O O9 0.110794 0.234146 0.084107
O O10 0.158724 0.000000 0.173091
O O11 0.904101 0.231333 0.327372
O O12 0.853846 0.238476 0.391429
O O13 0.826787 0.000000 0.310756
O O14 0.223846 0.500000 0.926705
O O15 0.291505 0.269146 0.928960
O O16 0.250000 0.250000 0.000000
O O17 0.615224 0.500000 0.024961
O O18 0.492766 0.500000 0.363451
O O19 0.559969 0.744754 0.452340
O O20 0.500000 0.823258 0.500000
O O21 0.607834 0.000000 0.534361
#
# Coordination Sequence:
#
# PCOD9179225 Si02
#       8
#     8   8   8   8   8   8   8   8
#     4  11  22  34  51  77 107 140 178 221 266 315
#     4  10  20  35  54  73  99 140 184 224 267 314
#     4  10  20  34  54  77 101 136 183 226 263 311
#     4  10  20  34  53  80 112 142 171 211 263 314
#     4  10  19  31  49  72 100 133 169 213 264 313
#     4   9  17  32  53  75  99 131 175 224 268 313
#     4  10  20  34  54  81 111 142 174 210 257 317
#     4   9  17  31  54  82 111 140 169 208 256 310
#
# _framework density 17.898564
#
# number of rings (size 3 to 8) (size 9 to 14) (size 15 to 20)
#    0.000    2.125    1.250    2.625    0.000    6.500 
#    0.000    1.250    0.000    2.250    0.000    0.000 
#    0.000    0.000    0.000    0.000    0.000    0.000 
#
# Total GULP energy -178581.089808 kJ/mol
# GULP energy per Si atom -5580.659056 kJ/mol
# Density = 1.785783 g / cm^3
# Si number density = 17.898564 Si / 1000 Ang^3
#
#
#
# Elastic Constant Matrix: (Units=GPa)
#
#
# Indices 1 2 3 4 5 6 
#
# 1 76.8437 23.5518 40.2731 0.0000 -21.3249 0.0000
# 2 23.5518 26.2221 21.6604 0.0000 -11.0866 0.0000
# 3 40.2731 21.6604 114.5814 0.0000 -32.8013 0.0000
# 4 0.0000 0.0000 0.0000 25.6536 0.0000 -1.1017
# 5 -21.3249 -11.0866 -32.8013 0.0000 24.2486 0.0000
# 6 0.0000 0.0000 0.0000 -1.1017 0.0000 21.1562
#
#
#
# Elastic Compliance Matrix: (Units=1/GPa)
#
#
# Indices 1 2 3 4 5 6 
#
# 1 0.020683 -0.012818 -0.002150 0.000000 0.009421 0.000000
# 2 -0.012818 0.056675 -0.003293 0.000000 0.010185 0.000000
# 3 -0.002150 -0.003293 0.014905 0.000000 0.016766 0.000000
# 4 0.000000 0.000000 0.000000 0.039068 0.000000 0.002034
# 5 0.009421 0.010185 0.016766 0.000000 0.076861 0.000000
# 6 0.000000 0.000000 0.000000 0.002034 0.000000 0.047373
#
#
# Mechanical properties :
#
#
# Convention : Reuss Voigt Hill
#
# Bulk Modulus (GPa) = 17.93974 43.17975 30.55975
# Shear Modulus (GPa) = 16.09439 23.02247 19.55843
#
# Velocity S-wave (km/s) = 3.00192 3.59036 3.30924
# Velocity P-wave (km/s) = 4.69682 6.43153 5.63137
#
# Compressibility (1/GPa) = 0.05574218
#
# Stress axis : x y z
#
# Youngs Moduli (GPa) = 48.34873 17.64460 67.09091
#
# Poissons Ratio (x) = 0.22617 0.14422
# Poissons Ratio (y) = 0.61973 0.22091
# Poissons Ratio (z) = 0.10393 0.05810
#
# Static dielectric constant tensor:
#      x y z
#    x 1.608420 0.000000 0.000150 
#    y 0.000000 1.606500 0.000000 
#    z 0.000150 0.000000 1.597330 
# 
# From -- ./inp_files/324320.got.cif
#   From: 2010.05.17/outbox.cif.g08.bks.cpg/sg12_163_cif.got.tgz:324320.got - 2010.06.03 13:09:07.
