data_PCOD9179258
_publ_section_title
;
Structure prediction by ZEFSAII (Michael W. Deem and Ramdas Pophale) SiO2 
 PCOD9179258
Probable space group: C 2/M
;
_chemical_formula_sum "Si O2"
_cell_formula_units_Z 48
_cell_length_a 18.709142
_cell_length_b 9.138450
_cell_length_c 32.149569
_cell_angle_alpha 90.000000
_cell_angle_beta 150.316627
_cell_angle_gamma 90.000000
_cell_volume 2721.999042
_symmetry_space_group_name_H-M "C 2/M"
_symmetry_group_IT_number 12
_symmetry_cell_setting 'monoclinic'
loop_
_space_group_symop_operation_xyz
x,y,z
-x,y,-z
-x,-y,-z
x,-y,z
1/2+x,1/2+y,z
1/2-x,1/2+y,-z
1/2-x,1/2-y,-z
1/2+x,1/2-y,z
loop_
_atom_site_type_symbol
_atom_site_label
_atom_site_fract_x
_atom_site_fract_y
_atom_site_fract_z
Si Si1 0.151930 0.175956 0.237543
Si Si2 0.330540 0.331397 0.161805
Si Si3 0.175128 0.672543 0.423496
Si Si4 0.332333 0.827237 0.246106
Si Si5 0.818040 0.167600 0.656340
Si Si6 0.841032 0.324787 0.082475
O O1 0.248595 0.204945 0.246234
O O2 0.227623 0.210636 0.320060
O O3 0.004901 0.267041 0.160693
O O4 0.119377 0.000000 0.222423
O O5 0.286956 0.500000 0.134395
O O6 0.280261 0.265075 0.180160
O O7 0.506359 0.328181 0.252592
O O8 0.288609 0.234799 0.100869
O O9 0.199263 0.500000 0.437766
O O10 0.250000 0.750000 0.500000
O O11 0.226757 0.734294 0.405068
O O12 0.002780 0.699870 0.338404
O O13 0.315307 0.000000 0.228180
O O14 0.774707 0.000000 0.626497
O O15 0.833608 0.500000 0.076961
O O16 0.750000 0.250000 0.000000
#
# Coordination Sequence:
#
# PCOD9179258 Si02
#       6
#     8   8   8   8   8   8
#     4   9  18  34  54  76 102 130 163 205 251 298
#     4   9  17  31  51  74 100 131 167 204 244 293
#     4  10  19  31  49  72  98 130 167 206 247 293
#     4   9  18  33  53  76 101 131 167 205 248 298
#     4   8  15  29  49  70  94 127 163 199 242 294
#     4  11  21  34  53  76 102 132 167 205 246 294
#
# _framework density 17.634098999999999
#
# number of rings (size 3 to 8) (size 9 to 14) (size 15 to 20)
#    0.000    2.667    0.000    3.500    0.000    5.333 
#    0.000    1.667    0.000   10.000    0.000    0.000 
#    0.000    0.000    0.000    0.000    0.000    0.000 
#
# Total GULP energy -133794.502451 kJ/mol
# GULP energy per Si atom -5574.770935 kJ/mol
# Density = 1.759396 g / cm^3
# Si number density = 17.634099 Si / 1000 Ang^3
#
#
#
# Elastic Constant Matrix: (Units=GPa)
#
#
# Indices 1 2 3 4 5 6 
#
# 1 148.8935 79.2627 46.1748 0.0000 -40.1682 0.0000
# 2 79.2627 121.1090 70.3633 0.0000 -34.2482 -0.0001
# 3 46.1748 70.3633 60.5825 0.0002 -38.8532 0.0000
# 4 0.0000 0.0000 0.0002 28.0533 0.0000 -9.6693
# 5 -40.1682 -34.2482 -38.8532 0.0000 31.0126 0.0000
# 6 0.0000 -0.0001 0.0000 -9.6693 0.0000 29.3016
#
#
#
# Elastic Compliance Matrix: (Units=1/GPa)
#
#
# Indices 1 2 3 4 5 6 
#
# 1 -0.278102 0.619213 -1.524811 0.000010 -1.586699 0.000005
# 2 0.619213 -1.328653 3.279639 -0.000022 3.443539 -0.000010
# 3 -1.524811 3.279639 -8.010184 0.000055 -8.388469 0.000026
# 4 0.000010 -0.000022 0.000055 0.040221 0.000057 0.013273
# 5 -1.586699 3.443539 -8.388469 0.000057 -8.729305 0.000027
# 6 0.000005 -0.000010 0.000026 0.013273 0.000027 0.038508
#
#
# Mechanical properties :
#
#
# Convention : Reuss Voigt Hill
#
# Bulk Modulus (GPa) = -0.20539 80.24295 40.01878
# Shear Modulus (GPa) = -0.20293 26.65912 13.22809
#
# Velocity S-wave (km/s) = -0.33960 3.89240 2.74184
# Velocity P-wave (km/s) = 0.52009 8.11198 5.72423
#
# Compressibility (1/GPa) = -4.86885539
#
# Stress axis : x y z
#
# Youngs Moduli (GPa) = -3.59580 -0.75264 -0.12484
#
# Poissons Ratio (x) = 0.46605 -0.19036
# Poissons Ratio (y) = 2.22657 0.40943
# Poissons Ratio (z) = -5.48292 2.46839
#
# Static dielectric constant tensor:
#      x y z
#    x 1.615840 0.000000 -0.003370 
#    y 0.000000 1.593240 0.000000 
#    z -0.003370 0.000000 1.586470 
# 
# From -- ./inp_files/273592.got.cif
#   From: 2010.05.17/outbox.cif.g08.bks.cpg/sg12_137_cif.got.tgz:273592.got - 2010.06.03 13:09:07.
