data_PCOD9179667
_publ_section_title
;
Structure prediction by ZEFSAII (Michael W. Deem and Ramdas Pophale) SiO2 
 PCOD9179667
Probable space group: C 2/M
;
_chemical_formula_sum "Si O2"
_cell_formula_units_Z 56
_cell_length_a 27.655783
_cell_length_b 7.904386
_cell_length_c 12.264244
_cell_angle_alpha 90.000000
_cell_angle_beta 112.552260
_cell_angle_gamma 90.000000
_cell_volume 2475.973179
_symmetry_space_group_name_H-M "C 2/M"
_symmetry_group_IT_number 12
_symmetry_cell_setting 'monoclinic'
loop_
_space_group_symop_operation_xyz
x,y,z
-x,y,-z
-x,-y,-z
x,-y,z
1/2+x,1/2+y,z
1/2-x,1/2+y,-z
1/2-x,1/2-y,-z
1/2+x,1/2-y,z
loop_
_atom_site_type_symbol
_atom_site_label
_atom_site_fract_x
_atom_site_fract_y
_atom_site_fract_z
Si Si1 0.979050 0.500000 0.612635
Si Si2 0.440562 0.686219 0.490456
Si Si3 0.787047 0.798833 0.631382
Si Si4 0.598922 0.704582 0.209007
Si Si5 0.516986 0.000000 0.145025
Si Si6 0.366138 0.707301 0.229769
Si Si7 0.251380 0.804309 0.835700
Si Si8 0.861151 0.804018 0.993640
O O1 0.944181 0.331201 0.581826
O O2 0.010637 0.500000 0.755334
O O3 0.000000 0.500000 0.500000
O O4 0.500000 0.664429 0.500000
O O5 0.421951 0.500000 0.511160
O O6 0.405244 0.749421 0.360094
O O7 0.750000 0.750000 0.500000
O O8 0.849018 0.761921 0.673429
O O9 0.765837 0.708861 0.721087
O O10 0.783832 0.000000 0.648777
O O11 0.588260 0.500000 0.203412
O O12 0.618011 0.758111 0.103133
O O13 0.550335 0.826778 0.183394
O O14 0.500000 0.000000 0.000000
O O15 0.365639 0.500000 0.227422
O O16 0.306935 0.764012 0.200201
O O17 0.382024 0.770377 0.124051
O O18 0.298208 0.711742 0.938631
O O19 0.252519 0.000000 0.870585
O O20 0.875343 0.000000 0.006400
#
# Coordination Sequence:
#
# PCOD9179667 Si02
#       8
#     4   8   8   8   4   8   8   8
#     4  10  24  46  66  96 132 158 208 274 326 388
#     4   9  19  39  64  87 121 167 207 256 324 387
#     4  10  21  37  59  84 116 165 212 265 330 400
#     4   9  22  42  64  93 131 170 219 274 327 393
#     4  12  28  46  72 102 132 176 226 282 336 396
#     4   9  18  33  54  86 122 159 209 258 321 393
#     4  10  19  31  50  81 122 158 201 260 314 383
#     4   9  18  35  57  82 121 166 207 260 317 387
#
# _framework density 22.617370999999999
#
# number of rings (size 3 to 8) (size 9 to 14) (size 15 to 20)
#    0.000    2.429    0.000    2.143    5.000    4.286 
#    3.857    4.286    0.000    0.000    0.000    0.000 
#    0.000    0.000    0.000    0.000    0.000    0.000 
#
# Total GULP energy -156004.232556 kJ/mol
# GULP energy per Si atom -5571.579734 kJ/mol
# Density = 2.256589 g / cm^3
# Si number density = 22.617371 Si / 1000 Ang^3
#
#
#
# Elastic Constant Matrix: (Units=GPa)
#
#
# Indices 1 2 3 4 5 6 
#
# 1 50.8774 8.5875 33.4529 0.0000 -2.3685 0.0000
# 2 8.5875 73.7754 27.8675 0.0000 3.7307 0.0000
# 3 33.4529 27.8675 160.8111 0.0000 -7.2158 0.0000
# 4 0.0000 0.0000 0.0000 20.4534 0.0000 16.3343
# 5 -2.3685 3.7307 -7.2158 0.0000 17.8249 0.0000
# 6 0.0000 0.0000 0.0000 16.3343 0.0000 15.4941
#
#
#
# Elastic Compliance Matrix: (Units=1/GPa)
#
#
# Indices 1 2 3 4 5 6 
#
# 1 0.022863 -0.001028 -0.004514 0.000000 0.001426 0.000000
# 2 -0.001028 0.014855 -0.002552 0.000000 -0.004279 0.000000
# 3 -0.004514 -0.002552 0.007737 0.000000 0.003067 0.000000
# 4 0.000000 0.000000 0.000000 0.309267 0.000000 -0.326036
# 5 0.001426 -0.004279 0.003067 0.000000 0.058428 0.000000
# 6 0.000000 0.000000 0.000000 -0.326036 0.000000 0.408255
#
#
# Mechanical properties :
#
#
# Convention : Reuss Voigt Hill
#
# Bulk Modulus (GPa) = 34.16920 47.25329 40.71124
# Shear Modulus (GPa) = 5.90076 25.12488 15.51282
#
# Velocity S-wave (km/s) = 1.61698 3.33658 2.62177
# Velocity P-wave (km/s) = 4.31584 5.98177 5.21574
#
# Compressibility (1/GPa) = 0.02926613
#
# Stress axis : x y z
#
# Youngs Moduli (GPa) = 43.73873 67.31813 129.24239
#
# Poissons Ratio (x) = 0.06922 0.58339
# Poissons Ratio (y) = 0.04498 0.32987
# Poissons Ratio (z) = 0.19743 0.17182
#
# Static dielectric constant tensor:
#      x y z
#    x 1.883220 0.000000 -0.053420 
#    y 0.000000 1.872540 0.000000 
#    z -0.053420 0.000000 1.912330 
# 
# From -- ./inp_files/187787.got.cif
#   From: 2010.05.17/outbox.cif.g08.bks.cpg/sg12_94_cif.got.tgz:187787.got - 2010.06.03 13:09:07.
