data_PCOD9179519
_publ_section_title
;
Structure prediction by ZEFSAII (Michael W. Deem and Ramdas Pophale) SiO2 
 PCOD9179519
Probable space group: C 2/M
;
_chemical_formula_sum "Si O2"
_cell_formula_units_Z 64
_cell_length_a 30.782114
_cell_length_b 9.234482
_cell_length_c 15.054381
_cell_angle_alpha 90.000000
_cell_angle_beta 61.337467
_cell_angle_gamma 90.000000
_cell_volume 3754.924549
_symmetry_space_group_name_H-M "C 2/M"
_symmetry_group_IT_number 12
_symmetry_cell_setting 'monoclinic'
loop_
_space_group_symop_operation_xyz
x,y,z
-x,y,-z
-x,-y,-z
x,-y,z
1/2+x,1/2+y,z
1/2-x,1/2+y,-z
1/2-x,1/2-y,-z
1/2+x,1/2-y,z
loop_
_atom_site_type_symbol
_atom_site_label
_atom_site_fract_x
_atom_site_fract_y
_atom_site_fract_z
Si Si1 0.412718 0.669624 0.242585
Si Si2 0.579523 0.172260 0.583041
Si Si3 0.303986 0.671544 0.843943
Si Si4 0.468535 0.669393 0.888337
Si Si5 0.188096 0.328861 0.981782
Si Si6 0.962806 0.329071 0.712542
Si Si7 0.379840 0.826609 0.648110
Si Si8 0.105927 0.672574 0.914814
O O1 0.400478 0.500000 0.253887
O O2 0.403200 0.740631 0.347622
O O3 0.472062 0.683381 0.168375
O O4 0.387113 0.754155 0.187374
O O5 0.520250 0.194737 0.630924
O O6 0.606485 0.214658 0.465672
O O7 0.586523 0.000000 0.590460
O O8 0.312040 0.500000 0.835741
O O9 0.244983 0.699038 0.898709
O O10 0.333175 0.745952 0.735445
O O11 0.322398 0.739539 0.918852
O O12 0.455975 0.500000 0.908673
O O13 0.451744 0.734801 0.810293
O O14 0.442225 0.758894 0.991296
O O15 0.183431 0.500000 0.007499
O O16 0.150832 0.296207 0.938533
O O17 0.957139 0.500000 0.740491
O O18 0.926404 0.295843 0.667244
O O19 0.372095 0.000000 0.657862
O O20 0.100719 0.500000 0.910943
#
# Coordination Sequence:
#
# PCOD9179519 Si02
#       8
#     8   8   8   8   8   8   8   8
#     4  10  21  35  49  69 100 132 162 202 246 285
#     4   9  18  33  51  70  96 133 171 202 236 281
#     4  10  20  34  53  76 102 130 158 193 242 296
#     4  10  20  32  46  70 104 134 160 196 242 289
#     4   9  20  37  53  73 101 129 159 198 242 288
#     4   9  17  30  48  71 100 133 167 200 235 280
#     4  10  19  31  50  75 101 129 164 204 241 282
#     4  11  21  33  52  73  94 126 167 205 240 285
#
# _framework density 17.044284999999999
#
# number of rings (size 3 to 8) (size 9 to 14) (size 15 to 20)
#    0.000    2.250    0.000    3.000    0.000   10.000 
#    0.000    0.000    0.000    4.500    0.000    0.000 
#    0.000    0.000    0.000    0.000    0.000    0.000 
#
# Total GULP energy -178668.184338 kJ/mol
# GULP energy per Si atom -5583.380761 kJ/mol
# Density = 1.700549 g / cm^3
# Si number density = 17.044285 Si / 1000 Ang^3
#
#
#
# Elastic Constant Matrix: (Units=GPa)
#
#
# Indices 1 2 3 4 5 6 
#
# 1 49.0243 39.9874 36.6923 0.0000 16.5627 0.0000
# 2 39.9874 60.8660 57.9190 0.0000 12.7552 0.0000
# 3 36.6923 57.9190 119.7930 0.0000 18.2654 0.0000
# 4 0.0000 0.0000 0.0000 27.5604 0.0000 -4.9318
# 5 16.5627 12.7552 18.2654 0.0000 21.9276 0.0000
# 6 0.0000 0.0000 0.0000 -4.9318 0.0000 10.8159
#
#
#
# Elastic Compliance Matrix: (Units=1/GPa)
#
#
# Indices 1 2 3 4 5 6 
#
# 1 0.052561 -0.032788 0.003321 0.000000 -0.023394 0.000000
# 2 -0.032788 0.051647 -0.016178 0.000000 0.008200 0.000000
# 3 0.003321 -0.016178 0.016152 0.000000 -0.006552 0.000000
# 4 0.000000 0.000000 0.000000 0.039508 0.000000 0.018014
# 5 -0.023394 0.008200 -0.006552 0.000000 0.063963 0.000000
# 6 0.000000 0.000000 0.000000 0.018014 0.000000 0.100670
#
#
# Mechanical properties :
#
#
# Convention : Reuss Voigt Hill
#
# Bulk Modulus (GPa) = 34.40241 55.43117 44.91679
# Shear Modulus (GPa) = 11.75140 18.39975 15.07557
#
# Velocity S-wave (km/s) = 2.62861 3.28918 2.97727
# Velocity P-wave (km/s) = 5.42593 6.85692 6.18297
#
# Compressibility (1/GPa) = 0.02906773
#
# Stress axis : x y z
#
# Youngs Moduli (GPa) = 19.02563 19.36212 61.91340
#
# Poissons Ratio (x) = 0.63485 -0.20560
# Poissons Ratio (y) = 0.62382 1.00165
# Poissons Ratio (z) = -0.06318 0.31325
#
# Static dielectric constant tensor:
#      x y z
#    x 1.573100 0.000000 -0.003330 
#    y 0.000000 1.565640 0.000000 
#    z -0.003330 0.000000 1.559680 
# 
# From -- ./inp_files/249038.got.cif
#   From: 2010.05.17/outbox.cif.g08.bks.cpg/sg12_125_cif.got.tgz:249038.got - 2010.06.03 13:09:07.
