data_PCOD9179903
_publ_section_title
;
Structure prediction by ZEFSAII (Michael W. Deem and Ramdas Pophale) SiO2 
 PCOD9179903
Probable space group: C 2/M
;
_chemical_formula_sum "Si O2"
_cell_formula_units_Z 56
_cell_length_a 18.865043
_cell_length_b 7.662755
_cell_length_c 23.524607
_cell_angle_alpha 90.000000
_cell_angle_beta 127.084190
_cell_angle_gamma 90.000000
_cell_volume 2712.889580
_symmetry_space_group_name_H-M "C 2/M"
_symmetry_group_IT_number 12
_symmetry_cell_setting 'monoclinic'
loop_
_space_group_symop_operation_xyz
x,y,z
-x,y,-z
-x,-y,-z
x,-y,z
1/2+x,1/2+y,z
1/2-x,1/2+y,-z
1/2-x,1/2-y,-z
1/2+x,1/2-y,z
loop_
_atom_site_type_symbol
_atom_site_label
_atom_site_fract_x
_atom_site_fract_y
_atom_site_fract_z
Si Si1 0.552670 0.210215 0.796889
Si Si2 0.386595 0.785796 0.793282
Si Si3 0.592079 0.206429 0.069133
Si Si4 0.427888 0.293030 0.636200
Si Si5 0.235658 0.296739 0.364217
Si Si6 0.256483 0.792019 0.069680
Si Si7 0.579038 0.285964 0.496632
O O1 0.478693 0.266913 0.807245
O O2 0.514034 0.259318 0.716722
O O3 0.650437 0.276117 0.859606
O O4 0.554800 0.000000 0.800428
O O5 0.383849 0.724610 0.856694
O O6 0.306501 0.722993 0.714160
O O7 0.384228 0.000000 0.790920
O O8 0.671726 0.226552 0.063398
O O9 0.577163 0.000000 0.070505
O O10 0.500000 0.280414 0.000000
O O11 0.412719 0.500000 0.627572
O O12 0.343353 0.213657 0.627933
O O13 0.434932 0.229233 0.575133
O O14 0.254310 0.500000 0.361808
O O15 0.326415 0.223136 0.433313
O O16 0.257074 0.000000 0.075793
O O17 0.250000 0.750000 0.000000
O O18 0.500000 0.232328 0.500000
O O19 0.579723 0.500000 0.495919
#
# Coordination Sequence:
#
# PCOD9179903 Si02
#       7
#     8   8   8   8   8   8   8
#     4   9  19  37  57  76 103 139 174 209 258 317
#     4   8  15  30  53  75  95 132 180 213 248 307
#     4  10  20  35  55  79 109 143 178 217 261 311
#     4  10  19  31  52  79 102 129 171 220 262 305
#     4   9  17  32  53  73 100 139 176 212 258 314
#     4  11  23  38  57  81 109 141 177 217 262 313
#     4   9  18  31  48  73 103 135 174 218 259 303
#
# _framework density 20.642195999999998
#
# number of rings (size 3 to 8) (size 9 to 14) (size 15 to 20)
#    0.000    2.571    0.000    3.000    0.000    4.857 
#    0.000    6.429    0.000    3.857    0.000    0.000 
#    0.000    0.000    0.000    0.000    0.000    0.000 
#
# Total GULP energy -156295.953412 kJ/mol
# GULP energy per Si atom -5581.998336 kJ/mol
# Density = 2.059521 g / cm^3
# Si number density = 20.642196 Si / 1000 Ang^3
#
#
#
# Elastic Constant Matrix: (Units=GPa)
#
#
# Indices 1 2 3 4 5 6 
#
# 1 114.7212 -16.4295 125.7907 0.0000 -11.4333 0.0000
# 2 -16.4295 32.1975 -5.4955 0.0000 -0.6530 0.0000
# 3 125.7907 -5.4955 223.6202 0.0000 -6.2089 0.0000
# 4 0.0000 0.0000 0.0000 10.8004 0.0000 -8.7819
# 5 -11.4333 -0.6530 -6.2089 0.0000 41.3907 0.0000
# 6 0.0000 0.0000 0.0000 -8.7819 0.0000 1.6198
#
#
#
# Elastic Compliance Matrix: (Units=1/GPa)
#
#
# Indices 1 2 3 4 5 6 
#
# 1 0.027211 0.011457 -0.014873 0.000000 0.005466 0.000000
# 2 0.011457 0.036029 -0.005479 0.000000 0.002911 0.000000
# 3 -0.014873 -0.005479 0.012640 0.000000 -0.002299 0.000000
# 4 0.000000 0.000000 0.000000 -0.027166 0.000000 -0.147281
# 5 0.005466 0.002911 -0.002299 0.000000 0.025371 0.000000
# 6 0.000000 0.000000 0.000000 -0.147281 0.000000 -0.181134
#
#
# Mechanical properties :
#
#
# Convention : Reuss Voigt Hill
#
# Bulk Modulus (GPa) = 17.21476 64.25223 40.73350
# Shear Modulus (GPa) = -71.53298 28.54041 -21.49628
#
# Velocity S-wave (km/s) = -5.89313 3.72240 -3.23054
# Velocity P-wave (km/s) = 6.16016 7.04764 2.42091
#
# Compressibility (1/GPa) = 0.05808969
#
# Stress axis : x y z
#
# Youngs Moduli (GPa) = 36.75037 27.75577 79.11489
#
# Poissons Ratio (x) = -0.31800 1.17669
# Poissons Ratio (y) = -0.42105 0.43344
# Poissons Ratio (z) = 0.54659 0.15206
#
# Static dielectric constant tensor:
#      x y z
#    x 1.663800 0.000000 0.007280 
#    y 0.000000 1.788830 0.000000 
#    z 0.007280 0.000000 1.745800 
# 
# From -- ./inp_files/342482.got.cif
#   From: 2010.05.17/outbox.cif.g08.bks.cpg/sg12_172_cif.got.tgz:342482.got - 2010.06.03 13:09:07.
