data_PCOD9179888
_publ_section_title
;
Structure prediction by ZEFSAII (Michael W. Deem and Ramdas Pophale) SiO2 
 PCOD9179888
Probable space group: C 2/M
;
_chemical_formula_sum "Si O2"
_cell_formula_units_Z 64
_cell_length_a 15.732406
_cell_length_b 7.352361
_cell_length_c 26.372381
_cell_angle_alpha 90.000000
_cell_angle_beta 52.093718
_cell_angle_gamma 90.000000
_cell_volume 2406.897085
_symmetry_space_group_name_H-M "C 2/M"
_symmetry_group_IT_number 12
_symmetry_cell_setting 'monoclinic'
loop_
_space_group_symop_operation_xyz
x,y,z
-x,y,-z
-x,-y,-z
x,-y,z
1/2+x,1/2+y,z
1/2-x,1/2+y,-z
1/2-x,1/2-y,-z
1/2+x,1/2-y,z
loop_
_atom_site_type_symbol
_atom_site_label
_atom_site_fract_x
_atom_site_fract_y
_atom_site_fract_z
Si Si1 0.984811 0.785064 0.448805
Si Si2 0.229129 0.718547 0.353360
Si Si3 0.244231 0.720655 0.159584
Si Si4 0.660236 0.704689 0.585068
Si Si5 0.055195 0.704522 0.283477
Si Si6 0.011645 0.220850 0.908374
Si Si7 0.947703 0.221186 0.219165
Si Si8 0.301728 0.283646 0.035016
O O1 0.107217 0.767314 0.382424
O O2 0.883158 0.713908 0.452692
O O3 0.000000 0.708578 0.500000
O O4 0.963632 0.000000 0.460866
O O5 0.232672 0.500000 0.355361
O O6 0.264528 0.785892 0.397547
O O7 0.324363 0.771585 0.279669
O O8 0.233151 0.500000 0.168013
O O9 0.172021 0.788695 0.232458
O O10 0.368465 0.766088 0.119817
O O11 0.228083 0.785928 0.107853
O O12 0.697085 0.500000 0.561915
O O13 0.542330 0.694883 0.654653
O O14 0.058584 0.500000 0.303780
O O15 0.019018 0.699654 0.237933
O O16 0.008083 0.281072 0.851284
O O17 0.003106 0.000000 0.911096
O O18 0.921964 0.286561 0.980344
O O19 0.951786 0.000000 0.219509
O O20 0.310218 0.500000 0.041418
O O21 0.250000 0.250000 0.000000
#
# Coordination Sequence:
#
# PCOD9179888 Si02
#       8
#     8   8   8   8   8   8   8   8
#     4  10  22  39  59  84 114 146 180 221 270 322
#     4   9  19  35  56  81 111 147 184 224 266 316
#     4   9  18  30  47  74 102 128 169 221 261 301
#     4   9  20  39  58  79 113 150 181 219 271 327
#     4  10  19  31  52  78 104 134 173 221 265 308
#     4   9  17  30  50  73  97 133 175 211 256 315
#     4   9  18  33  53  75 104 139 174 214 263 319
#     4  10  19  32  51  71  95 131 171 215 260 309
#
# _framework density 26.590252
#
# number of rings (size 3 to 8) (size 9 to 14) (size 15 to 20)
#    0.000    2.625    0.000    2.250    1.750    4.750 
#    0.000    0.625    0.000    3.750    0.000    0.000 
#    0.000    0.000    0.000    0.000    0.000    0.000 
#
# Total GULP energy -178684.741767 kJ/mol
# GULP energy per Si atom -5583.898180 kJ/mol
# Density = 2.652973 g / cm^3
# Si number density = 26.590252 Si / 1000 Ang^3
#
#
#
# Elastic Constant Matrix: (Units=GPa)
#
#
# Indices 1 2 3 4 5 6 
#
# 1 102.9222 4.8572 -8.2237 -0.0010 8.1946 -0.0013
# 2 4.8572 108.8578 21.2224 -0.0022 -4.0201 -0.0018
# 3 -8.2237 21.2224 104.6625 -0.0006 -9.3790 -0.0019
# 4 -0.0010 -0.0022 -0.0006 0.7115 -0.0001 1.9388
# 5 8.1946 -4.0201 -9.3790 -0.0001 50.1669 -0.0012
# 6 -0.0013 -0.0018 -0.0019 1.9388 -0.0012 7.6205
#
#
#
# Elastic Compliance Matrix: (Units=1/GPa)
#
#
# Indices 1 2 3 4 5 6 
#
# 1 0.009930 -0.000651 0.000775 0.000026 -0.001529 -0.000005
# 2 -0.000651 0.009615 -0.001955 0.000072 0.000511 -0.000017
# 3 0.000775 -0.001955 0.010157 -0.000007 0.001616 0.000004
# 4 0.000026 0.000072 -0.000007 4.581377 -0.000021 -1.165596
# 5 -0.001529 0.000511 0.001616 -0.000021 0.020526 0.000009
# 6 -0.000005 -0.000017 0.000004 -1.165596 0.000009 0.427777
#
#
# Mechanical properties :
#
#
# Convention : Reuss Voigt Hill
#
# Bulk Modulus (GPa) = 38.40043 39.12826 38.76434
# Shear Modulus (GPa) = 0.98586 31.60556 16.29571
#
# Velocity S-wave (km/s) = 0.60956 3.45137 2.47826
# Velocity P-wave (km/s) = 3.86889 5.53442 4.77484
#
# Compressibility (1/GPa) = 0.02604138
#
# Stress axis : x y z
#
# Youngs Moduli (GPa) = 100.70004 104.00038 98.45798
#
# Poissons Ratio (x) = 0.06767 -0.07632
# Poissons Ratio (y) = 0.06553 0.19249
# Poissons Ratio (z) = -0.07806 0.20332
#
# Static dielectric constant tensor:
#      x y z
#    x 2.171560 0.000000 0.033470 
#    y 0.000000 2.075790 0.000000 
#    z 0.033470 0.000000 2.133030 
# 
# From -- ./inp_files/374982.got.cif
#   From: 2010.05.17/outbox.cif.g08.bks.cpg/sg12_188_cif.got.tgz:374982.got - 2010.06.03 13:09:07.
