data_PCOD9179163
_publ_section_title
;
Structure prediction by ZEFSAII (Michael W. Deem and Ramdas Pophale) SiO2 
 PCOD9179163
Probable space group: C 2/M
;
_chemical_formula_sum "Si O2"
_cell_formula_units_Z 48
_cell_length_a 13.289697
_cell_length_b 32.458701
_cell_length_c 7.050391
_cell_angle_alpha 90.000000
_cell_angle_beta 133.379796
_cell_angle_gamma 90.000000
_cell_volume 2210.469062
_symmetry_space_group_name_H-M "C 2/M"
_symmetry_group_IT_number 12
_symmetry_cell_setting 'monoclinic'
loop_
_space_group_symop_operation_xyz
x,y,z
-x,y,-z
-x,-y,-z
x,-y,z
1/2+x,1/2+y,z
1/2-x,1/2+y,-z
1/2-x,1/2-y,-z
1/2+x,1/2-y,z
loop_
_atom_site_type_symbol
_atom_site_label
_atom_site_fract_x
_atom_site_fract_y
_atom_site_fract_z
Si Si1 0.413972 0.239556 0.691350
Si Si2 0.960269 0.352951 0.720239
Si Si3 0.962661 0.952712 0.224258
Si Si4 0.800335 0.895483 0.495565
Si Si5 0.018631 0.825243 0.796398
Si Si6 0.255539 0.113245 0.000240
O O1 0.250000 0.250000 0.500000
O O2 0.427750 0.194175 0.622227
O O3 0.486372 0.279073 0.689703
O O4 0.500000 0.236568 0.000000
O O5 0.821936 0.380374 0.528561
O O6 0.000000 0.351912 0.000000
O O7 0.088518 0.371990 0.774629
O O8 0.831263 0.923482 0.015707
O O9 0.000000 0.950855 0.500000
O O10 0.098550 0.931769 0.309248
O O11 0.941431 0.000000 0.146245
O O12 0.739941 0.903944 0.210386
O O13 0.899327 0.856560 0.580197
O O14 0.160930 0.846155 0.915981
O O15 0.000000 0.825231 0.000000
#
# Coordination Sequence:
#
# PCOD9179163 Si02
#       6
#     8   8   8   8   8   8
#     4  10  19  32  51  73 103 141 176 220 261 298
#     4   9  17  30  49  69  97 128 173 206 249 301
#     4   8  14  26  46  72  98 122 159 205 251 303
#     4   9  16  31  51  69  93 131 163 204 249 310
#     4  10  19  31  49  68  99 130 168 209 255 291
#     4   9  18  31  50  73  93 132 169 203 254 311
#
# _framework density 21.714849000000001
#
# number of rings (size 3 to 8) (size 9 to 14) (size 15 to 20)
#    0.000    2.833    1.667    1.500    0.000    0.667 
#    0.000    1.667    0.000   13.000    0.000    0.000 
#    0.000   10.667    0.000    0.000    0.000    0.000 
#
# Total GULP energy -133850.532451 kJ/mol
# GULP energy per Si atom -5577.105519 kJ/mol
# Density = 2.166543 g / cm^3
# Si number density = 21.714849 Si / 1000 Ang^3
#
#
#
# Elastic Constant Matrix: (Units=GPa)
#
#
# Indices 1 2 3 4 5 6 
#
# 1 136.3701 63.4388 54.9006 0.0000 37.9745 0.0000
# 2 63.4388 198.4031 51.1173 0.0000 51.1276 0.0000
# 3 54.9006 51.1173 97.2530 0.0000 32.2110 0.0000
# 4 0.0000 0.0000 0.0000 12.4190 0.0000 -0.4811
# 5 37.9745 51.1276 32.2110 0.0000 61.3478 0.0000
# 6 0.0000 0.0000 0.0000 -0.4811 0.0000 17.0251
#
#
#
# Elastic Compliance Matrix: (Units=1/GPa)
#
#
# Indices 1 2 3 4 5 6 
#
# 1 0.010569 -0.001511 -0.004143 0.000000 -0.003108 0.000000
# 2 -0.001511 0.006952 -0.001443 0.000000 -0.004101 0.000000
# 3 -0.004143 -0.001443 0.014686 0.000000 -0.003944 0.000000
# 4 0.000000 0.000000 0.000000 0.080610 0.000000 0.002278
# 5 -0.003108 -0.004101 -0.003944 0.000000 0.023713 0.000000
# 6 0.000000 0.000000 0.000000 0.002278 0.000000 0.058801
#
#
# Mechanical properties :
#
#
# Convention : Reuss Voigt Hill
#
# Bulk Modulus (GPa) = 55.51434 85.65994 70.58714
# Shear Modulus (GPa) = 23.19874 35.66302 29.43088
#
# Velocity S-wave (km/s) = 3.27209 4.05697 3.68548
# Velocity P-wave (km/s) = 6.31633 7.84083 7.11950
#
# Compressibility (1/GPa) = 0.01801336
#
# Stress axis : x y z
#
# Youngs Moduli (GPa) = 94.61399 143.84510 68.09333
#
# Poissons Ratio (x) = 0.21739 0.28210
# Poissons Ratio (y) = 0.14299 0.09823
# Poissons Ratio (z) = 0.39197 0.20752
#
# Static dielectric constant tensor:
#      x y z
#    x 1.450530 0.000000 0.554410 
#    y 0.000000 1.761950 0.000000 
#    z 0.554410 0.000000 0.774990 
# 
# From -- ./inp_files/68361.got.cif
#   From: 2010.05.17/outbox.cif.g08.bks.cpg/sg12_35_cif.got.tgz:68361.got - 2010.06.03 13:09:07.
