data_PCOD9179890
_publ_section_title
;
Structure prediction by ZEFSAII (Michael W. Deem and Ramdas Pophale) SiO2 
 PCOD9179890
Probable space group: C 2/M
;
_chemical_formula_sum "Si O2"
_cell_formula_units_Z 52
_cell_length_a 13.321811
_cell_length_b 21.032478
_cell_length_c 18.620415
_cell_angle_alpha 90.000000
_cell_angle_beta 145.756012
_cell_angle_gamma 90.000000
_cell_volume 2935.851079
_symmetry_space_group_name_H-M "C 2/M"
_symmetry_group_IT_number 12
_symmetry_cell_setting 'monoclinic'
loop_
_space_group_symop_operation_xyz
x,y,z
-x,y,-z
-x,-y,-z
x,-y,z
1/2+x,1/2+y,z
1/2-x,1/2+y,-z
1/2-x,1/2-y,-z
1/2+x,1/2-y,z
loop_
_atom_site_type_symbol
_atom_site_label
_atom_site_fract_x
_atom_site_fract_y
_atom_site_fract_z
Si Si1 0.402845 0.793153 0.177801
Si Si2 0.764134 0.854004 0.343566
Si Si3 0.890351 0.073776 0.704316
Si Si4 0.340492 0.773969 0.300967
Si Si5 0.500000 0.876298 0.500000
Si Si6 0.457246 0.322284 0.101398
Si Si7 0.489343 0.424377 0.599672
O O1 0.563003 0.838969 0.247587
O O2 0.422372 0.768643 0.270605
O O3 0.411777 0.730805 0.133950
O O4 0.213334 0.826670 0.050641
O O5 0.834341 0.787957 0.348731
O O6 0.863569 0.882138 0.472866
O O7 0.812895 0.905457 0.310934
O O8 0.677525 0.085201 0.585124
O O9 0.953083 0.091649 0.660971
O O10 0.988186 0.115249 0.822447
O O11 0.929582 0.000000 0.737660
O O12 0.445026 0.829706 0.403014
O O13 0.135716 0.795968 0.169790
O O14 0.457806 0.500000 0.570779
#
# Coordination Sequence:
#
# PCOD9179890 Si02
#       7
#     8   8   8   8   4   8   8
#     4  10  19  34  53  74 101 134 169 208 256 303
#     4  10  19  32  52  77 103 134 170 207 249 305
#     4  10  20  35  54  74 102 138 170 207 250 295
#     4  10  19  31  52  78 105 131 162 211 259 301
#     4  10  19  32  52  80 103 128 168 206 252 308
#     4   9  20  34  51  75 102 133 170 211 252 298
#     4  10  20  35  52  73 106 139 167 206 254 296
#
# _framework density 17.712070000000001
#
# number of rings (size 3 to 8) (size 9 to 14) (size 15 to 20)
#    0.000    2.154    0.000    4.385    0.000    0.000 
#    0.000   12.308    0.000   11.077    0.000    0.000 
#    0.000    0.000    0.000    0.000    0.000    0.000 
#
# Total GULP energy -144856.906888 kJ/mol
# GULP energy per Si atom -5571.419496 kJ/mol
# Density = 1.767176 g / cm^3
# Si number density = 17.712070 Si / 1000 Ang^3
#
#
#
# Elastic Constant Matrix: (Units=GPa)
#
#
# Indices 1 2 3 4 5 6 
#
# 1 83.5179 25.0561 21.7858 -0.0003 -8.8634 0.0002
# 2 25.0561 73.7078 31.0991 0.0004 1.6677 0.0003
# 3 21.7858 31.0991 63.7719 0.0005 10.5372 0.0010
# 4 -0.0003 0.0004 0.0005 9.9256 0.0003 2.2301
# 5 -8.8634 1.6677 10.5372 0.0003 19.8721 0.0006
# 6 0.0002 0.0003 0.0010 2.2301 0.0006 23.7788
#
#
#
# Elastic Compliance Matrix: (Units=1/GPa)
#
#
# Indices 1 2 3 4 5 6 
#
# 1 0.015384 -0.003202 -0.005340 0.000001 0.009962 0.000000
# 2 -0.003202 0.017944 -0.007861 0.000000 0.001234 0.000000
# 3 -0.005340 -0.007861 0.023700 0.000000 -0.014289 0.000000
# 4 0.000001 0.000000 0.000000 0.102918 -0.000001 -0.009652
# 5 0.009962 0.001234 -0.014289 -0.000001 0.062238 -0.000001
# 6 0.000000 0.000000 0.000000 -0.009652 -0.000001 0.042959
#
#
# Mechanical properties :
#
#
# Convention : Reuss Voigt Hill
#
# Bulk Modulus (GPa) = 41.28424 41.87550 41.57987
# Shear Modulus (GPa) = 16.33857 20.25241 18.29549
#
# Velocity S-wave (km/s) = 3.04049 3.38512 3.21742
# Velocity P-wave (km/s) = 5.97371 6.24279 6.10973
#
# Compressibility (1/GPa) = 0.02422232
#
# Stress axis : x y z
#
# Youngs Moduli (GPa) = 65.00119 55.72800 42.19478
#
# Poissons Ratio (x) = 0.17844 0.22533
# Poissons Ratio (y) = 0.20813 0.33169
# Poissons Ratio (z) = 0.34712 0.43807
#
# Static dielectric constant tensor:
#      x y z
#    x 1.625000 0.000000 0.021430 
#    y 0.000000 1.591330 0.000000 
#    z 0.021430 0.000000 1.612590 
# 
# From -- ./inp_files/265128.got.cif
#   From: 2010.05.17/outbox.cif.g08.bks.cpg/sg12_133_cif.got.tgz:265128.got - 2010.06.03 13:09:07.
