data_PCOD9179048
_publ_section_title
;
Structure prediction by ZEFSAII (Michael W. Deem and Ramdas Pophale) SiO2 
 PCOD9179048
Probable space group: C 2/M
;
_chemical_formula_sum "Si O2"
_cell_formula_units_Z 64
_cell_length_a 25.702321
_cell_length_b 8.533323
_cell_length_c 15.872955
_cell_angle_alpha 90.000000
_cell_angle_beta 108.764614
_cell_angle_gamma 90.000000
_cell_volume 3296.314420
_symmetry_space_group_name_H-M "C 2/M"
_symmetry_group_IT_number 12
_symmetry_cell_setting 'monoclinic'
loop_
_space_group_symop_operation_xyz
x,y,z
-x,y,-z
-x,-y,-z
x,-y,z
1/2+x,1/2+y,z
1/2-x,1/2+y,-z
1/2-x,1/2-y,-z
1/2+x,1/2-y,z
loop_
_atom_site_type_symbol
_atom_site_label
_atom_site_fract_x
_atom_site_fract_y
_atom_site_fract_z
Si Si1 0.730451 0.181450 0.749392
Si Si2 0.726720 0.676969 0.571632
Si Si3 0.346271 0.188671 0.819570
Si Si4 0.415914 0.811559 0.699291
Si Si5 0.060788 0.308709 0.001280
Si Si6 0.105121 0.310476 0.678060
Si Si7 0.537985 0.190704 0.805625
Si Si8 0.595259 0.324607 0.492309
O O1 0.738887 0.207917 0.654330
O O2 0.785022 0.261186 0.813692
O O3 0.668139 0.244294 0.728945
O O4 0.730460 0.000000 0.772883
O O5 0.747991 0.500000 0.599103
O O6 0.750000 0.750000 0.500000
O O7 0.661414 0.667396 0.528776
O O8 0.367304 0.242196 0.737240
O O9 0.391428 0.243815 0.910970
O O10 0.347532 0.000000 0.818466
O O11 0.473968 0.765442 0.771177
O O12 0.417166 0.755292 0.603449
O O13 0.413149 0.000000 0.695205
O O14 0.061572 0.500000 0.003518
O O15 0.066483 0.258693 0.907111
O O16 0.000000 0.261810 0.000000
O O17 0.106928 0.500000 0.677038
O O18 0.067387 0.256832 0.735509
O O19 0.082644 0.257227 0.575151
O O20 0.539450 0.000000 0.805440
O O21 0.572241 0.500000 0.480495
#
# Coordination Sequence:
#
# PCOD9179048 Si02
#       8
#     8   8   8   8   8   8   8   8
#     4  10  20  33  49  70 101 140 176 212 251 299
#     4  10  19  31  48  70  98 134 175 216 259 305
#     4  10  19  31  53  83 109 133 164 211 266 314
#     4  10  19  31  51  79 106 132 168 214 261 307
#     4   9  15  29  54  84 110 128 160 212 265 310
#     4   9  19  36  55  73  98 138 182 215 248 294
#     4   9  17  32  55  79 102 131 171 218 259 300
#     4  10  21  34  48  70 103 140 173 210 255 303
#
# _framework density 19.415623
#
# number of rings (size 3 to 8) (size 9 to 14) (size 15 to 20)
#    0.000    2.375    1.250    1.875    0.000    5.000 
#    0.000    3.750    0.000    1.875    0.000    0.000 
#    0.000    0.000    0.000    0.000    0.000    0.000 
#
# Total GULP energy -178330.886093 kJ/mol
# GULP energy per Si atom -5572.840190 kJ/mol
# Density = 1.937143 g / cm^3
# Si number density = 19.415623 Si / 1000 Ang^3
#
#
#
# Elastic Constant Matrix: (Units=GPa)
#
#
# Indices 1 2 3 4 5 6 
#
# 1 42.7400 8.0366 11.4637 0.0000 -2.9115 0.0000
# 2 8.0366 16.0457 10.0454 0.0000 -1.4800 0.0000
# 3 11.4637 10.0454 95.6278 0.0000 0.7041 0.0000
# 4 0.0000 0.0000 0.0000 7.2678 0.0000 6.2687
# 5 -2.9115 -1.4800 0.7041 0.0000 34.0093 0.0000
# 6 0.0000 0.0000 0.0000 6.2687 0.0000 15.7300
#
#
#
# Elastic Compliance Matrix: (Units=1/GPa)
#
#
# Indices 1 2 3 4 5 6 
#
# 1 0.026249 -0.011780 -0.001922 0.000000 0.001774 0.000000
# 2 -0.011780 0.072313 -0.006201 0.000000 0.002267 0.000000
# 3 -0.001922 -0.006201 0.011344 0.000000 -0.000669 0.000000
# 4 0.000000 0.000000 0.000000 0.209658 0.000000 -0.083552
# 5 0.001774 0.002267 -0.000669 0.000000 0.029668 0.000000
# 6 0.000000 0.000000 0.000000 -0.083552 0.000000 0.096870
#
#
# Mechanical properties :
#
#
# Convention : Reuss Voigt Hill
#
# Bulk Modulus (GPa) = 14.26536 23.72278 18.99407
# Shear Modulus (GPa) = 9.81790 19.72594 14.77192
#
# Velocity S-wave (km/s) = 2.25115 3.19091 2.76130
# Velocity P-wave (km/s) = 3.75769 5.08141 4.46884
#
# Compressibility (1/GPa) = 0.07009989
#
# Stress axis : x y z
#
# Youngs Moduli (GPa) = 38.09708 13.82880 88.15268
#
# Poissons Ratio (x) = 0.16290 0.16946
# Poissons Ratio (y) = 0.44877 0.54662
# Poissons Ratio (z) = 0.07323 0.08575
#
# Static dielectric constant tensor:
#      x y z
#    x 1.691020 0.000000 0.026760 
#    y 0.000000 1.696090 0.000000 
#    z 0.026760 0.000000 1.671420 
# 
# From -- ./inp_files/244268.got.cif
#   From: 2010.05.17/outbox.cif.g08.bks.cpg/sg12_123_cif.got.tgz:244268.got - 2010.06.03 13:09:07.
