data_PCOD9179663
_publ_section_title
;
Structure prediction by ZEFSAII (Michael W. Deem and Ramdas Pophale) SiO2 
 PCOD9179663
Probable space group: C 2/M
;
_chemical_formula_sum "Si O2"
_cell_formula_units_Z 48
_cell_length_a 21.762153
_cell_length_b 25.839432
_cell_length_c 12.679820
_cell_angle_alpha 90.000000
_cell_angle_beta 18.799982
_cell_angle_gamma 90.000000
_cell_volume 2297.796627
_symmetry_space_group_name_H-M "C 2/M"
_symmetry_group_IT_number 12
_symmetry_cell_setting 'monoclinic'
loop_
_space_group_symop_operation_xyz
x,y,z
-x,y,-z
-x,-y,-z
x,-y,z
1/2+x,1/2+y,z
1/2-x,1/2+y,-z
1/2-x,1/2-y,-z
1/2+x,1/2-y,z
loop_
_atom_site_type_symbol
_atom_site_label
_atom_site_fract_x
_atom_site_fract_y
_atom_site_fract_z
Si Si1 0.714656 0.830308 0.697065
Si Si2 0.547531 0.384531 0.027392
Si Si3 0.221929 0.711631 0.350158
Si Si4 0.093130 0.560811 0.464712
Si Si5 0.653629 0.855457 0.031678
Si Si6 0.220532 0.698266 0.113408
O O1 0.865714 0.863052 0.384722
O O2 0.752401 0.768010 0.641998
O O3 0.500000 0.837042 0.000000
O O4 0.738164 0.850104 0.779088
O O5 0.500000 0.417597 0.000000
O O6 0.661227 0.335579 0.792513
O O7 0.699938 0.412602 0.856397
O O8 0.295885 0.708625 0.108219
O O9 0.007058 0.690294 0.705886
O O10 0.104756 0.500000 0.466519
O O11 0.000000 0.567857 0.500000
O O12 0.956477 0.591409 0.767563
O O13 0.781428 0.844382 0.928390
O O14 0.000000 0.687262 0.500000
O O15 0.250000 0.750000 0.000000
#
# Coordination Sequence:
#
# PCOD9179663 Si02
#       6
#     8   8   8   8   8   8
#     4  12  23  35  56  88 129 169 205 249 298 365
#     4  11  24  41  63  90 124 167 212 253 309 376
#     4  10  20  35  54  83 127 171 211 241 294 363
#     4  10  22  46  72  91 116 156 207 264 319 370
#     4  10  20  36  56  88 123 159 205 251 305 358
#     4  10  19  31  50  80 122 162 198 239 289 360
#
# _framework density 20.889576999999999
#
# number of rings (size 3 to 8) (size 9 to 14) (size 15 to 20)
#    0.000    1.500    1.667    6.000    2.333    2.333 
#    0.000    3.333    0.000    4.000    0.000    0.000 
#    0.000    0.000    0.000    0.000    0.000    0.000 
#
# Total GULP energy -133800.359304 kJ/mol
# GULP energy per Si atom -5575.014971 kJ/mol
# Density = 2.084203 g / cm^3
# Si number density = 20.889577 Si / 1000 Ang^3
#
#
#
# Elastic Constant Matrix: (Units=GPa)
#
#
# Indices 1 2 3 4 5 6 
#
# 1 130.1317 27.5005 48.1549 0.0071 8.5606 -0.0370
# 2 27.5005 126.3774 40.0354 -0.0057 -3.7793 -0.0268
# 3 48.1549 40.0354 78.8598 -0.0182 5.2042 -0.0908
# 4 0.0071 -0.0057 -0.0182 9.9237 0.0090 5.4168
# 5 8.5606 -3.7793 5.2042 0.0090 45.3721 0.0207
# 6 -0.0370 -0.0268 -0.0908 5.4168 0.0207 12.5396
#
#
#
# Elastic Compliance Matrix: (Units=1/GPa)
#
#
# Indices 1 2 3 4 5 6 
#
# 1 0.010006 -0.000364 -0.005843 -0.000014 -0.001248 -0.000006
# 2 -0.000364 0.009525 -0.004706 0.000007 0.001402 -0.000020
# 3 -0.005843 -0.004706 0.018733 -0.000031 -0.001438 0.000124
# 4 -0.000014 0.000007 -0.000031 0.131860 0.000006 -0.056960
# 5 -0.001248 0.001402 -0.001438 0.000006 0.022557 -0.000051
# 6 -0.000006 -0.000020 0.000124 -0.056960 -0.000051 0.104354
#
#
# Mechanical properties :
#
#
# Convention : Reuss Voigt Hill
#
# Bulk Modulus (GPa) = 60.83405 62.97227 61.90316
# Shear Modulus (GPa) = 15.41599 28.21229 21.81414
#
# Velocity S-wave (km/s) = 2.71952 3.67896 3.23501
# Velocity P-wave (km/s) = 6.24868 6.94673 6.60693
#
# Compressibility (1/GPa) = 0.01643816
#
# Stress axis : x y z
#
# Youngs Moduli (GPa) = 99.94402 104.99069 53.38235
#
# Poissons Ratio (x) = 0.03818 0.31191
# Poissons Ratio (y) = 0.03634 0.25121
# Poissons Ratio (z) = 0.58396 0.49408
#
# Static dielectric constant tensor:
#      x y z
#    x 1.968720 0.000000 -0.047910 
#    y 0.000000 1.731880 0.000040 
#    z -0.047910 0.000040 1.772760 
# 
# From -- ./inp_files/170684.got.cif
#   From: 2010.05.17/outbox.cif.g08.bks.cpg/sg12_86_cif.got.tgz:170684.got - 2010.06.03 13:09:07.
