data_PCOD9179894
_publ_section_title
;
Structure prediction by ZEFSAII (Michael W. Deem and Ramdas Pophale) SiO2 
 PCOD9179894
Probable space group: C 2/M
;
_chemical_formula_sum "Si O2"
_cell_formula_units_Z 56
_cell_length_a 21.513284
_cell_length_b 13.581886
_cell_length_c 12.052111
_cell_angle_alpha 90.000000
_cell_angle_beta 72.863368
_cell_angle_gamma 90.000000
_cell_volume 3365.179605
_symmetry_space_group_name_H-M "C 2/M"
_symmetry_group_IT_number 12
_symmetry_cell_setting 'monoclinic'
loop_
_space_group_symop_operation_xyz
x,y,z
-x,y,-z
-x,-y,-z
x,-y,z
1/2+x,1/2+y,z
1/2-x,1/2+y,-z
1/2-x,1/2-y,-z
1/2+x,1/2-y,z
loop_
_atom_site_type_symbol
_atom_site_label
_atom_site_fract_x
_atom_site_fract_y
_atom_site_fract_z
Si Si1 0.382619 0.884819 0.220198
Si Si2 0.743166 0.382884 0.907592
Si Si3 0.933223 0.614099 0.592019
Si Si4 0.792583 0.698217 0.644444
Si Si5 0.965600 0.386533 0.834793
Si Si6 0.762625 0.386538 0.428824
Si Si7 0.650737 0.787955 0.988005
O O1 0.458262 0.861981 0.197774
O O2 0.337802 0.872241 0.351628
O O3 0.378899 0.000000 0.191321
O O4 0.352411 0.822371 0.137077
O O5 0.735393 0.500000 0.906479
O O6 0.766455 0.340699 0.775979
O O7 0.798712 0.353477 0.967227
O O8 0.678724 0.322460 0.976477
O O9 0.922209 0.500000 0.562386
O O10 0.869039 0.674900 0.599610
O O11 0.944323 0.614455 0.718061
O O12 0.000000 0.647970 0.500000
O O13 0.758007 0.641974 0.560161
O O14 0.778113 0.812100 0.625996
O O15 0.956657 0.500000 0.880697
O O16 0.919914 0.312141 0.925250
O O17 0.745536 0.500000 0.420088
#
# Coordination Sequence:
#
# PCOD9179894 Si02
#       7
#     8   8   8   8   8   8   8
#     4  10  19  33  52  80 112 140 170 218 272 320
#     4  11  22  36  55  78 106 144 184 221 262 316
#     4  10  19  32  53  81 109 138 174 220 268 320
#     4  11  20  36  57  79 109 146 176 217 272 317
#     4  10  19  31  52  78 108 142 175 214 271 322
#     4  10  21  35  55  84 111 138 179 221 265 319
#     4  11  21  34  51  79 107 142 178 218 260 317
#
# _framework density 16.641013000000001
#
# number of rings (size 3 to 8) (size 9 to 14) (size 15 to 20)
#    0.000    1.571    2.857    3.857    0.000    3.429 
#    0.000    0.000    0.000    2.143    0.000    0.000 
#    0.000    0.000    0.000    0.000    0.000    0.000 
#
# Total GULP energy -156256.996178 kJ/mol
# GULP energy per Si atom -5580.607006 kJ/mol
# Density = 1.660314 g / cm^3
# Si number density = 16.641013 Si / 1000 Ang^3
#
#
#
# Elastic Constant Matrix: (Units=GPa)
#
#
# Indices 1 2 3 4 5 6 
#
# 1 85.7031 56.2984 11.2005 0.0000 -3.7052 0.0000
# 2 56.2984 115.3137 30.0446 0.0000 -4.0126 0.0000
# 3 11.2005 30.0446 49.8522 0.0000 0.3155 0.0000
# 4 0.0000 0.0000 0.0000 17.8160 0.0000 -3.5058
# 5 -3.7052 -4.0126 0.3155 0.0000 31.8306 0.0000
# 6 0.0000 0.0000 0.0000 -3.5058 0.0000 26.5404
#
#
#
# Elastic Compliance Matrix: (Units=1/GPa)
#
#
# Indices 1 2 3 4 5 6 
#
# 1 0.017287 -0.008773 0.001398 0.000000 0.000893 0.000000
# 2 -0.008773 0.014799 -0.006953 0.000000 0.000913 0.000000
# 3 0.001398 -0.006953 0.023942 0.000000 -0.000951 0.000000
# 4 0.000000 0.000000 0.000000 0.057627 0.000000 0.007612
# 5 0.000893 0.000913 -0.000951 0.000000 0.031645 0.000000
# 6 0.000000 0.000000 0.000000 0.007612 0.000000 0.038684
#
#
# Mechanical properties :
#
#
# Convention : Reuss Voigt Hill
#
# Bulk Modulus (GPa) = 36.53626 49.55067 43.04347
# Shear Modulus (GPa) = 22.54642 25.45908 24.00275
#
# Velocity S-wave (km/s) = 3.68485 3.91564 3.80199
# Velocity P-wave (km/s) = 6.33304 7.09111 6.72277
#
# Compressibility (1/GPa) = 0.02737007
#
# Stress axis : x y z
#
# Youngs Moduli (GPa) = 57.84655 67.57390 41.76769
#
# Poissons Ratio (x) = 0.59283 -0.05838
# Poissons Ratio (y) = 0.50749 0.29043
# Poissons Ratio (z) = -0.08085 0.46987
#
# Static dielectric constant tensor:
#      x y z
#    x 1.551620 0.000000 -0.003940 
#    y 0.000000 1.545400 0.000000 
#    z -0.003940 0.000000 1.594140 
# 
# From -- ./inp_files/165594.got.cif
#   From: 2010.05.17/outbox.cif.g08.bks.cpg/sg12_83_cif.got.tgz:165594.got - 2010.06.03 13:09:07.
