data_PCOD9179616
_publ_section_title
;
Structure prediction by ZEFSAII (Michael W. Deem and Ramdas Pophale) SiO2 
 PCOD9179616
Probable space group: C 2/M
;
_chemical_formula_sum "Si O2"
_cell_formula_units_Z 56
_cell_length_a 23.691850
_cell_length_b 9.884061
_cell_length_c 11.924764
_cell_angle_alpha 90.000000
_cell_angle_beta 101.812374
_cell_angle_gamma 90.000000
_cell_volume 2733.307161
_symmetry_space_group_name_H-M "C 2/M"
_symmetry_group_IT_number 12
_symmetry_cell_setting 'monoclinic'
loop_
_space_group_symop_operation_xyz
x,y,z
-x,y,-z
-x,-y,-z
x,-y,z
1/2+x,1/2+y,z
1/2-x,1/2+y,-z
1/2-x,1/2-y,-z
1/2+x,1/2-y,z
loop_
_atom_site_type_symbol
_atom_site_label
_atom_site_fract_x
_atom_site_fract_y
_atom_site_fract_z
Si Si1 0.744308 0.652803 0.805251
Si Si2 0.059501 0.161228 0.242127
Si Si3 0.613736 0.342873 0.678529
Si Si4 0.943330 0.843637 0.102857
Si Si5 0.655646 0.660738 0.099922
Si Si6 0.212734 0.359624 0.426864
Si Si7 0.917482 0.656844 0.541835
O O1 0.741433 0.500000 0.853197
O O2 0.679161 0.692828 0.744267
O O3 0.784464 0.758879 0.886021
O O4 0.777999 0.643260 0.701090
O O5 0.120918 0.175166 0.204018
O O6 0.052742 0.251569 0.350476
O O7 0.009185 0.204780 0.134469
O O8 0.051997 0.000000 0.263113
O O9 0.615610 0.500000 0.637286
O O10 0.576481 0.340975 0.776049
O O11 0.588109 0.240867 0.575907
O O12 0.946099 0.000000 0.065470
O O13 0.891156 0.784859 0.009073
O O14 0.665860 0.500000 0.087683
O O15 0.237727 0.500000 0.480338
O O16 0.250000 0.250000 0.500000
O O17 0.147430 0.351287 0.437427
O O18 0.937913 0.500000 0.538824
#
# Coordination Sequence:
#
# PCOD9179616 Si02
#       7
#     8   8   8   8   8   8   8
#     4  10  20  34  53  81 113 144 177 218 272 328
#     4  10  20  36  60  84 107 140 184 229 273 320
#     4  10  21  38  58  79 110 150 185 217 264 328
#     4   9  20  39  59  80 107 143 188 231 266 312
#     4  10  20  35  59  86 109 138 181 231 275 316
#     4  10  19  31  50  77 110 142 176 221 270 320
#     4  11  22  35  54  82 115 143 176 225 276 324
#
# _framework density 20.488002999999999
#
# number of rings (size 3 to 8) (size 9 to 14) (size 15 to 20)
#    0.000    2.000    2.857    0.857    0.000    4.571 
#    0.000    5.000    0.000    1.714    0.000    0.000 
#    0.000    0.000    0.000    0.000    0.000    0.000 
#
# Total GULP energy -156073.535723 kJ/mol
# GULP energy per Si atom -5574.054847 kJ/mol
# Density = 2.044137 g / cm^3
# Si number density = 20.488003 Si / 1000 Ang^3
#
#
#
# Elastic Constant Matrix: (Units=GPa)
#
#
# Indices 1 2 3 4 5 6 
#
# 1 27.4700 25.3566 23.0478 0.0000 -2.0234 0.0000
# 2 25.3566 105.9932 56.9935 0.0000 27.7854 0.0000
# 3 23.0478 56.9935 76.0111 0.0000 21.2645 0.0000
# 4 0.0000 0.0000 0.0000 21.5717 0.0000 10.0651
# 5 -2.0234 27.7854 21.2645 0.0000 34.6622 0.0000
# 6 0.0000 0.0000 0.0000 10.0651 0.0000 17.2677
#
#
#
# Elastic Compliance Matrix: (Units=1/GPa)
#
#
# Indices 1 2 3 4 5 6 
#
# 1 0.063736 -0.012631 -0.016573 0.000000 0.024012 0.000000
# 2 -0.012631 0.019633 -0.007584 0.000000 -0.011823 0.000000
# 3 -0.016573 -0.007584 0.027086 0.000000 -0.011505 0.000000
# 4 0.000000 0.000000 0.000000 0.063674 0.000000 -0.037115
# 5 0.024012 -0.011823 -0.011505 0.000000 0.046787 0.000000
# 6 0.000000 0.000000 0.000000 -0.037115 0.000000 0.079545
#
#
# Mechanical properties :
#
#
# Convention : Reuss Voigt Hill
#
# Bulk Modulus (GPa) = 27.11451 46.69669 36.90560
# Shear Modulus (GPa) = 12.94229 21.63875 17.29052
#
# Velocity S-wave (km/s) = 2.51609 3.25340 2.90821
# Velocity P-wave (km/s) = 4.65876 6.07902 5.41565
#
# Compressibility (1/GPa) = 0.03688062
#
# Stress axis : x y z
#
# Youngs Moduli (GPa) = 15.68975 50.93342 36.91946
#
# Poissons Ratio (x) = 0.64333 0.61185
# Poissons Ratio (y) = 0.19818 0.27999
# Poissons Ratio (z) = 0.26002 0.38627
#
# Static dielectric constant tensor:
#      x y z
#    x 1.752050 0.000000 -0.001300 
#    y 0.000000 1.741630 0.000000 
#    z -0.001300 0.000000 1.677990 
# 
# From -- ./inp_files/181087.got.cif
#   From: 2010.05.17/outbox.cif.g08.bks.cpg/sg12_91_cif.got.tgz:181087.got - 2010.06.03 13:09:07.
