data_PCOD9179642
_publ_section_title
;
Structure prediction by ZEFSAII (Michael W. Deem and Ramdas Pophale) SiO2 
 PCOD9179642
Probable space group: C 2/M
;
_chemical_formula_sum "Si O2"
_cell_formula_units_Z 56
_cell_length_a 19.397308
_cell_length_b 19.164270
_cell_length_c 15.586156
_cell_angle_alpha 90.000000
_cell_angle_beta 27.338502
_cell_angle_gamma 90.000000
_cell_volume 2660.839638
_symmetry_space_group_name_H-M "C 2/M"
_symmetry_group_IT_number 12
_symmetry_cell_setting 'monoclinic'
loop_
_space_group_symop_operation_xyz
x,y,z
-x,y,-z
-x,-y,-z
x,-y,z
1/2+x,1/2+y,z
1/2-x,1/2+y,-z
1/2-x,1/2-y,-z
1/2+x,1/2-y,z
loop_
_atom_site_type_symbol
_atom_site_label
_atom_site_fract_x
_atom_site_fract_y
_atom_site_fract_z
Si Si1 0.512806 0.922239 0.162469
Si Si2 0.147097 0.919140 0.776589
Si Si3 0.333968 0.820131 0.674523
Si Si4 0.070950 0.182128 0.207538
Si Si5 0.843736 0.078756 0.436581
Si Si6 0.307597 0.920196 0.864543
Si Si7 0.337864 0.217441 0.035644
O O1 0.334616 0.917603 0.355354
O O2 0.563176 0.916732 0.206556
O O3 0.560157 0.000000 0.081021
O O4 0.594080 0.858449 0.025431
O O5 0.278394 0.865050 0.655429
O O6 0.117491 0.913256 0.707799
O O7 0.192859 0.000000 0.741456
O O8 0.000000 0.906715 0.000000
O O9 0.500000 0.788482 0.500000
O O10 0.338696 0.877079 0.745528
O O11 0.203903 0.764125 0.837351
O O12 0.177749 0.212212 0.162922
O O13 0.919356 0.143907 0.401076
O O14 0.168156 0.118197 0.062243
O O15 0.058525 0.239979 0.146632
O O16 0.891741 0.000000 0.409664
O O17 0.275283 0.000000 0.879888
#
# Coordination Sequence:
#
# PCOD9179642 Si02
#       7
#     8   8   8   8   8   8   8
#     4   9  18  32  50  71  95 122 161 215 263 298
#     4  10  20  32  47  73 111 148 172 190 226 292
#     4  11  21  32  48  69 101 138 174 207 238 289
#     4   9  17  30  49  70  99 131 165 207 247 286
#     4  10  19  31  50  79 107 130 164 205 244 294
#     4   9  16  28  46  68  96 133 168 197 239 291
#     4   9  19  34  48  69  96 132 172 207 251 297
#
# _framework density 21.045988000000001
#
# number of rings (size 3 to 8) (size 9 to 14) (size 15 to 20)
#    0.000    2.429    0.000    4.286    0.000    4.571 
#    0.000    1.429    0.000    0.429    0.000    0.000 
#    0.000    7.429    0.000    0.000    0.000    0.286 
#
# Total GULP energy -156232.521284 kJ/mol
# GULP energy per Si atom -5579.732903 kJ/mol
# Density = 2.099809 g / cm^3
# Si number density = 21.045988 Si / 1000 Ang^3
#
#
#
# Elastic Constant Matrix: (Units=GPa)
#
#
# Indices 1 2 3 4 5 6 
#
# 1 8.6447 9.5912 0.5530 0.0008 -7.3005 0.0005
# 2 9.5912 127.8422 27.0500 0.0014 -2.9671 -0.0004
# 3 0.5530 27.0500 26.4756 0.0038 -6.7510 0.0001
# 4 0.0008 0.0014 0.0038 27.5683 -0.0026 -10.1180
# 5 -7.3005 -2.9671 -6.7510 -0.0026 22.1710 0.0002
# 6 0.0005 -0.0004 0.0001 -10.1180 0.0002 17.5448
#
#
#
# Elastic Compliance Matrix: (Units=1/GPa)
#
#
# Indices 1 2 3 4 5 6 
#
# 1 0.198471 -0.020760 0.035800 -0.000006 0.073476 -0.000011
# 2 -0.020760 0.012227 -0.014511 0.000002 -0.009618 0.000002
# 3 0.035800 -0.014511 0.058935 -0.000008 0.027792 -0.000007
# 4 -0.000006 0.000002 -0.000008 0.046012 0.000001 0.026535
# 5 0.073476 -0.009618 0.027792 0.000001 0.076473 -0.000003
# 6 -0.000011 0.000002 -0.000007 0.026535 -0.000003 0.072300
#
#
# Mechanical properties :
#
#
# Convention : Reuss Voigt Hill
#
# Bulk Modulus (GPa) = 3.69423 26.37231 15.03327
# Shear Modulus (GPa) = 9.03195 21.84137 15.43666
#
# Velocity S-wave (km/s) = 2.07385 3.22497 2.71121
# Velocity P-wave (km/s) = 2.73744 5.14055 4.11818
#
# Compressibility (1/GPa) = 0.27069254
#
# Stress axis : x y z
#
# Youngs Moduli (GPa) = 5.03852 81.78798 16.96775
#
# Poissons Ratio (x) = 1.69789 -0.60745
# Poissons Ratio (y) = 0.10460 0.24622
# Poissons Ratio (z) = -0.18038 1.18682
#
# Static dielectric constant tensor:
#      x y z
#    x 1.762350 0.000000 -0.029290 
#    y 0.000000 1.774670 0.000000 
#    z -0.029290 0.000000 1.817470 
# 
# From -- ./inp_files/87242.got.cif
#   From: 2010.05.17/outbox.cif.g08.bks.cpg/sg12_44_cif.got.tgz:87242.got - 2010.06.03 13:09:07.
