data_PCOD9179200
_publ_section_title
;
Structure prediction by ZEFSAII (Michael W. Deem and Ramdas Pophale) SiO2 
 PCOD9179200
Probable space group: C 2/M
;
_chemical_formula_sum "Si O2"
_cell_formula_units_Z 56
_cell_length_a 23.444688
_cell_length_b 7.610044
_cell_length_c 15.221868
_cell_angle_alpha 90.000000
_cell_angle_beta 76.176517
_cell_angle_gamma 90.000000
_cell_volume 2637.151635
_symmetry_space_group_name_H-M "C 2/M"
_symmetry_group_IT_number 12
_symmetry_cell_setting 'monoclinic'
loop_
_space_group_symop_operation_xyz
x,y,z
-x,y,-z
-x,-y,-z
x,-y,z
1/2+x,1/2+y,z
1/2-x,1/2+y,-z
1/2-x,1/2-y,-z
1/2+x,1/2-y,z
loop_
_atom_site_type_symbol
_atom_site_label
_atom_site_fract_x
_atom_site_fract_y
_atom_site_fract_z
Si Si1 0.469618 0.786673 0.156199
Si Si2 0.610842 0.209681 0.652919
Si Si3 0.067844 0.715034 0.480169
Si Si4 0.101627 0.705983 0.126760
Si Si5 0.714707 0.288442 0.737523
Si Si6 0.864444 0.205787 0.072959
Si Si7 0.152516 0.284417 0.291683
O O1 0.435067 0.725799 0.256330
O O2 0.536249 0.721122 0.133826
O O3 0.429590 0.732337 0.088908
O O4 0.470001 0.000000 0.154572
O O5 0.596566 0.275487 0.561140
O O6 0.675278 0.245164 0.667550
O O7 0.603278 0.000000 0.652673
O O8 0.068100 0.500000 0.479673
O O9 0.105979 0.770711 0.382532
O O10 0.000000 0.769623 0.500000
O O11 0.092775 0.500000 0.147853
O O12 0.132603 0.776592 0.202473
O O13 0.138112 0.720739 0.023845
O O14 0.715589 0.500000 0.743448
O O15 0.679824 0.221074 0.836756
O O16 0.781447 0.226192 0.710874
O O17 0.853018 0.000000 0.069763
O O18 0.153430 0.500000 0.291576
#
# Coordination Sequence:
#
# PCOD9179200 Si02
#       7
#     8   8   8   8   8   8   8
#     4   9  17  30  48  72  99 123 153 196 243 287
#     4   9  17  30  51  76  99 124 156 197 238 276
#     4   9  16  28  50  79 103 122 152 196 241 282
#     4  10  19  31  49  71  94 124 161 200 242 283
#     4   9  19  35  50  67  96 132 164 192 232 286
#     4  10  20  32  47  68  95 128 163 197 235 283
#     4   9  18  32  49  69  96 129 161 194 235 285
#
# _framework density 21.235033999999999
#
# number of rings (size 3 to 8) (size 9 to 14) (size 15 to 20)
#    0.000    2.714    0.000    1.714    0.000    7.429 
#    0.000    0.714    0.000    1.286    0.000    0.000 
#    0.000    0.000    0.000    0.000    0.000    0.000 
#
# Total GULP energy -156312.069631 kJ/mol
# GULP energy per Si atom -5582.573915 kJ/mol
# Density = 2.118670 g / cm^3
# Si number density = 21.235034 Si / 1000 Ang^3
#
#
#
# Elastic Constant Matrix: (Units=GPa)
#
#
# Indices 1 2 3 4 5 6 
#
# 1 153.6656 -6.5355 106.8481 0.0000 -2.1335 0.0000
# 2 -6.5355 35.1444 -4.3193 0.0000 -1.4505 0.0000
# 3 106.8481 -4.3193 164.1416 0.0000 29.9791 0.0000
# 4 0.0000 0.0000 0.0000 -0.8043 0.0000 -2.2175
# 5 -2.1335 -1.4505 29.9791 0.0000 26.7483 0.0000
# 6 0.0000 0.0000 0.0000 -2.2175 0.0000 12.0598
#
#
#
# Elastic Compliance Matrix: (Units=1/GPa)
#
#
# Indices 1 2 3 4 5 6 
#
# 1 0.016252 0.002041 -0.013558 0.000000 0.016603 0.000000
# 2 0.002041 0.028819 -0.001113 0.000000 0.002974 0.000000
# 3 -0.013558 -0.001113 0.018983 0.000000 -0.022418 0.000000
# 4 0.000000 0.000000 0.000000 -0.825031 0.000000 -0.151705
# 5 0.016603 0.002974 -0.022418 0.000000 0.063997 0.000000
# 6 0.000000 0.000000 0.000000 -0.151705 0.000000 0.055025
#
#
# Mechanical properties :
#
#
# Convention : Reuss Voigt Hill
#
# Bulk Modulus (GPa) = 25.77704 60.54868 43.16286
# Shear Modulus (GPa) = -8.28140 24.73131 8.22495
#
# Velocity S-wave (km/s) = -1.97695 3.41639 1.97020
# Velocity P-wave (km/s) = 2.63707 6.64363 5.05430
#
# Compressibility (1/GPa) = 0.03879422
#
# Stress axis : x y z
#
# Youngs Moduli (GPa) = 61.52980 34.69873 52.67854
#
# Poissons Ratio (x) = -0.07083 0.71422
# Poissons Ratio (y) = -0.12560 0.05866
# Poissons Ratio (z) = 0.83423 0.03864
#
# Static dielectric constant tensor:
#      x y z
#    x 1.739750 0.000000 -0.006430 
#    y 0.000000 1.802910 0.000000 
#    z -0.006430 0.000000 1.749710 
# 
# From -- ./inp_files/237322.got.cif
#   From: 2010.05.17/outbox.cif.g08.bks.cpg/sg12_119_cif.got.tgz:237322.got - 2010.06.03 13:09:07.
