data_PCOD9179838
_publ_section_title
;
Structure prediction by ZEFSAII (Michael W. Deem and Ramdas Pophale) SiO2 
 PCOD9179838
Probable space group: C 2/M
;
_chemical_formula_sum "Si O2"
_cell_formula_units_Z 56
_cell_length_a 22.991923
_cell_length_b 15.007768
_cell_length_c 7.452889
_cell_angle_alpha 90.000000
_cell_angle_beta 71.036748
_cell_angle_gamma 90.000000
_cell_volume 2432.102830
_symmetry_space_group_name_H-M "C 2/M"
_symmetry_group_IT_number 12
_symmetry_cell_setting 'monoclinic'
loop_
_space_group_symop_operation_xyz
x,y,z
-x,y,-z
-x,-y,-z
x,-y,z
1/2+x,1/2+y,z
1/2-x,1/2+y,-z
1/2-x,1/2-y,-z
1/2+x,1/2-y,z
loop_
_atom_site_type_symbol
_atom_site_label
_atom_site_fract_x
_atom_site_fract_y
_atom_site_fract_z
Si Si1 0.620344 0.902854 0.658882
Si Si2 0.634386 0.904846 0.056328
Si Si3 0.735997 0.400075 0.570951
Si Si4 0.265475 0.645872 0.005939
Si Si5 0.611353 0.711114 0.097722
Si Si6 0.124266 0.789401 0.661254
Si Si7 0.506371 0.599688 0.707064
O O1 0.694274 0.896418 0.564745
O O2 0.600852 0.805412 0.609462
O O3 0.601038 0.000000 0.604443
O O4 0.606165 0.905366 0.885461
O O5 0.708857 0.901265 0.964937
O O6 0.614991 0.812140 0.168174
O O7 0.618897 0.000000 0.159241
O O8 0.711929 0.500000 0.559611
O O9 0.738342 0.386082 0.784124
O O10 0.690726 0.325816 0.534108
O O11 0.250000 0.750000 0.000000
O O12 0.336768 0.644412 0.874311
O O13 0.545143 0.667378 0.171967
O O14 0.630008 0.721585 0.870441
O O15 0.073586 0.863984 0.681832
O O16 0.500000 0.597619 0.500000
O O17 0.496514 0.500000 0.787427
#
# Coordination Sequence:
#
# PCOD9179838 Si02
#       7
#     8   8   8   8   8   8   8
#     4   9  19  34  54  82 112 140 171 210 257 310
#     4   9  17  32  54  81 111 140 172 210 255 308
#     4  10  19  31  51  81 112 142 176 213 259 312
#     4   9  18  31  49  77 109 141 176 211 254 306
#     4   9  20  36  54  77 104 140 179 214 257 309
#     4  10  20  36  57  77 104 141 178 214 256 310
#     4  11  25  41  56  76 101 132 174 223 269 310
#
# _framework density 23.025341000000001
#
# number of rings (size 3 to 8) (size 9 to 14) (size 15 to 20)
#    0.000    2.429    0.000    2.571    0.000    7.429 
#    0.000    3.571    0.000    4.286    0.000    0.000 
#    0.000    0.000    0.000    0.000    0.000    0.000 
#
# Total GULP energy -156176.555850 kJ/mol
# GULP energy per Si atom -5577.734137 kJ/mol
# Density = 2.297293 g / cm^3
# Si number density = 23.025341 Si / 1000 Ang^3
#
#
#
# Elastic Constant Matrix: (Units=GPa)
#
#
# Indices 1 2 3 4 5 6 
#
# 1 31.2368 6.2179 -16.8271 0.0000 -6.5871 0.0000
# 2 6.2179 155.2654 -2.4063 0.0000 -6.3440 0.0000
# 3 -16.8271 -2.4063 46.3778 0.0000 9.2045 0.0000
# 4 0.0000 0.0000 0.0000 5.0047 0.0000 -21.8980
# 5 -6.5871 -6.3440 9.2045 0.0000 27.6577 0.0000
# 6 0.0000 0.0000 0.0000 -21.8980 0.0000 9.9560
#
#
#
# Elastic Compliance Matrix: (Units=1/GPa)
#
#
# Indices 1 2 3 4 5 6 
#
# 1 0.040675 -0.001218 0.013735 0.000000 0.004837 0.000000
# 2 -0.001218 0.006538 -0.000367 0.000000 0.001332 0.000000
# 3 0.013735 -0.000367 0.027725 0.000000 -0.006040 0.000000
# 4 0.000000 0.000000 0.000000 -0.023170 0.000000 -0.050962
# 5 0.004837 0.001332 -0.006040 0.000000 0.039624 0.000000
# 6 0.000000 0.000000 0.000000 -0.050962 0.000000 -0.011647
#
#
# Mechanical properties :
#
#
# Convention : Reuss Voigt Hill
#
# Bulk Modulus (GPa) = 10.07694 22.98322 16.53008
# Shear Modulus (GPa) = 56.48085 24.91670 40.69877
#
# Velocity S-wave (km/s) = 4.95814 3.29316 4.20880
# Velocity P-wave (km/s) = 6.09618 4.94604 5.55098
#
# Compressibility (1/GPa) = 0.09923644
#
# Stress axis : x y z
#
# Youngs Moduli (GPa) = 24.58520 152.94967 36.06844
#
# Poissons Ratio (x) = 0.18635 -0.49539
# Poissons Ratio (y) = 0.02995 0.01324
# Poissons Ratio (z) = -0.33767 0.05615
#
# Static dielectric constant tensor:
#      x y z
#    x 1.869450 0.000000 0.021180 
#    y 0.000000 1.951320 0.000000 
#    z 0.021180 0.000000 1.874780 
# 
# From -- ./inp_files/96284.got.cif
#   From: 2010.05.17/outbox.cif.g08.bks.cpg/sg12_49_cif.got.tgz:96284.got - 2010.06.03 13:09:07.
