data_PCOD9179143
_publ_section_title
;
Structure prediction by ZEFSAII (Michael W. Deem and Ramdas Pophale) SiO2 
 PCOD9179143
Probable space group: C 2/M
;
_chemical_formula_sum "Si O2"
_cell_formula_units_Z 40
_cell_length_a 12.167298
_cell_length_b 27.918130
_cell_length_c 7.584646
_cell_angle_alpha 90.000000
_cell_angle_beta 135.357544
_cell_angle_gamma 90.000000
_cell_volume 1810.396363
_symmetry_space_group_name_H-M "C 2/M"
_symmetry_group_IT_number 12
_symmetry_cell_setting 'monoclinic'
loop_
_space_group_symop_operation_xyz
x,y,z
-x,y,-z
-x,-y,-z
x,-y,z
1/2+x,1/2+y,z
1/2-x,1/2+y,-z
1/2-x,1/2-y,-z
1/2+x,1/2-y,z
loop_
_atom_site_type_symbol
_atom_site_label
_atom_site_fract_x
_atom_site_fract_y
_atom_site_fract_z
Si Si1 0.047478 0.649760 0.845345
Si Si2 0.958934 0.052171 0.662147
Si Si3 0.582821 0.350499 0.781244
Si Si4 0.063412 0.749608 0.269522
Si Si5 0.413302 0.947757 0.710625
O O1 0.987558 0.699852 0.698036
O O2 0.974881 0.600492 0.689788
O O3 0.232672 0.650258 0.034621
O O4 0.000000 0.649035 0.000000
O O5 0.772144 0.056612 0.468871
O O6 0.000000 0.049900 0.500000
O O7 0.037168 0.100232 0.828192
O O8 0.008563 0.000000 0.791989
O O9 0.500000 0.355986 0.500000
O O10 0.514693 0.299649 0.764818
O O11 0.250000 0.750000 0.500000
O O12 0.000000 0.744506 0.000000
O O13 0.443757 0.000000 0.661396
O O14 0.500000 0.949336 0.000000
#
# Coordination Sequence:
#
# PCOD9179143 Si02
#       5
#     8   8   8   8   8
#     4  10  19  31  48  75 107 141 178 222 274 327
#     4   9  16  26  44  73 106 140 180 228 278 327
#     4  11  20  33  55  81 110 145 188 233 281 335
#     4  11  23  40  59  81 113 149 188 234 283 336
#     4   9  15  24  40  65 100 138 173 216 273 326
#
# _framework density 22.094608999999998
#
# number of rings (size 3 to 8) (size 9 to 14) (size 15 to 20)
#    0.000    2.000    0.000    9.000    0.000    2.400 
#    0.000    0.000    0.000    0.600    0.000    0.000 
#    0.000    7.200    0.000    0.000    0.000    0.000 
#
# Total GULP energy -111513.139069 kJ/mol
# GULP energy per Si atom -5575.656953 kJ/mol
# Density = 2.204432 g / cm^3
# Si number density = 22.094609 Si / 1000 Ang^3
#
#
#
# Elastic Constant Matrix: (Units=GPa)
#
#
# Indices 1 2 3 4 5 6 
#
# 1 73.8122 75.9175 52.2906 0.0000 31.5043 0.0000
# 2 75.9175 314.5056 56.6629 0.0000 49.4214 0.0000
# 3 52.2906 56.6629 86.4494 0.0000 46.9565 0.0000
# 4 0.0000 0.0000 0.0000 28.6037 0.0000 22.8511
# 5 31.5043 49.4214 46.9565 0.0000 53.5978 0.0000
# 6 0.0000 0.0000 0.0000 22.8511 0.0000 36.4858
#
#
#
# Elastic Compliance Matrix: (Units=1/GPa)
#
#
# Indices 1 2 3 4 5 6 
#
# 1 0.027834 -0.004158 -0.013940 0.000000 -0.000314 0.000000
# 2 -0.004158 0.004395 0.000969 0.000000 -0.002458 0.000000
# 3 -0.013940 0.000969 0.029380 0.000000 -0.018439 0.000000
# 4 0.000000 0.000000 0.000000 0.069969 0.000000 -0.043822
# 5 -0.000314 -0.002458 -0.018439 0.000000 0.037262 0.000000
# 6 0.000000 0.000000 0.000000 -0.043822 0.000000 0.054853
#
#
# Mechanical properties :
#
#
# Convention : Reuss Voigt Hill
#
# Bulk Modulus (GPa) = 36.56203 93.83435 65.19819
# Shear Modulus (GPa) = 18.72185 43.06386 30.89285
#
# Velocity S-wave (km/s) = 2.91408 4.41961 3.74332
# Velocity P-wave (km/s) = 5.28265 8.28284 6.94665
#
# Compressibility (1/GPa) = 0.02735078
#
# Stress axis : x y z
#
# Youngs Moduli (GPa) = 35.92742 227.54131 34.03715
#
# Poissons Ratio (x) = 0.94610 0.47448
# Poissons Ratio (y) = 0.14938 -0.03299
# Poissons Ratio (z) = 0.50084 -0.22056
#
# Static dielectric constant tensor:
#      x y z
#    x 1.816060 0.000000 -0.049080 
#    y 0.000000 2.019930 0.000000 
#    z -0.049080 0.000000 1.837250 
# 
# From -- ./inp_files/54442.got.cif
#   From: 2010.05.17/outbox.cif.g08.bks.cpg/sg12_28_cif.got.tgz:54442.got - 2010.06.03 13:09:07.
