data_PCOD9179876
_publ_section_title
;
Structure prediction by ZEFSAII (Michael W. Deem and Ramdas Pophale) SiO2 
 PCOD9179876
Probable space group: C 2/M
;
_chemical_formula_sum "Si O2"
_cell_formula_units_Z 64
_cell_length_a 8.265228
_cell_length_b 19.292240
_cell_length_c 21.349310
_cell_angle_alpha 90.000000
_cell_angle_beta 92.415638
_cell_angle_gamma 90.000000
_cell_volume 3401.224010
_symmetry_space_group_name_H-M "C 2/M"
_symmetry_group_IT_number 12
_symmetry_cell_setting 'monoclinic'
loop_
_space_group_symop_operation_xyz
x,y,z
-x,y,-z
-x,-y,-z
x,-y,z
1/2+x,1/2+y,z
1/2-x,1/2+y,-z
1/2-x,1/2-y,-z
1/2+x,1/2-y,z
loop_
_atom_site_type_symbol
_atom_site_label
_atom_site_fract_x
_atom_site_fract_y
_atom_site_fract_z
Si Si1 0.455855 0.420938 0.065801
Si Si2 0.627921 0.830476 0.318685
Si Si3 0.404210 0.183002 0.821038
Si Si4 0.445991 0.646170 0.563919
Si Si5 0.942850 0.080969 0.310494
Si Si6 0.517100 0.661992 0.814331
Si Si7 0.656454 0.776428 0.608756
Si Si8 0.065900 0.420350 0.069960
O O1 0.514366 0.500000 0.065018
O O2 0.528151 0.386002 0.128169
O O3 0.261367 0.420890 0.068699
O O4 0.500000 0.387289 0.000000
O O5 0.547401 0.834509 0.249196
O O6 0.760870 0.891175 0.322135
O O7 0.483262 0.825072 0.365637
O O8 0.732121 0.759677 0.334837
O O9 0.440220 0.263898 0.826217
O O10 0.211215 0.171912 0.819402
O O11 0.477892 0.134250 0.876265
O O12 0.500000 0.612264 0.500000
O O13 0.460524 0.597476 0.624619
O O14 0.569768 0.710567 0.575994
O O15 0.270318 0.681339 0.564046
O O16 0.011325 0.126290 0.253506
O O17 0.942086 0.000000 0.294549
O O18 0.014540 0.500000 0.083216
O O19 0.000000 0.401884 0.000000
#
# Coordination Sequence:
#
# PCOD9179876 Si02
#       8
#     8   8   8   8   8   8   8   8
#     4   9  18  33  52  72  96 131 172 210 249 297
#     4   9  17  31  53  76 101 131 167 215 260 314
#     4  10  19  31  52  76  98 129 166 210 259 304
#     4  10  19  32  54  80 108 140 175 216 260 313
#     4  10  21  36  53  73 102 142 179 215 265 318
#     4  10  20  34  53  76 102 130 167 214 261 310
#     4   9  17  32  53  80 108 133 167 214 269 312
#     4   9  19  35  51  70 100 136 170 204 248 305
#
# _framework density 18.816755000000001
#
# number of rings (size 3 to 8) (size 9 to 14) (size 15 to 20)
#    0.000    2.500    0.000    3.750    0.000    4.750 
#    0.000    3.125    0.000    4.500    0.000    0.000 
#    0.000    0.000    0.000    0.000    0.000    0.000 
#
# Total GULP energy -178321.628083 kJ/mol
# GULP energy per Si atom -5572.550878 kJ/mol
# Density = 1.877393 g / cm^3
# Si number density = 18.816755 Si / 1000 Ang^3
#
#
#
# Elastic Constant Matrix: (Units=GPa)
#
#
# Indices 1 2 3 4 5 6 
#
# 1 22.3569 2.6732 5.0602 0.0000 -10.5862 0.0000
# 2 2.6732 69.6069 25.7433 0.0000 -9.7468 0.0000
# 3 5.0602 25.7433 99.2452 0.0000 -13.6846 0.0000
# 4 0.0000 0.0000 0.0000 -4.7812 0.0000 -0.6247
# 5 -10.5862 -9.7468 -13.6846 0.0000 20.4358 0.0000
# 6 0.0000 0.0000 0.0000 -0.6247 0.0000 15.3376
#
#
#
# Elastic Compliance Matrix: (Units=1/GPa)
#
#
# Indices 1 2 3 4 5 6 
#
# 1 0.059647 0.001904 0.000937 0.000000 0.032434 0.000000
# 2 0.001904 0.016492 -0.003475 0.000000 0.006525 0.000000
# 3 0.000937 -0.003475 0.011864 0.000000 0.006772 0.000000
# 4 0.000000 0.000000 0.000000 -0.208044 0.000000 -0.008474
# 5 0.032434 0.006525 0.006772 0.000000 0.073383 0.000000
# 6 0.000000 0.000000 0.000000 -0.008474 0.000000 0.064854
#
#
# Mechanical properties :
#
#
# Convention : Reuss Voigt Hill
#
# Bulk Modulus (GPa) = 11.52932 28.68471 20.10702
# Shear Modulus (GPa) = 103.35784 16.71391 60.03588
#
# Velocity S-wave (km/s) = 7.41942 2.98358 5.65463
# Velocity P-wave (km/s) = 8.91839 5.21021 7.30356
#
# Compressibility (1/GPa) = 0.08673536
#
# Stress axis : x y z
#
# Youngs Moduli (GPa) = 16.76523 60.63449 84.29198
#
# Poissons Ratio (x) = -0.11547 -0.07899
# Poissons Ratio (y) = -0.03193 0.29294
# Poissons Ratio (z) = -0.01571 0.21072
#
# Static dielectric constant tensor:
#      x y z
#    x 1.668580 0.000000 0.018360 
#    y 0.000000 1.645320 0.000000 
#    z 0.018360 0.000000 1.700280 
# 
# From -- ./inp_files/300800.got.cif
#   From: 2010.05.17/outbox.cif.g08.bks.cpg/sg12_151_cif.got.tgz:300800.got - 2010.06.03 13:09:07.
