data_PCOD9179944
_publ_section_title
;
Structure prediction by ZEFSAII (Michael W. Deem and Ramdas Pophale) SiO2 
 PCOD9179944
Probable space group: C 2/M
;
_chemical_formula_sum "Si O2"
_cell_formula_units_Z 64
_cell_length_a 17.166209
_cell_length_b 13.864023
_cell_length_c 18.613144
_cell_angle_alpha 90.000000
_cell_angle_beta 49.807385
_cell_angle_gamma 90.000000
_cell_volume 3383.826580
_symmetry_space_group_name_H-M "C 2/M"
_symmetry_group_IT_number 12
_symmetry_cell_setting 'monoclinic'
loop_
_space_group_symop_operation_xyz
x,y,z
-x,y,-z
-x,-y,-z
x,-y,z
1/2+x,1/2+y,z
1/2-x,1/2+y,-z
1/2-x,1/2-y,-z
1/2+x,1/2-y,z
loop_
_atom_site_type_symbol
_atom_site_label
_atom_site_fract_x
_atom_site_fract_y
_atom_site_fract_z
Si Si1 0.611871 0.387458 0.903520
Si Si2 0.787536 0.388087 0.129205
Si Si3 0.121760 0.228892 0.639343
Si Si4 0.613416 0.892020 0.404956
Si Si5 0.278961 0.252275 0.265981
Si Si6 0.341493 0.724154 0.998237
Si Si7 0.802875 0.393167 0.486450
Si Si8 0.065118 0.113748 0.184964
O O1 0.615258 0.500000 0.888586
O O2 0.645054 0.330052 0.814416
O O3 0.500000 0.361253 0.000000
O O4 0.685503 0.354158 0.924584
O O5 0.818145 0.500000 0.112814
O O6 0.783177 0.339145 0.210496
O O7 0.673525 0.383163 0.162502
O O8 0.858923 0.320949 0.035275
O O9 0.181825 0.261221 0.676247
O O10 0.111016 0.326757 0.600612
O O11 0.194619 0.160682 0.547581
O O12 0.022290 0.169097 0.719348
O O13 0.500000 0.871189 0.500000
O O14 0.668993 0.805942 0.330120
O O15 0.676759 0.899992 0.440993
O O16 0.614497 0.000000 0.369947
O O17 0.420722 0.672112 0.898016
O O18 0.250000 0.750000 0.000000
O O19 0.800742 0.500000 0.456825
O O20 0.040998 0.000000 0.186809
#
# Coordination Sequence:
#
# PCOD9179944 Si02
#       8
#     8   8   8   8   8   8   8   8
#     4  10  19  31  52  81 108 131 165 217 268 310
#     4   9  20  36  53  74 105 143 175 210 255 308
#     4  10  20  33  54  79 103 137 174 219 263 308
#     4   9  18  32  52  75 101 135 169 209 260 309
#     4  10  20  33  51  77 104 137 172 211 258 313
#     4   9  18  33  51  74 104 137 169 207 257 310
#     4   9  19  35  51  73 105 138 173 212 261 313
#     4  10  19  33  56  80 102 131 174 222 265 306
#
# _framework density 18.913499000000002
#
# number of rings (size 3 to 8) (size 9 to 14) (size 15 to 20)
#    0.000    2.500    0.000    1.875    1.750    3.500 
#    0.000    0.625    0.000   13.875    0.000    0.000 
#    0.000    0.000    0.000    0.000    0.000    0.000 
#
# Total GULP energy -178202.263976 kJ/mol
# GULP energy per Si atom -5568.820749 kJ/mol
# Density = 1.887045 g / cm^3
# Si number density = 18.913499 Si / 1000 Ang^3
#
#
#
# Elastic Constant Matrix: (Units=GPa)
#
#
# Indices 1 2 3 4 5 6 
#
# 1 21.2160 7.0926 -4.7249 0.0000 5.9328 0.0000
# 2 7.0926 150.3133 57.0415 0.0000 -5.2588 0.0000
# 3 -4.7249 57.0415 67.6008 0.0000 -0.0585 0.0000
# 4 0.0000 0.0000 0.0000 9.7530 0.0000 5.7243
# 5 5.9328 -5.2588 -0.0585 0.0000 22.4530 0.0000
# 6 0.0000 0.0000 0.0000 5.7243 0.0000 0.3733
#
#
#
# Elastic Compliance Matrix: (Units=1/GPa)
#
#
# Indices 1 2 3 4 5 6 
#
# 1 0.056231 -0.006936 0.009769 0.000000 -0.016457 0.000000
# 2 -0.006936 0.010759 -0.009560 0.000000 0.004328 0.000000
# 3 0.009769 -0.009560 0.023538 0.000000 -0.004759 0.000000
# 4 0.000000 0.000000 0.000000 -0.012818 0.000000 0.196534
# 5 -0.016457 0.004328 -0.004759 0.000000 0.049887 0.000000
# 6 0.000000 0.000000 0.000000 0.196534 0.000000 -0.334854
#
#
# Mechanical properties :
#
#
# Convention : Reuss Voigt Hill
#
# Bulk Modulus (GPa) = 12.97463 39.77206 26.37335
# Shear Modulus (GPa) = -29.74210 18.49727 -5.62242
#
# Velocity S-wave (km/s) = -3.96982 3.13068 -1.72602
# Velocity P-wave (km/s) = 3.76002 5.84314 3.16263
#
# Compressibility (1/GPa) = 0.07707349
#
# Stress axis : x y z
#
# Youngs Moduli (GPa) = 17.78388 92.94369 42.48486
#
# Poissons Ratio (x) = 0.64466 -0.41502
# Poissons Ratio (y) = 0.12335 0.40614
# Poissons Ratio (z) = -0.17372 0.88851
#
# Static dielectric constant tensor:
#      x y z
#    x 1.707010 0.000000 0.000310 
#    y 0.000000 1.676930 0.000000 
#    z 0.000310 0.000000 1.662490 
# 
# From -- ./inp_files/283271.got.cif
#   From: 2010.05.17/outbox.cif.g08.bks.cpg/sg12_142_cif.got.tgz:283271.got - 2010.06.03 13:09:07.
