data_PCOD9179160
_publ_section_title
;
Structure prediction by ZEFSAII (Michael W. Deem and Ramdas Pophale) SiO2 
 PCOD9179160
Probable space group: C 2/M
;
_chemical_formula_sum "Si O2"
_cell_formula_units_Z 64
_cell_length_a 23.826335
_cell_length_b 9.606569
_cell_length_c 22.145823
_cell_angle_alpha 90.000000
_cell_angle_beta 56.393848
_cell_angle_gamma 90.000000
_cell_volume 4221.728756
_symmetry_space_group_name_H-M "C 2/M"
_symmetry_group_IT_number 12
_symmetry_cell_setting 'monoclinic'
loop_
_space_group_symop_operation_xyz
x,y,z
-x,y,-z
-x,-y,-z
x,-y,z
1/2+x,1/2+y,z
1/2-x,1/2+y,-z
1/2-x,1/2-y,-z
1/2+x,1/2-y,z
loop_
_atom_site_type_symbol
_atom_site_label
_atom_site_fract_x
_atom_site_fract_y
_atom_site_fract_z
Si Si1 0.576868 0.830808 0.732636
Si Si2 0.352663 0.839878 0.427010
Si Si3 0.208938 0.834453 0.850013
Si Si4 0.932882 0.835778 0.001864
Si Si5 0.710776 0.831683 0.726595
Si Si6 0.212332 0.334214 0.075179
Si Si7 0.936951 0.666496 0.875953
Si Si8 0.711001 0.659414 0.437312
O O1 0.594858 0.783463 0.654020
O O2 0.637906 0.791399 0.741314
O O3 0.504312 0.788177 0.800633
O O4 0.578422 0.000000 0.729089
O O5 0.340495 0.752596 0.494451
O O6 0.281494 0.840216 0.432903
O O7 0.368769 0.000000 0.431953
O O8 0.221774 0.745334 0.782798
O O9 0.257254 0.799047 0.877582
O O10 0.215356 0.000000 0.833757
O O11 0.133082 0.807998 0.918813
O O12 0.932241 0.744708 0.942226
O O13 0.931760 0.000000 0.986641
O O14 0.000000 0.807712 0.000000
O O15 0.766872 0.795090 0.642758
O O16 0.711021 0.000000 0.733090
O O17 0.223746 0.500000 0.059015
O O18 0.132572 0.307790 0.118043
O O19 0.250000 0.250000 0.000000
O O20 0.942074 0.500000 0.882929
O O21 0.687713 0.500000 0.448719
#
# Coordination Sequence:
#
# PCOD9179160 Si02
#       8
#     8   8   8   8   8   8   8   8
#     4   8  15  28  44  66  94 116 142 183 220 257
#     4   8  13  23  40  60  86 119 144 167 209 258
#     4  10  20  32  44  62  89 115 145 187 225 260
#     4  10  20  32  45  63  91 122 145 174 223 272
#     4   9  17  29  45  65  91 120 146 177 219 263
#     4  10  20  34  50  66  84 112 150 192 232 264
#     4  10  19  31  49  68  85 113 152 188 222 261
#     4   8  14  24  38  60  89 116 143 174 206 250
#
# _framework density 15.159667000000001
#
# number of rings (size 3 to 8) (size 9 to 14) (size 15 to 20)
#    0.000    2.875    1.250    2.250    0.000    1.750 
#    0.000    2.500    0.000    0.000    0.000    0.875 
#    0.000    7.000    0.000    0.000    0.000    0.000 
#
# Total GULP energy -178210.786581 kJ/mol
# GULP energy per Si atom -5569.087081 kJ/mol
# Density = 1.512516 g / cm^3
# Si number density = 15.159667 Si / 1000 Ang^3
#
#
#
# Elastic Constant Matrix: (Units=GPa)
#
#
# Indices 1 2 3 4 5 6 
#
# 1 67.2985 33.1897 57.9525 0.0000 17.5953 0.0009
# 2 33.1897 35.2328 60.7786 -0.0001 10.5582 0.0014
# 3 57.9525 60.7786 148.3204 0.0000 21.6953 0.0000
# 4 0.0000 -0.0001 0.0000 28.9037 -0.0001 8.1371
# 5 17.5953 10.5582 21.6953 -0.0001 7.8063 0.0001
# 6 0.0009 0.0014 0.0000 8.1371 0.0001 11.8766
#
#
#
# Elastic Compliance Matrix: (Units=1/GPa)
#
#
# Indices 1 2 3 4 5 6 
#
# 1 0.043844 -0.027764 0.005406 0.000000 -0.076300 0.000001
# 2 -0.027764 0.120393 -0.040140 0.000005 0.011300 -0.000015
# 3 0.005406 -0.040140 0.025139 -0.000002 -0.027763 0.000006
# 4 0.000000 0.000005 -0.000002 0.042866 0.000001 -0.029369
# 5 -0.076300 0.011300 -0.027763 0.000001 0.361956 0.000002
# 6 0.000001 -0.000015 0.000006 -0.029369 0.000002 0.104321
#
#
# Mechanical properties :
#
#
# Convention : Reuss Voigt Hill
#
# Bulk Modulus (GPa) = 15.53199 61.63259 38.58229
# Shear Modulus (GPa) = 5.91733 16.31271 11.11502
#
# Velocity S-wave (km/s) = 1.97783 3.28389 2.71070
# Velocity P-wave (km/s) = 3.93492 7.42445 5.94164
#
# Compressibility (1/GPa) = 0.06438325
#
# Stress axis : x y z
#
# Youngs Moduli (GPa) = 22.80789 8.30610 39.77873
#
# Poissons Ratio (x) = 0.23061 -0.21506
# Poissons Ratio (y) = 0.63323 1.59670
# Poissons Ratio (z) = -0.12331 0.33340
#
# Static dielectric constant tensor:
#      x y z
#    x 1.490300 0.000000 -0.010760 
#    y 0.000000 1.505080 0.000000 
#    z -0.010760 0.000000 1.501170 
# 
# From -- ./inp_files/323679.got.cif
#   From: 2010.05.17/outbox.cif.g08.bks.cpg/sg12_162_cif.got.tgz:323679.got - 2010.06.03 13:09:07.
