data_PCOD9179112
_publ_section_title
;
Structure prediction by ZEFSAII (Michael W. Deem and Ramdas Pophale) SiO2 
 PCOD9179112
Probable space group: C 2/M
;
_chemical_formula_sum "Si O2"
_cell_formula_units_Z 40
_cell_length_a 14.514479
_cell_length_b 15.641463
_cell_length_c 12.469442
_cell_angle_alpha 90.000000
_cell_angle_beta 142.586265
_cell_angle_gamma 90.000000
_cell_volume 1719.964530
_symmetry_space_group_name_H-M "C 2/M"
_symmetry_group_IT_number 12
_symmetry_cell_setting 'monoclinic'
loop_
_space_group_symop_operation_xyz
x,y,z
-x,y,-z
-x,-y,-z
x,-y,z
1/2+x,1/2+y,z
1/2-x,1/2+y,-z
1/2-x,1/2-y,-z
1/2+x,1/2-y,z
loop_
_atom_site_type_symbol
_atom_site_label
_atom_site_fract_x
_atom_site_fract_y
_atom_site_fract_z
Si Si1 0.885344 0.766442 0.206569
Si Si2 0.668157 0.780131 0.210046
Si Si3 0.400661 0.597714 0.519708
Si Si4 0.948936 0.592513 0.327984
Si Si5 0.832429 0.907965 0.802284
O O1 0.793312 0.776389 0.231780
O O2 0.985148 0.679742 0.302218
O O3 0.994690 0.847700 0.302279
O O4 0.750000 0.750000 0.000000
O O5 0.740956 0.853658 0.351111
O O6 0.680174 0.683366 0.267771
O O7 0.500000 0.793156 0.000000
O O8 0.500000 0.595746 0.500000
O O9 0.378386 0.500000 0.531867
O O10 0.990851 0.500000 0.321000
O O11 0.769235 0.593974 0.183641
O O12 0.000000 0.597334 0.500000
O O13 0.797073 0.000000 0.715840
O O14 0.000000 0.910329 0.000000
#
# Coordination Sequence:
#
# PCOD9179112 Si02
#       5
#     8   8   8   8   8
#     4  10  19  31  48  73 101 128 158 199 250 296
#     4   9  17  31  51  74  96 128 171 206 239 287
#     4   9  18  33  51  69  94 131 172 208 243 291
#     4   9  16  27  45  67  90 118 153 191 229 278
#     4   8  13  22  39  64  91 114 140 181 229 275
#
# _framework density 23.256292999999999
#
# number of rings (size 3 to 8) (size 9 to 14) (size 15 to 20)
#    0.000    3.000    0.000    3.000    0.000    1.200 
#    0.000    1.000    0.000    0.000    0.000   11.200 
#    0.000    0.000    0.000    0.000    0.000    0.000 
#
# Total GULP energy -111353.382924 kJ/mol
# GULP energy per Si atom -5567.669146 kJ/mol
# Density = 2.320336 g / cm^3
# Si number density = 23.256293 Si / 1000 Ang^3
#
#
#
# Elastic Constant Matrix: (Units=GPa)
#
#
# Indices 1 2 3 4 5 6 
#
# 1 54.1442 3.7519 1.0100 0.0000 9.6381 0.0000
# 2 3.7519 288.6673 106.2280 0.0000 2.6824 0.0000
# 3 1.0100 106.2280 130.6155 0.0000 17.1457 0.0000
# 4 0.0000 0.0000 0.0000 28.2417 0.0000 14.4577
# 5 9.6381 2.6824 17.1457 0.0000 30.8152 0.0000
# 6 0.0000 0.0000 0.0000 14.4577 0.0000 -1.0614
#
#
#
# Elastic Compliance Matrix: (Units=1/GPa)
#
#
# Indices 1 2 3 4 5 6 
#
# 1 0.019705 -0.000665 0.001284 0.000000 -0.006820 0.000000
# 2 -0.000665 0.005077 -0.004416 0.000000 0.002223 0.000000
# 3 0.001284 -0.004416 0.012125 0.000000 -0.006764 0.000000
# 4 0.000000 0.000000 0.000000 0.004441 0.000000 0.060492
# 5 -0.006820 0.002223 -0.006764 0.000000 0.038154 0.000000
# 6 0.000000 0.000000 0.000000 0.060492 0.000000 -0.118166
#
#
# Mechanical properties :
#
#
# Convention : Reuss Voigt Hill
#
# Bulk Modulus (GPa) = 34.11412 77.26741 55.69076
# Shear Modulus (GPa) = -234.78020 35.76157 -99.50932
#
# Velocity S-wave (km/s) = -10.05846 3.92563 -6.54836
# Velocity P-wave (km/s) = 10.96340 7.33783 5.75988
#
# Compressibility (1/GPa) = 0.02931338
#
# Stress axis : x y z
#
# Youngs Moduli (GPa) = 50.74778 196.95827 82.47137
#
# Poissons Ratio (x) = 0.13101 -0.10588
# Poissons Ratio (y) = 0.03376 0.36419
# Poissons Ratio (z) = -0.06515 0.86975
#
# Static dielectric constant tensor:
#      x y z
#    x 1.875830 0.000000 0.079370 
#    y 0.000000 1.971930 0.000000 
#    z 0.079370 0.000000 1.909220 
# 
# From -- ./inp_files/95960.got.cif
#   From: 2010.05.17/outbox.cif.g08.bks.cpg/sg12_48_cif.got.tgz:95960.got - 2010.06.03 13:09:07.
