data_PCOD9179036
_publ_section_title
;
Structure prediction by ZEFSAII (Michael W. Deem and Ramdas Pophale) SiO2 
 PCOD9179036
Probable space group: C 2/M
;
_chemical_formula_sum "Si O2"
_cell_formula_units_Z 64
_cell_length_a 29.457188
_cell_length_b 8.657611
_cell_length_c 21.335510
_cell_angle_alpha 90.000000
_cell_angle_beta 48.213007
_cell_angle_gamma 90.000000
_cell_volume 4057.085687
_symmetry_space_group_name_H-M "C 2/M"
_symmetry_group_IT_number 12
_symmetry_cell_setting 'monoclinic'
loop_
_space_group_symop_operation_xyz
x,y,z
-x,y,-z
-x,-y,-z
x,-y,z
1/2+x,1/2+y,z
1/2-x,1/2+y,-z
1/2-x,1/2-y,-z
1/2+x,1/2-y,z
loop_
_atom_site_type_symbol
_atom_site_label
_atom_site_fract_x
_atom_site_fract_y
_atom_site_fract_z
Si Si1 0.002656 0.313679 0.099296
Si Si2 0.206318 0.186022 0.986062
Si Si3 0.429916 0.314094 0.847885
Si Si4 0.402849 0.812424 0.096523
Si Si5 0.855679 0.314328 0.669028
Si Si6 0.728344 0.185887 0.827430
Si Si7 0.546886 0.821791 0.515695
Si Si8 0.053025 0.816029 0.310907
O O1 0.002821 0.500000 0.102107
O O2 0.019663 0.248059 0.150858
O O3 0.939473 0.263253 0.124898
O O4 0.055904 0.266872 0.001206
O O5 0.225256 0.252188 0.901316
O O6 0.209463 0.000000 0.981977
O O7 0.250000 0.250000 0.000000
O O8 0.136895 0.233111 0.065914
O O9 0.431743 0.500000 0.846784
O O10 0.439134 0.262989 0.767796
O O11 0.333771 0.762156 0.149966
O O12 0.402827 0.000000 0.097046
O O13 0.854859 0.500000 0.669635
O O14 0.788674 0.248031 0.738851
O O15 0.890715 0.264113 0.573180
O O16 0.896663 0.259778 0.690116
O O17 0.729749 0.000000 0.827801
O O18 0.500000 0.821343 0.500000
O O19 0.513051 0.726976 0.600444
O O20 0.553814 0.000000 0.529368
O O21 0.061571 0.000000 0.305536
#
# Coordination Sequence:
#
# PCOD9179036 Si02
#       8
#     8   8   8   8   8   8   8   8
#     4   9  16  31  52  69  88 120 158 194 235 281
#     4  11  22  34  46  63  94 132 166 194 226 272
#     4  10  21  33  44  67  98 124 154 195 235 275
#     4   8  16  30  49  71  92 116 154 200 237 276
#     4  10  20  33  48  69  97 127 160 196 235 282
#     4  11  20  32  49  70  95 124 159 197 236 277
#     4   8  16  31  48  67  93 122 155 197 238 279
#     4  10  19  31  48  70  97 127 160 197 236 279
#
# _framework density 15.77487
#
# number of rings (size 3 to 8) (size 9 to 14) (size 15 to 20)
#    0.000    2.375    1.250    3.750    0.000    5.250 
#    0.000    2.500    0.000    0.000    0.000    0.875 
#    0.000    0.000    0.000    0.000    0.000    0.000 
#
# Total GULP energy -178412.650985 kJ/mol
# GULP energy per Si atom -5575.395343 kJ/mol
# Density = 1.573897 g / cm^3
# Si number density = 15.774870 Si / 1000 Ang^3
#
#
#
# Elastic Constant Matrix: (Units=GPa)
#
#
# Indices 1 2 3 4 5 6 
#
# 1 93.4244 14.5765 34.7981 -0.0141 -20.6993 0.0063
# 2 14.5765 27.4783 18.1894 -0.0114 -6.4614 0.0139
# 3 34.7981 18.1894 85.3606 -0.0201 -26.2196 0.0150
# 4 -0.0141 -0.0114 -0.0201 24.1742 -0.0011 0.4352
# 5 -20.6993 -6.4614 -26.2196 -0.0011 16.9241 0.0010
# 6 0.0063 0.0139 0.0150 0.4352 0.0010 20.0468
#
#
#
# Elastic Compliance Matrix: (Units=1/GPa)
#
#
# Indices 1 2 3 4 5 6 
#
# 1 0.015078 -0.003959 -0.000196 0.000008 0.016626 -0.000003
# 2 -0.003959 0.043563 -0.007722 0.000012 -0.000174 -0.000023
# 3 -0.000196 -0.007722 0.023775 0.000018 0.033645 -0.000014
# 4 0.000008 0.000012 0.000018 0.041383 0.000044 -0.000898
# 5 0.016626 -0.000174 0.033645 0.000044 0.131481 -0.000037
# 6 -0.000003 -0.000023 -0.000014 -0.000898 -0.000037 0.049903
#
#
# Mechanical properties :
#
#
# Convention : Reuss Voigt Hill
#
# Bulk Modulus (GPa) = 17.04699 37.93236 27.48968
# Shear Modulus (GPa) = 14.34749 21.47564 17.91157
#
# Velocity S-wave (km/s) = 3.01909 3.69370 3.37330
# Velocity P-wave (km/s) = 4.79407 6.50303 5.71282
#
# Compressibility (1/GPa) = 0.05866137
#
# Stress axis : x y z
#
# Youngs Moduli (GPa) = 66.32000 22.95501 42.06070
#
# Poissons Ratio (x) = 0.09088 0.00825
# Poissons Ratio (y) = 0.26257 0.32481
# Poissons Ratio (z) = 0.01301 0.17727
#
# Static dielectric constant tensor:
#      x y z
#    x 1.517220 0.000000 -0.014310 
#    y 0.000000 1.536930 0.000000 
#    z -0.014310 0.000000 1.531600 
# 
# From -- ./inp_files/326842.got.cif
#   From: 2010.05.17/outbox.cif.g08.bks.cpg/sg12_164_cif.got.tgz:326842.got - 2010.06.03 13:09:07.
