data_PCOD9179181
_publ_section_title
;
Structure prediction by ZEFSAII (Michael W. Deem and Ramdas Pophale) SiO2 
 PCOD9179181
Probable space group: C 2/M
;
_chemical_formula_sum "Si O2"
_cell_formula_units_Z 64
_cell_length_a 31.676226
_cell_length_b 9.224745
_cell_length_c 14.524289
_cell_angle_alpha 90.000000
_cell_angle_beta 89.594723
_cell_angle_gamma 90.000000
_cell_volume 4243.965255
_symmetry_space_group_name_H-M "C 2/M"
_symmetry_group_IT_number 12
_symmetry_cell_setting 'monoclinic'
loop_
_space_group_symop_operation_xyz
x,y,z
-x,y,-z
-x,-y,-z
x,-y,z
1/2+x,1/2+y,z
1/2-x,1/2+y,-z
1/2-x,1/2-y,-z
1/2+x,1/2-y,z
loop_
_atom_site_type_symbol
_atom_site_label
_atom_site_fract_x
_atom_site_fract_y
_atom_site_fract_z
Si Si1 0.800512 0.172121 0.401600
Si Si2 0.299631 0.171808 0.589500
Si Si3 0.829852 0.326615 0.219825
Si Si4 0.915692 0.326949 0.890371
Si Si5 0.913586 0.326251 0.106640
Si Si6 0.746790 0.326313 0.098742
Si Si7 0.328745 0.173970 0.791028
Si Si8 0.000945 0.833193 0.888100
O O1 0.750129 0.201616 0.391871
O O2 0.812968 0.239246 0.499693
O O3 0.823965 0.245638 0.316093
O O4 0.806440 0.000000 0.400860
O O5 0.324288 0.205920 0.682773
O O6 0.303505 0.000000 0.570485
O O7 0.830861 0.500000 0.235378
O O8 0.872441 0.285021 0.165403
O O9 0.789286 0.296381 0.156291
O O10 0.922730 0.500000 0.885199
O O11 0.874527 0.291175 0.831585
O O12 0.958046 0.245762 0.859004
O O13 0.907239 0.291618 0.998278
O O14 0.918898 0.500000 0.112546
O O15 0.956218 0.248908 0.139116
O O16 0.742802 0.500000 0.088715
O O17 0.707196 0.260074 0.153826
O O18 0.750000 0.250000 0.000000
O O19 0.321735 0.000000 0.802975
O O20 0.001713 0.000000 0.858940
O O21 0.000000 0.829301 0.000000
#
# Coordination Sequence:
#
# PCOD9179181 Si02
#       8
#     8   8   8   8   8   8   8   8
#     4  10  19  31  49  70  92 121 158 200 242 282
#     4   9  18  32  49  68  93 123 156 198 241 281
#     4  10  20  33  48  68  94 126 162 198 236 281
#     4   9  17  30  49  69  94 126 159 193 230 278
#     4   9  17  30  47  67  92 125 161 193 230 277
#     4  11  22  33  46  65  95 132 165 195 230 274
#     4  10  19  33  50  70  95 125 162 198 235 278
#     4   9  17  29  45  67  94 121 154 196 237 274
#
# _framework density 15.080235999999999
#
# number of rings (size 3 to 8) (size 9 to 14) (size 15 to 20)
#    0.000    2.375    1.250    1.875    0.000    6.000 
#    0.000    2.500    0.000    0.000    0.000    0.875 
#    0.000    7.000    0.000    0.000    0.000    0.000 
#
# Total GULP energy -178462.391323 kJ/mol
# GULP energy per Si atom -5576.949729 kJ/mol
# Density = 1.504591 g / cm^3
# Si number density = 15.080236 Si / 1000 Ang^3
#
#
#
# Elastic Constant Matrix: (Units=GPa)
#
#
# Indices 1 2 3 4 5 6 
#
# 1 137.9403 64.3765 72.8371 0.0000 4.7956 0.0000
# 2 64.3765 49.0362 55.9061 0.0000 2.1965 0.0000
# 3 72.8371 55.9061 110.6581 0.0000 3.6658 0.0000
# 4 0.0000 0.0000 0.0000 24.2990 0.0000 -3.6416
# 5 4.7956 2.1965 3.6658 0.0000 7.3442 0.0000
# 6 0.0000 0.0000 0.0000 -3.6416 0.0000 23.9854
#
#
#
# Elastic Compliance Matrix: (Units=1/GPa)
#
#
# Indices 1 2 3 4 5 6 
#
# 1 0.018902 -0.024988 0.000350 0.000000 -0.005044 0.000000
# 2 -0.024988 0.081169 -0.024705 0.000000 0.004372 0.000000
# 3 0.000350 -0.024705 0.021404 0.000000 -0.003524 0.000000
# 4 0.000000 0.000000 0.000000 0.042112 0.000000 0.006394
# 5 -0.005044 0.004372 -0.003524 0.000000 0.139906 0.000000
# 6 0.000000 0.000000 0.000000 0.006394 0.000000 0.042663
#
#
# Mechanical properties :
#
#
# Convention : Reuss Voigt Hill
#
# Bulk Modulus (GPa) = 43.88091 75.98602 59.93346
# Shear Modulus (GPa) = 11.05119 18.09338 14.57229
#
# Velocity S-wave (km/s) = 2.71001 3.46758 3.11194
# Velocity P-wave (km/s) = 6.24129 8.15655 7.26234
#
# Compressibility (1/GPa) = 0.02278895
#
# Stress axis : x y z
#
# Youngs Moduli (GPa) = 52.90391 12.31998 46.71921
#
# Poissons Ratio (x) = 0.30786 -0.01635
# Poissons Ratio (y) = 1.32199 1.15419
# Poissons Ratio (z) = -0.01851 0.30436
#
# Static dielectric constant tensor:
#      x y z
#    x 1.482070 0.000000 0.005930 
#    y 0.000000 1.500780 0.000000 
#    z 0.005930 0.000000 1.478610 
# 
# From -- ./inp_files/248340.got.cif
#   From: 2010.05.17/outbox.cif.g08.bks.cpg/sg12_125_cif.got.tgz:248340.got - 2010.06.03 13:09:07.
