data_PCOD9179145
_publ_section_title
;
Structure prediction by ZEFSAII (Michael W. Deem and Ramdas Pophale) SiO2 
 PCOD9179145
Probable space group: C 2/M
;
_chemical_formula_sum "Si O2"
_cell_formula_units_Z 64
_cell_length_a 15.186666
_cell_length_b 26.575609
_cell_length_c 20.871817
_cell_angle_alpha 90.000000
_cell_angle_beta 156.308606
_cell_angle_gamma 90.000000
_cell_volume 3384.752537
_symmetry_space_group_name_H-M "C 2/M"
_symmetry_group_IT_number 12
_symmetry_cell_setting 'monoclinic'
loop_
_space_group_symop_operation_xyz
x,y,z
-x,y,-z
-x,-y,-z
x,-y,z
1/2+x,1/2+y,z
1/2-x,1/2+y,-z
1/2-x,1/2-y,-z
1/2+x,1/2-y,z
loop_
_atom_site_type_symbol
_atom_site_label
_atom_site_fract_x
_atom_site_fract_y
_atom_site_fract_z
Si Si1 0.367872 0.209926 0.848884
Si Si2 0.530351 0.055543 0.411963
Si Si3 0.190609 0.342531 0.573054
Si Si4 0.547132 0.424730 0.102958
Si Si5 0.973568 0.182294 0.097468
Si Si6 0.090983 0.765710 0.486336
Si Si7 0.966952 0.336171 0.781266
Si Si8 0.063695 0.444593 0.803376
O O1 0.439135 0.265488 0.871673
O O2 0.419678 0.173918 0.824144
O O3 0.108093 0.212413 0.686986
O O4 0.500000 0.197145 0.000000
O O5 0.672266 0.104037 0.525792
O O6 0.288877 0.058622 0.284459
O O7 0.475942 0.058604 0.299814
O O8 0.624167 0.000000 0.487917
O O9 0.414657 0.330543 0.759900
O O10 0.141980 0.291705 0.500962
O O11 0.000000 0.344969 0.500000
O O12 0.550198 0.364267 0.105155
O O13 0.500000 0.443359 0.000000
O O14 0.325908 0.439949 0.992267
O O15 0.712860 0.181569 0.928950
O O16 0.297999 0.802108 0.628653
O O17 0.000000 0.763433 0.500000
O O18 0.951736 0.395280 0.757057
O O19 0.989414 0.500000 0.774899
#
# Coordination Sequence:
#
# PCOD9179145 Si02
#       8
#     8   8   8   8   8   8   8   8
#     4  11  21  36  58  83 111 144 177 223 273 328
#     4  10  19  31  48  75 110 151 194 221 253 316
#     4  11  18  32  49  72 113 155 182 221 261 314
#     4   9  16  28  49  74 104 143 185 219 252 315
#     4  11  19  33  52  80 115 142 180 218 271 315
#     4   9  18  36  56  75 108 144 178 216 267 325
#     4  10  21  37  59  83 108 143 183 226 270 334
#     4   9  19  35  53  76 105 140 185 236 278 314
#
# _framework density 18.908324
#
# number of rings (size 3 to 8) (size 9 to 14) (size 15 to 20)
#    0.000    2.000    5.000    1.125    0.000    3.750 
#    2.250    1.875    0.000    3.750    0.000    0.000 
#    0.000    0.000    0.000    0.000    0.000    0.000 
#
# Total GULP energy -178510.845185 kJ/mol
# GULP energy per Si atom -5578.463912 kJ/mol
# Density = 1.886529 g / cm^3
# Si number density = 18.908324 Si / 1000 Ang^3
#
#
#
# Elastic Constant Matrix: (Units=GPa)
#
#
# Indices 1 2 3 4 5 6 
#
# 1 25.7553 39.7647 19.6475 0.0027 -5.2833 0.0034
# 2 39.7647 162.8637 37.7962 -0.0002 6.1556 -0.0011
# 3 19.6475 37.7962 102.9239 0.0144 2.7257 0.0282
# 4 0.0027 -0.0002 0.0144 18.9749 0.0040 -7.4564
# 5 -5.2833 6.1556 2.7257 0.0040 19.7428 0.0057
# 6 0.0034 -0.0011 0.0282 -7.4564 0.0057 12.7367
#
#
#
# Elastic Compliance Matrix: (Units=1/GPa)
#
#
# Indices 1 2 3 4 5 6 
#
# 1 0.080452 -0.018567 -0.009297 -0.000022 0.028602 -0.000028
# 2 -0.018567 0.011058 -0.000295 0.000011 -0.008376 0.000017
# 3 -0.009297 -0.000295 0.011705 -0.000020 -0.004012 -0.000033
# 4 -0.000022 0.000011 -0.000020 0.068448 -0.000032 0.040071
# 5 0.028602 -0.008376 -0.004012 -0.000032 0.061471 -0.000046
# 6 -0.000028 0.000017 -0.000033 0.040071 -0.000046 0.101972
#
#
# Mechanical properties :
#
#
# Convention : Reuss Voigt Hill
#
# Bulk Modulus (GPa) = 21.32259 53.99552 37.65905
# Shear Modulus (GPa) = 12.28332 23.24651 17.76492
#
# Velocity S-wave (km/s) = 2.55154 3.51013 3.06850
# Velocity P-wave (km/s) = 4.47010 6.71167 5.70212
#
# Compressibility (1/GPa) = 0.04689861
#
# Stress axis : x y z
#
# Youngs Moduli (GPa) = 12.42973 90.42980 85.43201
#
# Poissons Ratio (x) = 1.67897 0.79427
# Poissons Ratio (y) = 0.23078 0.02519
# Poissons Ratio (z) = 0.11556 0.02666
#
# Static dielectric constant tensor:
#      x y z
#    x 1.676800 0.000000 -0.014800 
#    y 0.000000 1.673490 0.000000 
#    z -0.014800 0.000000 1.694390 
# 
# From -- ./inp_files/345160.got.cif
#   From: 2010.05.17/outbox.cif.g08.bks.cpg/sg12_173_cif.got.tgz:345160.got - 2010.06.03 13:09:07.
