data_PCOD9179773
_publ_section_title
;
Structure prediction by ZEFSAII (Michael W. Deem and Ramdas Pophale) SiO2 
 PCOD9179773
Probable space group: C 2/M
;
_chemical_formula_sum "Si O2"
_cell_formula_units_Z 40
_cell_length_a 11.764235
_cell_length_b 24.960044
_cell_length_c 5.670117
_cell_angle_alpha 90.000000
_cell_angle_beta 77.493694
_cell_angle_gamma 90.000000
_cell_volume 1625.443851
_symmetry_space_group_name_H-M "C 2/M"
_symmetry_group_IT_number 12
_symmetry_cell_setting 'monoclinic'
loop_
_space_group_symop_operation_xyz
x,y,z
-x,y,-z
-x,-y,-z
x,-y,z
1/2+x,1/2+y,z
1/2-x,1/2+y,-z
1/2-x,1/2-y,-z
1/2+x,1/2-y,z
loop_
_atom_site_type_symbol
_atom_site_label
_atom_site_fract_x
_atom_site_fract_y
_atom_site_fract_z
Si Si1 0.373686 0.100706 0.492302
Si Si2 0.817994 0.805823 0.964692
Si Si3 0.803584 0.582669 0.024640
Si Si4 0.319977 0.306187 0.463250
Si Si5 0.460627 0.439264 0.769033
O O1 0.500000 0.124233 0.500000
O O2 0.341595 0.066315 0.742183
O O3 0.273972 0.145439 0.506000
O O4 0.379627 0.074320 0.227499
O O5 0.722461 0.853667 0.996814
O O6 0.882135 0.808853 0.184552
O O7 0.750000 0.750000 0.000000
O O8 0.881926 0.809722 0.686669
O O9 0.677936 0.559475 0.150305
O O10 0.250000 0.250000 0.500000
O O11 0.500000 0.415897 0.500000
O O12 0.489867 0.500000 0.253437
O O13 0.500000 0.414371 0.000000
#
# Coordination Sequence:
#
# PCOD9179773 Si02
#       5
#     8   8   8   8   8
#     4  10  19  31  51  78 107 146 186 218 266 331
#     4   8  14  25  44  66  93 133 169 206 259 305
#     4  10  19  33  55  77 107 145 180 225 272 325
#     4   8  14  25  42  63  92 132 175 220 260 296
#     4  10  21  38  61  87 111 139 181 232 290 347
#
# _framework density 24.608664000000001
#
# number of rings (size 3 to 8) (size 9 to 14) (size 15 to 20)
#    0.000    2.800    0.000    1.800    0.000    0.000 
#    0.000    0.000    0.000   61.200    0.000    0.000 
#    0.000    0.000    0.000    0.000    0.000    0.000 
#
# Total GULP energy -111432.487522 kJ/mol
# GULP energy per Si atom -5571.624376 kJ/mol
# Density = 2.455265 g / cm^3
# Si number density = 24.608664 Si / 1000 Ang^3
#
#
#
# Elastic Constant Matrix: (Units=GPa)
#
#
# Indices 1 2 3 4 5 6 
#
# 1 90.3384 2.9381 60.7971 0.0000 27.6346 0.0000
# 2 2.9381 85.5438 21.4355 0.0000 -7.7407 0.0000
# 3 60.7971 21.4355 357.1238 0.0000 49.2505 0.0000
# 4 0.0000 0.0000 0.0000 -104.9884 0.0000 11.8776
# 5 27.6346 -7.7407 49.2505 0.0000 52.4437 0.0000
# 6 0.0000 0.0000 0.0000 11.8776 0.0000 -38.3102
#
#
#
# Elastic Compliance Matrix: (Units=1/GPa)
#
#
# Indices 1 2 3 4 5 6 
#
# 1 0.013948 -0.000648 -0.001504 0.000000 -0.006033 0.000000
# 2 -0.000648 0.012262 -0.001060 0.000000 0.003147 0.000000
# 3 -0.001504 -0.001060 0.003483 0.000000 -0.002635 0.000000
# 4 0.000000 0.000000 0.000000 -0.009871 0.000000 -0.003060
# 5 -0.006033 0.003147 -0.002635 0.000000 0.025187 0.000000
# 6 0.000000 0.000000 0.000000 -0.003060 0.000000 -0.027052
#
#
# Mechanical properties :
#
#
# Convention : Reuss Voigt Hill
#
# Bulk Modulus (GPa) = 42.97231 78.14971 60.56101
# Shear Modulus (GPa) = 155.58222 11.68469 83.63345
#
# Velocity S-wave (km/s) = 7.95989 2.18140 5.83602
# Velocity P-wave (km/s) = 10.09851 6.17824 8.37110
#
# Compressibility (1/GPa) = 0.02327080
#
# Stress axis : x y z
#
# Youngs Moduli (GPa) = 71.69432 81.54986 287.09800
#
# Poissons Ratio (x) = 0.05287 0.43167
# Poissons Ratio (y) = 0.04648 0.30421
# Poissons Ratio (z) = 0.10780 0.08641
#
# Static dielectric constant tensor:
#      x y z
#    x 1.888540 0.000000 0.047540 
#    y 0.000000 1.957790 0.000000 
#    z 0.047540 0.000000 2.087040 
# 
# From -- ./inp_files/7590.got.cif
#   From: 2010.05.17/outbox.cif.g08.bks.cpg/sg12_4_cif.got.tgz:7590.got - 2010.06.03 13:09:07.
