data_PCOD9179265
_publ_section_title
;
Structure prediction by ZEFSAII (Michael W. Deem and Ramdas Pophale) SiO2 
 PCOD9179265
Probable space group: C 2/M
;
_chemical_formula_sum "Si O2"
_cell_formula_units_Z 48
_cell_length_a 18.472028
_cell_length_b 9.167264
_cell_length_c 14.195876
_cell_angle_alpha 90.000000
_cell_angle_beta 54.510329
_cell_angle_gamma 90.000000
_cell_volume 1957.304442
_symmetry_space_group_name_H-M "C 2/M"
_symmetry_group_IT_number 12
_symmetry_cell_setting 'monoclinic'
loop_
_space_group_symop_operation_xyz
x,y,z
-x,y,-z
-x,-y,-z
x,-y,z
1/2+x,1/2+y,z
1/2-x,1/2+y,-z
1/2-x,1/2-y,-z
1/2+x,1/2-y,z
loop_
_atom_site_type_symbol
_atom_site_label
_atom_site_fract_x
_atom_site_fract_y
_atom_site_fract_z
Si Si1 0.716900 0.329317 0.122680
Si Si2 0.297594 0.662800 0.331410
Si Si3 0.406544 0.838815 0.016077
Si Si4 0.867918 0.165704 0.497507
Si Si5 0.961410 0.330571 0.680274
Si Si6 0.987388 0.836133 0.184154
O O1 0.694969 0.500000 0.122155
O O2 0.804251 0.325728 0.123063
O O3 0.632941 0.251344 0.235952
O O4 0.750000 0.250000 0.000000
O O5 0.263230 0.500000 0.340383
O O6 0.216428 0.771149 0.384157
O O7 0.333738 0.668319 0.413571
O O8 0.391607 0.679614 0.207552
O O9 0.402148 0.000000 0.968611
O O10 0.500000 0.852637 0.000000
O O11 0.428571 0.690161 0.944130
O O12 0.957883 0.258301 0.439678
O O13 0.885819 0.000000 0.510382
O O14 0.950447 0.500000 0.667416
O O15 0.002527 0.298389 0.752730
O O16 0.989275 0.000000 0.224088
#
# Coordination Sequence:
#
# PCOD9179265 Si02
#       6
#     8   8   8   8   8   8
#     4  11  21  34  53  76 102 133 171 212 254 305
#     4   8  15  26  40  63  95 129 162 200 248 300
#     4  10  22  38  54  74 102 136 172 211 256 305
#     4   9  16  26  41  65  96 129 164 204 248 299
#     4  11  20  30  47  71 101 135 168 208 254 302
#     4  10  19  31  49  72  99 132 171 211 252 301
#
# _framework density 24.523522
#
# number of rings (size 3 to 8) (size 9 to 14) (size 15 to 20)
#    0.000    2.167    1.667    4.000    0.000    5.667 
#    0.000    0.000    0.000    0.000    0.000    1.167 
#    0.000    9.333    0.000    0.000    0.000    0.000 
#
# Total GULP energy -133637.445275 kJ/mol
# GULP energy per Si atom -5568.226886 kJ/mol
# Density = 2.446771 g / cm^3
# Si number density = 24.523522 Si / 1000 Ang^3
#
#
#
# Elastic Constant Matrix: (Units=GPa)
#
#
# Indices 1 2 3 4 5 6 
#
# 1 77.9125 47.1332 37.0374 0.0000 -28.9113 0.0000
# 2 47.1332 172.8363 83.2313 0.0000 -47.7060 0.0000
# 3 37.0374 83.2313 158.0877 0.0000 -69.9048 0.0000
# 4 0.0000 0.0000 0.0000 34.3508 0.0000 -21.6198
# 5 -28.9113 -47.7060 -69.9048 0.0000 43.7868 0.0000
# 6 0.0000 0.0000 0.0000 -21.6198 0.0000 11.9177
#
#
#
# Elastic Compliance Matrix: (Units=1/GPa)
#
#
# Indices 1 2 3 4 5 6 
#
# 1 0.018310 -0.002602 0.003987 0.000000 0.015621 0.000000
# 2 -0.002602 0.008718 -0.001836 0.000000 0.004849 0.000000
# 3 0.003987 -0.001836 0.022573 0.000000 0.036670 0.000000
# 4 0.000000 0.000000 0.000000 -0.205361 0.000000 -0.372544
# 5 0.015621 0.004849 0.036670 0.000000 0.096978 0.000000
# 6 0.000000 0.000000 0.000000 -0.372544 0.000000 -0.591921
#
#
# Mechanical properties :
#
#
# Convention : Reuss Voigt Hill
#
# Bulk Modulus (GPa) = 20.53395 82.62670 51.58032
# Shear Modulus (GPa) = -7.89180 34.10670 13.10745
#
# Velocity S-wave (km/s) = -1.79584 3.73336 2.31440
# Velocity P-wave (km/s) = 2.02269 7.23532 5.31231
#
# Compressibility (1/GPa) = 0.04869985
#
# Stress axis : x y z
#
# Youngs Moduli (GPa) = 54.61567 114.70555 44.30028
#
# Poissons Ratio (x) = 0.29843 -0.17664
# Poissons Ratio (y) = 0.14210 0.08134
# Poissons Ratio (z) = -0.21777 0.21062
#
# Static dielectric constant tensor:
#      x y z
#    x 2.068600 0.000000 0.130620 
#    y 0.000000 1.893020 0.000000 
#    z 0.130620 0.000000 2.059740 
# 
# From -- ./inp_files/319574.got.cif
#   From: 2010.05.17/outbox.cif.g08.bks.cpg/sg12_160_cif.got.tgz:319574.got - 2010.06.03 13:09:07.
