data_PCOD9179395
_publ_section_title
;
Structure prediction by ZEFSAII (Michael W. Deem and Ramdas Pophale) SiO2 
 PCOD9179395
Probable space group: C 2/M
;
_chemical_formula_sum "Si O2"
_cell_formula_units_Z 48
_cell_length_a 12.713233
_cell_length_b 13.945986
_cell_length_c 30.471389
_cell_angle_alpha 90.000000
_cell_angle_beta 152.279791
_cell_angle_gamma 90.000000
_cell_volume 2513.011810
_symmetry_space_group_name_H-M "C 2/M"
_symmetry_group_IT_number 12
_symmetry_cell_setting 'monoclinic'
loop_
_space_group_symop_operation_xyz
x,y,z
-x,y,-z
-x,-y,-z
x,-y,z
1/2+x,1/2+y,z
1/2-x,1/2+y,-z
1/2-x,1/2-y,-z
1/2+x,1/2-y,z
loop_
_atom_site_type_symbol
_atom_site_label
_atom_site_fract_x
_atom_site_fract_y
_atom_site_fract_z
Si Si1 0.145098 0.886087 0.945451
Si Si2 0.730776 0.784094 0.275995
Si Si3 0.166736 0.386327 0.743697
Si Si4 0.259384 0.214700 0.897536
Si Si5 0.674049 0.386155 0.602531
Si Si6 0.880710 0.384963 0.851774
O O1 0.209578 0.858356 0.919456
O O2 0.883863 0.855691 0.853814
O O3 0.145332 0.000000 0.950869
O O4 0.354303 0.850460 0.052080
O O5 0.811954 0.678500 0.291718
O O6 0.462523 0.779532 0.187399
O O7 0.854963 0.828181 0.363391
O O8 0.748797 0.846748 0.238467
O O9 0.188470 0.500000 0.742590
O O10 0.928250 0.370721 0.678683
O O11 0.287112 0.156552 0.862682
O O12 0.500000 0.261417 0.000000
O O13 0.500000 0.358970 0.500000
O O14 0.647487 0.500000 0.601266
O O15 0.875889 0.500000 0.850999
#
# Coordination Sequence:
#
# PCOD9179395 Si02
#       6
#     8   8   8   8   8   8
#     4   8  15  29  49  73 104 142 174 200 241 297
#     4  11  21  33  54  80 103 132 172 216 254 293
#     4   9  19  36  55  75 103 137 170 204 250 309
#     4   9  18  30  48  73 107 143 172 199 243 298
#     4  10  22  40  58  75  99 132 168 210 265 320
#     4  10  19  31  49  76 108 139 174 212 244 284
#
# _framework density 19.100587000000001
#
# number of rings (size 3 to 8) (size 9 to 14) (size 15 to 20)
#    0.000    2.500    0.000    2.000    0.000   10.667 
#    0.000    0.000    0.000    5.500    0.000    0.000 
#    0.000    0.000    0.000    0.000    0.000    0.000 
#
# Total GULP energy -133898.060207 kJ/mol
# GULP energy per Si atom -5579.085842 kJ/mol
# Density = 1.905711 g / cm^3
# Si number density = 19.100587 Si / 1000 Ang^3
#
#
#
# Elastic Constant Matrix: (Units=GPa)
#
#
# Indices 1 2 3 4 5 6 
#
# 1 68.3914 35.7447 40.5093 0.0001 -18.0631 0.0000
# 2 35.7447 61.4933 32.2614 0.0001 -16.9858 0.0000
# 3 40.5093 32.2614 83.4120 0.0007 -30.9496 0.0001
# 4 0.0001 0.0001 0.0007 24.3582 0.0001 -3.8435
# 5 -18.0631 -16.9858 -30.9496 0.0001 31.1338 0.0000
# 6 0.0000 0.0000 0.0001 -3.8435 0.0000 23.1396
#
#
#
# Elastic Compliance Matrix: (Units=1/GPa)
#
#
# Indices 1 2 3 4 5 6 
#
# 1 0.024725 -0.009998 -0.007672 0.000000 0.001264 0.000000
# 2 -0.009998 0.024992 -0.003016 0.000000 0.004836 0.000000
# 3 -0.007672 -0.003016 0.023163 -0.000001 0.016929 0.000000
# 4 0.000000 0.000000 -0.000001 0.042159 -0.000001 0.007003
# 5 0.001264 0.004836 0.016929 -0.000001 0.052320 0.000000
# 6 0.000000 0.000000 0.000000 0.007003 0.000000 0.044379
#
#
# Mechanical properties :
#
#
# Convention : Reuss Voigt Hill
#
# Bulk Modulus (GPa) = 31.73909 47.81415 39.77662
# Shear Modulus (GPa) = 18.96725 22.71174 20.83949
#
# Velocity S-wave (km/s) = 3.15464 3.45202 3.30667
# Velocity P-wave (km/s) = 5.47009 6.40123 5.95389
#
# Compressibility (1/GPa) = 0.03150689
#
# Stress axis : x y z
#
# Youngs Moduli (GPa) = 40.44442 40.01310 43.17314
#
# Poissons Ratio (x) = 0.40006 0.33123
# Poissons Ratio (y) = 0.40437 0.13022
# Poissons Ratio (z) = 0.31029 0.12068
#
# Static dielectric constant tensor:
#      x y z
#    x 1.672030 0.000000 0.024950 
#    y 0.000000 1.672790 0.000000 
#    z 0.024950 0.000000 1.683570 
# 
# From -- ./inp_files/183689.got.cif
#   From: 2010.05.17/outbox.cif.g08.bks.cpg/sg12_92_cif.got.tgz:183689.got - 2010.06.03 13:09:07.
