data_PCOD9179231
_publ_section_title
;
Structure prediction by ZEFSAII (Michael W. Deem and Ramdas Pophale) SiO2 
 PCOD9179231
Probable space group: C 2/M
;
_chemical_formula_sum "Si O2"
_cell_formula_units_Z 56
_cell_length_a 34.413436
_cell_length_b 14.979408
_cell_length_c 7.884896
_cell_angle_alpha 90.000000
_cell_angle_beta 124.914258
_cell_angle_gamma 90.000000
_cell_volume 3333.016975
_symmetry_space_group_name_H-M "C 2/M"
_symmetry_group_IT_number 12
_symmetry_cell_setting 'monoclinic'
loop_
_space_group_symop_operation_xyz
x,y,z
-x,y,-z
-x,-y,-z
x,-y,z
1/2+x,1/2+y,z
1/2-x,1/2+y,-z
1/2-x,1/2-y,-z
1/2+x,1/2-y,z
loop_
_atom_site_type_symbol
_atom_site_label
_atom_site_fract_x
_atom_site_fract_y
_atom_site_fract_z
Si Si1 0.185290 0.898909 0.015952
Si Si2 0.855541 0.288834 0.099891
Si Si3 0.765804 0.601780 0.929132
Si Si4 0.147831 0.395594 0.251326
Si Si5 0.447234 0.100948 0.424308
Si Si6 0.250191 0.143427 0.493902
Si Si7 0.049804 0.399391 0.167387
O O1 0.210113 0.888359 0.262818
O O2 0.166647 0.000000 0.954465
O O3 0.148696 0.817448 0.904972
O O4 0.224429 0.886852 0.964023
O O5 0.905415 0.331236 0.277070
O O6 0.809356 0.331580 0.075697
O O7 0.848780 0.328126 0.895411
O O8 0.783770 0.500000 0.987822
O O9 0.748494 0.612845 0.688328
O O10 0.142985 0.500000 0.189001
O O11 0.199750 0.388254 0.462256
O O12 0.100888 0.366903 0.233911
O O13 0.500000 0.127877 0.500000
O O14 0.448185 0.094341 0.627692
O O15 0.438157 0.000000 0.332091
O O16 0.250000 0.250000 0.500000
O O17 0.046355 0.500000 0.083275
O O18 0.000000 0.352457 0.000000
#
# Coordination Sequence:
#
# PCOD9179231 Si02
#       7
#     8   8   8   8   8   8   8
#     4  11  23  37  54  75 107 145 185 226 263 310
#     4  11  20  34  52  75 104 134 176 215 262 315
#     4  10  21  35  53  77 108 143 178 221 266 312
#     4  10  19  31  49  72 102 137 171 210 257 312
#     4  10  20  33  53  79 107 136 166 209 263 319
#     4  11  20  34  53  75 106 144 182 221 264 309
#     4   9  18  31  48  74 106 137 166 200 250 316
#
# _framework density 16.801594000000001
#
# number of rings (size 3 to 8) (size 9 to 14) (size 15 to 20)
#    0.000    1.714    2.857    4.714    2.000    2.286 
#    0.000    0.000    0.000    0.429    0.000    0.000 
#    0.000    2.286    0.000    0.000    0.000    0.000 
#
# Total GULP energy -155933.401494 kJ/mol
# GULP energy per Si atom -5569.050053 kJ/mol
# Density = 1.676335 g / cm^3
# Si number density = 16.801594 Si / 1000 Ang^3
#
#
#
# Elastic Constant Matrix: (Units=GPa)
#
#
# Indices 1 2 3 4 5 6 
#
# 1 71.2528 35.0217 18.8788 0.0000 7.1598 0.0000
# 2 35.0217 127.8007 32.8933 0.0000 16.1394 0.0000
# 3 18.8788 32.8933 70.4734 0.0000 16.6984 0.0000
# 4 0.0000 0.0000 0.0000 472.8484 0.0000 699.0793
# 5 7.1598 16.1394 16.6984 0.0000 23.0155 0.0000
# 6 0.0000 0.0000 0.0000 699.0793 0.0000 1098.9621
#
#
#
# Elastic Compliance Matrix: (Units=1/GPa)
#
#
# Indices 1 2 3 4 5 6 
#
# 1 0.016651 -0.003831 -0.002514 0.000000 -0.000669 0.000000
# 2 -0.003831 0.010073 -0.002758 0.000000 -0.003871 0.000000
# 3 -0.002514 -0.002758 0.018726 0.000000 -0.010870 0.000000
# 4 0.000000 0.000000 0.000000 0.035530 0.000000 -0.022602
# 5 -0.000669 -0.003871 -0.010870 0.000000 0.054258 0.000000
# 6 0.000000 0.000000 0.000000 -0.022602 0.000000 0.015287
#
#
# Mechanical properties :
#
#
# Convention : Reuss Voigt Hill
#
# Bulk Modulus (GPa) = 36.70528 49.23495 42.97011
# Shear Modulus (GPa) = 28.11928 331.14741 179.63335
#
# Velocity S-wave (km/s) = 4.09541 14.05421 10.35116
# Velocity P-wave (km/s) = 6.65259 17.10930 12.98047
#
# Compressibility (1/GPa) = 0.02724404
#
# Stress axis : x y z
#
# Youngs Moduli (GPa) = 60.05646 99.27192 53.40135
#
# Poissons Ratio (x) = 0.38035 0.13423
# Poissons Ratio (y) = 0.23010 0.14729
# Poissons Ratio (z) = 0.15096 0.27381
#
# Static dielectric constant tensor:
#      x y z
#    x 1.623450 0.000000 0.060700 
#    y 0.000000 1.575780 0.000000 
#    z 0.060700 0.000000 1.769910 
# 
# From -- ./inp_files/111723.got.cif
#   From: 2010.05.17/outbox.cif.g08.bks.cpg/sg12_56_cif.got.tgz:111723.got - 2010.06.03 13:09:07.
