data_PCOD9179962
_publ_section_title
;
Structure prediction by ZEFSAII (Michael W. Deem and Ramdas Pophale) SiO2 
 PCOD9179962
Probable space group: C 2/M
;
_chemical_formula_sum "Si O2"
_cell_formula_units_Z 40
_cell_length_a 11.256820
_cell_length_b 14.606839
_cell_length_c 12.048140
_cell_angle_alpha 90.000000
_cell_angle_beta 107.064604
_cell_angle_gamma 90.000000
_cell_volume 1893.818130
_symmetry_space_group_name_H-M "C 2/M"
_symmetry_group_IT_number 12
_symmetry_cell_setting 'monoclinic'
loop_
_space_group_symop_operation_xyz
x,y,z
-x,y,-z
-x,-y,-z
x,-y,z
1/2+x,1/2+y,z
1/2-x,1/2+y,-z
1/2-x,1/2-y,-z
1/2+x,1/2-y,z
loop_
_atom_site_type_symbol
_atom_site_label
_atom_site_fract_x
_atom_site_fract_y
_atom_site_fract_z
Si Si1 0.430334 0.611901 0.146966
Si Si2 0.808704 0.888450 0.890347
Si Si3 0.822343 0.343947 0.538591
Si Si4 0.586474 0.892727 0.677727
Si Si5 0.095405 0.104117 0.613329
O O1 0.425252 0.500000 0.143914
O O2 0.569974 0.637683 0.148460
O O3 0.401175 0.644366 0.262781
O O4 0.336631 0.641635 0.023759
O O5 0.681826 0.859198 0.797279
O O6 0.805802 0.000000 0.888482
O O7 0.750000 0.250000 0.500000
O O8 0.845696 0.386337 0.423409
O O9 0.728776 0.397604 0.592656
O O10 0.957190 0.339671 0.631696
O O11 0.556584 0.000000 0.688534
O O12 0.000000 0.149258 0.500000
O O13 0.048952 0.000000 0.616748
#
# Coordination Sequence:
#
# PCOD9179962 Si02
#       5
#     8   8   8   8   8
#     4   8  14  26  49  84 116 136 173 230 276 316
#     4   8  14  28  52  82 110 140 179 225 271 319
#     4  11  23  35  52  76 110 145 179 225 279 330
#     4  10  20  38  60  80 105 147 193 228 268 333
#     4  10  19  31  52  82 110 138 176 227 276 322
#
# _framework density 21.121352999999999
#
# number of rings (size 3 to 8) (size 9 to 14) (size 15 to 20)
#    0.000    2.600    0.000    4.800    2.800    3.200 
#    0.000    1.000    0.000    6.000    5.200    0.000 
#    0.000    0.000    0.000    0.000    0.000    0.000 
#
# Total GULP energy -111626.615904 kJ/mol
# GULP energy per Si atom -5581.330795 kJ/mol
# Density = 2.107328 g / cm^3
# Si number density = 21.121353 Si / 1000 Ang^3
#
#
#
# Elastic Constant Matrix: (Units=GPa)
#
#
# Indices 1 2 3 4 5 6 
#
# 1 124.0078 15.5427 111.2408 0.0000 18.0663 0.0000
# 2 15.5427 58.6575 15.4570 0.0000 15.5142 0.0000
# 3 111.2408 15.4570 208.4212 0.0000 25.0690 0.0000
# 4 0.0000 0.0000 0.0000 0.0378 0.0000 17.8885
# 5 18.0663 15.5142 25.0690 0.0000 44.1457 0.0000
# 6 0.0000 0.0000 0.0000 17.8885 0.0000 12.0173
#
#
#
# Elastic Compliance Matrix: (Units=1/GPa)
#
#
# Indices 1 2 3 4 5 6 
#
# 1 0.015753 -0.001706 -0.008134 0.000000 -0.001228 0.000000
# 2 -0.001706 0.019061 0.000235 0.000000 -0.006134 0.000000
# 3 -0.008134 0.000235 0.009371 0.000000 -0.002076 0.000000
# 4 0.000000 0.000000 0.000000 -0.037607 0.000000 0.055981
# 5 -0.001228 -0.006134 -0.002076 0.000000 0.026489 0.000000
# 6 0.000000 0.000000 0.000000 0.055981 0.000000 -0.000118
#
#
# Mechanical properties :
#
#
# Convention : Reuss Voigt Hill
#
# Bulk Modulus (GPa) = 40.03959 75.06306 57.55133
# Shear Modulus (GPa) = 82.66758 27.82990 55.24874
#
# Velocity S-wave (km/s) = 6.26293 3.63384 5.12001
# Velocity P-wave (km/s) = 8.44376 7.29537 7.89049
#
# Compressibility (1/GPa) = 0.02497528
#
# Stress axis : x y z
#
# Youngs Moduli (GPa) = 63.47997 52.46439 106.70797
#
# Poissons Ratio (x) = 0.08950 0.86792
# Poissons Ratio (y) = 0.10829 -0.02504
# Poissons Ratio (z) = 0.51632 -0.01231
#
# Static dielectric constant tensor:
#      x y z
#    x 1.732430 0.000000 0.008380 
#    y 0.000000 1.846200 0.000000 
#    z 0.008380 0.000000 1.782510 
# 
# From -- ./inp_files/129825.got.cif
#   From: 2010.05.17/outbox.cif.g08.bks.cpg/sg12_65_cif.got.tgz:129825.got - 2010.06.03 13:09:07.
