data_PCOD9179028
_publ_section_title
;
Structure prediction by ZEFSAII (Michael W. Deem and Ramdas Pophale) SiO2 
 PCOD9179028
Probable space group: C 2/M
;
_chemical_formula_sum "Si O2"
_cell_formula_units_Z 56
_cell_length_a 19.244096
_cell_length_b 9.575487
_cell_length_c 25.580322
_cell_angle_alpha 90.000000
_cell_angle_beta 40.497341
_cell_angle_gamma 90.000000
_cell_volume 3061.154217
_symmetry_space_group_name_H-M "C 2/M"
_symmetry_group_IT_number 12
_symmetry_cell_setting 'monoclinic'
loop_
_space_group_symop_operation_xyz
x,y,z
-x,y,-z
-x,-y,-z
x,-y,z
1/2+x,1/2+y,z
1/2-x,1/2+y,-z
1/2-x,1/2-y,-z
1/2+x,1/2-y,z
loop_
_atom_site_type_symbol
_atom_site_label
_atom_site_fract_x
_atom_site_fract_y
_atom_site_fract_z
Si Si1 0.807079 0.836292 0.741266
Si Si2 0.820247 0.836822 0.336358
Si Si3 0.555041 0.161544 0.023521
Si Si4 0.394084 0.337847 0.173487
Si Si5 0.879547 0.163743 0.579562
Si Si6 0.784815 0.163773 0.929699
Si Si7 0.459492 0.669976 0.748756
O O1 0.700763 0.743475 0.802067
O O2 0.854935 0.825476 0.655494
O O3 0.894531 0.791892 0.733955
O O4 0.780121 0.000000 0.766165
O O5 0.867021 0.829067 0.250415
O O6 0.711826 0.748967 0.398255
O O7 0.917627 0.784506 0.316874
O O8 0.798374 0.000000 0.359882
O O9 0.503764 0.262115 0.095854
O O10 0.529615 0.000000 0.051032
O O11 0.500000 0.194597 0.000000
O O12 0.682820 0.172686 0.949199
O O13 0.397676 0.500000 0.156877
O O14 0.000000 0.213044 0.500000
O O15 0.873260 0.000000 0.568826
O O16 0.888861 0.214676 0.839097
O O17 0.799678 0.000000 0.934716
O O18 0.750000 0.250000 0.000000
O O19 0.461888 0.500000 0.749251
#
# Coordination Sequence:
#
# PCOD9179028 Si02
#       7
#     8   8   8   8   8   8   8
#     4   9  17  32  54  73  94 129 166 197 234 286
#     4   9  18  32  51  73  96 125 160 195 234 285
#     4  10  20  33  49  68  91 125 169 208 241 285
#     4  10  19  31  48  70  96 124 158 204 251 288
#     4   9  18  33  53  77 102 126 155 193 237 285
#     4  10  20  33  49  69  95 127 163 204 246 286
#     4   9  17  32  52  71  93 126 167 202 233 280
#
# _framework density 18.293754
#
# number of rings (size 3 to 8) (size 9 to 14) (size 15 to 20)
#    0.000    2.571    0.000    2.143    0.000    5.143 
#    0.000    4.286    0.000    0.000    0.000    0.000 
#    0.000    0.000    0.000    0.000    0.000    0.000 
#
# Total GULP energy -156196.707436 kJ/mol
# GULP energy per Si atom -5578.453837 kJ/mol
# Density = 1.825212 g / cm^3
# Si number density = 18.293754 Si / 1000 Ang^3
#
#
#
# Elastic Constant Matrix: (Units=GPa)
#
#
# Indices 1 2 3 4 5 6 
#
# 1 80.2831 14.6715 4.8361 0.0000 -25.7426 0.0000
# 2 14.6715 34.9548 22.7001 0.0000 -10.5750 0.0000
# 3 4.8361 22.7001 65.3364 0.0000 -30.8204 0.0000
# 4 0.0000 0.0000 0.0000 25.3694 0.0000 -5.3726
# 5 -25.7426 -10.5750 -30.8204 0.0000 26.9062 0.0000
# 6 0.0000 0.0000 0.0000 -5.3726 0.0000 16.3209
#
#
#
# Elastic Compliance Matrix: (Units=1/GPa)
#
#
# Indices 1 2 3 4 5 6 
#
# 1 0.034555 -0.016908 0.034324 0.000000 0.065733 0.000000
# 2 -0.016908 0.045219 -0.029818 0.000000 -0.032560 0.000000
# 3 0.034324 -0.029818 0.071983 0.000000 0.103575 0.000000
# 4 0.000000 0.000000 0.000000 0.042371 0.000000 0.013948
# 5 0.065733 -0.032560 0.103575 0.000000 0.205902 0.000000
# 6 0.000000 0.000000 0.000000 0.013948 0.000000 0.065863
#
#
# Mechanical properties :
#
#
# Convention : Reuss Voigt Hill
#
# Bulk Modulus (GPa) = 7.87691 29.44329 18.66010
# Shear Modulus (GPa) = 9.38060 22.94374 16.16217
#
# Velocity S-wave (km/s) = 2.26691 3.54529 2.97556
# Velocity P-wave (km/s) = 3.34171 5.73484 4.69337
#
# Compressibility (1/GPa) = 0.12695327
#
# Stress axis : x y z
#
# Youngs Moduli (GPa) = 28.93900 22.11469 13.89217
#
# Poissons Ratio (x) = 0.37391 -0.47684
# Poissons Ratio (y) = 0.48930 0.41424
# Poissons Ratio (z) = -0.99331 0.65943
#
# Static dielectric constant tensor:
#      x y z
#    x 1.656010 0.000000 -0.009520 
#    y 0.000000 1.612500 0.000000 
#    z -0.009520 0.000000 1.621410 
# 
# From -- ./inp_files/275676.got.cif
#   From: 2010.05.17/outbox.cif.g08.bks.cpg/sg12_138_cif.got.tgz:275676.got - 2010.06.03 13:09:07.
