data_PCOD9179951
_publ_section_title
;
Structure prediction by ZEFSAII (Michael W. Deem and Ramdas Pophale) SiO2 
 PCOD9179951
Probable space group: C 2/M
;
_chemical_formula_sum "Si O2"
_cell_formula_units_Z 48
_cell_length_a 24.106669
_cell_length_b 10.684722
_cell_length_c 12.898293
_cell_angle_alpha 90.000000
_cell_angle_beta 128.503899
_cell_angle_gamma 90.000000
_cell_volume 2599.881359
_symmetry_space_group_name_H-M "C 2/M"
_symmetry_group_IT_number 12
_symmetry_cell_setting 'monoclinic'
loop_
_space_group_symop_operation_xyz
x,y,z
-x,y,-z
-x,-y,-z
x,-y,z
1/2+x,1/2+y,z
1/2-x,1/2+y,-z
1/2-x,1/2-y,-z
1/2+x,1/2-y,z
loop_
_atom_site_type_symbol
_atom_site_label
_atom_site_fract_x
_atom_site_fract_y
_atom_site_fract_z
Si Si1 0.182985 0.853735 0.591988
Si Si2 0.577126 0.358484 0.276733
Si Si3 0.667659 0.219197 0.011510
Si Si4 0.328112 0.640069 0.188605
Si Si5 0.299488 0.642385 0.747715
Si Si6 0.981993 0.363449 0.100394
O O1 0.125674 0.843467 0.434855
O O2 0.150763 0.829870 0.668889
O O3 0.244795 0.751193 0.650387
O O4 0.208613 0.000000 0.621851
O O5 0.547527 0.500000 0.241468
O O6 0.630355 0.347006 0.240693
O O7 0.518830 0.251819 0.200364
O O8 0.742013 0.146767 0.090378
O O9 0.682647 0.330336 0.111347
O O10 0.649006 0.268131 0.875645
O O11 0.602024 0.144395 0.980894
O O12 0.351429 0.500000 0.191107
O O13 0.272221 0.500000 0.702997
O O14 0.008012 0.500000 0.166220
O O15 0.000000 0.352109 0.000000
#
# Coordination Sequence:
#
# PCOD9179951 Si02
#       6
#     8   8   8   8   8   8
#     4   9  19  35  54  78 109 146 186 224 268 321
#     4  10  21  36  53  78 112 147 182 223 271 326
#     4  10  19  34  54  81 112 141 180 227 275 322
#     4   9  18  33  56  80 106 142 183 225 268 319
#     4  10  19  31  52  81 110 141 181 230 278 320
#     4  11  23  38  57  82 112 146 182 222 274 332
#
# _framework density 18.462381000000001
#
# number of rings (size 3 to 8) (size 9 to 14) (size 15 to 20)
#    0.000    2.167    1.667    1.500    0.000    3.667 
#    0.000    1.667    0.000    4.000    0.000    0.000 
#    0.000    0.000    0.000    0.000    0.000    0.000 
#
# Total GULP energy -133823.586435 kJ/mol
# GULP energy per Si atom -5575.982768 kJ/mol
# Density = 1.842036 g / cm^3
# Si number density = 18.462381 Si / 1000 Ang^3
#
#
#
# Elastic Constant Matrix: (Units=GPa)
#
#
# Indices 1 2 3 4 5 6 
#
# 1 64.2002 20.2518 11.4236 0.0000 -7.5424 0.0000
# 2 20.2518 113.9807 36.3716 0.0000 9.1892 0.0000
# 3 11.4236 36.3716 32.5708 0.0000 -4.3776 0.0000
# 4 0.0000 0.0000 0.0000 21.8126 0.0000 8.7458
# 5 -7.5424 9.1892 -4.3776 0.0000 19.2886 0.0000
# 6 0.0000 0.0000 0.0000 8.7458 0.0000 3.6108
#
#
#
# Elastic Compliance Matrix: (Units=1/GPa)
#
#
# Indices 1 2 3 4 5 6 
#
# 1 0.017869 -0.003421 -0.001329 0.000000 0.008315 0.000000
# 2 -0.003421 0.016587 -0.019149 0.000000 -0.013586 0.000000
# 3 -0.001329 -0.019149 0.055398 0.000000 0.021176 0.000000
# 4 0.000000 0.000000 0.000000 1.588956 0.000000 -3.848606
# 5 0.008315 -0.013586 0.021176 0.000000 0.066374 0.000000
# 6 0.000000 0.000000 0.000000 -3.848606 0.000000 9.598639
#
#
# Mechanical properties :
#
#
# Convention : Reuss Voigt Hill
#
# Bulk Modulus (GPa) = 23.77799 38.53841 31.15820
# Shear Modulus (GPa) = 0.43838 18.45606 9.44722
#
# Velocity S-wave (km/s) = 0.48781 3.16517 2.26454
# Velocity P-wave (km/s) = 3.63654 5.85466 4.87347
#
# Compressibility (1/GPa) = 0.04205570
#
# Stress axis : x y z
#
# Youngs Moduli (GPa) = 55.96316 60.28838 18.05130
#
# Poissons Ratio (x) = 0.20626 0.02399
# Poissons Ratio (y) = 0.19146 0.34566
# Poissons Ratio (z) = 0.07438 1.15444
#
# Static dielectric constant tensor:
#      x y z
#    x 1.625440 0.000000 -0.011910 
#    y 0.000000 1.646220 0.000000 
#    z -0.011910 0.000000 1.624680 
# 
# From -- ./inp_files/164715.got.cif
#   From: 2010.05.17/outbox.cif.g08.bks.cpg/sg12_83_cif.got.tgz:164715.got - 2010.06.03 13:09:07.
