data_PCOD9179057
_publ_section_title
;
Structure prediction by ZEFSAII (Michael W. Deem and Ramdas Pophale) SiO2 
 PCOD9179057
Probable space group: C 2/M
;
_chemical_formula_sum "Si O2"
_cell_formula_units_Z 64
_cell_length_a 26.150310
_cell_length_b 13.379678
_cell_length_c 13.257897
_cell_angle_alpha 90.000000
_cell_angle_beta 59.161956
_cell_angle_gamma 90.000000
_cell_volume 3982.887137
_symmetry_space_group_name_H-M "C 2/M"
_symmetry_group_IT_number 12
_symmetry_cell_setting 'monoclinic'
loop_
_space_group_symop_operation_xyz
x,y,z
-x,y,-z
-x,-y,-z
x,-y,z
1/2+x,1/2+y,z
1/2-x,1/2+y,-z
1/2-x,1/2-y,-z
1/2+x,1/2-y,z
loop_
_atom_site_type_symbol
_atom_site_label
_atom_site_fract_x
_atom_site_fract_y
_atom_site_fract_z
Si Si1 0.185243 0.727544 0.111553
Si Si2 0.479159 0.378808 0.410731
Si Si3 0.431232 0.280960 0.042441
Si Si4 0.085218 0.118680 0.155311
Si Si5 0.656645 0.619029 0.496404
Si Si6 0.666274 0.618330 0.724908
Si Si7 0.343999 0.882701 0.051994
Si Si8 0.238877 0.756670 0.262912
O O1 0.142264 0.822556 0.139834
O O2 0.197145 0.710951 0.217315
O O3 0.250000 0.750000 0.000000
O O4 0.158824 0.642641 0.064816
O O5 0.500000 0.344369 0.500000
O O6 0.479464 0.500000 0.411503
O O7 0.527285 0.349432 0.278020
O O8 0.411700 0.349730 0.454877
O O9 0.393453 0.331492 0.170238
O O10 0.399360 0.177286 0.043961
O O11 0.500000 0.269995 0.000000
O O12 0.423570 0.350935 0.951768
O O13 0.093120 0.000000 0.157150
O O14 0.662023 0.500000 0.468365
O O15 0.669936 0.632927 0.601175
O O16 0.700169 0.682559 0.382415
O O17 0.665262 0.500000 0.746398
O O18 0.721071 0.672226 0.724976
O O19 0.285575 0.832829 0.162266
O O20 0.346047 0.000000 0.067442
#
# Coordination Sequence:
#
# PCOD9179057 Si02
#       8
#     8   8   8   8   8   8   8   8
#     4   9  19  31  46  71  96 123 161 199 241 290
#     4   9  17  28  44  69  97 124 156 193 237 289
#     4  10  20  33  50  72  98 129 166 200 241 295
#     4  10  19  31  48  71 101 131 158 197 248 299
#     4  10  19  31  49  72  99 131 164 200 242 288
#     4  10  21  34  48  71 101 130 164 205 245 288
#     4   9  19  34  50  71  98 126 161 205 247 290
#     4  10  19  33  51  72  97 130 166 201 245 294
#
# _framework density 16.068745
#
# number of rings (size 3 to 8) (size 9 to 14) (size 15 to 20)
#    0.000    2.375    0.000    3.375    0.000    6.250 
#    0.000    0.000    0.000    0.000    0.000    3.500 
#    0.000   18.500    0.000    0.000    0.000    0.000 
#
# Total GULP energy -178411.871796 kJ/mol
# GULP energy per Si atom -5575.370994 kJ/mol
# Density = 1.603217 g / cm^3
# Si number density = 16.068745 Si / 1000 Ang^3
#
#
#
# Elastic Constant Matrix: (Units=GPa)
#
#
# Indices 1 2 3 4 5 6 
#
# 1 127.3138 52.0432 49.3448 0.0000 -0.7912 0.0000
# 2 52.0432 85.9017 40.9720 0.0000 2.0022 0.0000
# 3 49.3448 40.9720 97.9262 0.0000 1.0069 0.0000
# 4 0.0000 0.0000 0.0000 19.6412 0.0000 -3.2497
# 5 -0.7912 2.0022 1.0069 0.0000 26.9977 0.0000
# 6 0.0000 0.0000 0.0000 -3.2497 0.0000 10.6646
#
#
#
# Elastic Compliance Matrix: (Units=1/GPa)
#
#
# Indices 1 2 3 4 5 6 
#
# 1 0.011369 -0.005211 -0.003557 0.000000 0.000852 0.000000
# 2 -0.005211 0.016952 -0.004454 0.000000 -0.001244 0.000000
# 3 -0.003557 -0.004454 0.013871 0.000000 -0.000291 0.000000
# 4 0.000000 0.000000 0.000000 0.053616 0.000000 0.016338
# 5 0.000852 -0.001244 -0.000291 0.000000 0.037168 0.000000
# 6 0.000000 0.000000 0.000000 0.016338 0.000000 0.098746
#
#
# Mechanical properties :
#
#
# Convention : Reuss Voigt Hill
#
# Bulk Modulus (GPa) = 63.50434 66.20685 64.85560
# Shear Modulus (GPa) = 18.98144 22.71282 20.84713
#
# Velocity S-wave (km/s) = 3.44068 3.76370 3.60581
# Velocity P-wave (km/s) = 7.44249 7.75751 7.60163
#
# Compressibility (1/GPa) = 0.01574696
#
# Stress axis : x y z
#
# Youngs Moduli (GPa) = 87.96046 58.99155 72.09417
#
# Poissons Ratio (x) = 0.30740 0.25646
# Poissons Ratio (y) = 0.45835 0.32110
# Poissons Ratio (z) = 0.31289 0.26274
#
# Static dielectric constant tensor:
#      x y z
#    x 1.534420 0.000000 0.012630 
#    y 0.000000 1.504360 0.000000 
#    z 0.012630 0.000000 1.544030 
# 
# From -- ./inp_files/175278.got.cif
#   From: 2010.05.17/outbox.cif.g08.bks.cpg/sg12_88_cif.got.tgz:175278.got - 2010.06.03 13:09:07.
