data_PCOD9179394
_publ_section_title
;
Structure prediction by ZEFSAII (Michael W. Deem and Ramdas Pophale) SiO2 
 PCOD9179394
Probable space group: C 2/M
;
_chemical_formula_sum "Si O2"
_cell_formula_units_Z 48
_cell_length_a 29.145766
_cell_length_b 20.492275
_cell_length_c 8.904118
_cell_angle_alpha 90.000000
_cell_angle_beta 30.775569
_cell_angle_gamma 90.000000
_cell_volume 2721.147450
_symmetry_space_group_name_H-M "C 2/M"
_symmetry_group_IT_number 12
_symmetry_cell_setting 'monoclinic'
loop_
_space_group_symop_operation_xyz
x,y,z
-x,y,-z
-x,-y,-z
x,-y,z
1/2+x,1/2+y,z
1/2-x,1/2+y,-z
1/2-x,1/2-y,-z
1/2+x,1/2-y,z
loop_
_atom_site_type_symbol
_atom_site_label
_atom_site_fract_x
_atom_site_fract_y
_atom_site_fract_z
Si Si1 0.987760 0.749641 0.862885
Si Si2 0.601110 0.709115 0.287167
Si Si3 0.225333 0.071752 0.377193
Si Si4 0.048772 0.098246 0.020418
Si Si5 0.685848 0.208741 0.794164
Si Si6 0.126643 0.071039 0.329181
O O1 0.078750 0.757488 0.510803
O O2 0.947984 0.823547 0.973866
O O3 0.912949 0.704385 0.000707
O O4 0.000000 0.731403 0.000000
O O5 0.500000 0.706073 0.500000
O O6 0.639874 0.636606 0.198373
O O7 0.666881 0.750091 0.998312
O O8 0.147242 0.071639 0.722947
O O9 0.279195 0.137329 0.260722
O O10 0.177392 0.078119 0.347694
O O11 0.269973 0.000000 0.253430
O O12 0.000000 0.083488 0.000000
O O13 0.980394 0.072389 0.335840
O O14 0.750000 0.250000 0.500000
O O15 0.150787 0.000000 0.198126
#
# Coordination Sequence:
#
# PCOD9179394 Si02
#       6
#     8   8   8   8   8   8
#     4   9  17  34  56  76 102 137 177 216 259 312
#     4   9  20  34  50  75 107 140 177 216 251 307
#     4  10  19  31  49  76 108 139 173 214 261 312
#     4   8  13  25  46  73 101 134 166 193 236 311
#     4  11  21  34  52  80 108 137 175 220 262 303
#     4   9  17  30  49  74 108 145 173 199 251 323
#
# _framework density 17.639617999999999
#
# number of rings (size 3 to 8) (size 9 to 14) (size 15 to 20)
#    0.000    2.667    1.667    1.500    0.000    3.000 
#    0.000    0.833    0.000    5.000    0.000    0.000 
#    0.000    0.000    0.000    0.000    0.000    0.000 
#
# Total GULP energy -133641.204312 kJ/mol
# GULP energy per Si atom -5568.383513 kJ/mol
# Density = 1.759947 g / cm^3
# Si number density = 17.639618 Si / 1000 Ang^3
#
#
#
# Elastic Constant Matrix: (Units=GPa)
#
#
# Indices 1 2 3 4 5 6 
#
# 1 38.0636 50.1992 24.2034 0.0000 7.5781 0.0000
# 2 50.1992 160.6840 59.3507 0.0000 -3.3783 0.0000
# 3 24.2034 59.3507 72.9884 0.0000 16.6913 0.0000
# 4 0.0000 0.0000 0.0000 12.4433 0.0000 1.5341
# 5 7.5781 -3.3783 16.6913 0.0000 23.2085 0.0000
# 6 0.0000 0.0000 0.0000 1.5341 0.0000 23.2667
#
#
#
# Elastic Compliance Matrix: (Units=1/GPa)
#
#
# Indices 1 2 3 4 5 6 
#
# 1 0.052272 -0.017300 0.001452 0.000000 -0.020630 0.000000
# 2 -0.017300 0.015971 -0.010860 0.000000 0.015784 0.000000
# 3 0.001452 -0.010860 0.026953 0.000000 -0.021439 0.000000
# 4 0.000000 0.000000 0.000000 0.081023 0.000000 -0.005342
# 5 -0.020630 0.015784 -0.021439 0.000000 0.067540 0.000000
# 6 0.000000 0.000000 0.000000 -0.005342 0.000000 0.043332
#
#
# Mechanical properties :
#
#
# Convention : Reuss Voigt Hill
#
# Bulk Modulus (GPa) = 23.93511 59.91586 41.92548
# Shear Modulus (GPa) = 14.10704 20.98256 17.54480
#
# Velocity S-wave (km/s) = 2.83103 3.45267 3.15719
# Velocity P-wave (km/s) = 4.92795 7.06647 6.09178
#
# Compressibility (1/GPa) = 0.04177963
#
# Stress axis : x y z
#
# Youngs Moduli (GPa) = 19.13078 62.61305 37.10224
#
# Poissons Ratio (x) = 1.08322 -0.05387
# Poissons Ratio (y) = 0.33097 0.40292
# Poissons Ratio (z) = -0.02778 0.67995
#
# Static dielectric constant tensor:
#      x y z
#    x 1.663630 0.000000 0.026090 
#    y 0.000000 1.627170 0.000000 
#    z 0.026090 0.000000 1.619820 
# 
# From -- ./inp_files/113178.got.cif
#   From: 2010.05.17/outbox.cif.g08.bks.cpg/sg12_57_cif.got.tgz:113178.got - 2010.06.03 13:09:07.
