data_PCOD9179957
_publ_section_title
;
Structure prediction by ZEFSAII (Michael W. Deem and Ramdas Pophale) SiO2 
 PCOD9179957
Probable space group: C 2/M
;
_chemical_formula_sum "Si O2"
_cell_formula_units_Z 64
_cell_length_a 20.826355
_cell_length_b 8.900148
_cell_length_c 24.544134
_cell_angle_alpha 90.000000
_cell_angle_beta 53.398005
_cell_angle_gamma 90.000000
_cell_volume 3652.277732
_symmetry_space_group_name_H-M "C 2/M"
_symmetry_group_IT_number 12
_symmetry_cell_setting 'monoclinic'
loop_
_space_group_symop_operation_xyz
x,y,z
-x,y,-z
-x,-y,-z
x,-y,z
1/2+x,1/2+y,z
1/2-x,1/2+y,-z
1/2-x,1/2-y,-z
1/2+x,1/2-y,z
loop_
_atom_site_type_symbol
_atom_site_label
_atom_site_fract_x
_atom_site_fract_y
_atom_site_fract_z
Si Si1 0.548345 0.321563 0.849447
Si Si2 0.670424 0.820313 0.265194
Si Si3 0.431974 0.827132 0.987075
Si Si4 0.180450 0.319710 0.863249
Si Si5 0.396215 0.820327 0.288637
Si Si6 0.778066 0.679625 0.636435
Si Si7 0.984368 0.319744 0.357063
Si Si8 0.925048 0.820547 0.498564
O O1 0.556127 0.500000 0.843322
O O2 0.621238 0.255024 0.848848
O O3 0.556292 0.251261 0.785854
O O4 0.467139 0.273155 0.921246
O O5 0.731090 0.735743 0.194747
O O6 0.696340 0.786578 0.314227
O O7 0.577871 0.778749 0.304961
O O8 0.678380 0.000000 0.253180
O O9 0.352971 0.778800 0.059848
O O10 0.423941 0.000000 0.972751
O O11 0.500000 0.825880 0.000000
O O12 0.173727 0.500000 0.861702
O O13 0.306946 0.754588 0.332283
O O14 0.438330 0.785842 0.324615
O O15 0.393503 0.000000 0.283259
O O16 0.772042 0.500000 0.634123
O O17 0.846417 0.742797 0.562448
O O18 0.980791 0.500000 0.368247
O O19 0.945850 0.237668 0.428048
O O20 0.000000 0.783113 0.500000
O O21 0.914787 0.000000 0.503915
#
# Coordination Sequence:
#
# PCOD9179957 Si02
#       8
#     8   8   8   8   8   8   8   8
#     4  11  20  31  51  79 112 149 185 227 278 328
#     4  10  20  35  57  84 112 143 186 232 279 329
#     4   8  16  30  47  74 110 146 183 226 277 327
#     4  10  19  31  52  81 113 146 184 231 278 325
#     4  11  23  39  59  82 113 149 188 230 275 333
#     4  11  22  37  61  86 113 147 183 230 279 329
#     4  10  23  42  61  82 110 149 188 228 279 332
#     4  11  23  38  60  88 115 145 183 230 279 329
#
# _framework density 17.523312000000001
#
# number of rings (size 3 to 8) (size 9 to 14) (size 15 to 20)
#    0.000    1.750    2.500    3.375    0.000    5.750 
#    0.000    0.000    0.000    0.750    0.000    0.000 
#    0.000    0.000    0.000    0.000    0.000    0.000 
#
# Total GULP energy -178696.263075 kJ/mol
# GULP energy per Si atom -5584.258221 kJ/mol
# Density = 1.748343 g / cm^3
# Si number density = 17.523312 Si / 1000 Ang^3
#
#
#
# Elastic Constant Matrix: (Units=GPa)
#
#
# Indices 1 2 3 4 5 6 
#
# 1 100.4263 57.2720 69.8169 0.0000 -1.5006 0.0000
# 2 57.2720 74.6381 76.9172 -0.0002 2.6230 -0.0004
# 3 69.8169 76.9172 178.4589 0.0000 -9.6701 0.0000
# 4 0.0000 -0.0002 0.0000 34.5208 0.0000 -5.4393
# 5 -1.5006 2.6230 -9.6701 0.0000 22.1703 0.0000
# 6 0.0000 -0.0004 0.0000 -5.4393 0.0000 17.0910
#
#
#
# Elastic Compliance Matrix: (Units=1/GPa)
#
#
# Indices 1 2 3 4 5 6 
#
# 1 0.018157 -0.012209 -0.001737 0.000000 0.001916 0.000000
# 2 -0.012209 0.033619 -0.010215 0.000000 -0.009260 0.000001
# 3 -0.001737 -0.010215 0.011005 0.000000 0.005891 0.000000
# 4 0.000000 0.000000 0.000000 0.030497 0.000000 0.009706
# 5 0.001916 -0.009260 0.005891 0.000000 0.048900 0.000000
# 6 0.000000 0.000001 0.000000 0.009706 0.000000 0.061599
#
#
# Mechanical properties :
#
#
# Convention : Reuss Voigt Hill
#
# Bulk Modulus (GPa) = 69.16796 84.61507 76.89151
# Shear Modulus (GPa) = 19.46122 24.72422 22.09272
#
# Velocity S-wave (km/s) = 3.33617 3.76031 3.55457
# Velocity P-wave (km/s) = 7.37548 8.20032 7.79881
#
# Compressibility (1/GPa) = 0.01445756
#
# Stress axis : x y z
#
# Youngs Moduli (GPa) = 55.07617 29.74488 90.86529
#
# Poissons Ratio (x) = 0.36316 0.15785
# Poissons Ratio (y) = 0.67244 0.92822
# Poissons Ratio (z) = 0.09568 0.30386
#
# Static dielectric constant tensor:
#      x y z
#    x 1.572280 0.000000 -0.009920 
#    y 0.000000 1.584870 0.000000 
#    z -0.009920 0.000000 1.596710 
# 
# From -- ./inp_files/346092.got.cif
#   From: 2010.05.17/outbox.cif.g08.bks.cpg/sg12_174_cif.got.tgz:346092.got - 2010.06.03 13:09:07.
