data_PCOD9179469
_publ_section_title
;
Structure prediction by ZEFSAII (Michael W. Deem and Ramdas Pophale) SiO2 
 PCOD9179469
Probable space group: C 2/M
;
_chemical_formula_sum "Si O2"
_cell_formula_units_Z 48
_cell_length_a 18.923056
_cell_length_b 8.825366
_cell_length_c 19.175788
_cell_angle_alpha 90.000000
_cell_angle_beta 118.883328
_cell_angle_gamma 90.000000
_cell_volume 2804.048428
_symmetry_space_group_name_H-M "C 2/M"
_symmetry_group_IT_number 12
_symmetry_cell_setting 'monoclinic'
loop_
_space_group_symop_operation_xyz
x,y,z
-x,y,-z
-x,-y,-z
x,-y,z
1/2+x,1/2+y,z
1/2-x,1/2+y,-z
1/2-x,1/2-y,-z
1/2+x,1/2-y,z
loop_
_atom_site_type_symbol
_atom_site_label
_atom_site_fract_x
_atom_site_fract_y
_atom_site_fract_z
Si Si1 0.251345 0.817987 0.078642
Si Si2 0.082632 0.818563 0.831941
Si Si3 0.914823 0.173900 0.417660
Si Si4 0.925841 0.815956 0.010284
Si Si5 0.331002 0.181574 0.506195
Si Si6 0.496488 0.819506 0.665551
O O1 0.330698 0.747801 0.150548
O O2 0.258359 0.000000 0.079655
O O3 0.250000 0.750000 0.000000
O O4 0.162022 0.777408 0.063209
O O5 0.069603 0.769319 0.906295
O O6 0.014911 0.757947 0.747785
O O7 0.085907 0.000000 0.831990
O O8 0.851628 0.251806 0.439669
O O9 0.000000 0.173363 0.500000
O O10 0.936287 0.262171 0.357466
O O11 0.892451 0.000000 0.392544
O O12 0.929306 0.000000 0.012761
O O13 0.000000 0.758639 0.000000
O O14 0.250000 0.250000 0.500000
O O15 0.408699 0.219327 0.591790
O O16 0.325344 0.000000 0.499397
O O17 0.501275 0.000000 0.674129
#
# Coordination Sequence:
#
# PCOD9179469 Si02
#       6
#     8   8   8   8   8   8
#     4   9  16  28  48  70  94 124 159 200 243 293
#     4  10  19  31  50  73  97 128 166 209 254 301
#     4   9  17  31  52  75  98 126 163 205 248 298
#     4   8  15  29  49  72  96 125 163 203 244 294
#     4  10  20  34  53  76 103 136 172 208 251 305
#     4  10  20  34  52  74 101 132 168 212 258 303
#
# _framework density 17.118106999999998
#
# number of rings (size 3 to 8) (size 9 to 14) (size 15 to 20)
#    0.000    2.667    0.000    3.500    0.000    4.000 
#    0.000    1.667    0.000   24.000    0.000    0.000 
#    0.000    0.000    0.000    0.000    0.000    0.000 
#
# Total GULP energy -133693.266905 kJ/mol
# GULP energy per Si atom -5570.552788 kJ/mol
# Density = 1.707915 g / cm^3
# Si number density = 17.118107 Si / 1000 Ang^3
#
#
#
# Elastic Constant Matrix: (Units=GPa)
#
#
# Indices 1 2 3 4 5 6 
#
# 1 143.7135 43.3427 37.9210 0.0000 1.1597 0.0000
# 2 43.3427 63.7302 31.7089 0.0000 5.3189 0.0000
# 3 37.9210 31.7089 68.5041 0.0000 1.6084 0.0000
# 4 0.0000 0.0000 0.0000 28.2290 0.0000 1.4715
# 5 1.1597 5.3189 1.6084 0.0000 16.0925 0.0000
# 6 0.0000 0.0000 0.0000 1.4715 0.0000 25.3872
#
#
#
# Elastic Compliance Matrix: (Units=1/GPa)
#
#
# Indices 1 2 3 4 5 6 
#
# 1 0.009185 -0.004946 -0.002825 0.000000 0.001255 0.000000
# 2 -0.004946 0.023606 -0.008033 0.000000 -0.006643 0.000000
# 3 -0.002825 -0.008033 0.019859 0.000000 0.000874 0.000000
# 4 0.000000 0.000000 0.000000 0.035532 0.000000 -0.002060
# 5 0.001255 -0.006643 0.000874 0.000000 0.064159 0.000000
# 6 0.000000 0.000000 0.000000 -0.002060 0.000000 0.039509
#
#
# Mechanical properties :
#
#
# Convention : Reuss Voigt Hill
#
# Bulk Modulus (GPa) = 47.52118 55.76588 51.64353
# Shear Modulus (GPa) = 21.69464 24.80674 23.25069
#
# Velocity S-wave (km/s) = 3.56385 3.81090 3.68944
# Velocity P-wave (km/s) = 6.68997 7.21192 6.95584
#
# Compressibility (1/GPa) = 0.02104325
#
# Stress axis : x y z
#
# Youngs Moduli (GPa) = 108.87082 42.36175 50.35536
#
# Poissons Ratio (x) = 0.20953 0.14223
# Poissons Ratio (y) = 0.53850 0.40449
# Poissons Ratio (z) = 0.30751 0.34028
#
# Static dielectric constant tensor:
#      x y z
#    x 1.590780 0.000000 0.014920 
#    y 0.000000 1.575630 0.000000 
#    z 0.014920 0.000000 1.610750 
# 
# From -- ./inp_files/274625.got.cif
#   From: 2010.05.17/outbox.cif.g08.bks.cpg/sg12_138_cif.got.tgz:274625.got - 2010.06.03 13:09:07.
