data_PCOD9179917
_publ_section_title
;
Structure prediction by ZEFSAII (Michael W. Deem and Ramdas Pophale) SiO2 
 PCOD9179917
Probable space group: C 2/M
;
_chemical_formula_sum "Si O2"
_cell_formula_units_Z 56
_cell_length_a 17.637203
_cell_length_b 14.758659
_cell_length_c 11.845772
_cell_angle_alpha 90.000000
_cell_angle_beta 105.644135
_cell_angle_gamma 90.000000
_cell_volume 2969.244997
_symmetry_space_group_name_H-M "C 2/M"
_symmetry_group_IT_number 12
_symmetry_cell_setting 'monoclinic'
loop_
_space_group_symop_operation_xyz
x,y,z
-x,y,-z
-x,-y,-z
x,-y,z
1/2+x,1/2+y,z
1/2-x,1/2+y,-z
1/2-x,1/2-y,-z
1/2+x,1/2-y,z
loop_
_atom_site_type_symbol
_atom_site_label
_atom_site_fract_x
_atom_site_fract_y
_atom_site_fract_z
Si Si1 0.471879 0.897025 0.718398
Si Si2 0.878467 0.105659 0.011298
Si Si3 0.507543 0.714693 0.630279
Si Si4 0.446035 0.394552 0.809709
Si Si5 0.676208 0.105984 0.178265
Si Si6 0.359835 0.896829 0.097868
Si Si7 0.819965 0.219219 0.191606
O O1 0.481618 0.819417 0.630054
O O2 0.395279 0.881728 0.764232
O O3 0.548789 0.888396 0.829304
O O4 0.470035 0.000000 0.673908
O O5 0.887919 0.138118 0.886040
O O6 0.854352 0.000000 0.002432
O O7 0.827676 0.164778 0.076011
O O8 0.966603 0.108548 0.099659
O O9 0.500000 0.681451 0.500000
O O10 0.453521 0.661471 0.698619
O O11 0.597809 0.707127 0.708971
O O12 0.428327 0.500000 0.780529
O O13 0.747924 0.173980 0.227211
O O14 0.701690 0.000000 0.195371
O O15 0.647284 0.121031 0.038076
O O16 0.313702 0.823877 0.154015
O O17 0.334998 0.000000 0.109806
#
# Coordination Sequence:
#
# PCOD9179917 Si02
#       7
#     8   8   8   8   8   8   8
#     4   9  19  35  55  77 104 138 176 220 265 316
#     4   8  14  26  45  71 101 131 165 207 254 309
#     4  10  21  35  52  76 103 140 187 227 260 302
#     4   8  15  28  46  69  98 133 171 209 253 304
#     4  10  19  32  52  81 110 136 170 214 268 324
#     4   9  18  32  50  77 111 142 172 206 259 323
#     4  10  19  31  52  79 109 141 173 215 265 310
#
# _framework density 18.860012999999999
#
# number of rings (size 3 to 8) (size 9 to 14) (size 15 to 20)
#    0.000    2.857    0.000    2.143    2.000    2.857 
#    0.000    0.714    0.000    0.000    0.000    0.000 
#    0.000    0.000    0.000    0.000    0.000    0.000 
#
# Total GULP energy -156239.344809 kJ/mol
# GULP energy per Si atom -5579.976600 kJ/mol
# Density = 1.881709 g / cm^3
# Si number density = 18.860013 Si / 1000 Ang^3
#
#
#
# Elastic Constant Matrix: (Units=GPa)
#
#
# Indices 1 2 3 4 5 6 
#
# 1 80.5239 39.3458 14.8367 0.0000 -5.2460 0.0000
# 2 39.3458 71.9496 30.8365 0.0000 -11.7777 0.0000
# 3 14.8367 30.8365 81.8399 0.0000 -18.0762 0.0000
# 4 0.0000 0.0000 0.0000 10.1286 0.0000 1.3926
# 5 -5.2460 -11.7777 -18.0762 0.0000 15.3704 0.0000
# 6 0.0000 0.0000 0.0000 1.3926 0.0000 18.0958
#
#
#
# Elastic Compliance Matrix: (Units=1/GPa)
#
#
# Indices 1 2 3 4 5 6 
#
# 1 0.016981 -0.009604 0.000263 0.000000 -0.001254 0.000000
# 2 -0.009604 0.022625 -0.004969 0.000000 0.008215 0.000000
# 3 0.000263 -0.004969 0.017862 0.000000 0.017289 0.000000
# 4 0.000000 0.000000 0.000000 0.099786 0.000000 -0.007679
# 5 -0.001254 0.008215 0.017289 0.000000 0.091259 0.000000
# 6 0.000000 0.000000 0.000000 -0.007679 0.000000 0.055852
#
#
# Mechanical properties :
#
#
# Convention : Reuss Voigt Hill
#
# Bulk Modulus (GPa) = 34.66449 44.92793 39.79621
# Shear Modulus (GPa) = 14.59410 18.67190 16.63300
#
# Velocity S-wave (km/s) = 2.78477 3.14988 2.97293
# Velocity P-wave (km/s) = 5.36280 6.09118 5.73856
#
# Compressibility (1/GPa) = 0.02884797
#
# Stress axis : x y z
#
# Youngs Moduli (GPa) = 58.88794 44.19817 55.98375
#
# Poissons Ratio (x) = 0.42450 -0.01475
# Poissons Ratio (y) = 0.56559 0.27821
# Poissons Ratio (z) = -0.01551 0.21964
#
# Static dielectric constant tensor:
#      x y z
#    x 1.665730 0.000000 0.020780 
#    y 0.000000 1.693210 0.000000 
#    z 0.020780 0.000000 1.618320 
# 
# From -- ./inp_files/156186.got.cif
#   From: 2010.05.17/outbox.cif.g08.bks.cpg/sg12_79_cif.got.tgz:156186.got - 2010.06.03 13:09:07.
