data_PCOD9179536
_publ_section_title
;
Structure prediction by ZEFSAII (Michael W. Deem and Ramdas Pophale) SiO2 
 PCOD9179536
Probable space group: C 2/M
;
_chemical_formula_sum "Si O2"
_cell_formula_units_Z 56
_cell_length_a 24.845050
_cell_length_b 10.443879
_cell_length_c 24.008134
_cell_angle_alpha 90.000000
_cell_angle_beta 30.896643
_cell_angle_gamma 90.000000
_cell_volume 3198.843029
_symmetry_space_group_name_H-M "C 2/M"
_symmetry_group_IT_number 12
_symmetry_cell_setting 'monoclinic'
loop_
_space_group_symop_operation_xyz
x,y,z
-x,y,-z
-x,-y,-z
x,-y,z
1/2+x,1/2+y,z
1/2-x,1/2+y,-z
1/2-x,1/2-y,-z
1/2+x,1/2-y,z
loop_
_atom_site_type_symbol
_atom_site_label
_atom_site_fract_x
_atom_site_fract_y
_atom_site_fract_z
Si Si1 0.891908 0.722262 0.431834
Si Si2 0.933444 0.345191 0.006949
Si Si3 0.341321 0.361507 0.369476
Si Si4 0.005475 0.849834 0.558984
Si Si5 0.518130 0.849148 0.810264
Si Si6 0.892543 0.356378 0.813655
Si Si7 0.798257 0.150421 0.818088
O O1 0.783913 0.646473 0.523060
O O2 0.876369 0.839494 0.402269
O O3 0.915288 0.771400 0.472740
O O4 0.994158 0.649400 0.318181
O O5 0.934521 0.500000 0.009751
O O6 0.984874 0.314048 0.901962
O O7 0.811281 0.309927 0.112575
O O8 0.000000 0.294931 0.000000
O O9 0.378691 0.500000 0.316678
O O10 0.390904 0.243617 0.292010
O O11 0.893177 0.839961 0.689611
O O12 0.000000 0.806365 0.500000
O O13 0.035285 0.000000 0.532262
O O14 0.421994 0.833836 0.852050
O O15 0.547685 0.000000 0.781930
O O16 0.848789 0.500000 0.846061
O O17 0.825577 0.244432 0.844832
O O18 0.791165 0.000000 0.841531
#
# Coordination Sequence:
#
# PCOD9179536 Si02
#       7
#     8   8   8   8   8   8   8
#     4   9  18  30  48  71 101 133 165 197 240 294
#     4   9  18  34  54  73  96 128 166 206 247 293
#     4  10  19  31  50  75 103 134 166 203 248 294
#     4   9  17  29  47  73 101 126 159 204 245 284
#     4   9  19  33  50  74  99 127 167 209 247 292
#     4   9  17  31  50  72 100 128 156 196 246 295
#     4   9  18  32  51  74  97 125 162 201 243 291
#
# _framework density 17.506329000000001
#
# number of rings (size 3 to 8) (size 9 to 14) (size 15 to 20)
#    0.000    2.857    0.000    0.857    0.000    9.143 
#    0.000    3.571    0.000   15.857    0.000    0.000 
#    0.000    0.000    0.000    0.000    0.000    0.000 
#
# Total GULP energy -155990.894794 kJ/mol
# GULP energy per Si atom -5571.103385 kJ/mol
# Density = 1.746648 g / cm^3
# Si number density = 17.506329 Si / 1000 Ang^3
#
#
#
# Elastic Constant Matrix: (Units=GPa)
#
#
# Indices 1 2 3 4 5 6 
#
# 1 136.0299 47.9543 31.1746 0.0000 9.4443 0.0000
# 2 47.9543 73.3780 24.9058 0.0000 -1.0233 -0.0001
# 3 31.1746 24.9058 25.2151 0.0000 -4.4399 0.0000
# 4 0.0000 0.0000 0.0000 7.2934 0.0000 4.0073
# 5 9.4443 -1.0233 -4.4399 0.0000 27.6776 0.0000
# 6 0.0000 -0.0001 0.0000 4.0073 0.0000 4.7330
#
#
#
# Elastic Compliance Matrix: (Units=1/GPa)
#
#
# Indices 1 2 3 4 5 6 
#
# 1 0.011854 -0.003749 -0.012029 0.000000 -0.006113 0.000000
# 2 -0.003749 0.021865 -0.017076 -0.000001 -0.000651 0.000001
# 3 -0.012029 -0.017076 0.074102 0.000001 0.015360 -0.000001
# 4 0.000000 -0.000001 0.000001 0.256370 0.000000 -0.217061
# 5 -0.006113 -0.000651 0.015360 0.000000 0.040656 -0.000001
# 6 0.000000 0.000001 -0.000001 -0.217061 -0.000001 0.395062
#
#
# Mechanical properties :
#
#
# Convention : Reuss Voigt Hill
#
# Bulk Modulus (GPa) = 23.74591 49.18803 36.46697
# Shear Modulus (GPa) = 5.68404 16.64671 11.16537
#
# Velocity S-wave (km/s) = 1.80386 3.08701 2.52819
# Velocity P-wave (km/s) = 4.23464 6.39253 5.42202
#
# Compressibility (1/GPa) = 0.04211252
#
# Stress axis : x y z
#
# Youngs Moduli (GPa) = 84.35793 45.73450 13.49489
#
# Poissons Ratio (x) = 0.17148 0.16233
# Poissons Ratio (y) = 0.31630 0.23044
# Poissons Ratio (z) = 1.01473 0.78097
#
# Static dielectric constant tensor:
#      x y z
#    x 1.591830 0.000000 -0.001440 
#    y 0.000000 1.600670 0.000000 
#    z -0.001440 0.000000 1.599670 
# 
# From -- ./inp_files/349146.got.cif
#   From: 2010.05.17/outbox.cif.g08.bks.cpg/sg12_175_cif.got.tgz:349146.got - 2010.06.03 13:09:07.
