data_PCOD9179426
_publ_section_title
;
Structure prediction by ZEFSAII (Michael W. Deem and Ramdas Pophale) SiO2 
 PCOD9179426
Probable space group: C 2/M
;
_chemical_formula_sum "Si O2"
_cell_formula_units_Z 48
_cell_length_a 19.762212
_cell_length_b 10.573736
_cell_length_c 20.172454
_cell_angle_alpha 90.000000
_cell_angle_beta 34.462469
_cell_angle_gamma 90.000000
_cell_volume 2385.264617
_symmetry_space_group_name_H-M "C 2/M"
_symmetry_group_IT_number 12
_symmetry_cell_setting 'monoclinic'
loop_
_space_group_symop_operation_xyz
x,y,z
-x,y,-z
-x,-y,-z
x,-y,z
1/2+x,1/2+y,z
1/2-x,1/2+y,-z
1/2-x,1/2-y,-z
1/2+x,1/2-y,z
loop_
_atom_site_type_symbol
_atom_site_label
_atom_site_fract_x
_atom_site_fract_y
_atom_site_fract_z
Si Si1 0.609241 0.349671 0.258475
Si Si2 0.536234 0.648815 0.894283
Si Si3 0.765887 0.357908 0.256263
Si Si4 0.781841 0.861907 0.424444
Si Si5 0.939077 0.854443 0.842889
Si Si6 0.417846 0.225269 0.508841
O O1 0.579248 0.500000 0.278953
O O2 0.721708 0.340269 0.216429
O O3 0.622946 0.298753 0.172472
O O4 0.502978 0.278214 0.382463
O O5 0.566428 0.500000 0.855946
O O6 0.642604 0.747964 0.800816
O O7 0.436235 0.689945 0.921098
O O8 0.500000 0.654217 0.000000
O O9 0.812883 0.500000 0.226723
O O10 0.650810 0.336987 0.396259
O O11 0.750000 0.750000 0.500000
O O12 0.918514 0.849124 0.289637
O O13 0.685898 0.854295 0.442501
O O14 0.771645 0.000000 0.465174
O O15 0.898886 0.000000 0.877940
O O16 0.500000 0.163137 0.500000
#
# Coordination Sequence:
#
# PCOD9179426 Si02
#       6
#     8   8   8   8   8   8
#     4   9  17  31  51  77 109 142 172 204 253 317
#     4  10  21  38  58  77 100 135 178 222 269 317
#     4  10  20  33  54  81 107 136 173 219 262 305
#     4  11  21  33  51  76 108 144 179 214 256 308
#     4   9  17  32  53  73  99 136 177 213 252 310
#     4  10  19  31  49  78 114 144 173 206 255 313
#
# _framework density 20.123553000000001
#
# number of rings (size 3 to 8) (size 9 to 14) (size 15 to 20)
#    0.000    2.167    3.333    0.500    0.000    3.333 
#    0.000    3.333    0.000    0.000    0.000    0.000 
#    0.000    0.000    0.000    0.000    0.000    0.000 
#
# Total GULP energy -133674.152318 kJ/mol
# GULP energy per Si atom -5569.756347 kJ/mol
# Density = 2.007775 g / cm^3
# Si number density = 20.123553 Si / 1000 Ang^3
#
#
#
# Elastic Constant Matrix: (Units=GPa)
#
#
# Indices 1 2 3 4 5 6 
#
# 1 118.7258 23.5852 10.5206 0.0000 31.0267 0.0000
# 2 23.5852 76.9986 14.7077 0.0000 3.7254 0.0000
# 3 10.5206 14.7077 25.5421 0.0000 22.4174 0.0000
# 4 0.0000 0.0000 0.0000 13.7367 0.0000 3.3643
# 5 31.0267 3.7254 22.4174 0.0000 38.6532 0.0000
# 6 0.0000 0.0000 0.0000 3.3643 0.0000 21.0461
#
#
#
# Elastic Compliance Matrix: (Units=1/GPa)
#
#
# Indices 1 2 3 4 5 6 
#
# 1 0.012975 -0.005684 0.013419 0.000000 -0.017650 0.000000
# 2 -0.005684 0.018094 -0.021490 0.000000 0.015281 0.000000
# 3 0.013419 -0.021490 0.109236 0.000000 -0.072052 0.000000
# 4 0.000000 0.000000 0.000000 0.075764 0.000000 -0.012111
# 5 -0.017650 0.015281 -0.072052 0.000000 0.080353 0.000000
# 6 0.000000 0.000000 0.000000 -0.012111 0.000000 0.049451
#
#
# Mechanical properties :
#
#
# Convention : Reuss Voigt Hill
#
# Bulk Modulus (GPa) = 8.86557 35.43262 22.14909
# Shear Modulus (GPa) = 12.16606 26.18407 19.17507
#
# Velocity S-wave (km/s) = 2.46146 3.61108 3.09020
# Velocity P-wave (km/s) = 3.53462 5.91881 4.87472
#
# Compressibility (1/GPa) = 0.11279589
#
# Stress axis : x y z
#
# Youngs Moduli (GPa) = 77.07032 55.26824 9.15451
#
# Poissons Ratio (x) = 0.31412 -0.12284
# Poissons Ratio (y) = 0.43804 0.19673
# Poissons Ratio (z) = -1.03419 1.18769
#
# Static dielectric constant tensor:
#      x y z
#    x 1.791770 0.000000 0.030370 
#    y 0.000000 1.685930 0.000000 
#    z 0.030370 0.000000 1.725460 
# 
# From -- ./inp_files/174857.got.cif
#   From: 2010.05.17/outbox.cif.g08.bks.cpg/sg12_88_cif.got.tgz:174857.got - 2010.06.03 13:09:07.
