data_PCOD9179464
_publ_section_title
;
Structure prediction by ZEFSAII (Michael W. Deem and Ramdas Pophale) SiO2 
 PCOD9179464
Probable space group: C 2/M
;
_chemical_formula_sum "Si O2"
_cell_formula_units_Z 48
_cell_length_a 21.159085
_cell_length_b 7.483053
_cell_length_c 35.023722
_cell_angle_alpha 90.000000
_cell_angle_beta 155.189893
_cell_angle_gamma 90.000000
_cell_volume 2326.944990
_symmetry_space_group_name_H-M "C 2/M"
_symmetry_group_IT_number 12
_symmetry_cell_setting 'monoclinic'
loop_
_space_group_symop_operation_xyz
x,y,z
-x,y,-z
-x,-y,-z
x,-y,z
1/2+x,1/2+y,z
1/2-x,1/2+y,-z
1/2-x,1/2-y,-z
1/2+x,1/2-y,z
loop_
_atom_site_type_symbol
_atom_site_label
_atom_site_fract_x
_atom_site_fract_y
_atom_site_fract_z
Si Si1 0.523464 0.289236 0.901252
Si Si2 0.952330 0.290282 0.714116
Si Si3 0.339275 0.216131 0.395836
Si Si4 0.913934 0.714478 0.607393
Si Si5 0.335882 0.782957 0.103710
Si Si6 0.693828 0.219141 0.709979
O O1 0.517354 0.500000 0.906096
O O2 0.568327 0.267809 0.881306
O O3 0.355113 0.219218 0.814633
O O4 0.665652 0.217387 0.002995
O O5 0.986877 0.500000 0.728539
O O6 0.796765 0.274563 0.651885
O O7 0.932669 0.215445 0.660844
O O8 0.081979 0.216833 0.813154
O O9 0.500000 0.276098 0.500000
O O10 0.317758 0.275018 0.340469
O O11 0.338641 0.000000 0.395550
O O12 0.926912 0.500000 0.615978
O O13 0.750000 0.750000 0.500000
O O14 0.049475 0.778832 0.654774
O O15 0.333634 0.000000 0.103155
O O16 0.694584 0.000000 0.710491
#
# Coordination Sequence:
#
# PCOD9179464 Si02
#       6
#     8   8   8   8   8   8
#     4   9  16  29  50  73  97 128 164 200 241 289
#     4  10  20  33  49  73 103 130 157 200 254 298
#     4  10  19  31  50  73  95 124 167 211 243 283
#     4  10  21  37  53  70  98 134 168 202 245 295
#     4   9  17  29  47  74 103 127 156 198 249 297
#     4   9  17  31  50  72  96 127 167 205 239 283
#
# _framework density 20.627903
#
# number of rings (size 3 to 8) (size 9 to 14) (size 15 to 20)
#    0.000    2.500    1.667    1.000    0.000    2.333 
#    0.000    2.500    0.000    5.000    0.000    0.000 
#    0.000    8.000    0.000    0.000    0.000    0.000 
#
# Total GULP energy -133968.912999 kJ/mol
# GULP energy per Si atom -5582.038042 kJ/mol
# Density = 2.058095 g / cm^3
# Si number density = 20.627903 Si / 1000 Ang^3
#
#
#
# Elastic Constant Matrix: (Units=GPa)
#
#
# Indices 1 2 3 4 5 6 
#
# 1 112.2714 -12.1179 67.4788 0.0271 7.8656 0.0169
# 2 -12.1179 54.0937 -7.2112 0.0234 0.6599 0.0179
# 3 67.4788 -7.2112 185.4226 0.0279 10.1425 0.0191
# 4 0.0271 0.0234 0.0279 -81.8886 -0.0164 -30.9506
# 5 7.8656 0.6599 10.1425 -0.0164 37.6793 -0.0100
# 6 0.0169 0.0179 0.0191 -30.9506 -0.0100 3.6599
#
#
#
# Elastic Compliance Matrix: (Units=1/GPa)
#
#
# Indices 1 2 3 4 5 6 
#
# 1 0.011692 0.002090 -0.004099 0.000005 -0.001374 -0.000004
# 2 0.002090 0.018967 0.000019 0.000011 -0.000774 -0.000012
# 3 -0.004099 0.000019 0.006941 0.000002 -0.001013 -0.000002
# 4 0.000005 0.000011 0.000002 -0.002910 -0.000010 -0.024610
# 5 -0.001374 -0.000774 -0.001013 -0.000010 0.027113 0.000008
# 6 -0.000004 -0.000012 -0.000002 -0.024610 0.000008 0.065113
#
#
# Mechanical properties :
#
#
# Convention : Reuss Voigt Hill
#
# Bulk Modulus (GPa) = 29.74364 49.78746 39.76555
# Shear Modulus (GPa) = 35.18620 12.13266 23.65943
#
# Velocity S-wave (km/s) = 4.13456 2.42785 3.39036
# Velocity P-wave (km/s) = 6.10272 5.66106 5.88604
#
# Compressibility (1/GPa) = 0.03362064
#
# Stress axis : x y z
#
# Youngs Moduli (GPa) = 85.52724 52.72433 144.07550
#
# Poissons Ratio (x) = -0.11017 0.59050
# Poissons Ratio (y) = -0.17872 -0.00281
# Poissons Ratio (z) = 0.35054 -0.00103
#
# Static dielectric constant tensor:
#      x y z
#    x 1.687740 0.000000 -0.010920 
#    y 0.000000 1.775670 0.000000 
#    z -0.010920 0.000000 1.749150 
# 
# From -- ./inp_files/274058.got.cif
#   From: 2010.05.17/outbox.cif.g08.bks.cpg/sg12_138_cif.got.tgz:274058.got - 2010.06.03 13:09:07.
