data_PCOD9179900
_publ_section_title
;
Structure prediction by ZEFSAII (Michael W. Deem and Ramdas Pophale) SiO2 
 PCOD9179900
Probable space group: C 2/M
;
_chemical_formula_sum "Si O2"
_cell_formula_units_Z 56
_cell_length_a 19.885881
_cell_length_b 8.616581
_cell_length_c 31.131736
_cell_angle_alpha 90.000000
_cell_angle_beta 142.927974
_cell_angle_gamma 90.000000
_cell_volume 3215.657054
_symmetry_space_group_name_H-M "C 2/M"
_symmetry_group_IT_number 12
_symmetry_cell_setting 'monoclinic'
loop_
_space_group_symop_operation_xyz
x,y,z
-x,y,-z
-x,-y,-z
x,-y,z
1/2+x,1/2+y,z
1/2-x,1/2+y,-z
1/2-x,1/2-y,-z
1/2+x,1/2-y,z
loop_
_atom_site_type_symbol
_atom_site_label
_atom_site_fract_x
_atom_site_fract_y
_atom_site_fract_z
Si Si1 0.224280 0.313787 0.219594
Si Si2 0.019116 0.812003 0.655828
Si Si3 0.966198 0.187587 0.935024
Si Si4 0.367811 0.813612 0.656453
Si Si5 0.422862 0.686213 0.777974
Si Si6 0.626099 0.313607 0.938741
Si Si7 0.174418 0.813173 0.500235
O O1 0.221594 0.500000 0.220254
O O2 0.352536 0.263003 0.280560
O O3 0.148624 0.256996 0.141372
O O4 0.166694 0.247270 0.233105
O O5 0.953294 0.744880 0.663316
O O6 0.950045 0.766626 0.577451
O O7 0.016159 0.000000 0.657588
O O8 0.061679 0.232674 0.949493
O O9 0.956763 0.000000 0.929381
O O10 0.000000 0.235928 0.000000
O O11 0.398820 0.747661 0.718447
O O12 0.242508 0.764606 0.577301
O O13 0.371821 0.000000 0.659822
O O14 0.419770 0.500000 0.776561
O O15 0.544302 0.735564 0.858207
O O16 0.631434 0.500000 0.940895
O O17 0.750000 0.250000 0.000000
O O18 0.250000 0.750000 0.500000
O O19 0.176541 0.000000 0.500999
#
# Coordination Sequence:
#
# PCOD9179900 Si02
#       7
#     8   8   8   8   8   8   8
#     4  10  20  34  53  76 101 132 170 208 248 296
#     4   9  18  33  52  75 104 134 164 205 255 298
#     4   9  19  36  54  72  98 132 166 201 247 297
#     4  10  19  31  52  79 101 129 172 211 244 292
#     4  10  21  37  53  71 102 138 166 201 254 303
#     4   9  19  34  52  73  96 126 161 199 245 293
#     4   8  15  29  48  71 100 131 163 203 249 293
#
# _framework density 17.414793
#
# number of rings (size 3 to 8) (size 9 to 14) (size 15 to 20)
#    0.000    2.714    0.000    2.143    0.000    6.000 
#    0.000    3.571    0.000    4.286    0.000    0.000 
#    0.000    0.000    0.000    0.000    0.000    0.000 
#
# Total GULP energy -156005.538829 kJ/mol
# GULP energy per Si atom -5571.626387 kJ/mol
# Density = 1.737516 g / cm^3
# Si number density = 17.414793 Si / 1000 Ang^3
#
#
#
# Elastic Constant Matrix: (Units=GPa)
#
#
# Indices 1 2 3 4 5 6 
#
# 1 75.6462 25.8836 109.3477 0.0000 -0.2314 0.0001
# 2 25.8836 24.1719 43.1476 0.0001 0.1535 0.0001
# 3 109.3477 43.1476 220.2200 0.0000 -0.3319 0.0000
# 4 0.0000 0.0001 0.0000 26.3299 0.0000 -3.1502
# 5 -0.2314 0.1535 -0.3319 0.0000 35.9286 0.0000
# 6 0.0001 0.0001 0.0000 -3.1502 0.0000 25.1617
#
#
#
# Elastic Compliance Matrix: (Units=1/GPa)
#
#
# Indices 1 2 3 4 5 6 
#
# 1 0.049788 -0.014127 -0.021953 0.000000 0.000178 0.000000
# 2 -0.014127 0.067635 -0.006238 0.000000 -0.000438 0.000000
# 3 -0.021953 -0.006238 0.016664 0.000000 0.000039 0.000000
# 4 0.000000 0.000000 0.000000 0.038557 0.000000 0.004827
# 5 0.000178 -0.000438 0.000039 0.000000 0.027836 0.000000
# 6 0.000000 0.000000 0.000000 0.004827 0.000000 0.040347
#
#
# Mechanical properties :
#
#
# Convention : Reuss Voigt Hill
#
# Bulk Modulus (GPa) = 20.22233 75.19954 47.71094
# Shear Modulus (GPa) = 14.62214 26.92801 20.77508
#
# Velocity S-wave (km/s) = 2.90080 3.93653 3.45767
# Velocity P-wave (km/s) = 4.78088 7.99605 6.58763
#
# Compressibility (1/GPa) = 0.04945029
#
# Stress axis : x y z
#
# Youngs Moduli (GPa) = 20.08532 14.78517 60.01056
#
# Poissons Ratio (x) = 0.20887 1.31743
# Poissons Ratio (y) = 0.28375 0.37433
# Poissons Ratio (z) = 0.44094 0.09223
#
# Static dielectric constant tensor:
#      x y z
#    x 1.552730 0.000000 0.003050 
#    y 0.000000 1.593630 0.000000 
#    z 0.003050 0.000000 1.622120 
# 
# From -- ./inp_files/362922.got.cif
#   From: 2010.05.17/outbox.cif.g08.bks.cpg/sg12_182_cif.got.tgz:362922.got - 2010.06.03 13:09:07.
