data_PCOD9179522
_publ_section_title
;
Structure prediction by ZEFSAII (Michael W. Deem and Ramdas Pophale) SiO2 
 PCOD9179522
Probable space group: C 2/M
;
_chemical_formula_sum "Si O2"
_cell_formula_units_Z 56
_cell_length_a 16.224856
_cell_length_b 9.238977
_cell_length_c 16.991047
_cell_angle_alpha 90.000000
_cell_angle_beta 102.061184
_cell_angle_gamma 90.000000
_cell_volume 2490.751707
_symmetry_space_group_name_H-M "C 2/M"
_symmetry_group_IT_number 12
_symmetry_cell_setting 'monoclinic'
loop_
_space_group_symop_operation_xyz
x,y,z
-x,y,-z
-x,-y,-z
x,-y,z
1/2+x,1/2+y,z
1/2-x,1/2+y,-z
1/2-x,1/2-y,-z
1/2+x,1/2-y,z
loop_
_atom_site_type_symbol
_atom_site_label
_atom_site_fract_x
_atom_site_fract_y
_atom_site_fract_z
Si Si1 0.996628 0.667948 0.348464
Si Si2 0.354228 0.165967 0.751347
Si Si3 0.810900 0.826389 0.889119
Si Si4 0.234992 0.664521 0.615731
Si Si5 0.925639 0.829040 0.048244
Si Si6 0.620254 0.173947 0.809408
Si Si7 0.114619 0.834880 0.485175
O O1 0.988703 0.500000 0.372986
O O2 0.068682 0.669971 0.294509
O O3 0.034422 0.768298 0.424155
O O4 0.914684 0.717282 0.283238
O O5 0.367809 0.257563 0.832421
O O6 0.275084 0.235470 0.690115
O O7 0.338126 0.000000 0.768859
O O8 0.715962 0.784223 0.848177
O O9 0.817664 0.000000 0.886347
O O10 0.843301 0.783142 0.981488
O O11 0.222003 0.500000 0.641141
O O12 0.151745 0.730515 0.559658
O O13 0.308372 0.660209 0.563300
O O14 0.932329 0.741070 0.129557
O O15 0.920861 0.000000 0.065856
O O16 0.000000 0.809136 0.000000
O O17 0.613537 0.000000 0.810305
O O18 0.101449 0.000000 0.508773
#
# Coordination Sequence:
#
# PCOD9179522 Si02
#       7
#     8   8   8   8   8   8   8
#     4   9  18  32  49  72 101 132 169 211 254 300
#     4  10  19  31  50  75 101 131 170 213 253 298
#     4  10  21  36  52  73 103 136 169 206 252 304
#     4   9  16  27  45  70 102 136 167 206 255 301
#     4  10  21  36  55  79 105 132 165 208 255 301
#     4  10  21  36  54  75 101 135 172 208 248 300
#     4   9  16  26  44  72 102 132 168 209 253 300
#
# _framework density 22.483173000000001
#
# number of rings (size 3 to 8) (size 9 to 14) (size 15 to 20)
#    0.000    2.429    0.000    2.571    0.000    6.000 
#    0.000    0.000    0.000    0.857    0.000    6.000 
#    0.000    0.000    0.000    0.000    0.000    0.000 
#
# Total GULP energy -156590.230232 kJ/mol
# GULP energy per Si atom -5592.508223 kJ/mol
# Density = 2.243200 g / cm^3
# Si number density = 22.483173 Si / 1000 Ang^3
#
#
#
# Elastic Constant Matrix: (Units=GPa)
#
#
# Indices 1 2 3 4 5 6 
#
# 1 83.6105 14.5227 24.8223 0.0000 22.6716 0.0000
# 2 14.5227 17.4386 20.6258 0.0000 15.9154 0.0000
# 3 24.8223 20.6258 107.5446 0.0000 20.2977 0.0000
# 4 0.0000 0.0000 0.0000 29.5434 0.0000 -0.6592
# 5 22.6716 15.9154 20.2977 0.0000 45.4585 0.0000
# 6 0.0000 0.0000 0.0000 -0.6592 0.0000 16.6279
#
#
#
# Elastic Compliance Matrix: (Units=1/GPa)
#
#
# Indices 1 2 3 4 5 6 
#
# 1 0.014700 -0.006707 -0.001273 0.000000 -0.004415 0.000000
# 2 -0.006707 0.102955 -0.013132 0.000000 -0.026837 0.000000
# 3 -0.001273 -0.013132 0.012147 0.000000 -0.000191 0.000000
# 4 0.000000 0.000000 0.000000 0.033878 0.000000 0.001343
# 5 -0.004415 -0.026837 -0.000191 0.000000 0.033681 0.000000
# 6 0.000000 0.000000 0.000000 0.001343 0.000000 0.060193
#
#
# Mechanical properties :
#
#
# Convention : Reuss Voigt Hill
#
# Bulk Modulus (GPa) = 11.41857 36.50390 23.96123
# Shear Modulus (GPa) = 15.19883 28.23416 21.71650
#
# Velocity S-wave (km/s) = 2.60284 3.54756 3.11126
# Velocity P-wave (km/s) = 3.75803 5.74905 4.85666
#
# Compressibility (1/GPa) = 0.08757665
#
# Stress axis : x y z
#
# Youngs Moduli (GPa) = 68.02559 9.71298 82.32446
#
# Poissons Ratio (x) = 0.06515 0.10483
# Poissons Ratio (y) = 0.45625 1.08112
# Poissons Ratio (z) = 0.08662 0.12755
#
# Static dielectric constant tensor:
#      x y z
#    x 1.937130 0.000000 -0.006690 
#    y 0.000000 1.743120 0.000000 
#    z -0.006690 0.000000 1.790170 
# 
# From -- ./inp_files/275349.got.cif
#   From: 2010.05.17/outbox.cif.g08.bks.cpg/sg12_138_cif.got.tgz:275349.got - 2010.06.03 13:09:07.
