data_PCOD9179342
_publ_section_title
;
Structure prediction by ZEFSAII (Michael W. Deem and Ramdas Pophale) SiO2 
 PCOD9179342
Probable space group: C 2/M
;
_chemical_formula_sum "Si O2"
_cell_formula_units_Z 56
_cell_length_a 16.337546
_cell_length_b 9.341215
_cell_length_c 26.487166
_cell_angle_alpha 90.000000
_cell_angle_beta 38.960895
_cell_angle_gamma 90.000000
_cell_volume 2541.740425
_symmetry_space_group_name_H-M "C 2/M"
_symmetry_group_IT_number 12
_symmetry_cell_setting 'monoclinic'
loop_
_space_group_symop_operation_xyz
x,y,z
-x,y,-z
-x,-y,-z
x,-y,z
1/2+x,1/2+y,z
1/2-x,1/2+y,-z
1/2-x,1/2-y,-z
1/2+x,1/2-y,z
loop_
_atom_site_type_symbol
_atom_site_label
_atom_site_fract_x
_atom_site_fract_y
_atom_site_fract_z
Si Si1 0.436288 0.163154 0.385137
Si Si2 0.224661 0.666702 0.348144
Si Si3 0.360982 0.336124 0.515711
Si Si4 0.757873 0.167959 0.117117
Si Si5 0.519107 0.664649 0.249935
Si Si6 0.665094 0.325745 0.807252
Si Si7 0.877340 0.831320 0.956927
O O1 0.436139 0.236592 0.439843
O O2 0.286528 0.159640 0.436638
O O3 0.509318 0.253903 0.307897
O O4 0.483901 0.000000 0.364438
O O5 0.181625 0.500000 0.371777
O O6 0.149551 0.765196 0.424097
O O7 0.375939 0.669000 0.294144
O O8 0.237660 0.717845 0.284109
O O9 0.407232 0.500000 0.494574
O O10 0.629912 0.257588 0.164788
O O11 0.798112 0.215093 0.153729
O O12 0.869178 0.181574 0.021829
O O13 0.723082 0.000000 0.135914
O O14 0.553726 0.500000 0.240688
O O15 0.662905 0.500000 0.806395
O O16 0.516217 0.277772 0.870796
O O17 0.866518 0.000000 0.949603
O O18 0.750000 0.750000 0.000000
#
# Coordination Sequence:
#
# PCOD9179342 Si02
#       7
#     8   8   8   8   8   8   8
#     4   9  16  27  45  70 100 133 170 208 248 298
#     4   9  17  30  49  71  97 132 171 208 249 300
#     4   9  16  26  43  70 102 131 163 208 258 300
#     4  10  20  34  53  75 100 133 172 209 247 297
#     4  10  19  31  49  74 104 134 166 208 257 302
#     4   9  18  34  54  74  99 134 173 208 245 296
#     4  10  20  35  56  80 104 131 166 209 254 298
#
# _framework density 22.032147999999999
#
# number of rings (size 3 to 8) (size 9 to 14) (size 15 to 20)
#    0.000    2.571    0.000    2.571    0.000    7.429 
#    0.000    2.143    0.000    2.571    0.000    6.000 
#    0.000    0.000    0.000    0.000    0.000    0.000 
#
# Total GULP energy -156507.436407 kJ/mol
# GULP energy per Si atom -5589.551300 kJ/mol
# Density = 2.198200 g / cm^3
# Si number density = 22.032148 Si / 1000 Ang^3
#
#
#
# Elastic Constant Matrix: (Units=GPa)
#
#
# Indices 1 2 3 4 5 6 
#
# 1 82.5768 19.1882 19.2678 0.0000 11.9096 0.0000
# 2 19.1882 84.4600 40.4223 0.0000 13.3244 0.0000
# 3 19.2678 40.4223 100.8769 0.0000 10.4280 0.0000
# 4 0.0000 0.0000 0.0000 27.6235 0.0000 -0.5510
# 5 11.9096 13.3244 10.4280 0.0000 41.6158 0.0000
# 6 0.0000 0.0000 0.0000 -0.5510 0.0000 10.2561
#
#
#
# Elastic Compliance Matrix: (Units=1/GPa)
#
#
# Indices 1 2 3 4 5 6 
#
# 1 0.013301 -0.001854 -0.001504 0.000000 -0.002836 0.000000
# 2 -0.001854 0.015365 -0.005491 0.000000 -0.003013 0.000000
# 3 -0.001504 -0.005491 0.012498 0.000000 -0.000943 0.000000
# 4 0.000000 0.000000 0.000000 0.036240 0.000000 0.001947
# 5 -0.002836 -0.003013 -0.000943 0.000000 0.026042 0.000000
# 6 0.000000 0.000000 0.000000 0.001947 0.000000 0.097608
#
#
# Mechanical properties :
#
#
# Convention : Reuss Voigt Hill
#
# Bulk Modulus (GPa) = 42.61851 47.29670 44.95761
# Shear Modulus (GPa) = 22.06784 28.50143 25.28464
#
# Velocity S-wave (km/s) = 3.16827 3.60061 3.39134
# Velocity P-wave (km/s) = 5.72448 6.22893 5.98203
#
# Compressibility (1/GPa) = 0.02346398
#
# Stress axis : x y z
#
# Youngs Moduli (GPa) = 75.18327 65.08503 80.01148
#
# Poissons Ratio (x) = 0.12070 0.12036
# Poissons Ratio (y) = 0.13943 0.43935
# Poissons Ratio (z) = 0.11309 0.35739
#
# Static dielectric constant tensor:
#      x y z
#    x 1.887750 0.000000 0.002530 
#    y 0.000000 1.741330 0.000000 
#    z 0.002530 0.000000 1.790930 
# 
# From -- ./inp_files/362889.got.cif
#   From: 2010.05.17/outbox.cif.g08.bks.cpg/sg12_182_cif.got.tgz:362889.got - 2010.06.03 13:09:07.
