data_PCOD9179833
_publ_section_title
;
Structure prediction by ZEFSAII (Michael W. Deem and Ramdas Pophale) SiO2 
 PCOD9179833
Probable space group: C 2/M
;
_chemical_formula_sum "Si O2"
_cell_formula_units_Z 58
_cell_length_a 22.340454
_cell_length_b 10.004256
_cell_length_c 22.266424
_cell_angle_alpha 90.000000
_cell_angle_beta 142.196836
_cell_angle_gamma 90.000000
_cell_volume 3050.371971
_symmetry_space_group_name_H-M "C 2/M"
_symmetry_group_IT_number 12
_symmetry_cell_setting 'monoclinic'
loop_
_space_group_symop_operation_xyz
x,y,z
-x,y,-z
-x,-y,-z
x,-y,z
1/2+x,1/2+y,z
1/2-x,1/2+y,-z
1/2-x,1/2-y,-z
1/2+x,1/2-y,z
loop_
_atom_site_type_symbol
_atom_site_label
_atom_site_fract_x
_atom_site_fract_y
_atom_site_fract_z
Si Si1 0.424430 0.338126 0.271622
Si Si2 0.006787 0.222247 0.900140
Si Si3 0.813782 0.347814 0.782243
Si Si4 0.000000 0.000000 0.000000
Si Si5 0.732747 0.159801 0.616040
Si Si6 0.578479 0.344286 0.296497
Si Si7 0.293949 0.158391 0.908139
Si Si8 0.492509 0.154419 0.565719
O O1 0.428287 0.500000 0.282542
O O2 0.508736 0.289526 0.292972
O O3 0.316430 0.305965 0.161603
O O4 0.442242 0.260405 0.347555
O O5 0.927640 0.335944 0.854153
O O6 0.975667 0.169364 0.810334
O O7 0.118311 0.268706 0.989216
O O8 0.994295 0.114666 0.942621
O O9 0.779290 0.500000 0.745721
O O10 0.757026 0.242958 0.695295
O O11 0.803359 0.314255 0.844135
O O12 0.812171 0.206900 0.629727
O O13 0.621259 0.177587 0.508858
O O14 0.747321 0.000000 0.638851
O O15 0.589468 0.500000 0.320029
O O16 0.306338 0.000000 0.925991
O O17 0.500000 0.168321 0.500000
O O18 0.518395 0.000000 0.601075
#
# Coordination Sequence:
#
# PCOD9179833 Si02
#       8
#     8   8   8   2   8   8   8   8
#     4  10  22  39  57  77 108 149 187 221 271 330
#     4  11  20  33  54  81 114 141 188 225 273 318
#     4  10  19  31  51  81 110 138 175 223 275 322
#     4  12  20  32  54  92 104 150 188 236 262 332
#     4   9  19  34  57  79 108 143 176 221 280 331
#     4   9  19  36  54  78 109 145 183 226 268 325
#     4  10  20  34  51  74 107 147 181 224 274 321
#     4  10  21  39  58  85 112 139 176 232 286 328
#
# _framework density 19.014074000000001
#
# number of rings (size 3 to 8) (size 9 to 14) (size 15 to 20)
#    0.000    2.069    2.069    1.241    0.966    3.034 
#    1.241    3.448    0.000    0.000    0.000    0.000 
#    0.000    0.000    0.000    0.000    0.000    0.000 
#
# Total GULP energy -161455.196684 kJ/mol
# GULP energy per Si atom -5567.420575 kJ/mol
# Density = 1.897080 g / cm^3
# Si number density = 19.014074 Si / 1000 Ang^3
#
#
#
# Elastic Constant Matrix: (Units=GPa)
#
#
# Indices 1 2 3 4 5 6 
#
# 1 53.6234 -1.9877 2.5089 0.0000 11.5226 0.0000
# 2 -1.9877 29.7396 16.0113 0.0000 3.9009 0.0000
# 3 2.5089 16.0113 58.1817 0.0000 17.1379 0.0000
# 4 0.0000 0.0000 0.0000 -1.4075 0.0000 -5.1623
# 5 11.5226 3.9009 17.1379 0.0000 27.2344 0.0000
# 6 0.0000 0.0000 0.0000 -5.1623 0.0000 23.1576
#
#
#
# Elastic Compliance Matrix: (Units=1/GPa)
#
#
# Indices 1 2 3 4 5 6 
#
# 1 0.020804 0.001876 0.001545 0.000000 -0.010043 0.000000
# 2 0.001876 0.039689 -0.011164 0.000000 0.000547 0.000000
# 3 0.001545 -0.011164 0.024446 0.000000 -0.014438 0.000000
# 4 0.000000 0.000000 0.000000 -0.390887 0.000000 -0.087137
# 5 -0.010043 0.000547 -0.014438 0.000000 0.049974 0.000000
# 6 0.000000 0.000000 0.000000 -0.087137 0.000000 0.023758
#
#
# Mechanical properties :
#
#
# Convention : Reuss Voigt Hill
#
# Bulk Modulus (GPa) = 14.39835 19.40109 16.89972
# Shear Modulus (GPa) = -25.82945 18.13104 -3.84921
#
# Velocity S-wave (km/s) = -3.68970 3.09132 -1.42436
# Velocity P-wave (km/s) = 3.25007 4.79243 2.49043
#
# Compressibility (1/GPa) = 0.06945238
#
# Stress axis : x y z
#
# Youngs Moduli (GPa) = 48.06813 25.19559 40.90644
#
# Poissons Ratio (x) = -0.04727 -0.06319
# Poissons Ratio (y) = -0.09018 0.45669
# Poissons Ratio (z) = -0.07425 0.28129
#
# Static dielectric constant tensor:
#      x y z
#    x 1.697310 0.000000 0.041720 
#    y 0.000000 1.633280 0.000000 
#    z 0.041720 0.000000 1.648480 
# 
# From -- ./inp_files/346519.got.cif
#   From: 2010.05.17/outbox.cif.g08.bks.cpg/sg12_174_cif.got.tgz:346519.got - 2010.06.03 13:09:07.
