data_PCOD9179355
_publ_section_title
;
Structure prediction by ZEFSAII (Michael W. Deem and Ramdas Pophale) SiO2 
 PCOD9179355
Probable space group: C 2/M
;
_chemical_formula_sum "Si O2"
_cell_formula_units_Z 48
_cell_length_a 5.686642
_cell_length_b 23.933261
_cell_length_c 15.855864
_cell_angle_alpha 90.000000
_cell_angle_beta 65.749076
_cell_angle_gamma 90.000000
_cell_volume 1967.551148
_symmetry_space_group_name_H-M "C 2/M"
_symmetry_group_IT_number 12
_symmetry_cell_setting 'monoclinic'
loop_
_space_group_symop_operation_xyz
x,y,z
-x,y,-z
-x,-y,-z
x,-y,z
1/2+x,1/2+y,z
1/2-x,1/2+y,-z
1/2-x,1/2-y,-z
1/2+x,1/2-y,z
loop_
_atom_site_type_symbol
_atom_site_label
_atom_site_fract_x
_atom_site_fract_y
_atom_site_fract_z
Si Si1 0.803478 0.436302 0.357678
Si Si2 0.959256 0.154629 0.818983
Si Si3 0.740028 0.912018 0.008443
Si Si4 0.856980 0.269170 0.605246
Si Si5 0.715487 0.398822 0.627867
Si Si6 0.480018 0.842606 0.801029
O O1 0.825236 0.500000 0.322664
O O2 0.497089 0.422791 0.405251
O O3 0.912277 0.387299 0.281709
O O4 0.012660 0.430344 0.402158
O O5 0.061773 0.104810 0.741425
O O6 0.222306 0.185868 0.803563
O O7 0.837769 0.131319 0.922518
O O8 0.734320 0.185789 0.801509
O O9 0.500000 0.941884 0.000000
O O10 0.628624 0.879525 0.105200
O O11 0.000000 0.941632 0.000000
O O12 0.581258 0.237501 0.643120
O O13 0.782510 0.333886 0.602496
O O14 0.000000 0.247345 0.500000
#
# Coordination Sequence:
#
# PCOD9179355 Si02
#       6
#     8   8   8   8   8   8
#     4  10  19  31  49  74 107 146 183 215 247 291
#     4   8  14  23  39  61  87 121 164 202 246 295
#     4   8  12  20  34  53  82 117 162 206 245 284
#     4  10  21  38  61  87 110 130 158 206 269 327
#     4  10  19  33  53  75 104 138 172 209 258 311
#     4   8  14  23  37  57  87 125 170 209 243 278
#
# _framework density 24.395806
#
# number of rings (size 3 to 8) (size 9 to 14) (size 15 to 20)
#    0.000    3.000    0.000    1.500    0.000    0.000 
#    0.000    0.000    0.000   28.000    0.000    0.000 
#    0.000  100.000    0.000    0.000    0.000    0.000 
#
# Total GULP energy -133627.996509 kJ/mol
# GULP energy per Si atom -5567.833188 kJ/mol
# Density = 2.434028 g / cm^3
# Si number density = 24.395806 Si / 1000 Ang^3
#
#
#
# Elastic Constant Matrix: (Units=GPa)
#
#
# Indices 1 2 3 4 5 6 
#
# 1 325.9716 38.8380 10.9043 0.0000 -34.5740 0.0000
# 2 38.8380 104.3004 -1.7580 0.0000 -12.3975 0.0000
# 3 10.9043 -1.7580 76.9202 0.0000 -3.4072 0.0000
# 4 0.0000 0.0000 0.0000 -15.6133 0.0000 6.9073
# 5 -34.5740 -12.3975 -3.4072 0.0000 40.5239 0.0000
# 6 0.0000 0.0000 0.0000 6.9073 0.0000 3.3942
#
#
#
# Elastic Compliance Matrix: (Units=1/GPa)
#
#
# Indices 1 2 3 4 5 6 
#
# 1 0.003478 -0.000989 -0.000399 0.000000 0.002631 0.000000
# 2 -0.000989 0.010241 0.000477 0.000000 0.002329 0.000000
# 3 -0.000399 0.000477 0.013108 0.000000 0.000908 0.000000
# 4 0.000000 0.000000 0.000000 -0.033704 0.000000 0.068589
# 5 0.002631 0.002329 0.000908 0.000000 0.027711 0.000000
# 6 0.000000 0.000000 0.000000 0.068589 0.000000 0.155038
#
#
# Mechanical properties :
#
#
# Convention : Reuss Voigt Hill
#
# Bulk Modulus (GPa) = 39.99096 67.01787 53.50442
# Shear Modulus (GPa) = 26.87766 36.27482 31.57624
#
# Velocity S-wave (km/s) = 3.32284 3.86025 3.60158
# Velocity P-wave (km/s) = 5.58120 6.88473 6.26695
#
# Compressibility (1/GPa) = 0.02500565
#
# Stress axis : x y z
#
# Youngs Moduli (GPa) = 287.51946 97.64761 76.28822
#
# Poissons Ratio (x) = 0.09658 0.03045
# Poissons Ratio (y) = 0.28438 -0.03642
# Poissons Ratio (z) = 0.11475 -0.04662
#
# Static dielectric constant tensor:
#      x y z
#    x 2.092920 0.000000 0.023090 
#    y 0.000000 1.815200 0.000000 
#    z 0.023090 0.000000 1.951330 
# 
# From -- ./inp_files/297978.got.cif
#   From: 2010.05.17/outbox.cif.g08.bks.cpg/sg12_149_cif.got.tgz:297978.got - 2010.06.03 13:09:07.
