data_PCOD9179993
_publ_section_title
;
Structure prediction by ZEFSAII (Michael W. Deem and Ramdas Pophale) SiO2 
 PCOD9179993
Probable space group: C 2/M
;
_chemical_formula_sum "Si O2"
_cell_formula_units_Z 56
_cell_length_a 25.167834
_cell_length_b 9.198459
_cell_length_c 12.401486
_cell_angle_alpha 90.000000
_cell_angle_beta 72.921733
_cell_angle_gamma 90.000000
_cell_volume 2744.410939
_symmetry_space_group_name_H-M "C 2/M"
_symmetry_group_IT_number 12
_symmetry_cell_setting 'monoclinic'
loop_
_space_group_symop_operation_xyz
x,y,z
-x,y,-z
-x,-y,-z
x,-y,z
1/2+x,1/2+y,z
1/2-x,1/2+y,-z
1/2-x,1/2-y,-z
1/2+x,1/2-y,z
loop_
_atom_site_type_symbol
_atom_site_label
_atom_site_fract_x
_atom_site_fract_y
_atom_site_fract_z
Si Si1 0.228167 0.168536 0.794883
Si Si2 0.949290 0.828293 0.836864
Si Si3 0.149066 0.168372 0.631344
Si Si4 0.139529 0.332257 0.977251
Si Si5 0.940993 0.668611 0.183610
Si Si6 0.171091 0.670451 0.404354
Si Si7 0.048083 0.666823 0.384290
O O1 0.190433 0.174417 0.708813
O O2 0.197289 0.264421 0.902216
O O3 0.288316 0.216999 0.716793
O O4 0.230558 0.000000 0.828596
O O5 0.956541 0.779582 0.709408
O O6 0.001945 0.754880 0.864745
O O7 0.949957 0.000000 0.851210
O O8 0.892012 0.760324 0.914196
O O9 0.094870 0.259452 0.699022
O O10 0.176851 0.237467 0.509525
O O11 0.134535 0.000000 0.621382
O O12 0.145607 0.500000 0.005984
O O13 0.097885 0.325558 0.898782
O O14 0.952654 0.500000 0.199695
O O15 0.184060 0.500000 0.418796
O O16 0.107689 0.681151 0.404928
O O17 0.044010 0.500000 0.344836
O O18 0.000000 0.687229 0.500000
#
# Coordination Sequence:
#
# PCOD9179993 Si02
#       7
#     8   8   8   8   8   8   8
#     4   9  19  35  54  81 115 147 183 228 277 326
#     4  12  24  37  57  83 112 145 181 226 277 328
#     4  10  19  31  52  83 117 148 180 225 277 329
#     4  10  21  37  58  83 111 145 184 225 271 327
#     4  10  20  35  56  82 113 147 183 223 270 328
#     4  10  20  35  56  80 110 150 190 229 275 327
#     4  10  22  40  60  81 108 145 187 228 269 320
#
# _framework density 20.405107000000001
#
# number of rings (size 3 to 8) (size 9 to 14) (size 15 to 20)
#    0.000    1.857    0.000    4.286    0.000    6.571 
#    0.000    0.714    0.000    0.000    0.000    0.000 
#    0.000    0.000    0.000    0.000    0.000    0.000 
#
# Total GULP energy -156532.282663 kJ/mol
# GULP energy per Si atom -5590.438667 kJ/mol
# Density = 2.035866 g / cm^3
# Si number density = 20.405107 Si / 1000 Ang^3
#
#
#
# Elastic Constant Matrix: (Units=GPa)
#
#
# Indices 1 2 3 4 5 6 
#
# 1 52.9757 29.3353 31.2277 0.0000 -36.0758 0.0000
# 2 29.3353 132.9865 48.9289 0.0000 -27.4620 0.0000
# 3 31.2277 48.9289 57.3989 0.0000 -37.1341 0.0000
# 4 0.0000 0.0000 0.0000 32.0587 0.0000 -6.6977
# 5 -36.0758 -27.4620 -37.1341 0.0000 40.7543 0.0000
# 6 0.0000 0.0000 0.0000 -6.6977 0.0000 21.7583
#
#
#
# Elastic Compliance Matrix: (Units=1/GPa)
#
#
# Indices 1 2 3 4 5 6 
#
# 1 0.048947 -0.003631 0.007098 0.000000 0.047349 0.000000
# 2 -0.003631 0.011352 -0.011771 0.000000 -0.006290 0.000000
# 3 0.007098 -0.011771 0.054876 0.000000 0.048352 0.000000
# 4 0.000000 0.000000 0.000000 0.033337 0.000000 0.010262
# 5 0.047349 -0.006290 0.048352 0.000000 0.106269 0.000000
# 6 0.000000 0.000000 0.000000 0.010262 0.000000 0.049118
#
#
# Mechanical properties :
#
#
# Convention : Reuss Voigt Hill
#
# Bulk Modulus (GPa) = 10.14540 51.37166 30.75853
# Shear Modulus (GPa) = 14.14972 27.83887 20.99430
#
# Velocity S-wave (km/s) = 2.63618 3.69766 3.21109
# Velocity P-wave (km/s) = 3.77475 6.59248 5.37166
#
# Compressibility (1/GPa) = 0.09856679
#
# Stress axis : x y z
#
# Youngs Moduli (GPa) = 20.43019 88.08636 18.22297
#
# Poissons Ratio (x) = 0.31984 -0.12934
# Poissons Ratio (y) = 0.07418 0.21450
# Poissons Ratio (z) = -0.14501 1.03686
#
# Static dielectric constant tensor:
#      x y z
#    x 1.738490 0.000000 0.008820 
#    y 0.000000 1.693820 0.000000 
#    z 0.008820 0.000000 1.724910 
# 
# From -- ./inp_files/180768.got.cif
#   From: 2010.05.17/outbox.cif.g08.bks.cpg/sg12_91_cif.got.tgz:180768.got - 2010.06.03 13:09:07.
