data_PCOD9179365
_publ_section_title
;
Structure prediction by ZEFSAII (Michael W. Deem and Ramdas Pophale) SiO2 
 PCOD9179365
Probable space group: C 2/M
;
_chemical_formula_sum "Si O2"
_cell_formula_units_Z 64
_cell_length_a 24.443026
_cell_length_b 8.678515
_cell_length_c 17.515488
_cell_angle_alpha 90.000000
_cell_angle_beta 85.816008
_cell_angle_gamma 90.000000
_cell_volume 3705.643593
_symmetry_space_group_name_H-M "C 2/M"
_symmetry_group_IT_number 12
_symmetry_cell_setting 'monoclinic'
loop_
_space_group_symop_operation_xyz
x,y,z
-x,y,-z
-x,-y,-z
x,-y,z
1/2+x,1/2+y,z
1/2-x,1/2+y,-z
1/2-x,1/2-y,-z
1/2+x,1/2-y,z
loop_
_atom_site_type_symbol
_atom_site_label
_atom_site_fract_x
_atom_site_fract_y
_atom_site_fract_z
Si Si1 0.461358 0.184070 0.833690
Si Si2 0.664226 0.686137 0.872782
Si Si3 0.120764 0.185667 0.041563
Si Si4 0.574637 0.686340 0.762467
Si Si5 0.367453 0.183919 0.721090
Si Si6 0.451045 0.687162 0.403675
Si Si7 0.785718 0.815973 0.846579
Si Si8 0.423370 0.686024 0.572581
O O1 0.432567 0.241419 0.914020
O O2 0.519911 0.257398 0.810439
O O3 0.419065 0.229983 0.770008
O O4 0.465704 0.000000 0.833589
O O5 0.667356 0.500000 0.872675
O O6 0.627937 0.735808 0.804185
O O7 0.725390 0.750436 0.864562
O O8 0.633330 0.732432 0.953869
O O9 0.173065 0.230121 0.088811
O O10 0.115471 0.000000 0.045108
O O11 0.573816 0.500000 0.761858
O O12 0.572086 0.740893 0.674900
O O13 0.314179 0.254490 0.766712
O O14 0.380345 0.242978 0.635326
O O15 0.363586 0.000000 0.722559
O O16 0.450079 0.500000 0.403729
O O17 0.420193 0.735137 0.484294
O O18 0.515091 0.730293 0.406144
O O19 0.783769 0.000000 0.845123
O O20 0.419917 0.500000 0.576325
#
# Coordination Sequence:
#
# PCOD9179365 Si02
#       8
#     8   8   8   8   8   8   8   8
#     4  10  20  32  48  73 102 132 164 203 247 286
#     4  10  21  35  52  74  98 128 166 207 247 289
#     4   9  19  35  53  73  97 127 164 205 250 296
#     4  10  19  33  52  71 100 138 167 194 238 298
#     4  10  19  31  49  75 104 129 159 205 253 289
#     4   8  15  27  47  74 101 131 163 196 234 287
#     4  10  20  34  54  74  95 128 166 206 249 293
#     4   9  15  27  49  75 101 128 163 200 236 287
#
# _framework density 17.270954
#
# number of rings (size 3 to 8) (size 9 to 14) (size 15 to 20)
#    0.000    2.500    1.250    2.250    0.000    3.000 
#    0.000    4.375    0.000    0.750    0.000    0.000 
#    0.000    0.000    0.000    0.000    0.000    0.000 
#
# Total GULP energy -178483.939769 kJ/mol
# GULP energy per Si atom -5577.623118 kJ/mol
# Density = 1.723165 g / cm^3
# Si number density = 17.270954 Si / 1000 Ang^3
#
#
#
# Elastic Constant Matrix: (Units=GPa)
#
#
# Indices 1 2 3 4 5 6 
#
# 1 8.1544 5.4102 14.7081 0.0000 12.2431 0.0000
# 2 5.4102 7.7665 16.4898 0.0000 2.9311 0.0000
# 3 14.7081 16.4898 124.0574 0.0000 2.9626 0.0000
# 4 0.0000 0.0000 0.0000 13.9495 0.0000 -7.2653
# 5 12.2431 2.9311 2.9626 0.0000 17.3333 0.0000
# 6 0.0000 0.0000 0.0000 -7.2653 0.0000 24.3007
#
#
#
# Elastic Compliance Matrix: (Units=1/GPa)
#
#
# Indices 1 2 3 4 5 6 
#
# 1 -0.427005 0.140147 0.025464 0.000000 0.273557 0.000000
# 2 0.140147 0.146248 -0.033236 0.000000 -0.118041 0.000000
# 3 0.025464 -0.033236 0.009795 0.000000 -0.014040 0.000000
# 4 0.000000 0.000000 0.000000 0.084908 0.000000 0.025385
# 5 0.273557 -0.118041 -0.014040 0.000000 -0.113170 0.000000
# 6 0.000000 0.000000 0.000000 0.025385 0.000000 0.048741
#
#
# Mechanical properties :
#
#
# Convention : Reuss Voigt Hill
#
# Bulk Modulus (GPa) = -160.98050 23.68826 -68.64612
# Shear Modulus (GPa) = -9.66552 18.00806 4.17127
#
# Velocity S-wave (km/s) = -2.36824 3.23256 1.55577
# Velocity P-wave (km/s) = 10.04436 5.26099 6.05026
#
# Compressibility (1/GPa) = -0.00621193
#
# Stress axis : x y z
#
# Youngs Moduli (GPa) = -2.34190 6.83769 102.09476
#
# Poissons Ratio (x) = -0.95828 -2.59977
# Poissons Ratio (y) = 0.32821 3.39324
# Poissons Ratio (z) = 0.05963 0.22726
#
# Static dielectric constant tensor:
#      x y z
#    x 1.554290 0.000000 0.014590 
#    y 0.000000 1.576500 0.000000 
#    z 0.014590 0.000000 1.603120 
# 
# From -- ./inp_files/287608.got.cif
#   From: 2010.05.17/outbox.cif.g08.bks.cpg/sg12_144_cif.got.tgz:287608.got - 2010.06.03 13:09:07.
