data_PCOD9179292
_publ_section_title
;
Structure prediction by ZEFSAII (Michael W. Deem and Ramdas Pophale) SiO2 
 PCOD9179292
Probable space group: C 2/M
;
_chemical_formula_sum "Si O2"
_cell_formula_units_Z 48
_cell_length_a 23.480058
_cell_length_b 8.916697
_cell_length_c 17.887191
_cell_angle_alpha 90.000000
_cell_angle_beta 130.097661
_cell_angle_gamma 90.000000
_cell_volume 2864.686223
_symmetry_space_group_name_H-M "C 2/M"
_symmetry_group_IT_number 12
_symmetry_cell_setting 'monoclinic'
loop_
_space_group_symop_operation_xyz
x,y,z
-x,y,-z
-x,-y,-z
x,-y,z
1/2+x,1/2+y,z
1/2-x,1/2+y,-z
1/2-x,1/2-y,-z
1/2+x,1/2-y,z
loop_
_atom_site_type_symbol
_atom_site_label
_atom_site_fract_x
_atom_site_fract_y
_atom_site_fract_z
Si Si1 0.217089 0.826121 0.741291
Si Si2 0.462728 0.829296 0.246747
Si Si3 0.426803 0.835095 0.390714
Si Si4 0.631887 0.818791 0.396239
Si Si5 0.749871 0.678974 0.382033
Si Si6 0.193786 0.180040 0.893114
O O1 0.130848 0.797498 0.648179
O O2 0.256906 0.736843 0.708512
O O3 0.219261 0.774004 0.829939
O O4 0.237616 0.000000 0.755695
O O5 0.451210 0.839750 0.325860
O O6 0.546830 0.768297 0.309924
O O7 0.390314 0.736134 0.160862
O O8 0.458972 0.000000 0.212866
O O9 0.500000 0.817581 0.500000
O O10 0.392350 0.000000 0.380150
O O11 0.686498 0.753238 0.379766
O O12 0.671345 0.781336 0.509468
O O13 0.630498 0.000000 0.391529
O O14 0.742988 0.500000 0.378641
O O15 0.195253 0.000000 0.896370
O O16 0.250000 0.250000 0.000000
#
# Coordination Sequence:
#
# PCOD9179292 Si02
#       6
#     8   8   8   8   8   8
#     4  10  20  32  47  70  98 127 161 201 244 291
#     4   9  17  30  49  71  97 129 162 198 242 290
#     4   9  16  27  44  67  96 128 160 193 232 284
#     4   9  18  32  49  72 103 138 172 202 235 280
#     4  10  19  31  49  73 102 138 174 203 235 279
#     4  10  21  36  54  75  97 123 159 204 255 304
#
# _framework density 16.755762000000001
#
# number of rings (size 3 to 8) (size 9 to 14) (size 15 to 20)
#    0.000    2.500    0.000    2.500    0.000    6.333 
#    0.000    3.333    0.000    1.000    0.000    7.000 
#    0.000    0.000    0.000    0.000    0.000    0.000 
#
# Total GULP energy -133609.329884 kJ/mol
# GULP energy per Si atom -5567.055412 kJ/mol
# Density = 1.671763 g / cm^3
# Si number density = 16.755762 Si / 1000 Ang^3
#
#
#
# Elastic Constant Matrix: (Units=GPa)
#
#
# Indices 1 2 3 4 5 6 
#
# 1 76.6385 23.9384 48.5337 0.0000 3.9183 0.0000
# 2 23.9384 28.1980 40.2677 0.0000 1.5192 0.0000
# 3 48.5337 40.2677 111.4293 0.0000 7.4622 0.0000
# 4 0.0000 0.0000 0.0000 18.2593 0.0000 0.7077
# 5 3.9183 1.5192 7.4622 0.0000 24.4938 0.0000
# 6 0.0000 0.0000 0.0000 0.7077 0.0000 26.5370
#
#
#
# Elastic Compliance Matrix: (Units=1/GPa)
#
#
# Indices 1 2 3 4 5 6 
#
# 1 0.019071 -0.009028 -0.004979 0.000000 -0.000974 0.000000
# 2 -0.009028 0.077865 -0.024479 0.000000 0.004072 0.000000
# 3 -0.004979 -0.024479 0.020247 0.000000 -0.003854 0.000000
# 4 0.000000 0.000000 0.000000 0.054823 0.000000 -0.001462
# 5 -0.000974 0.004072 -0.003854 0.000000 0.041904 0.000000
# 6 0.000000 0.000000 0.000000 -0.001462 0.000000 0.037722
#
#
# Mechanical properties :
#
#
# Convention : Reuss Voigt Hill
#
# Bulk Modulus (GPa) = 24.86837 49.08283 36.97560
# Shear Modulus (GPa) = 14.61960 20.75975 17.68968
#
# Velocity S-wave (km/s) = 2.95704 3.52371 3.25274
# Velocity P-wave (km/s) = 5.15098 6.77584 6.01850
#
# Compressibility (1/GPa) = 0.04021173
#
# Stress axis : x y z
#
# Youngs Moduli (GPa) = 52.43591 12.84281 49.39003
#
# Poissons Ratio (x) = 0.11594 0.24591
# Poissons Ratio (y) = 0.47337 1.20902
# Poissons Ratio (z) = 0.26107 0.31438
#
# Static dielectric constant tensor:
#      x y z
#    x 1.593040 0.000000 0.014210 
#    y 0.000000 1.588760 0.000000 
#    z 0.014210 0.000000 1.591690 
# 
# From -- ./inp_files/281813.got.cif
#   From: 2010.05.17/outbox.cif.g08.bks.cpg/sg12_141_cif.got.tgz:281813.got - 2010.06.03 13:09:07.
