data_PCOD9179053
_publ_section_title
;
Structure prediction by ZEFSAII (Michael W. Deem and Ramdas Pophale) SiO2 
 PCOD9179053
Probable space group: C 2/M
;
_chemical_formula_sum "Si O2"
_cell_formula_units_Z 40
_cell_length_a 11.865484
_cell_length_b 30.945551
_cell_length_c 6.817750
_cell_angle_alpha 90.000000
_cell_angle_beta 148.609459
_cell_angle_gamma 90.000000
_cell_volume 1303.926225
_symmetry_space_group_name_H-M "C 2/M"
_symmetry_group_IT_number 12
_symmetry_cell_setting 'monoclinic'
loop_
_space_group_symop_operation_xyz
x,y,z
-x,y,-z
-x,-y,-z
x,-y,z
1/2+x,1/2+y,z
1/2-x,1/2+y,-z
1/2-x,1/2-y,-z
1/2+x,1/2-y,z
loop_
_atom_site_type_symbol
_atom_site_label
_atom_site_fract_x
_atom_site_fract_y
_atom_site_fract_z
Si Si1 0.217223 0.949748 0.240227
Si Si2 0.756583 0.833837 0.713631
Si Si3 0.700985 0.143509 0.087288
Si Si4 0.210014 0.260339 0.171742
Si Si5 0.684650 0.050585 0.072739
O O1 0.272651 0.941499 0.097048
O O2 0.423372 0.948073 0.690408
O O3 0.174093 0.000000 0.163107
O O4 0.000000 0.928662 0.000000
O O5 0.562796 0.857226 0.310297
O O6 0.754241 0.849876 0.934990
O O7 0.676002 0.784036 0.586303
O O8 0.000000 0.836631 0.000000
O O9 0.777891 0.189280 0.294969
O O10 0.776948 0.097060 0.281740
O O11 0.250000 0.250000 0.000000
O O12 0.000000 0.256486 0.000000
O O13 0.753328 0.000000 0.220191
#
# Coordination Sequence:
#
# PCOD9179053 Si02
#       5
#     8   8   8   8   8
#     4   8  13  22  37  57  85 121 158 199 246 289
#     4   9  18  31  49  72  99 129 164 207 257 307
#     4  10  19  31  48  71 100 132 166 207 251 298
#     4   9  19  35  54  76 102 134 170 211 259 309
#     4   9  17  26  38  61  92 126 162 198 240 289
#
# _framework density 30.676583000000001
#
# number of rings (size 3 to 8) (size 9 to 14) (size 15 to 20)
#    0.000    3.000    0.000    3.600    0.000    6.400 
#    0.000    2.000    0.000    0.600    0.000    0.000 
#    0.000    0.000    0.000   42.000    0.000    0.000 
#
# Total GULP energy -111731.550250 kJ/mol
# GULP energy per Si atom -5586.577512 kJ/mol
# Density = 3.060676 g / cm^3
# Si number density = 30.676583 Si / 1000 Ang^3
#
#
#
# Elastic Constant Matrix: (Units=GPa)
#
#
# Indices 1 2 3 4 5 6 
#
# 1 157.1148 51.9873 65.8970 0.0000 15.8429 0.0000
# 2 51.9873 338.7929 13.4935 0.0000 -5.6368 0.0000
# 3 65.8970 13.4935 146.4224 0.0000 42.0574 0.0000
# 4 0.0000 0.0000 0.0000 15.9099 0.0000 -2.5600
# 5 15.8429 -5.6368 42.0574 0.0000 60.2549 0.0000
# 6 0.0000 0.0000 0.0000 -2.5600 0.0000 30.5663
#
#
#
# Elastic Compliance Matrix: (Units=1/GPa)
#
#
# Indices 1 2 3 4 5 6 
#
# 1 0.008255 -0.001114 -0.003701 0.000000 0.000309 0.000000
# 2 -0.001114 0.003129 0.000056 0.000000 0.000547 0.000000
# 3 -0.003701 0.000056 0.010267 0.000000 -0.006188 0.000000
# 4 0.000000 0.000000 0.000000 0.063713 0.000000 0.005336
# 5 0.000309 0.000547 -0.006188 0.000000 0.020886 0.000000
# 6 0.000000 0.000000 0.000000 0.005336 0.000000 0.033163
#
#
# Mechanical properties :
#
#
# Convention : Reuss Voigt Hill
#
# Bulk Modulus (GPa) = 82.41678 100.56507 91.49093
# Shear Modulus (GPa) = 32.68513 55.40970 44.04741
#
# Velocity S-wave (km/s) = 3.26770 4.25462 3.79339
# Velocity P-wave (km/s) = 6.41575 7.54912 7.00539
#
# Compressibility (1/GPa) = 0.01213345
#
# Stress axis : x y z
#
# Youngs Moduli (GPa) = 121.14565 319.54210 97.39512
#
# Poissons Ratio (x) = 0.35601 0.36045
# Poissons Ratio (y) = 0.13497 -0.00545
# Poissons Ratio (z) = 0.44835 -0.01790
#
# Static dielectric constant tensor:
#      x y z
#    x 2.714620 0.000000 -0.032970 
#    y 0.000000 2.307360 0.000000 
#    z -0.032970 0.000000 2.564850 
# 
# From -- ./inp_files/150050.got.cif
#   From: 2010.05.17/outbox.cif.g08.bks.cpg/sg12_76_cif.got.tgz:150050.got - 2010.06.03 13:09:07.
