data_PCOD9179431
_publ_section_title
;
Structure prediction by ZEFSAII (Michael W. Deem and Ramdas Pophale) SiO2 
 PCOD9179431
Probable space group: C 2/M
;
_chemical_formula_sum "Si O2"
_cell_formula_units_Z 56
_cell_length_a 17.138709
_cell_length_b 18.295076
_cell_length_c 19.082941
_cell_angle_alpha 90.000000
_cell_angle_beta 150.491410
_cell_angle_gamma 90.000000
_cell_volume 2947.212954
_symmetry_space_group_name_H-M "C 2/M"
_symmetry_group_IT_number 12
_symmetry_cell_setting 'monoclinic'
loop_
_space_group_symop_operation_xyz
x,y,z
-x,y,-z
-x,-y,-z
x,-y,z
1/2+x,1/2+y,z
1/2-x,1/2+y,-z
1/2-x,1/2-y,-z
1/2+x,1/2-y,z
loop_
_atom_site_type_symbol
_atom_site_label
_atom_site_fract_x
_atom_site_fract_y
_atom_site_fract_z
Si Si1 0.843697 0.779462 0.242083
Si Si2 0.637206 0.280977 0.202779
Si Si3 0.209943 0.211184 0.542490
Si Si4 0.231147 0.916510 0.468953
Si Si5 0.824495 0.583814 0.392101
Si Si6 0.715964 0.311497 0.031196
Si Si7 0.145115 0.085626 0.853361
O O1 0.714496 0.765841 0.201123
O O2 0.806854 0.852988 0.167403
O O3 0.022146 0.785386 0.410740
O O4 0.841959 0.708146 0.189641
O O5 0.689266 0.243203 0.316053
O O6 0.717585 0.360702 0.265563
O O7 0.450731 0.294021 0.061431
O O8 0.250000 0.250000 0.500000
O O9 0.252838 0.128479 0.556208
O O10 0.325801 0.891582 0.474250
O O11 0.046917 0.910285 0.300697
O O12 0.269995 0.000000 0.511969
O O13 0.765294 0.500000 0.344313
O O14 0.000000 0.585549 0.500000
O O15 0.702416 0.385048 0.974428
O O16 0.750000 0.250000 0.000000
O O17 0.188304 0.000000 0.875116
#
# Coordination Sequence:
#
# PCOD9179431 Si02
#       7
#     8   8   8   8   8   8   8
#     4  10  22  35  54  84 113 143 181 231 285 328
#     4  12  21  35  56  82 115 147 182 231 281 338
#     4  11  19  33  54  82 107 145 189 228 269 331
#     4   9  17  31  51  77 109 143 184 228 273 327
#     4  10  19  31  49  79 114 148 181 223 283 337
#     4  10  20  37  57  80 105 144 187 232 275 328
#     4   9  17  35  60  81 104 146 193 226 269 334
#
# _framework density 19.001002
#
# number of rings (size 3 to 8) (size 9 to 14) (size 15 to 20)
#    0.000    1.857    2.857    3.429    0.000    0.000 
#    0.000    1.429    0.000   20.571    0.000    0.000 
#    0.000    0.000    0.000    0.000    0.000    0.000 
#
# Total GULP energy -156095.771329 kJ/mol
# GULP energy per Si atom -5574.848976 kJ/mol
# Density = 1.895775 g / cm^3
# Si number density = 19.001002 Si / 1000 Ang^3
#
#
#
# Elastic Constant Matrix: (Units=GPa)
#
#
# Indices 1 2 3 4 5 6 
#
# 1 92.0224 32.3508 6.4323 0.0039 7.7818 -0.0003
# 2 32.3508 93.9650 17.7137 0.0056 -0.6387 0.0041
# 3 6.4323 17.7137 29.9101 0.0091 -2.9019 0.0057
# 4 0.0039 0.0056 0.0091 21.5935 0.0087 -2.4299
# 5 7.7818 -0.6387 -2.9019 0.0087 29.5159 0.0027
# 6 -0.0003 0.0041 0.0057 -2.4299 0.0027 30.5893
#
#
#
# Elastic Compliance Matrix: (Units=1/GPa)
#
#
# Indices 1 2 3 4 5 6 
#
# 1 0.012711 -0.004301 -0.000526 0.000001 -0.003496 0.000001
# 2 -0.004301 0.013441 -0.006963 0.000000 0.000740 -0.000001
# 3 -0.000526 -0.006963 0.038032 -0.000017 0.003727 -0.000008
# 4 0.000001 0.000000 -0.000017 0.046728 -0.000016 0.003712
# 5 -0.003496 0.000740 0.003727 -0.000016 0.035184 -0.000005
# 6 0.000001 -0.000001 -0.000008 0.003712 -0.000005 0.032986
#
#
# Mechanical properties :
#
#
# Convention : Reuss Voigt Hill
#
# Bulk Modulus (GPa) = 24.62791 36.54345 30.58568
# Shear Modulus (GPa) = 23.12706 26.96645 25.04675
#
# Velocity S-wave (km/s) = 3.49255 3.77133 3.63461
# Velocity P-wave (km/s) = 5.40864 6.18369 5.80911
#
# Compressibility (1/GPa) = 0.04060435
#
# Stress axis : x y z
#
# Youngs Moduli (GPa) = 78.67001 74.40071 26.29360
#
# Poissons Ratio (x) = 0.32000 0.01382
# Poissons Ratio (y) = 0.33836 0.18309
# Poissons Ratio (z) = 0.04135 0.51807
#
# Static dielectric constant tensor:
#      x y z
#    x 1.670040 0.000010 -0.017170 
#    y 0.000010 1.756600 -0.000140 
#    z -0.017170 -0.000140 1.751910 
# 
# From -- ./inp_files/317152.got.cif
#   From: 2010.05.17/outbox.cif.g08.bks.cpg/sg12_159_cif.got.tgz:317152.got - 2010.06.03 13:09:07.
