data_PCOD9179092
_publ_section_title
;
Structure prediction by ZEFSAII (Michael W. Deem and Ramdas Pophale) SiO2 
 PCOD9179092
Probable space group: C 2/M
;
_chemical_formula_sum "Si O2"
_cell_formula_units_Z 56
_cell_length_a 23.917587
_cell_length_b 8.740753
_cell_length_c 16.596941
_cell_angle_alpha 90.000000
_cell_angle_beta 56.490569
_cell_angle_gamma 90.000000
_cell_volume 2893.033926
_symmetry_space_group_name_H-M "C 2/M"
_symmetry_group_IT_number 12
_symmetry_cell_setting 'monoclinic'
loop_
_space_group_symop_operation_xyz
x,y,z
-x,y,-z
-x,-y,-z
x,-y,z
1/2+x,1/2+y,z
1/2-x,1/2+y,-z
1/2-x,1/2-y,-z
1/2+x,1/2-y,z
loop_
_atom_site_type_symbol
_atom_site_label
_atom_site_fract_x
_atom_site_fract_y
_atom_site_fract_z
Si Si1 0.626146 0.814927 0.706375
Si Si2 0.958877 0.316086 0.371947
Si Si3 0.752945 0.178510 0.702532
Si Si4 0.597405 0.676760 0.427969
Si Si5 0.419210 0.681498 0.830172
Si Si6 0.993181 0.684163 0.912549
Si Si7 0.333519 0.179524 0.771969
O O1 0.605169 0.770165 0.632900
O O2 0.694083 0.757869 0.693681
O O3 0.562953 0.775513 0.812997
O O4 0.630754 0.000000 0.700973
O O5 0.961396 0.500000 0.377006
O O6 0.950688 0.240791 0.465588
O O7 0.021709 0.258712 0.269986
O O8 0.825383 0.183355 0.601266
O O9 0.768261 0.263110 0.774768
O O10 0.739115 0.000000 0.731775
O O11 0.582955 0.500000 0.419214
O O12 0.607367 0.775545 0.339252
O O13 0.424743 0.500000 0.821565
O O14 0.433638 0.739381 0.908926
O O15 0.351335 0.735734 0.840392
O O16 0.985118 0.500000 0.914338
O O17 0.000000 0.728307 0.000000
O O18 0.332185 0.000000 0.785302
#
# Coordination Sequence:
#
# PCOD9179092 Si02
#       7
#     8   8   8   8   8   8   8
#     4   8  15  30  51  73 100 132 162 198 245 294
#     4  10  19  31  48  72 100 132 171 210 247 288
#     4   8  16  31  48  68  97 133 168 202 243 289
#     4   9  18  31  46  69  99 133 170 207 246 288
#     4  11  21  34  52  73 100 132 163 202 249 297
#     4   9  18  34  57  83 106 128 157 195 242 295
#     4  10  19  33  50  70  95 129 171 210 246 288
#
# _framework density 19.356842
#
# number of rings (size 3 to 8) (size 9 to 14) (size 15 to 20)
#    0.857    1.857    0.000    3.857    0.000    1.429 
#    0.000    6.429    0.000    0.857    0.000    0.000 
#    0.000    0.000    0.000    0.000    0.000    0.000 
#
# Total GULP energy -155918.328206 kJ/mol
# GULP energy per Si atom -5568.511722 kJ/mol
# Density = 1.931279 g / cm^3
# Si number density = 19.356842 Si / 1000 Ang^3
#
#
#
# Elastic Constant Matrix: (Units=GPa)
#
#
# Indices 1 2 3 4 5 6 
#
# 1 95.1661 8.3117 6.3385 0.0000 24.6773 0.0000
# 2 8.3117 66.3120 9.1870 -0.0001 13.7995 -0.0001
# 3 6.3385 9.1870 34.2214 0.0000 28.3086 0.0000
# 4 0.0000 -0.0001 0.0000 12.5728 0.0000 6.1347
# 5 24.6773 13.7995 28.3086 0.0000 28.1596 0.0000
# 6 0.0000 -0.0001 0.0000 6.1347 0.0000 22.4972
#
#
#
# Elastic Compliance Matrix: (Units=1/GPa)
#
#
# Indices 1 2 3 4 5 6 
#
# 1 0.124848 0.042103 0.434348 0.000003 -0.566687 -0.000001
# 2 0.042103 0.032139 0.161065 0.000001 -0.214564 0.000000
# 3 0.434348 0.161065 1.696485 0.000012 -2.165027 -0.000004
# 4 0.000003 0.000001 0.000012 0.091744 -0.000015 -0.025017
# 5 -0.566687 -0.214564 -2.165027 -0.000015 2.813752 0.000005
# 6 -0.000001 0.000000 -0.000004 -0.025017 0.000005 0.051272
#
#
# Mechanical properties :
#
#
# Convention : Reuss Voigt Hill
#
# Bulk Modulus (GPa) = 0.31964 27.04156 13.68060
# Shear Modulus (GPa) = 1.09217 24.10340 12.59779
#
# Velocity S-wave (km/s) = 0.75197 3.53259 2.55388
# Velocity P-wave (km/s) = 0.95887 5.53527 3.97232
#
# Compressibility (1/GPa) = 3.12850458
#
# Stress axis : x y z
#
# Youngs Moduli (GPa) = 8.00977 31.11450 0.58945
#
# Poissons Ratio (x) = -1.31003 -0.25603
# Poissons Ratio (y) = -0.33724 -0.09494
# Poissons Ratio (z) = -3.47902 -5.01146
#
# Static dielectric constant tensor:
#      x y z
#    x 1.767830 0.000000 -0.002370 
#    y 0.000000 1.645620 0.000000 
#    z -0.002370 0.000000 1.659450 
# 
# From -- ./inp_files/291444.got.cif
#   From: 2010.05.17/outbox.cif.g08.bks.cpg/sg12_146_cif.got.tgz:291444.got - 2010.06.03 13:09:07.
