data_PCOD9179205
_publ_section_title
;
Structure prediction by ZEFSAII (Michael W. Deem and Ramdas Pophale) SiO2 
 PCOD9179205
Probable space group: C 2/M
;
_chemical_formula_sum "Si O2"
_cell_formula_units_Z 64
_cell_length_a 22.570525
_cell_length_b 9.480837
_cell_length_c 15.027056
_cell_angle_alpha 90.000000
_cell_angle_beta 114.725441
_cell_angle_gamma 90.000000
_cell_volume 2920.803488
_symmetry_space_group_name_H-M "C 2/M"
_symmetry_group_IT_number 12
_symmetry_cell_setting 'monoclinic'
loop_
_space_group_symop_operation_xyz
x,y,z
-x,y,-z
-x,-y,-z
x,-y,z
1/2+x,1/2+y,z
1/2-x,1/2+y,-z
1/2-x,1/2-y,-z
1/2+x,1/2-y,z
loop_
_atom_site_type_symbol
_atom_site_label
_atom_site_fract_x
_atom_site_fract_y
_atom_site_fract_z
Si Si1 0.085240 0.840788 0.789211
Si Si2 0.242469 0.661969 0.357320
Si Si3 0.148364 0.161492 0.415697
Si Si4 0.496364 0.162370 0.849613
Si Si5 0.164647 0.340260 0.696706
Si Si6 0.559221 0.840443 0.475850
Si Si7 0.607565 0.162242 0.074498
Si Si8 0.694272 0.341542 0.010996
O O1 0.021847 0.765375 0.789725
O O2 0.120784 0.742113 0.740154
O O3 0.136048 0.850040 0.902726
O O4 0.073254 0.000000 0.748462
O O5 0.226866 0.500000 0.325725
O O6 0.181727 0.745669 0.360146
O O7 0.297420 0.657778 0.470433
O O8 0.274348 0.746293 0.295630
O O9 0.085034 0.238342 0.415780
O O10 0.136246 0.000000 0.381553
O O11 0.430227 0.202759 0.859266
O O12 0.490902 0.000000 0.815491
O O13 0.552313 0.163333 0.961869
O O14 0.180736 0.500000 0.735110
O O15 0.119888 0.352807 0.581052
O O16 0.500000 0.787043 0.500000
O O17 0.542302 0.000000 0.434195
O O18 0.629805 0.000000 0.095268
O O19 0.664228 0.264224 0.077548
O O20 0.716742 0.500000 0.043783
O O21 0.750000 0.250000 0.000000
#
# Coordination Sequence:
#
# PCOD9179205 Si02
#       8
#     8   8   8   8   8   8   8   8
#     4  10  20  32  47  70  98 126 156 192 234 278
#     4   9  16  27  44  66  93 122 153 193 236 276
#     4   9  16  26  43  68  94 120 154 194 234 276
#     4   8  14  26  45  68  92 120 153 189 230 274
#     4  10  19  31  49  71  95 125 158 192 233 280
#     4   9  18  32  49  70  96 125 157 193 234 279
#     4   8  14  26  45  68  93 119 151 192 233 273
#     4  10  20  32  48  70  96 126 158 193 234 278
#
# _framework density 21.911777000000001
#
# number of rings (size 3 to 8) (size 9 to 14) (size 15 to 20)
#    0.000    2.875    0.000    2.625    0.000    5.750 
#    0.000    2.500    0.000    1.500    0.000    7.000 
#    0.000    0.000    0.000    0.000    0.000    0.000 
#
# Total GULP energy -178761.657259 kJ/mol
# GULP energy per Si atom -5586.301789 kJ/mol
# Density = 2.186191 g / cm^3
# Si number density = 21.911777 Si / 1000 Ang^3
#
#
#
# Elastic Constant Matrix: (Units=GPa)
#
#
# Indices 1 2 3 4 5 6 
#
# 1 143.0353 121.8127 39.4472 0.0000 -57.8280 0.0000
# 2 121.8127 223.4445 47.9187 0.0000 -69.1919 0.0000
# 3 39.4472 47.9187 64.3506 0.0000 -9.5366 0.0000
# 4 0.0000 0.0000 0.0000 6.9373 0.0000 -17.4778
# 5 -57.8280 -69.1919 -9.5366 0.0000 60.3127 0.0000
# 6 0.0000 0.0000 0.0000 -17.4778 0.0000 30.3881
#
#
#
# Elastic Compliance Matrix: (Units=1/GPa)
#
#
# Indices 1 2 3 4 5 6 
#
# 1 0.016288 -0.005013 -0.004905 0.000000 0.009091 0.000000
# 2 -0.005013 0.009719 -0.003302 0.000000 0.005821 0.000000
# 3 -0.004905 -0.003302 0.020221 0.000000 -0.005293 0.000000
# 4 0.000000 0.000000 0.000000 -0.321016 0.000000 -0.184633
# 5 0.009091 0.005821 -0.005293 0.000000 0.031138 0.000000
# 6 0.000000 0.000000 0.000000 -0.184633 0.000000 -0.073284
#
#
# Mechanical properties :
#
#
# Convention : Reuss Voigt Hill
#
# Bulk Modulus (GPa) = 50.53174 94.35418 72.44296
# Shear Modulus (GPa) = -17.61189 34.30440 8.34626
#
# Velocity S-wave (km/s) = -2.83815 3.96102 1.95379
# Velocity P-wave (km/s) = 3.51730 8.00462 6.18245
#
# Compressibility (1/GPa) = 0.01978954
#
# Stress axis : x y z
#
# Youngs Moduli (GPa) = 61.39324 102.89357 49.45444
#
# Poissons Ratio (x) = 0.51578 0.24257
# Poissons Ratio (y) = 0.30775 0.16328
# Poissons Ratio (z) = 0.30112 0.33971
#
# Static dielectric constant tensor:
#      x y z
#    x 1.786690 0.000000 0.057410 
#    y 0.000000 1.785020 0.000000 
#    z 0.057410 0.000000 1.851030 
# 
# From -- ./inp_files/287663.got.cif
#   From: 2010.05.17/outbox.cif.g08.bks.cpg/sg12_144_cif.got.tgz:287663.got - 2010.06.03 13:09:07.
