data_PCOD9179376
_publ_section_title
;
Structure prediction by ZEFSAII (Michael W. Deem and Ramdas Pophale) SiO2 
 PCOD9179376
Probable space group: C 2/M
;
_chemical_formula_sum "Si O2"
_cell_formula_units_Z 56
_cell_length_a 28.109790
_cell_length_b 13.416467
_cell_length_c 10.179704
_cell_angle_alpha 90.000000
_cell_angle_beta 57.909134
_cell_angle_gamma 90.000000
_cell_volume 3252.522138
_symmetry_space_group_name_H-M "C 2/M"
_symmetry_group_IT_number 12
_symmetry_cell_setting 'monoclinic'
loop_
_space_group_symop_operation_xyz
x,y,z
-x,y,-z
-x,-y,-z
x,-y,z
1/2+x,1/2+y,z
1/2-x,1/2+y,-z
1/2-x,1/2-y,-z
1/2+x,1/2-y,z
loop_
_atom_site_type_symbol
_atom_site_label
_atom_site_fract_x
_atom_site_fract_y
_atom_site_fract_z
Si Si1 0.471548 0.303590 0.685828
Si Si2 0.036429 0.883647 0.823710
Si Si3 0.352481 0.613969 0.875142
Si Si4 0.161746 0.739141 0.346304
Si Si5 0.934838 0.387765 0.638522
Si Si6 0.725912 0.380781 0.765385
Si Si7 0.663609 0.617048 0.595741
O O1 0.500000 0.314438 0.500000
O O2 0.518984 0.322185 0.722239
O O3 0.420028 0.378486 0.783034
O O4 0.442117 0.195103 0.740972
O O5 0.102266 0.878238 0.752166
O O6 0.022939 0.000000 0.818090
O O7 0.000000 0.849933 0.000000
O O8 0.336751 0.500000 0.866450
O O9 0.335254 0.688981 0.784792
O O10 0.322344 0.641229 0.056066
O O11 0.107275 0.667440 0.402101
O O12 0.216975 0.672229 0.277053
O O13 0.160603 0.810720 0.475118
O O14 0.914916 0.500000 0.697570
O O15 0.000000 0.396754 0.500000
O O16 0.733231 0.500000 0.754466
O O17 0.707195 0.352896 0.645160
O O18 0.672893 0.500000 0.544850
#
# Coordination Sequence:
#
# PCOD9179376 Si02
#       7
#     8   8   8   8   8   8   8
#     4  10  19  31  51  78 103 131 166 205 247 294
#     4  10  19  31  49  75 107 138 163 194 246 307
#     4  10  20  33  50  74 104 133 162 202 251 300
#     4  11  20  33  53  75  97 128 170 211 249 291
#     4   9  18  32  50  73  98 124 160 207 251 288
#     4  10  21  36  51  70  99 135 170 203 246 298
#     4  10  20  33  50  74 103 131 164 206 248 295
#
# _framework density 17.217409
#
# number of rings (size 3 to 8) (size 9 to 14) (size 15 to 20)
#    0.000    2.000    0.000    5.571    0.000    4.571 
#    0.000    0.000    0.000    1.714    0.000   14.000 
#    0.000    0.000    0.000    0.000    0.000    0.000 
#
# Total GULP energy -155962.761375 kJ/mol
# GULP energy per Si atom -5570.098621 kJ/mol
# Density = 1.717822 g / cm^3
# Si number density = 17.217409 Si / 1000 Ang^3
#
#
#
# Elastic Constant Matrix: (Units=GPa)
#
#
# Indices 1 2 3 4 5 6 
#
# 1 103.5302 33.0107 15.9401 0.0000 0.4365 0.0000
# 2 33.0107 74.9544 26.1916 0.0000 7.0736 0.0000
# 3 15.9401 26.1916 58.9583 0.0000 -2.6783 0.0000
# 4 0.0000 0.0000 0.0000 8.3843 0.0000 -8.7840
# 5 0.4365 7.0736 -2.6783 0.0000 21.6046 0.0000
# 6 0.0000 0.0000 0.0000 -8.7840 0.0000 28.8448
#
#
#
# Elastic Compliance Matrix: (Units=1/GPa)
#
#
# Indices 1 2 3 4 5 6 
#
# 1 0.011317 -0.004795 -0.000873 0.000000 0.001233 0.000000
# 2 -0.004795 0.018660 -0.007307 0.000000 -0.006918 0.000000
# 3 -0.000873 -0.007307 0.020669 0.000000 0.004972 0.000000
# 4 0.000000 0.000000 0.000000 0.175152 0.000000 0.053338
# 5 0.001233 -0.006918 0.004972 0.000000 0.049143 0.000000
# 6 0.000000 0.000000 0.000000 0.053338 0.000000 0.050911
#
#
# Mechanical properties :
#
#
# Convention : Reuss Voigt Hill
#
# Bulk Modulus (GPa) = 40.49521 43.08084 41.78803
# Shear Modulus (GPa) = 13.88750 22.58678 18.23714
#
# Velocity S-wave (km/s) = 2.84315 3.62589 3.25811
# Velocity P-wave (km/s) = 5.86080 6.52728 6.20300
#
# Compressibility (1/GPa) = 0.02469428
#
# Stress axis : x y z
#
# Youngs Moduli (GPa) = 88.36014 53.59155 48.38096
#
# Poissons Ratio (x) = 0.25699 0.04226
# Poissons Ratio (y) = 0.42373 0.35353
# Poissons Ratio (z) = 0.07718 0.39160
#
# Static dielectric constant tensor:
#      x y z
#    x 1.585720 0.000000 -0.010460 
#    y 0.000000 1.608090 0.000000 
#    z -0.010460 0.000000 1.581350 
# 
# From -- ./inp_files/104426.got.cif
#   From: 2010.05.17/outbox.cif.g08.bks.cpg/sg12_53_cif.got.tgz:104426.got - 2010.06.03 13:09:07.
