data_PCOD9179565
_publ_section_title
;
Structure prediction by ZEFSAII (Michael W. Deem and Ramdas Pophale) SiO2 
 PCOD9179565
Probable space group: C 2/M
;
_chemical_formula_sum "Si O2"
_cell_formula_units_Z 40
_cell_length_a 13.391192
_cell_length_b 8.078865
_cell_length_c 15.727534
_cell_angle_alpha 90.000000
_cell_angle_beta 69.143076
_cell_angle_gamma 90.000000
_cell_volume 1589.998466
_symmetry_space_group_name_H-M "C 2/M"
_symmetry_group_IT_number 12
_symmetry_cell_setting 'monoclinic'
loop_
_space_group_symop_operation_xyz
x,y,z
-x,y,-z
-x,-y,-z
x,-y,z
1/2+x,1/2+y,z
1/2-x,1/2+y,-z
1/2-x,1/2-y,-z
1/2+x,1/2-y,z
loop_
_atom_site_type_symbol
_atom_site_label
_atom_site_fract_x
_atom_site_fract_y
_atom_site_fract_z
Si Si1 0.751887 0.319631 0.677202
Si Si2 0.451391 0.188347 0.732509
Si Si3 0.859717 0.695281 0.121363
Si Si4 0.323673 0.500000 0.579768
Si Si5 0.116157 0.306059 0.068913
Si Si6 0.536806 0.500000 0.630583
O O1 0.727522 0.500000 0.647828
O O2 0.873501 0.328701 0.676213
O O3 0.687516 0.287553 0.783663
O O4 0.752960 0.163068 0.615394
O O5 0.380898 0.252580 0.834463
O O6 0.536130 0.329863 0.684886
O O7 0.490723 0.000000 0.740578
O O8 0.830693 0.500000 0.134141
O O9 0.987833 0.704490 0.092165
O O10 0.834050 0.763848 0.033966
O O11 0.416770 0.500000 0.623859
O O12 0.384881 0.500000 0.472760
O O13 0.143972 0.500000 0.060554
#
# Coordination Sequence:
#
# PCOD9179565 Si02
#       6
#     8   8   8   4   8   4
#     4  10  19  31  50  76 102 130 163 203 252 293
#     4   9  18  33  50  74 104 128 162 207 248 292
#     4   9  16  31  52  72 100 137 171 200 239 293
#     4   9  18  34  52  73 102 126 161 210 248 298
#     4   8  16  31  51  73  99 137 171 199 243 290
#     4   9  18  32  54  77  94 128 167 202 254 296
#
# _framework density 25.157257000000001
#
# number of rings (size 3 to 8) (size 9 to 14) (size 15 to 20)
#    0.000    3.000    1.000    1.200    0.000    1.600 
#    3.600    5.000    0.000    1.200    0.000    0.000 
#    0.000    0.000    0.000    0.000    0.000    0.000 
#
# Total GULP energy -111742.610827 kJ/mol
# GULP energy per Si atom -5587.130541 kJ/mol
# Density = 2.510000 g / cm^3
# Si number density = 25.157257 Si / 1000 Ang^3
#
#
#
# Elastic Constant Matrix: (Units=GPa)
#
#
# Indices 1 2 3 4 5 6 
#
# 1 32.6599 22.2863 -1.7434 0.0000 4.9135 0.0000
# 2 22.2863 180.0061 96.2817 0.0000 -26.6938 0.0000
# 3 -1.7434 96.2817 107.1039 0.0000 -26.1976 0.0000
# 4 0.0000 0.0000 0.0000 20.6703 0.0000 -3.1049
# 5 4.9135 -26.6938 -26.1976 0.0000 41.7932 0.0000
# 6 0.0000 0.0000 0.0000 -3.1049 0.0000 27.8311
#
#
#
# Elastic Compliance Matrix: (Units=1/GPa)
#
#
# Indices 1 2 3 4 5 6 
#
# 1 0.038835 -0.010108 0.008295 0.000000 -0.005822 0.000000
# 2 -0.010108 0.013364 -0.011574 0.000000 0.002469 0.000000
# 3 0.008295 -0.011574 0.021058 0.000000 0.004833 0.000000
# 4 0.000000 0.000000 0.000000 0.049203 0.000000 0.005489
# 5 -0.005822 0.002469 0.004833 0.000000 0.029218 0.000000
# 6 0.000000 0.000000 0.000000 0.005489 0.000000 0.036543
#
#
# Mechanical properties :
#
#
# Convention : Reuss Voigt Hill
#
# Bulk Modulus (GPa) = 21.51364 61.49101 41.50233
# Shear Modulus (GPa) = 21.69290 31.58863 26.64076
#
# Velocity S-wave (km/s) = 2.93967 3.54735 3.25771
# Velocity P-wave (km/s) = 4.48246 6.42449 5.53924
#
# Compressibility (1/GPa) = 0.04648213
#
# Stress axis : x y z
#
# Youngs Moduli (GPa) = 25.74999 74.82960 47.48719
#
# Poissons Ratio (x) = 0.75640 -0.39390
# Poissons Ratio (y) = 0.26029 0.54962
# Poissons Ratio (z) = -0.21359 0.86608
#
# Static dielectric constant tensor:
#      x y z
#    x 2.157430 0.000000 0.011700 
#    y 0.000000 1.951150 0.000000 
#    z 0.011700 0.000000 1.926580 
# 
# From -- ./inp_files/221267.got.cif
#   From: 2010.05.17/outbox.cif.g08.bks.cpg/sg12_111_cif.got.tgz:221267.got - 2010.06.03 13:09:07.
