data_PCOD9179557
_publ_section_title
;
Structure prediction by ZEFSAII (Michael W. Deem and Ramdas Pophale) SiO2 
 PCOD9179557
Probable space group: C 2/M
;
_chemical_formula_sum "Si O2"
_cell_formula_units_Z 56
_cell_length_a 16.393131
_cell_length_b 13.749052
_cell_length_c 20.325451
_cell_angle_alpha 90.000000
_cell_angle_beta 135.889655
_cell_angle_gamma 90.000000
_cell_volume 3188.677368
_symmetry_space_group_name_H-M "C 2/M"
_symmetry_group_IT_number 12
_symmetry_cell_setting 'monoclinic'
loop_
_space_group_symop_operation_xyz
x,y,z
-x,y,-z
-x,-y,-z
x,-y,z
1/2+x,1/2+y,z
1/2-x,1/2+y,-z
1/2-x,1/2-y,-z
1/2+x,1/2-y,z
loop_
_atom_site_type_symbol
_atom_site_label
_atom_site_fract_x
_atom_site_fract_y
_atom_site_fract_z
Si Si1 0.611357 0.610786 0.460270
Si Si2 0.169760 0.202862 0.844343
Si Si3 0.701998 0.197244 0.343009
Si Si4 0.418423 0.115387 0.014035
Si Si5 0.041035 0.387302 0.811765
Si Si6 0.155795 0.886031 0.694328
Si Si7 0.921053 0.110669 0.716378
O O1 0.646255 0.500000 0.499091
O O2 0.702821 0.684704 0.544484
O O3 0.478258 0.626594 0.406686
O O4 0.601719 0.615068 0.375674
O O5 0.293889 0.168872 0.943717
O O6 0.173973 0.178272 0.769443
O O7 0.139675 0.314023 0.843092
O O8 0.056361 0.142731 0.805149
O O9 0.580970 0.144263 0.292037
O O10 0.757274 0.144015 0.312488
O O11 0.664826 0.307431 0.305074
O O12 0.396703 0.000000 0.991822
O O13 0.500000 0.147182 0.000000
O O14 0.475024 0.127650 0.118776
O O15 0.067523 0.500000 0.816023
O O16 0.170323 0.000000 0.720598
O O17 0.902727 0.000000 0.727538
#
# Coordination Sequence:
#
# PCOD9179557 Si02
#       7
#     8   8   8   8   8   8   8
#     4   9  17  30  49  71  96 126 160 201 246 288
#     4  10  19  34  53  70  97 132 161 197 241 285
#     4  11  19  30  50  73 100 128 157 203 251 284
#     4  10  19  32  53  78 100 122 154 201 248 284
#     4  10  21  33  48  74 102 129 162 197 238 291
#     4  10  19  31  50  75  97 122 163 207 244 285
#     4   9  19  33  49  71  96 128 168 199 232 290
#
# _framework density 17.562139999999999
#
# number of rings (size 3 to 8) (size 9 to 14) (size 15 to 20)
#    0.000    2.143    0.000    5.571    0.000    2.286 
#    0.000    0.714    0.000    2.143    0.000    0.000 
#    0.000    0.000    0.000    0.000    0.000    0.000 
#
# Total GULP energy -156206.868991 kJ/mol
# GULP energy per Si atom -5578.816750 kJ/mol
# Density = 1.752217 g / cm^3
# Si number density = 17.562140 Si / 1000 Ang^3
#
#
#
# Elastic Constant Matrix: (Units=GPa)
#
#
# Indices 1 2 3 4 5 6 
#
# 1 44.9105 26.9795 8.7016 0.0000 8.3652 0.0000
# 2 26.9795 107.5657 30.3760 0.0000 8.8759 0.0000
# 3 8.7016 30.3760 59.8744 0.0000 17.0300 0.0000
# 4 0.0000 0.0000 0.0000 19.6872 0.0000 1.9417
# 5 8.3652 8.8759 17.0300 0.0000 22.7590 0.0000
# 6 0.0000 0.0000 0.0000 1.9417 0.0000 28.0067
#
#
#
# Elastic Compliance Matrix: (Units=1/GPa)
#
#
# Indices 1 2 3 4 5 6 
#
# 1 0.027608 -0.006737 0.001962 0.000000 -0.008988 0.000000
# 2 -0.006737 0.012496 -0.005943 0.000000 0.002050 0.000000
# 3 0.001962 -0.005943 0.024109 0.000000 -0.016443 0.000000
# 4 0.000000 0.000000 0.000000 0.051144 0.000000 -0.003546
# 5 -0.008988 0.002050 -0.016443 0.000000 0.058747 0.000000
# 6 0.000000 0.000000 0.000000 -0.003546 0.000000 0.035952
#
#
# Mechanical properties :
#
#
# Convention : Reuss Voigt Hill
#
# Bulk Modulus (GPa) = 23.37800 38.27388 30.82594
# Shear Modulus (GPa) = 20.34593 23.84349 22.09471
#
# Velocity S-wave (km/s) = 3.40738 3.68865 3.55080
# Velocity P-wave (km/s) = 5.36850 6.32315 5.86528
#
# Compressibility (1/GPa) = 0.04277527
#
# Stress axis : x y z
#
# Youngs Moduli (GPa) = 36.22185 80.02815 41.47887
#
# Poissons Ratio (x) = 0.53914 -0.08138
# Poissons Ratio (y) = 0.24402 0.24653
# Poissons Ratio (z) = -0.07107 0.47564
#
# Static dielectric constant tensor:
#      x y z
#    x 1.584640 0.000000 -0.013030 
#    y 0.000000 1.598300 0.000000 
#    z -0.013030 0.000000 1.629170 
# 
# From -- ./inp_files/214256.got.cif
#   From: 2010.05.17/outbox.cif.g08.bks.cpg/sg12_108_cif.got.tgz:214256.got - 2010.06.03 13:09:07.
