data_PCOD9179273
_publ_section_title
;
Structure prediction by ZEFSAII (Michael W. Deem and Ramdas Pophale) SiO2 
 PCOD9179273
Probable space group: C 2/M
;
_chemical_formula_sum "Si O2"
_cell_formula_units_Z 56
_cell_length_a 24.448613
_cell_length_b 8.748801
_cell_length_c 21.045121
_cell_angle_alpha 90.000000
_cell_angle_beta 124.752927
_cell_angle_gamma 90.000000
_cell_volume 3698.486523
_symmetry_space_group_name_H-M "C 2/M"
_symmetry_group_IT_number 12
_symmetry_cell_setting 'monoclinic'
loop_
_space_group_symop_operation_xyz
x,y,z
-x,y,-z
-x,-y,-z
x,-y,z
1/2+x,1/2+y,z
1/2-x,1/2+y,-z
1/2-x,1/2-y,-z
1/2+x,1/2-y,z
loop_
_atom_site_type_symbol
_atom_site_label
_atom_site_fract_x
_atom_site_fract_y
_atom_site_fract_z
Si Si1 0.306358 0.816142 0.991221
Si Si2 0.048876 0.315981 0.091879
Si Si3 0.689899 0.681492 0.147265
Si Si4 0.952711 0.685562 0.139185
Si Si5 0.052660 0.317950 0.586602
Si Si6 0.178206 0.819420 0.723633
Si Si7 0.072474 0.318022 0.737512
O O1 0.379798 0.771169 0.065152
O O2 0.302595 0.000000 0.988543
O O3 0.250000 0.750000 0.000000
O O4 0.300021 0.755202 0.915588
O O5 0.058693 0.500000 0.100917
O O6 0.119325 0.237741 0.127161
O O7 0.010297 0.262952 0.129598
O O8 0.000000 0.286114 0.000000
O O9 0.691208 0.500000 0.142543
O O10 0.751051 0.738322 0.230904
O O11 0.955009 0.500000 0.139217
O O12 0.957651 0.733224 0.215945
O O13 0.061953 0.500000 0.583569
O O14 0.124804 0.237846 0.635795
O O15 0.029344 0.295686 0.644685
O O16 0.000000 0.262521 0.500000
O O17 0.140715 0.767275 0.764046
O O18 0.185555 0.000000 0.726706
O O19 0.086768 0.500000 0.751444
#
# Coordination Sequence:
#
# PCOD9179273 Si02
#       7
#     8   8   8   8   8   8   8
#     4  11  21  33  49  71  95 128 166 204 249 293
#     4  10  19  35  53  67  87 124 170 215 253 290
#     4  12  23  35  48  67  96 132 169 210 249 291
#     4   9  17  31  50  67  90 125 163 202 244 286
#     4   8  15  29  50  75 104 132 154 184 236 301
#     4  10  19  31  49  73 100 129 161 201 242 286
#     4   8  15  29  48  72 101 127 156 190 235 297
#
# _framework density 15.141329000000001
#
# number of rings (size 3 to 8) (size 9 to 14) (size 15 to 20)
#    0.857    1.429    1.429    3.429    0.000    1.714 
#    0.000    1.429    0.000    0.000    0.000    1.000 
#    0.000    0.000    0.000    0.000    0.000    0.000 
#
# Total GULP energy -155881.120600 kJ/mol
# GULP energy per Si atom -5567.182879 kJ/mol
# Density = 1.510687 g / cm^3
# Si number density = 15.141329 Si / 1000 Ang^3
#
#
#
# Elastic Constant Matrix: (Units=GPa)
#
#
# Indices 1 2 3 4 5 6 
#
# 1 104.4991 37.7047 54.7675 0.0000 17.7618 0.0000
# 2 37.7047 56.2783 40.1826 0.0000 6.2850 0.0000
# 3 54.7675 40.1826 106.9811 0.0000 10.0908 0.0000
# 4 0.0000 0.0000 0.0000 18.2499 0.0000 4.5091
# 5 17.7618 6.2850 10.0908 0.0000 14.5578 0.0000
# 6 0.0000 0.0000 0.0000 4.5091 0.0000 23.5811
#
#
#
# Elastic Compliance Matrix: (Units=1/GPa)
#
#
# Indices 1 2 3 4 5 6 
#
# 1 0.016834 -0.006127 -0.004952 0.000000 -0.014460 0.000000
# 2 -0.006127 0.026783 -0.006995 0.000000 0.000761 0.000000
# 3 -0.004952 -0.006995 0.014611 0.000000 -0.001065 0.000000
# 4 0.000000 0.000000 0.000000 0.057512 0.000000 -0.010997
# 5 -0.014460 0.000761 -0.001065 0.000000 0.086744 0.000000
# 6 0.000000 0.000000 0.000000 -0.010997 0.000000 0.044510
#
#
# Mechanical properties :
#
#
# Convention : Reuss Voigt Hill
#
# Bulk Modulus (GPa) = 45.29324 59.22980 52.26152
# Shear Modulus (GPa) = 17.21162 20.28469 18.74815
#
# Velocity S-wave (km/s) = 3.37520 3.66415 3.52264
# Velocity P-wave (km/s) = 6.72071 7.55673 7.15095
#
# Compressibility (1/GPa) = 0.02207835
#
# Stress axis : x y z
#
# Youngs Moduli (GPa) = 59.40505 37.33682 68.44344
#
# Poissons Ratio (x) = 0.22876 0.33896
# Poissons Ratio (y) = 0.36398 0.47876
# Poissons Ratio (z) = 0.29420 0.26117
#
# Static dielectric constant tensor:
#      x y z
#    x 1.493890 0.000000 -0.011590 
#    y 0.000000 1.508590 0.000000 
#    z -0.011590 0.000000 1.511520 
# 
# From -- ./inp_files/345653.got.cif
#   From: 2010.05.17/outbox.cif.g08.bks.cpg/sg12_173_cif.got.tgz:345653.got - 2010.06.03 13:09:07.
