data_PCOD9179531
_publ_section_title
;
Structure prediction by ZEFSAII (Michael W. Deem and Ramdas Pophale) SiO2 
 PCOD9179531
Probable space group: C 2/M
;
_chemical_formula_sum "Si O2"
_cell_formula_units_Z 48
_cell_length_a 23.361089
_cell_length_b 8.829976
_cell_length_c 18.021542
_cell_angle_alpha 90.000000
_cell_angle_beta 49.360605
_cell_angle_gamma 90.000000
_cell_volume 2820.885295
_symmetry_space_group_name_H-M "C 2/M"
_symmetry_group_IT_number 12
_symmetry_cell_setting 'monoclinic'
loop_
_space_group_symop_operation_xyz
x,y,z
-x,y,-z
-x,-y,-z
x,-y,z
1/2+x,1/2+y,z
1/2-x,1/2+y,-z
1/2-x,1/2-y,-z
1/2+x,1/2-y,z
loop_
_atom_site_type_symbol
_atom_site_label
_atom_site_fract_x
_atom_site_fract_y
_atom_site_fract_z
Si Si1 0.474360 0.325342 0.241519
Si Si2 0.220285 0.672675 0.748402
Si Si3 0.800264 0.182479 0.392172
Si Si4 0.268073 0.681199 0.102452
Si Si5 0.541741 0.166268 0.888300
Si Si6 0.631372 0.819798 0.106797
O O1 0.480007 0.500000 0.258302
O O2 0.388601 0.270434 0.330397
O O3 0.477360 0.300881 0.150441
O O4 0.549471 0.237696 0.202480
O O5 0.249594 0.500000 0.720094
O O6 0.230867 0.757604 0.660850
O O7 0.243212 0.753783 0.805394
O O8 0.129848 0.665642 0.829559
O O9 0.750000 0.250000 0.500000
O O10 0.799059 0.000000 0.392822
O O11 0.276499 0.500000 0.098812
O O12 0.194850 0.719497 0.114315
O O13 0.338976 0.749001 0.996181
O O14 0.522462 0.000000 0.870707
O O15 0.500000 0.179999 0.000000
O O16 0.630736 0.000000 0.098780
#
# Coordination Sequence:
#
# PCOD9179531 Si02
#       6
#     8   8   8   8   8   8
#     4  10  20  32  49  73  99 128 164 207 251 297
#     4  10  19  31  50  75 102 133 167 205 252 303
#     4  10  21  37  56  78 102 129 165 210 261 311
#     4  10  20  33  50  74 105 140 176 211 245 288
#     4   9  17  28  43  66  97 130 162 196 238 293
#     4  10  20  33  50  73 104 142 177 207 245 294
#
# _framework density 17.015934999999999
#
# number of rings (size 3 to 8) (size 9 to 14) (size 15 to 20)
#    0.000    2.167    0.000    3.500    0.000    6.333 
#    0.000    0.000    0.000    1.000    0.000    7.000 
#    0.000    0.000    0.000    0.000    0.000    0.000 
#
# Total GULP energy -133700.673375 kJ/mol
# GULP energy per Si atom -5570.861391 kJ/mol
# Density = 1.697721 g / cm^3
# Si number density = 17.015935 Si / 1000 Ang^3
#
#
#
# Elastic Constant Matrix: (Units=GPa)
#
#
# Indices 1 2 3 4 5 6 
#
# 1 79.3846 28.7294 49.5196 0.0002 3.1557 -0.0001
# 2 28.7294 59.5809 43.9659 0.0003 3.5660 0.0000
# 3 49.5196 43.9659 117.4477 0.0001 8.5879 -0.0003
# 4 0.0002 0.0003 0.0001 21.1613 -0.0001 1.8385
# 5 3.1557 3.5660 8.5879 -0.0001 26.1856 0.0002
# 6 -0.0001 0.0000 -0.0003 1.8385 0.0002 27.3066
#
#
#
# Elastic Compliance Matrix: (Units=1/GPa)
#
#
# Indices 1 2 3 4 5 6 
#
# 1 0.017830 -0.004217 -0.005967 0.000000 0.000383 0.000000
# 2 -0.004217 0.024190 -0.007247 0.000000 -0.000409 0.000000
# 3 -0.005967 -0.007247 0.013953 0.000000 -0.002870 0.000000
# 4 0.000000 0.000000 0.000000 0.047534 0.000000 -0.003200
# 5 0.000383 -0.000409 -0.002870 0.000000 0.039140 0.000000
# 6 0.000000 0.000000 0.000000 -0.003200 0.000000 0.036837
#
#
# Mechanical properties :
#
#
# Convention : Reuss Voigt Hill
#
# Bulk Modulus (GPa) = 47.37093 55.64923 51.51008
# Shear Modulus (GPa) = 22.58525 23.87725 23.23125
#
# Velocity S-wave (km/s) = 3.64717 3.75003 3.69896
# Velocity P-wave (km/s) = 6.75539 7.17813 6.96997
#
# Compressibility (1/GPa) = 0.02110999
#
# Stress axis : x y z
#
# Youngs Moduli (GPa) = 56.08493 41.33968 71.66846
#
# Poissons Ratio (x) = 0.17434 0.42764
# Poissons Ratio (y) = 0.23653 0.51940
# Poissons Ratio (z) = 0.33466 0.29960
#
# Static dielectric constant tensor:
#      x y z
#    x 1.663850 0.000000 0.029970 
#    y 0.000000 1.618900 0.000000 
#    z 0.029970 0.000000 1.593340 
# 
# From -- ./inp_files/280771.got.cif
#   From: 2010.05.17/outbox.cif.g08.bks.cpg/sg12_141_cif.got.tgz:280771.got - 2010.06.03 13:09:07.
