data_PCOD9179220
_publ_section_title
;
Structure prediction by ZEFSAII (Michael W. Deem and Ramdas Pophale) SiO2 
 PCOD9179220
Probable space group: C 2/M
;
_chemical_formula_sum "Si O2"
_cell_formula_units_Z 64
_cell_length_a 28.928010
_cell_length_b 8.983744
_cell_length_c 21.399430
_cell_angle_alpha 90.000000
_cell_angle_beta 131.719870
_cell_angle_gamma 90.000000
_cell_volume 4151.012972
_symmetry_space_group_name_H-M "C 2/M"
_symmetry_group_IT_number 12
_symmetry_cell_setting 'monoclinic'
loop_
_space_group_symop_operation_xyz
x,y,z
-x,y,-z
-x,-y,-z
x,-y,z
1/2+x,1/2+y,z
1/2-x,1/2+y,-z
1/2-x,1/2-y,-z
1/2+x,1/2-y,z
loop_
_atom_site_type_symbol
_atom_site_label
_atom_site_fract_x
_atom_site_fract_y
_atom_site_fract_z
Si Si1 0.470652 0.321412 0.664903
Si Si2 0.301411 0.177672 0.001140
Si Si3 0.186305 0.677163 0.659927
Si Si4 0.847020 0.676880 0.589935
Si Si5 0.741934 0.677026 0.592728
Si Si6 0.789605 0.821965 0.185551
Si Si7 0.608985 0.321372 0.829821
Si Si8 0.556481 0.321801 0.504321
O O1 0.463925 0.500000 0.665450
O O2 0.416040 0.239662 0.652538
O O3 0.539121 0.280206 0.749460
O O4 0.462181 0.286871 0.583697
O O5 0.365014 0.244460 0.084331
O O6 0.301059 0.000000 0.008412
O O7 0.250000 0.250000 0.000000
O O8 0.275081 0.210001 0.908410
O O9 0.187123 0.500000 0.658257
O O10 0.233098 0.744784 0.650883
O O11 0.202195 0.735894 0.743001
O O12 0.118428 0.737607 0.579887
O O13 0.846755 0.500000 0.578070
O O14 0.807031 0.704754 0.616439
O O15 0.810340 0.758442 0.500944
O O16 0.733086 0.500000 0.590996
O O17 0.845000 0.784167 0.186627
O O18 0.793310 0.000000 0.200073
O O19 0.612590 0.500000 0.840660
O O20 0.500000 0.286805 0.500000
O O21 0.567954 0.500000 0.518601
#
# Coordination Sequence:
#
# PCOD9179220 Si02
#       8
#     8   8   8   8   8   8   8   8
#     4  10  19  31  49  71  97 133 165 194 239 290
#     4   9  17  30  49  71  95 127 163 203 246 285
#     4  12  23  32  47  73  98 124 163 207 246 281
#     4  10  20  33  51  73  94 120 160 208 247 284
#     4  10  20  35  52  68  92 127 161 198 249 298
#     4   9  18  33  50  68  96 133 168 197 236 292
#     4   9  18  32  50  73  99 131 168 199 234 288
#     4  10  20  34  49  64  92 136 172 193 227 284
#
# _framework density 15.417923999999999
#
# number of rings (size 3 to 8) (size 9 to 14) (size 15 to 20)
#    0.000    2.125    1.250    3.750    0.000    6.750 
#    0.000    1.250    0.000    0.000    0.000    0.875 
#    0.000    7.000    0.000    0.000    0.000    0.000 
#
# Total GULP energy -178502.410309 kJ/mol
# GULP energy per Si atom -5578.200322 kJ/mol
# Density = 1.538283 g / cm^3
# Si number density = 15.417924 Si / 1000 Ang^3
#
#
#
# Elastic Constant Matrix: (Units=GPa)
#
#
# Indices 1 2 3 4 5 6 
#
# 1 96.2067 51.8790 65.6634 0.0000 6.5091 0.0000
# 2 51.8790 61.4946 64.7086 0.0000 1.4791 0.0000
# 3 65.6634 64.7086 137.1086 0.0000 8.1315 0.0000
# 4 0.0000 0.0000 0.0000 26.1879 0.0000 0.5113
# 5 6.5091 1.4791 8.1315 0.0000 8.2125 0.0000
# 6 0.0000 0.0000 0.0000 0.5113 0.0000 24.0045
#
#
#
# Elastic Compliance Matrix: (Units=1/GPa)
#
#
# Indices 1 2 3 4 5 6 
#
# 1 0.020695 -0.014844 -0.002222 0.000000 -0.011529 0.000000
# 2 -0.014844 0.043720 -0.014614 0.000000 0.018360 0.000000
# 3 -0.002222 -0.014614 0.015929 0.000000 -0.011379 0.000000
# 4 0.000000 0.000000 0.000000 0.038201 0.000000 -0.000814
# 5 -0.011529 0.018360 -0.011379 0.000000 0.138862 0.000000
# 6 0.000000 0.000000 0.000000 -0.000814 0.000000 0.041676
#
#
# Mechanical properties :
#
#
# Convention : Reuss Voigt Hill
#
# Bulk Modulus (GPa) = 58.87242 73.25689 66.06465
# Shear Modulus (GPa) = 13.58301 19.18492 16.38397
#
# Velocity S-wave (km/s) = 2.97136 3.53133 3.26338
# Velocity P-wave (km/s) = 7.07385 8.01525 7.55922
#
# Compressibility (1/GPa) = 0.01698588
#
# Stress axis : x y z
#
# Youngs Moduli (GPa) = 48.31994 22.87257 62.77671
#
# Poissons Ratio (x) = 0.33952 0.13949
# Poissons Ratio (y) = 0.71726 0.91741
# Poissons Ratio (z) = 0.10736 0.33426
#
# Static dielectric constant tensor:
#      x y z
#    x 1.506890 0.000000 0.005520 
#    y 0.000000 1.513490 0.000000 
#    z 0.005520 0.000000 1.513310 
# 
# From -- ./inp_files/326949.got.cif
#   From: 2010.05.17/outbox.cif.g08.bks.cpg/sg12_164_cif.got.tgz:326949.got - 2010.06.03 13:09:07.
