data_PCOD9179868
_publ_section_title
;
Structure prediction by ZEFSAII (Michael W. Deem and Ramdas Pophale) SiO2 
 PCOD9179868
Probable space group: C 2/M
;
_chemical_formula_sum "Si O2"
_cell_formula_units_Z 64
_cell_length_a 26.408074
_cell_length_b 24.833015
_cell_length_c 5.509869
_cell_angle_alpha 90.000000
_cell_angle_beta 90.847529
_cell_angle_gamma 90.000000
_cell_volume 3612.933244
_symmetry_space_group_name_H-M "C 2/M"
_symmetry_group_IT_number 12
_symmetry_cell_setting 'monoclinic'
loop_
_space_group_symop_operation_xyz
x,y,z
-x,y,-z
-x,-y,-z
x,-y,z
1/2+x,1/2+y,z
1/2-x,1/2+y,-z
1/2-x,1/2-y,-z
1/2+x,1/2-y,z
loop_
_atom_site_type_symbol
_atom_site_label
_atom_site_fract_x
_atom_site_fract_y
_atom_site_fract_z
Si Si1 0.473273 0.132918 0.250145
Si Si2 0.664628 0.117678 0.268476
Si Si3 0.315040 0.263037 0.189016
Si Si4 0.512614 0.746805 0.252887
Si Si5 0.244908 0.662363 0.921536
Si Si6 0.613879 0.059427 0.891343
Si Si7 0.225643 0.560302 0.659605
Si Si8 0.868973 0.267029 0.675628
O O1 0.500000 0.115431 0.500000
O O2 0.478330 0.198165 0.249084
O O3 0.418596 0.105858 0.235206
O O4 0.500000 0.115683 0.000000
O O5 0.693143 0.144962 0.046073
O O6 0.707235 0.082621 0.400801
O O7 0.643117 0.170692 0.393333
O O8 0.621364 0.078249 0.169321
O O9 0.284548 0.317343 0.123735
O O10 0.348743 0.264484 0.435037
O O11 0.272389 0.215900 0.225977
O O12 0.343684 0.250588 0.932726
O O13 0.500000 0.716694 0.500000
O O14 0.571307 0.762505 0.273906
O O15 0.500000 0.718544 0.000000
O O16 0.258661 0.608647 0.775594
O O17 0.670656 0.056452 0.788697
O O18 0.591026 0.000000 0.868131
O O19 0.247198 0.500000 0.658806
#
# Coordination Sequence:
#
# PCOD9179868 Si02
#       8
#     8   8   8   8   8   8   8   8
#     4  10  22  35  49  65  86 120 161 216 264 307
#     4  10  19  31  52  69  95 128 165 214 259 302
#     4  10  21  34  54  78 100 128 166 214 264 307
#     4  10  20  32  49  69  95 125 163 207 251 307
#     4   9  20  33  50  73 104 126 165 213 261 305
#     4  10  22  35  47  66  92 128 174 221 263 303
#     4  10  20  33  51  72  98 134 174 213 257 303
#     4  11  21  33  53  75  97 128 168 211 263 305
#
# _framework density 17.714138999999999
#
# number of rings (size 3 to 8) (size 9 to 14) (size 15 to 20)
#    0.000    2.000    1.250    2.625    7.000    2.500 
#    0.000    0.000    0.000    0.000    0.000    0.000 
#    0.000    0.000    0.000    0.000    0.000   12.500 
#
# Total GULP energy -178135.527275 kJ/mol
# GULP energy per Si atom -5566.735227 kJ/mol
# Density = 1.767382 g / cm^3
# Si number density = 17.714139 Si / 1000 Ang^3
#
#
#
# Elastic Constant Matrix: (Units=GPa)
#
#
# Indices 1 2 3 4 5 6 
#
# 1 22.4606 1.2190 6.1201 0.0000 1.7806 0.0000
# 2 1.2190 50.9736 15.1729 0.0000 9.7356 0.0000
# 3 6.1201 15.1729 103.3344 0.0000 12.2406 0.0000
# 4 0.0000 0.0000 0.0000 29.3668 0.0000 17.4267
# 5 1.7806 9.7356 12.2406 0.0000 21.7296 0.0000
# 6 0.0000 0.0000 0.0000 17.4267 0.0000 18.4460
#
#
#
# Elastic Compliance Matrix: (Units=1/GPa)
#
#
# Indices 1 2 3 4 5 6 
#
# 1 0.045366 0.000092 -0.002416 0.000000 -0.002398 0.000000
# 2 0.000092 0.021912 -0.002206 0.000000 -0.008582 0.000000
# 3 -0.002416 -0.002206 0.010719 0.000000 -0.004852 0.000000
# 4 0.000000 0.000000 0.000000 0.077501 0.000000 -0.073219
# 5 -0.002398 -0.008582 -0.004852 0.000000 0.052795 0.000000
# 6 0.000000 0.000000 0.000000 -0.073219 0.000000 0.123385
#
#
# Mechanical properties :
#
#
# Convention : Reuss Voigt Hill
#
# Bulk Modulus (GPa) = 14.50622 24.64362 19.57492
# Shear Modulus (GPa) = 13.74695 24.19226 18.96960
#
# Velocity S-wave (km/s) = 2.78878 3.69955 3.27597
# Velocity P-wave (km/s) = 4.31005 5.67371 5.03823
#
# Compressibility (1/GPa) = 0.06893593
#
# Stress axis : x y z
#
# Youngs Moduli (GPa) = 22.04300 45.63803 93.29145
#
# Poissons Ratio (x) = -0.00421 0.22543
# Poissons Ratio (y) = -0.00204 0.20582
# Poissons Ratio (z) = 0.05326 0.10069
#
# Static dielectric constant tensor:
#      x y z
#    x 1.644240 0.000000 -0.061150 
#    y 0.000000 1.629220 0.000000 
#    z -0.061150 0.000000 1.828940 
# 
# From -- ./inp_files/29496.got.cif
#   From: 2010.05.17/outbox.cif.g08.bks.cpg/sg12_15_cif.got.tgz:29496.got - 2010.06.03 13:09:07.
