data_PCOD9179506
_publ_section_title
;
Structure prediction by ZEFSAII (Michael W. Deem and Ramdas Pophale) SiO2 
 PCOD9179506
Probable space group: C 2/M
;
_chemical_formula_sum "Si O2"
_cell_formula_units_Z 48
_cell_length_a 18.930578
_cell_length_b 8.684059
_cell_length_c 19.279304
_cell_angle_alpha 90.000000
_cell_angle_beta 61.322542
_cell_angle_gamma 90.000000
_cell_volume 2780.631651
_symmetry_space_group_name_H-M "C 2/M"
_symmetry_group_IT_number 12
_symmetry_cell_setting 'monoclinic'
loop_
_space_group_symop_operation_xyz
x,y,z
-x,y,-z
-x,-y,-z
x,-y,z
1/2+x,1/2+y,z
1/2-x,1/2+y,-z
1/2-x,1/2-y,-z
1/2+x,1/2-y,z
loop_
_atom_site_type_symbol
_atom_site_label
_atom_site_fract_x
_atom_site_fract_y
_atom_site_fract_z
Si Si1 0.574475 0.187222 0.009963
Si Si2 0.081059 0.315408 0.168122
Si Si3 0.751081 0.814923 0.921205
Si Si4 0.507718 0.314660 0.663493
Si Si5 0.834661 0.317295 0.485437
Si Si6 0.587479 0.323177 0.421252
O O1 0.661833 0.227753 0.937039
O O2 0.571786 0.000000 0.011917
O O3 0.500000 0.244475 0.000000
O O4 0.569781 0.234293 0.093013
O O5 0.078983 0.500000 0.171370
O O6 0.169489 0.256660 0.149516
O O7 0.015075 0.245576 0.250263
O O8 0.758090 0.000000 0.918537
O O9 0.750000 0.750000 0.000000
O O10 0.510502 0.500000 0.660049
O O11 0.591846 0.250838 0.594812
O O12 0.436161 0.265091 0.643927
O O13 0.834298 0.500000 0.479102
O O14 0.750000 0.250000 0.500000
O O15 0.854448 0.270597 0.555729
O O16 0.500000 0.325362 0.500000
O O17 0.616087 0.500000 0.403840
#
# Coordination Sequence:
#
# PCOD9179506 Si02
#       6
#     8   8   8   8   8   8
#     4   8  15  29  49  72  97 128 166 204 246 298
#     4  10  19  31  50  74  99 129 167 211 254 301
#     4   9  16  28  48  70  93 124 161 202 246 297
#     4  10  20  35  54  75 102 134 169 212 260 307
#     4  11  21  34  54  78 105 136 170 208 251 303
#     4   8  16  32  52  73  97 128 166 204 246 299
#
# _framework density 17.262264999999999
#
# number of rings (size 3 to 8) (size 9 to 14) (size 15 to 20)
#    0.000    2.667    0.000    5.000    0.000    3.667 
#    0.000    1.667    0.000   26.000    0.000    0.000 
#    0.000    0.000    0.000    0.000    0.000    0.000 
#
# Total GULP energy -133669.358446 kJ/mol
# GULP energy per Si atom -5569.556602 kJ/mol
# Density = 1.722298 g / cm^3
# Si number density = 17.262265 Si / 1000 Ang^3
#
#
#
# Elastic Constant Matrix: (Units=GPa)
#
#
# Indices 1 2 3 4 5 6 
#
# 1 139.8835 45.7023 46.8510 0.0000 -10.9719 0.0000
# 2 45.7023 73.8278 28.5692 0.0000 -5.6216 -0.0001
# 3 46.8510 28.5692 81.4074 0.0000 -4.5264 0.0000
# 4 0.0000 0.0000 0.0000 27.2416 0.0000 -3.7168
# 5 -10.9719 -5.6216 -4.5264 0.0000 18.8863 0.0000
# 6 0.0000 -0.0001 0.0000 -3.7168 0.0000 23.4975
#
#
#
# Elastic Compliance Matrix: (Units=1/GPa)
#
#
# Indices 1 2 3 4 5 6 
#
# 1 0.010289 -0.004488 -0.004144 0.000000 0.003648 0.000000
# 2 -0.004488 0.017849 -0.003578 0.000000 0.001848 0.000000
# 3 -0.004144 -0.003578 0.015944 0.000000 0.000349 0.000000
# 4 0.000000 0.000000 0.000000 0.037518 0.000000 0.005935
# 5 0.003648 0.001848 0.000349 0.000000 0.055702 0.000000
# 6 0.000000 0.000000 0.000000 0.005935 0.000000 0.043496
#
#
# Mechanical properties :
#
#
# Convention : Reuss Voigt Hill
#
# Bulk Modulus (GPa) = 50.85996 59.70709 55.28353
# Shear Modulus (GPa) = 23.61034 25.52482 24.56758
#
# Velocity S-wave (km/s) = 3.70231 3.84949 3.77662
# Velocity P-wave (km/s) = 6.91399 7.37709 7.14929
#
# Compressibility (1/GPa) = 0.01966183
#
# Stress axis : x y z
#
# Youngs Moduli (GPa) = 97.18990 56.02648 62.72068
#
# Poissons Ratio (x) = 0.25145 0.25989
# Poissons Ratio (y) = 0.43620 0.22442
# Poissons Ratio (z) = 0.40272 0.20047
#
# Static dielectric constant tensor:
#      x y z
#    x 1.607950 0.000000 0.007470 
#    y 0.000000 1.581880 0.000000 
#    z 0.007470 0.000000 1.566980 
# 
# From -- ./inp_files/318978.got.cif
#   From: 2010.05.17/outbox.cif.g08.bks.cpg/sg12_160_cif.got.tgz:318978.got - 2010.06.03 13:09:07.
