data_PCOD9179391
_publ_section_title
;
Structure prediction by ZEFSAII (Michael W. Deem and Ramdas Pophale) SiO2 
 PCOD9179391
Probable space group: C 2/M
;
_chemical_formula_sum "Si O2"
_cell_formula_units_Z 48
_cell_length_a 20.643726
_cell_length_b 15.399842
_cell_length_c 12.090274
_cell_angle_alpha 90.000000
_cell_angle_beta 135.987826
_cell_angle_gamma 90.000000
_cell_volume 2670.590522
_symmetry_space_group_name_H-M "C 2/M"
_symmetry_group_IT_number 12
_symmetry_cell_setting 'monoclinic'
loop_
_space_group_symop_operation_xyz
x,y,z
-x,y,-z
-x,-y,-z
x,-y,z
1/2+x,1/2+y,z
1/2-x,1/2+y,-z
1/2-x,1/2-y,-z
1/2+x,1/2-y,z
loop_
_atom_site_type_symbol
_atom_site_label
_atom_site_fract_x
_atom_site_fract_y
_atom_site_fract_z
Si Si1 0.535159 0.233100 0.670091
Si Si2 0.681575 0.902722 0.792555
Si Si3 0.870229 0.899531 0.907153
Si Si4 0.707791 0.341010 0.410541
Si Si5 0.393863 0.093205 0.552834
Si Si6 0.982401 0.100783 0.731902
O O1 0.500000 0.236436 0.500000
O O2 0.630257 0.176999 0.788666
O O3 0.461619 0.174513 0.648858
O O4 0.531771 0.329519 0.713693
O O5 0.790950 0.890512 0.904384
O O6 0.637428 0.905258 0.614446
O O7 0.666437 0.000000 0.821440
O O8 0.840316 0.838639 0.769852
O O9 0.864417 0.000000 0.859057
O O10 0.968333 0.888102 0.087687
O O11 0.750000 0.250000 0.500000
O O12 0.799533 0.399406 0.506741
O O13 0.626942 0.376647 0.390619
O O14 0.439988 0.000000 0.629691
O O15 0.994846 0.000000 0.715801
#
# Coordination Sequence:
#
# PCOD9179391 Si02
#       6
#     8   8   8   8   8   8
#     4  10  19  31  49  76 106 138 175 213 255 304
#     4   8  15  29  51  75 100 127 165 216 261 301
#     4   9  19  35  55  79 104 132 172 221 267 305
#     4  11  19  32  53  79 103 128 165 218 269 311
#     4   9  16  29  49  75 101 126 162 215 267 302
#     4  11  22  35  51  75 109 145 175 209 256 309
#
# _framework density 17.973552999999999
#
# number of rings (size 3 to 8) (size 9 to 14) (size 15 to 20)
#    0.000    2.333    1.667    3.500    0.000    4.333 
#    0.000    0.000    0.000    0.000    0.000    7.000 
#    0.000    0.000    0.000    0.000    0.000    0.000 
#
# Total GULP energy -133681.083147 kJ/mol
# GULP energy per Si atom -5570.045131 kJ/mol
# Density = 1.793264 g / cm^3
# Si number density = 17.973553 Si / 1000 Ang^3
#
#
#
# Elastic Constant Matrix: (Units=GPa)
#
#
# Indices 1 2 3 4 5 6 
#
# 1 67.7712 48.9364 13.2742 0.0000 14.1490 0.0000
# 2 48.9364 143.2860 35.6226 0.0000 4.9657 0.0000
# 3 13.2742 35.6226 43.0371 0.0000 10.1058 0.0000
# 4 0.0000 0.0000 0.0000 19.2533 0.0000 -4.9813
# 5 14.1490 4.9657 10.1058 0.0000 19.2703 0.0000
# 6 0.0000 0.0000 0.0000 -4.9813 0.0000 24.7888
#
#
#
# Elastic Compliance Matrix: (Units=1/GPa)
#
#
# Indices 1 2 3 4 5 6 
#
# 1 0.023691 -0.008413 0.003686 0.000000 -0.017160 0.000000
# 2 -0.008413 0.011828 -0.009044 0.000000 0.007872 0.000000
# 3 0.003686 -0.009044 0.033840 0.000000 -0.018122 0.000000
# 4 0.000000 0.000000 0.000000 0.054788 0.000000 0.011010
# 5 -0.017160 0.007872 -0.018122 0.000000 0.071968 0.000000
# 6 0.000000 0.000000 0.000000 0.011010 0.000000 0.042553
#
#
# Mechanical properties :
#
#
# Convention : Reuss Voigt Hill
#
# Bulk Modulus (GPa) = 23.91372 49.97341 36.94356
# Shear Modulus (GPa) = 17.84773 23.07990 20.46381
#
# Velocity S-wave (km/s) = 3.15461 3.58733 3.37790
# Velocity P-wave (km/s) = 5.15777 6.70990 5.98437
#
# Compressibility (1/GPa) = 0.04181701
#
# Stress axis : x y z
#
# Youngs Moduli (GPa) = 42.21046 84.54646 29.55079
#
# Poissons Ratio (x) = 0.71127 -0.10891
# Poissons Ratio (y) = 0.35510 0.26725
# Poissons Ratio (z) = -0.15557 0.76462
#
# Static dielectric constant tensor:
#      x y z
#    x 1.674700 0.000000 0.025090 
#    y 0.000000 1.631230 0.000000 
#    z 0.025090 0.000000 1.602700 
# 
# From -- ./inp_files/167619.got.cif
#   From: 2010.05.17/outbox.cif.g08.bks.cpg/sg12_84_cif.got.tgz:167619.got - 2010.06.03 13:09:07.
