data_PCOD9179954
_publ_section_title
;
Structure prediction by ZEFSAII (Michael W. Deem and Ramdas Pophale) SiO2 
 PCOD9179954
Probable space group: C 2/M
;
_chemical_formula_sum "Si O2"
_cell_formula_units_Z 56
_cell_length_a 8.415070
_cell_length_b 19.233667
_cell_length_c 19.428234
_cell_angle_alpha 90.000000
_cell_angle_beta 124.761081
_cell_angle_gamma 90.000000
_cell_volume 2583.331340
_symmetry_space_group_name_H-M "C 2/M"
_symmetry_group_IT_number 12
_symmetry_cell_setting 'monoclinic'
loop_
_space_group_symop_operation_xyz
x,y,z
-x,y,-z
-x,-y,-z
x,-y,z
1/2+x,1/2+y,z
1/2-x,1/2+y,-z
1/2-x,1/2-y,-z
1/2+x,1/2-y,z
loop_
_atom_site_type_symbol
_atom_site_label
_atom_site_fract_x
_atom_site_fract_y
_atom_site_fract_z
Si Si1 0.597530 0.654881 0.695189
Si Si2 0.756591 0.578747 0.601879
Si Si3 0.885356 0.920678 0.161191
Si Si4 0.270776 0.082862 0.447646
Si Si5 0.659475 0.925455 0.754376
Si Si6 0.173211 0.721261 0.806702
Si Si7 0.899355 0.205443 0.079432
O O1 0.692728 0.630457 0.646777
O O2 0.676575 0.611052 0.780643
O O3 0.372215 0.632074 0.631231
O O4 0.637758 0.734484 0.728153
O O5 0.693719 0.500000 0.605845
O O6 0.700026 0.592695 0.509484
O O7 0.991308 0.575717 0.656614
O O8 0.829713 0.871774 0.082616
O O9 0.121294 0.919634 0.217539
O O10 0.822270 0.000000 0.138578
O O11 0.500000 0.098681 0.500000
O O12 0.246624 0.000000 0.424394
O O13 0.613687 0.857952 0.786485
O O14 0.643189 0.000000 0.786893
O O15 0.057929 0.763427 0.834485
O O16 0.384738 0.713590 0.894597
O O17 0.750000 0.250000 0.000000
#
# Coordination Sequence:
#
# PCOD9179954 Si02
#       7
#     8   8   8   8   8   8   8
#     4  11  20  32  53  81 116 145 180 230 277 330
#     4  10  19  31  52  81 112 145 182 228 277 320
#     4   9  18  33  55  80 106 144 187 225 271 328
#     4  10  20  34  53  79 113 155 197 232 272 323
#     4   9  18  35  56  78 105 138 182 229 270 324
#     4  10  21  36  57  83 109 145 183 221 279 341
#     4  10  20  36  58  81 111 144 179 225 277 337
#
# _framework density 21.677436
#
# number of rings (size 3 to 8) (size 9 to 14) (size 15 to 20)
#    0.000    2.143    0.000    3.857    0.000    3.429 
#    0.000    1.429    0.000   15.429    0.000    0.000 
#    0.000    0.000    0.000    0.000    0.000    0.000 
#
# Total GULP energy -155983.176225 kJ/mol
# GULP energy per Si atom -5570.827722 kJ/mol
# Density = 2.162810 g / cm^3
# Si number density = 21.677436 Si / 1000 Ang^3
#
#
#
# Elastic Constant Matrix: (Units=GPa)
#
#
# Indices 1 2 3 4 5 6 
#
# 1 46.7885 15.5061 21.9348 0.0000 1.8336 0.0000
# 2 15.5061 141.1656 41.5439 0.0000 -1.6654 0.0000
# 3 21.9348 41.5439 84.9650 0.0000 15.1494 0.0000
# 4 0.0000 0.0000 0.0000 22.3626 0.0000 4.0252
# 5 1.8336 -1.6654 15.1494 0.0000 40.7471 0.0000
# 6 0.0000 0.0000 0.0000 4.0252 0.0000 16.6460
#
#
#
# Elastic Compliance Matrix: (Units=1/GPa)
#
#
# Indices 1 2 3 4 5 6 
#
# 1 0.024475 -0.000884 -0.006087 0.000000 0.001126 0.000000
# 2 -0.000884 0.008457 -0.004258 0.000000 0.001969 0.000000
# 3 -0.006087 -0.004258 0.016499 0.000000 -0.006034 0.000000
# 4 0.000000 0.000000 0.000000 0.046752 0.000000 -0.011305
# 5 0.001126 0.001969 -0.006034 0.000000 0.026815 0.000000
# 6 0.000000 0.000000 0.000000 -0.011305 0.000000 0.062808
#
#
# Mechanical properties :
#
#
# Convention : Reuss Voigt Hill
#
# Bulk Modulus (GPa) = 37.07347 47.87653 42.47500
# Shear Modulus (GPa) = 23.01430 28.88009 25.94720
#
# Velocity S-wave (km/s) = 3.26186 3.65398 3.46348
# Velocity P-wave (km/s) = 5.59695 6.31949 5.96916
#
# Compressibility (1/GPa) = 0.02697346
#
# Stress axis : x y z
#
# Youngs Moduli (GPa) = 40.85760 118.24126 60.60992
#
# Poissons Ratio (x) = 0.10450 0.36895
# Poissons Ratio (y) = 0.03611 0.25808
# Poissons Ratio (z) = 0.24871 0.50348
#
# Static dielectric constant tensor:
#      x y z
#    x 1.881100 0.000000 0.010880 
#    y 0.000000 1.819740 0.000000 
#    z 0.010880 0.000000 1.780440 
# 
# From -- ./inp_files/258257.got.cif
#   From: 2010.05.17/outbox.cif.g08.bks.cpg/sg12_130_cif.got.tgz:258257.got - 2010.06.03 13:09:07.
