data_PCOD9179227
_publ_section_title
;
Structure prediction by ZEFSAII (Michael W. Deem and Ramdas Pophale) SiO2 
 PCOD9179227
Probable space group: C 2/M
;
_chemical_formula_sum "Si O2"
_cell_formula_units_Z 64
_cell_length_a 15.393637
_cell_length_b 23.921161
_cell_length_c 14.489183
_cell_angle_alpha 90.000000
_cell_angle_beta 144.405694
_cell_angle_gamma 90.000000
_cell_volume 3105.430672
_symmetry_space_group_name_H-M "C 2/M"
_symmetry_group_IT_number 12
_symmetry_cell_setting 'monoclinic'
loop_
_space_group_symop_operation_xyz
x,y,z
-x,y,-z
-x,-y,-z
x,-y,z
1/2+x,1/2+y,z
1/2-x,1/2+y,-z
1/2-x,1/2-y,-z
1/2+x,1/2-y,z
loop_
_atom_site_type_symbol
_atom_site_label
_atom_site_fract_x
_atom_site_fract_y
_atom_site_fract_z
Si Si1 0.695811 0.690980 0.771469
Si Si2 0.185302 0.322153 0.806239
Si Si3 0.938017 0.589196 0.534571
Si Si4 0.051622 0.342481 0.884165
Si Si5 0.571856 0.646160 0.353553
Si Si6 0.337343 0.937043 0.642859
Si Si7 0.338194 0.344535 0.761399
Si Si8 0.241722 0.275532 0.373674
O O1 0.671188 0.755146 0.784512
O O2 0.576718 0.650464 0.715629
O O3 0.692436 0.691424 0.658421
O O4 0.857065 0.671832 0.946168
O O5 0.167832 0.339270 0.898378
O O6 0.329267 0.339095 0.865722
O O7 0.044865 0.356302 0.641482
O O8 0.923929 0.560430 0.619890
O O9 0.773546 0.606385 0.361942
O O10 0.000000 0.558152 0.500000
O O11 0.950842 0.398450 0.799685
O O12 0.928203 0.294790 0.760056
O O13 0.685694 0.597660 0.487234
O O14 0.540975 0.647295 0.216505
O O15 0.661881 0.703126 0.457754
O O16 0.310118 0.000000 0.653112
O O17 0.256985 0.287415 0.659696
#
# Coordination Sequence:
#
# PCOD9179227 Si02
#       8
#     8   8   8   8   8   8   8   8
#     4  11  20  31  49  75 103 132 164 197 239 293
#     4   9  17  28  46  74 108 137 160 188 231 295
#     4   8  14  26  46  75 104 129 161 199 239 291
#     4  10  20  34  50  70 101 134 167 203 240 288
#     4  10  19  32  51  72  98 126 161 206 248 290
#     4   9  19  35  53  70  92 127 168 214 259 290
#     4   9  16  27  46  74 105 135 161 187 232 294
#     4  10  19  31  49  72 101 134 164 195 236 291
#
# _framework density 20.609058000000001
#
# number of rings (size 3 to 8) (size 9 to 14) (size 15 to 20)
#    0.000    2.500    0.000    3.750    0.000    2.250 
#    0.000    2.500    0.000   12.000    0.000    0.000 
#    0.000    8.000    0.000    0.000    0.000    0.000 
#
# Total GULP energy -178141.777228 kJ/mol
# GULP energy per Si atom -5566.930538 kJ/mol
# Density = 2.056215 g / cm^3
# Si number density = 20.609058 Si / 1000 Ang^3
#
#
#
# Elastic Constant Matrix: (Units=GPa)
#
#
# Indices 1 2 3 4 5 6 
#
# 1 111.0770 1.1200 15.3552 0.0000 4.1292 0.0000
# 2 1.1200 101.8238 16.6015 0.0000 6.6464 0.0000
# 3 15.3552 16.6015 54.7607 0.0000 0.8108 0.0000
# 4 0.0000 0.0000 0.0000 -4.8243 0.0000 7.0402
# 5 4.1292 6.6464 0.8108 0.0000 31.0623 0.0000
# 6 0.0000 0.0000 0.0000 7.0402 0.0000 0.5850
#
#
#
# Elastic Compliance Matrix: (Units=1/GPa)
#
#
# Indices 1 2 3 4 5 6 
#
# 1 0.009427 0.000428 -0.002754 0.000000 -0.001273 0.000000
# 2 0.000428 0.010494 -0.003269 0.000000 -0.002217 0.000000
# 3 -0.002754 -0.003269 0.020016 0.000000 0.000543 0.000000
# 4 0.000000 0.000000 0.000000 -0.011167 0.000000 0.134390
# 5 -0.001273 -0.002217 0.000543 0.000000 0.032823 0.000000
# 6 0.000000 0.000000 0.000000 0.134390 0.000000 0.092091
#
#
# Mechanical properties :
#
#
# Convention : Reuss Voigt Hill
#
# Bulk Modulus (GPa) = 34.78524 37.09056 35.93790
# Shear Modulus (GPa) = 28.66070 21.00359 24.83215
#
# Velocity S-wave (km/s) = 3.73323 3.19587 3.47495
# Velocity P-wave (km/s) = 5.95802 5.62622 5.79449
#
# Compressibility (1/GPa) = 0.02874782
#
# Stress axis : x y z
#
# Youngs Moduli (GPa) = 106.08376 95.29428 49.95880
#
# Poissons Ratio (x) = -0.04083 0.13760
# Poissons Ratio (y) = -0.04545 0.16330
# Poissons Ratio (z) = 0.29219 0.31148
#
# Static dielectric constant tensor:
#      x y z
#    x 1.841870 0.000000 -0.012070 
#    y 0.000000 1.765350 0.000000 
#    z -0.012070 0.000000 1.732430 
# 
# From -- ./inp_files/218957.got.cif
#   From: 2010.05.17/outbox.cif.g08.bks.cpg/sg12_110_cif.got.tgz:218957.got - 2010.06.03 13:09:07.
