data_PCOD9179414
_publ_section_title
;
Structure prediction by ZEFSAII (Michael W. Deem and Ramdas Pophale) SiO2 
 PCOD9179414
Probable space group: C 2/M
;
_chemical_formula_sum "Si O2"
_cell_formula_units_Z 48
_cell_length_a 23.431643
_cell_length_b 8.756188
_cell_length_c 17.505468
_cell_angle_alpha 90.000000
_cell_angle_beta 48.646287
_cell_angle_gamma 90.000000
_cell_volume 2696.039082
_symmetry_space_group_name_H-M "C 2/M"
_symmetry_group_IT_number 12
_symmetry_cell_setting 'monoclinic'
loop_
_space_group_symop_operation_xyz
x,y,z
-x,y,-z
-x,-y,-z
x,-y,z
1/2+x,1/2+y,z
1/2-x,1/2+y,-z
1/2-x,1/2-y,-z
1/2+x,1/2-y,z
loop_
_atom_site_type_symbol
_atom_site_label
_atom_site_fract_x
_atom_site_fract_y
_atom_site_fract_z
Si Si1 0.127311 0.816939 0.114797
Si Si2 0.022326 0.676412 0.701627
Si Si3 0.747408 0.317789 0.881593
Si Si4 0.182708 0.815805 0.507998
Si Si5 0.065292 0.332597 0.380247
Si Si6 0.793206 0.176638 0.689235
O O1 0.178727 0.749177 0.138888
O O2 0.040867 0.756445 0.189340
O O3 0.126494 0.000000 0.123649
O O4 0.174607 0.773199 0.997065
O O5 0.035145 0.500000 0.712666
O O6 0.102642 0.756018 0.612857
O O7 0.977005 0.678952 0.661848
O O8 0.752951 0.500000 0.879470
O O9 0.743634 0.261922 0.797458
O O10 0.250000 0.750000 0.500000
O O11 0.198707 0.766872 0.405444
O O12 0.181772 0.000000 0.509650
O O13 0.104807 0.500000 0.349260
O O14 0.122993 0.200110 0.349608
O O15 0.000000 0.332049 0.500000
O O16 0.771139 0.000000 0.706393
#
# Coordination Sequence:
#
# PCOD9179414 Si02
#       6
#     8   8   8   8   8   8
#     4  10  20  33  51  79 115 151 186 223 265 321
#     4  11  21  34  56  83 113 148 183 223 274 330
#     4  10  20  33  51  78 114 153 186 219 268 326
#     4  11  25  42  59  81 108 143 187 233 281 329
#     4  10  19  31  49  77 111 145 179 214 266 332
#     4  11  22  34  54  81 111 144 181 227 274 325
#
# _framework density 17.803896999999999
#
# number of rings (size 3 to 8) (size 9 to 14) (size 15 to 20)
#    0.000    1.500    3.333    2.500    0.000    5.000 
#    0.000    0.000    0.000    1.000    0.000    7.000 
#    0.000    0.000    0.000    0.000    0.000    0.000 
#
# Total GULP energy -133784.534586 kJ/mol
# GULP energy per Si atom -5574.355608 kJ/mol
# Density = 1.776337 g / cm^3
# Si number density = 17.803897 Si / 1000 Ang^3
#
#
#
# Elastic Constant Matrix: (Units=GPa)
#
#
# Indices 1 2 3 4 5 6 
#
# 1 63.4364 33.5651 58.0551 0.0000 -4.8890 -0.0001
# 2 33.5651 71.1770 45.1912 -0.0001 -5.9333 -0.0001
# 3 58.0551 45.1912 166.1512 -0.0001 -14.4935 0.0000
# 4 0.0000 -0.0001 -0.0001 30.4889 0.0000 -3.3592
# 5 -4.8890 -5.9333 -14.4935 0.0000 11.5502 0.0001
# 6 -0.0001 -0.0001 0.0000 -3.3592 0.0001 22.4508
#
#
#
# Elastic Compliance Matrix: (Units=1/GPa)
#
#
# Indices 1 2 3 4 5 6 
#
# 1 0.026506 -0.008069 -0.007243 0.000000 -0.002013 0.000000
# 2 -0.008069 0.019550 -0.002156 0.000000 0.003922 0.000000
# 3 -0.007243 -0.002156 0.009850 0.000000 0.008187 0.000000
# 4 0.000000 0.000000 0.000000 0.033349 0.000000 0.004990
# 5 -0.002013 0.003922 0.008187 0.000000 0.098014 0.000000
# 6 0.000000 0.000000 0.000000 0.004990 0.000000 0.045289
#
#
# Mechanical properties :
#
#
# Convention : Reuss Voigt Hill
#
# Bulk Modulus (GPa) = 47.68413 63.82083 55.75248
# Shear Modulus (GPa) = 18.21606 23.82818 21.02212
#
# Velocity S-wave (km/s) = 3.20214 3.66234 3.43995
# Velocity P-wave (km/s) = 6.36496 7.33540 6.86734
#
# Compressibility (1/GPa) = 0.02097134
#
# Stress axis : x y z
#
# Youngs Moduli (GPa) = 37.72693 51.14978 101.52547
#
# Poissons Ratio (x) = 0.41273 0.73530
# Poissons Ratio (y) = 0.30442 0.21888
# Poissons Ratio (z) = 0.27324 0.11027
#
# Static dielectric constant tensor:
#      x y z
#    x 1.568000 0.000000 0.009660 
#    y 0.000000 1.543670 0.000000 
#    z 0.009660 0.000000 1.681670 
# 
# From -- ./inp_files/281824.got.cif
#   From: 2010.05.17/outbox.cif.g08.bks.cpg/sg12_141_cif.got.tgz:281824.got - 2010.06.03 13:09:07.
