data_PCOD9179172
_publ_section_title
;
Structure prediction by ZEFSAII (Michael W. Deem and Ramdas Pophale) SiO2 
 PCOD9179172
Probable space group: C 2/M
;
_chemical_formula_sum "Si O2"
_cell_formula_units_Z 64
_cell_length_a 13.951887
_cell_length_b 9.388205
_cell_length_c 23.641171
_cell_angle_alpha 90.000000
_cell_angle_beta 65.168920
_cell_angle_gamma 90.000000
_cell_volume 2810.314802
_symmetry_space_group_name_H-M "C 2/M"
_symmetry_group_IT_number 12
_symmetry_cell_setting 'monoclinic'
loop_
_space_group_symop_operation_xyz
x,y,z
-x,y,-z
-x,-y,-z
x,-y,z
1/2+x,1/2+y,z
1/2-x,1/2+y,-z
1/2-x,1/2-y,-z
1/2+x,1/2-y,z
loop_
_atom_site_type_symbol
_atom_site_label
_atom_site_fract_x
_atom_site_fract_y
_atom_site_fract_z
Si Si1 0.622716 0.827890 0.985129
Si Si2 0.477636 0.663641 0.760635
Si Si3 0.030207 0.659712 0.643365
Si Si4 0.271551 0.336796 0.268422
Si Si5 0.772216 0.161188 0.615604
Si Si6 0.824924 0.334467 0.147372
Si Si7 0.075639 0.666223 0.118093
Si Si8 0.095803 0.159367 0.519789
O O1 0.684046 0.774763 0.914350
O O2 0.635654 0.000000 0.983314
O O3 0.500000 0.800903 0.000000
O O4 0.635414 0.779040 0.046741
O O5 0.447052 0.500000 0.759790
O O6 0.466324 0.754651 0.706460
O O7 0.603305 0.663124 0.745207
O O8 0.419311 0.736571 0.827912
O O9 0.991777 0.500000 0.641974
O O10 0.147130 0.647025 0.641257
O O11 0.053023 0.745844 0.580831
O O12 0.240940 0.500000 0.268115
O O13 0.209570 0.262484 0.335625
O O14 0.268173 0.250567 0.210936
O O15 0.812626 0.216107 0.544638
O O16 0.815871 0.000000 0.613206
O O17 0.793459 0.500000 0.155587
O O18 0.950551 0.333785 0.131780
O O19 0.103107 0.500000 0.122473
O O20 0.000000 0.147466 0.500000
O O21 0.125692 0.000000 0.532695
#
# Coordination Sequence:
#
# PCOD9179172 Si02
#       8
#     8   8   8   8   8   8   8   8
#     4   7  10  16  27  43  64  96 137 175 210 252
#     4   9  16  25  37  55  80 108 140 179 221 260
#     4  10  19  31  49  70  90 115 149 185 217 255
#     4   9  16  24  36  56  80 106 139 181 222 255
#     4   9  18  32  49  68  89 116 149 181 216 261
#     4   8  12  19  31  46  68 101 139 176 214 257
#     4   8  12  19  31  47  69  99 138 179 215 254
#     4  10  21  36  52  70  93 118 142 174 220 269
#
# _framework density 22.773249
#
# number of rings (size 3 to 8) (size 9 to 14) (size 15 to 20)
#    0.000    3.250    0.000    3.000    0.000    4.250 
#    0.000    0.625    0.000    3.750    0.000    0.000 
#    0.000    0.000    0.000    1.125    0.000   13.750 
#
# Total GULP energy -178684.586667 kJ/mol
# GULP energy per Si atom -5583.893333 kJ/mol
# Density = 2.272142 g / cm^3
# Si number density = 22.773249 Si / 1000 Ang^3
#
#
#
# Elastic Constant Matrix: (Units=GPa)
#
#
# Indices 1 2 3 4 5 6 
#
# 1 44.2238 -1.2007 20.5060 0.0000 -5.7243 0.0000
# 2 -1.2007 138.7808 141.1917 0.0000 22.5666 0.0000
# 3 20.5060 141.1917 273.7326 0.0000 12.3240 0.0000
# 4 0.0000 0.0000 0.0000 33.1396 0.0000 -0.7389
# 5 -5.7243 22.5666 12.3240 0.0000 40.4896 0.0000
# 6 0.0000 0.0000 0.0000 -0.7389 0.0000 -9.2226
#
#
#
# Elastic Compliance Matrix: (Units=1/GPa)
#
#
# Indices 1 2 3 4 5 6 
#
# 1 0.024880 0.003805 -0.003943 0.000000 0.002597 0.000000
# 2 0.003805 0.017424 -0.008983 0.000000 -0.006439 0.000000
# 3 -0.003943 -0.008983 0.008498 0.000000 0.001862 0.000000
# 4 0.000000 0.000000 0.000000 0.030122 0.000000 -0.002413
# 5 0.002597 -0.006439 0.001862 0.000000 0.028087 0.000000
# 6 0.000000 0.000000 0.000000 -0.002413 0.000000 -0.108236
#
#
# Mechanical properties :
#
#
# Convention : Reuss Voigt Hill
#
# Bulk Modulus (GPa) = 30.71245 86.41459 58.56352
# Shear Modulus (GPa) = 167.39298 32.63068 100.01183
#
# Velocity S-wave (km/s) = 8.58276 3.78941 6.63413
# Velocity P-wave (km/s) = 10.57042 7.56136 9.18989
#
# Compressibility (1/GPa) = 0.03256009
#
# Stress axis : x y z
#
# Youngs Moduli (GPa) = 40.19269 57.39158 117.67547
#
# Poissons Ratio (x) = -0.21835 0.46402
# Poissons Ratio (y) = -0.15292 1.05702
# Poissons Ratio (z) = 0.15849 0.51552
#
# Static dielectric constant tensor:
#      x y z
#    x 1.924930 0.000000 -0.049650 
#    y 0.000000 1.796100 0.000000 
#    z -0.049650 0.000000 1.852290 
# 
# From -- ./inp_files/345545.got.cif
#   From: 2010.05.17/outbox.cif.g08.bks.cpg/sg12_173_cif.got.tgz:345545.got - 2010.06.03 13:09:07.
