data_PCOD9179874
_publ_section_title
;
Structure prediction by ZEFSAII (Michael W. Deem and Ramdas Pophale) SiO2 
 PCOD9179874
Probable space group: C 2/M
;
_chemical_formula_sum "Si O2"
_cell_formula_units_Z 56
_cell_length_a 8.378363
_cell_length_b 23.597010
_cell_length_c 12.781539
_cell_angle_alpha 90.000000
_cell_angle_beta 106.726429
_cell_angle_gamma 90.000000
_cell_volume 2420.049111
_symmetry_space_group_name_H-M "C 2/M"
_symmetry_group_IT_number 12
_symmetry_cell_setting 'monoclinic'
loop_
_space_group_symop_operation_xyz
x,y,z
-x,y,-z
-x,-y,-z
x,-y,z
1/2+x,1/2+y,z
1/2-x,1/2+y,-z
1/2-x,1/2-y,-z
1/2+x,1/2-y,z
loop_
_atom_site_type_symbol
_atom_site_label
_atom_site_fract_x
_atom_site_fract_y
_atom_site_fract_z
Si Si1 0.637022 0.063956 0.111888
Si Si2 0.576442 0.763703 0.910635
Si Si3 0.561803 0.939074 0.323528
Si Si4 0.535576 0.565572 0.623071
Si Si5 0.835917 0.219801 0.398569
Si Si6 0.033046 0.319662 0.674394
Si Si7 0.426927 0.348529 0.207723
O O1 0.522947 0.064005 0.194097
O O2 0.777861 0.112440 0.134195
O O3 0.714720 0.000000 0.121887
O O4 0.500000 0.070545 0.000000
O O5 0.560463 0.802125 0.802646
O O6 0.510074 0.700483 0.860054
O O7 0.500000 0.791650 0.000000
O O8 0.750000 0.750000 0.000000
O O9 0.473408 0.885295 0.353777
O O10 0.762320 0.933621 0.346372
O O11 0.523714 0.000000 0.363437
O O12 0.500000 0.586778 0.500000
O O13 0.481704 0.500000 0.622757
O O14 0.470322 0.603956 0.706524
O O15 0.650688 0.202444 0.395352
O O16 0.859168 0.188397 0.292017
O O17 0.000000 0.209127 0.500000
O O18 0.833307 0.285642 0.366825
#
# Coordination Sequence:
#
# PCOD9179874 Si02
#       7
#     8   8   8   8   8   8   8
#     4   9  17  29  50  80 108 143 188 240 289 325
#     4  11  25  39  57  81 113 159 197 238 293 351
#     4   9  18  31  52  83 111 140 188 241 283 331
#     4   9  16  29  53  83 115 148 186 239 296 338
#     4  11  22  37  56  85 117 157 190 234 292 349
#     4  11  22  38  59  85 119 149 194 242 286 351
#     4  10  19  31  52  76 113 144 187 239 283 341
#
# _framework density 23.140027
#
# number of rings (size 3 to 8) (size 9 to 14) (size 15 to 20)
#    0.000    2.000    2.857    3.857    2.000    0.000 
#    0.000    0.000    0.000    2.143    0.000   17.000 
#    0.000    0.000    0.000    0.000    0.000    0.000 
#
# Total GULP energy -155872.263227 kJ/mol
# GULP energy per Si atom -5566.866544 kJ/mol
# Density = 2.308736 g / cm^3
# Si number density = 23.140027 Si / 1000 Ang^3
#
#
#
# Elastic Constant Matrix: (Units=GPa)
#
#
# Indices 1 2 3 4 5 6 
#
# 1 7.3078 2.5640 9.0170 0.0000 7.0242 0.0000
# 2 2.5640 192.0652 20.9610 0.0000 -1.5449 0.0000
# 3 9.0170 20.9610 135.2456 0.0000 5.0873 0.0000
# 4 0.0000 0.0000 0.0000 8.9898 0.0000 4.7370
# 5 7.0242 -1.5449 5.0873 0.0000 25.2932 0.0000
# 6 0.0000 0.0000 0.0000 4.7370 0.0000 20.7705
#
#
#
# Elastic Compliance Matrix: (Units=1/GPa)
#
#
# Indices 1 2 3 4 5 6 
#
# 1 0.203693 -0.001931 -0.011234 0.000000 -0.054426 0.000000
# 2 -0.001931 0.005321 -0.000734 0.000000 0.001009 0.000000
# 3 -0.011234 -0.000734 0.008203 0.000000 0.001425 0.000000
# 4 0.000000 0.000000 0.000000 0.126431 0.000000 -0.028835
# 5 -0.054426 0.001009 0.001425 0.000000 0.054426 0.000000
# 6 0.000000 0.000000 0.000000 -0.028835 0.000000 0.054722
#
#
# Mechanical properties :
#
#
# Convention : Reuss Voigt Hill
#
# Bulk Modulus (GPa) = 5.27929 44.41140 24.84534
# Shear Modulus (GPa) = 9.19571 31.14914 20.17243
#
# Velocity S-wave (km/s) = 1.99564 3.67292 2.95575
# Velocity P-wave (km/s) = 2.75617 6.10093 4.73380
#
# Compressibility (1/GPa) = 0.18941925
#
# Stress axis : x y z
#
# Youngs Moduli (GPa) = 4.90935 187.95077 121.90577
#
# Poissons Ratio (x) = 0.36293 1.36947
# Poissons Ratio (y) = 0.00948 0.08946
# Poissons Ratio (z) = 0.05515 0.13792
#
# Static dielectric constant tensor:
#      x y z
#    x 1.751960 0.000000 0.053540 
#    y 0.000000 1.990980 0.000000 
#    z 0.053540 0.000000 1.868710 
# 
# From -- ./inp_files/198990.got.cif
#   From: 2010.05.17/outbox.cif.g08.bks.cpg/sg12_100_cif.got.tgz:198990.got - 2010.06.03 13:09:07.
