data_PCOD9179043
_publ_section_title
;
Structure prediction by ZEFSAII (Michael W. Deem and Ramdas Pophale) SiO2 
 PCOD9179043
Probable space group: C 2/M
;
_chemical_formula_sum "Si O2"
_cell_formula_units_Z 56
_cell_length_a 18.542468
_cell_length_b 12.853041
_cell_length_c 12.625552
_cell_angle_alpha 90.000000
_cell_angle_beta 108.133773
_cell_angle_gamma 90.000000
_cell_volume 2859.560962
_symmetry_space_group_name_H-M "C 2/M"
_symmetry_group_IT_number 12
_symmetry_cell_setting 'monoclinic'
loop_
_space_group_symop_operation_xyz
x,y,z
-x,y,-z
-x,-y,-z
x,-y,z
1/2+x,1/2+y,z
1/2-x,1/2+y,-z
1/2-x,1/2-y,-z
1/2+x,1/2-y,z
loop_
_atom_site_type_symbol
_atom_site_label
_atom_site_fract_x
_atom_site_fract_y
_atom_site_fract_z
Si Si1 0.145532 0.115502 0.273994
Si Si2 0.109547 0.668568 0.339940
Si Si3 0.379779 0.621999 0.200037
Si Si4 0.687007 0.834143 0.594428
Si Si5 0.539007 0.797730 0.633499
Si Si6 0.255993 0.616218 0.309276
Si Si7 0.585692 0.625631 0.019455
O O1 0.109813 0.206113 0.328253
O O2 0.234445 0.114153 0.339571
O O3 0.133526 0.148105 0.146275
O O4 0.112705 0.000000 0.274201
O O5 0.156221 0.637023 0.465682
O O6 0.164849 0.628436 0.272638
O O7 0.022344 0.642156 0.322363
O O8 0.401430 0.500000 0.214120
O O9 0.435162 0.692089 0.296615
O O10 0.296109 0.629298 0.213791
O O11 0.383869 0.659621 0.080706
O O12 0.618293 0.854146 0.643750
O O13 0.707191 0.710155 0.606522
O O14 0.500000 0.779342 0.500000
O O15 0.275732 0.500000 0.356335
O O16 0.582736 0.500000 0.012448
O O17 0.500000 0.663874 0.000000
#
# Coordination Sequence:
#
# PCOD9179043 Si02
#       7
#     8   8   8   8   8   8   8
#     4  10  19  31  50  73  97 127 159 193 240 292
#     4  10  19  31  48  70  98 127 159 201 240 280
#     4   9  17  30  48  70  96 123 155 198 243 290
#     4   9  19  33  47  69  98 126 161 200 236 281
#     4   9  18  32  47  65  96 131 159 197 242 280
#     4   9  17  30  47  66  90 122 157 192 235 282
#     4   9  17  29  46  71 101 127 153 192 241 290
#
# _framework density 19.583424999999998
#
# number of rings (size 3 to 8) (size 9 to 14) (size 15 to 20)
#    0.000    2.714    0.000    2.571    0.000    4.286 
#    0.000   10.000    0.000    2.571    0.000    0.000 
#    0.000   41.143    0.000    0.000    0.000    0.000 
#
# Total GULP energy -155936.061286 kJ/mol
# GULP energy per Si atom -5569.145046 kJ/mol
# Density = 1.953885 g / cm^3
# Si number density = 19.583425 Si / 1000 Ang^3
#
#
#
# Elastic Constant Matrix: (Units=GPa)
#
#
# Indices 1 2 3 4 5 6 
#
# 1 138.3520 -0.1174 11.1483 0.0000 -20.7237 0.0000
# 2 -0.1174 46.0753 6.2288 0.0000 -1.7022 0.0000
# 3 11.1483 6.2288 52.3502 0.0000 -11.3646 0.0000
# 4 0.0000 0.0000 0.0000 17.0736 0.0000 1.1546
# 5 -20.7237 -1.7022 -11.3646 0.0000 16.7326 0.0000
# 6 0.0000 0.0000 0.0000 1.1546 0.0000 10.4014
#
#
#
# Elastic Compliance Matrix: (Units=1/GPa)
#
#
# Indices 1 2 3 4 5 6 
#
# 1 0.008896 0.000372 0.000541 0.000000 0.011423 0.000000
# 2 0.000372 0.022078 -0.002485 0.000000 0.001018 0.000000
# 3 0.000541 -0.002485 0.022724 0.000000 0.015851 0.000000
# 4 0.000000 0.000000 0.000000 0.059013 0.000000 -0.006551
# 5 0.011423 0.001018 0.015851 0.000000 0.084781 0.000000
# 6 0.000000 0.000000 0.000000 -0.006551 0.000000 0.096868
#
#
# Mechanical properties :
#
#
# Convention : Reuss Voigt Hill
#
# Bulk Modulus (GPa) = 19.78130 30.14409 24.96269
# Shear Modulus (GPa) = 15.90559 23.47603 19.69081
#
# Velocity S-wave (km/s) = 2.85300 3.46608 3.17438
# Velocity P-wave (km/s) = 4.57993 5.60753 5.11958
#
# Compressibility (1/GPa) = 0.05055280
#
# Stress axis : x y z
#
# Youngs Moduli (GPa) = 112.41406 45.29376 44.00710
#
# Poissons Ratio (x) = -0.01683 -0.02381
# Poissons Ratio (y) = -0.04176 0.10936
# Poissons Ratio (z) = -0.06083 0.11255
#
# Static dielectric constant tensor:
#      x y z
#    x 1.742990 0.000000 -0.028030 
#    y 0.000000 1.719340 0.000000 
#    z -0.028030 0.000000 1.667930 
# 
# From -- ./inp_files/156194.got.cif
#   From: 2010.05.17/outbox.cif.g08.bks.cpg/sg12_79_cif.got.tgz:156194.got - 2010.06.03 13:09:07.
