data_PCOD9179383
_publ_section_title
;
Structure prediction by ZEFSAII (Michael W. Deem and Ramdas Pophale) SiO2 
 PCOD9179383
Probable space group: C 2/M
;
_chemical_formula_sum "Si O2"
_cell_formula_units_Z 64
_cell_length_a 25.758814
_cell_length_b 8.550140
_cell_length_c 15.709895
_cell_angle_alpha 90.000000
_cell_angle_beta 108.572175
_cell_angle_gamma 90.000000
_cell_volume 3279.786112
_symmetry_space_group_name_H-M "C 2/M"
_symmetry_group_IT_number 12
_symmetry_cell_setting 'monoclinic'
loop_
_space_group_symop_operation_xyz
x,y,z
-x,y,-z
-x,-y,-z
x,-y,z
1/2+x,1/2+y,z
1/2-x,1/2+y,-z
1/2-x,1/2-y,-z
1/2+x,1/2-y,z
loop_
_atom_site_type_symbol
_atom_site_label
_atom_site_fract_x
_atom_site_fract_y
_atom_site_fract_z
Si Si1 0.189813 0.812042 0.489789
Si Si2 0.398226 0.311753 0.694302
Si Si3 0.983796 0.320833 0.242490
Si Si4 0.789427 0.185898 0.312700
Si Si5 0.321780 0.314462 0.804603
Si Si6 0.536261 0.325686 0.936363
Si Si7 0.142314 0.311174 0.808753
Si Si8 0.152579 0.313750 0.007585
O O1 0.250000 0.750000 0.500000
O O2 0.144080 0.754344 0.399943
O O3 0.179628 0.773430 0.583470
O O4 0.190840 0.000000 0.482878
O O5 0.396767 0.500000 0.695862
O O6 0.459890 0.262611 0.703582
O O7 0.374009 0.261404 0.774453
O O8 0.986722 0.500000 0.271013
O O9 0.983374 0.302393 0.140268
O O10 0.922052 0.262478 0.231340
O O11 0.731857 0.276046 0.278569
O O12 0.823853 0.233203 0.248269
O O13 0.778742 0.000000 0.307061
O O14 0.326206 0.500000 0.820922
O O15 0.312859 0.232482 0.891530
O O16 0.533482 0.500000 0.895388
O O17 0.500000 0.326365 0.000000
O O18 0.597348 0.283231 0.993779
O O19 0.144113 0.500000 0.801541
O O20 0.166233 0.274543 0.915988
O O21 0.143185 0.500000 0.004220
#
# Coordination Sequence:
#
# PCOD9179383 Si02
#       8
#     8   8   8   8   8   8   8   8
#     4  10  21  39  61  88 118 147 184 230 287 347
#     4  10  21  37  58  86 119 151 184 229 288 348
#     4  10  21  36  56  82 111 149 193 236 281 331
#     4  11  23  38  61  88 112 146 193 240 285 338
#     4  11  22  36  57  85 118 155 190 232 291 346
#     4  10  19  31  49  75 109 149 190 231 283 342
#     4   9  21  41  59  78 112 155 195 234 283 336
#     4  10  21  36  54  79 112 150 194 241 280 329
#
# _framework density 19.513468
#
# number of rings (size 3 to 8) (size 9 to 14) (size 15 to 20)
#    0.000    1.875    1.250    3.375    0.000    9.500 
#    0.000    0.625    0.000    3.750    0.000    0.000 
#    0.000    0.000    0.000    0.000    0.000    0.000 
#
# Total GULP energy -178423.418436 kJ/mol
# GULP energy per Si atom -5575.731826 kJ/mol
# Density = 1.946905 g / cm^3
# Si number density = 19.513468 Si / 1000 Ang^3
#
#
#
# Elastic Constant Matrix: (Units=GPa)
#
#
# Indices 1 2 3 4 5 6 
#
# 1 27.1839 2.8709 17.2994 0.0000 -2.9607 0.0000
# 2 2.8709 19.9493 9.8978 0.0000 -11.3027 0.0000
# 3 17.2994 9.8978 89.9960 0.0000 -1.4977 0.0000
# 4 0.0000 0.0000 0.0000 3.2617 0.0000 -26.8339
# 5 -2.9607 -11.3027 -1.4977 0.0000 33.4508 0.0000
# 6 0.0000 0.0000 0.0000 -26.8339 0.0000 -24.3133
#
#
#
# Elastic Compliance Matrix: (Units=1/GPa)
#
#
# Indices 1 2 3 4 5 6 
#
# 1 0.042293 -0.000217 -0.008051 0.000000 0.003309 0.000000
# 2 -0.000217 0.066010 -0.006852 0.000000 0.021978 0.000000
# 3 -0.008051 -0.006852 0.013372 0.000000 -0.002429 0.000000
# 4 0.000000 0.000000 0.000000 0.030416 0.000000 -0.033569
# 5 0.003309 0.021978 -0.002429 0.000000 0.037505 0.000000
# 6 0.000000 0.000000 0.000000 -0.033569 0.000000 -0.004080
#
#
# Mechanical properties :
#
#
# Convention : Reuss Voigt Hill
#
# Bulk Modulus (GPa) = 10.93666 21.91839 16.42753
# Shear Modulus (GPa) = 20.30573 9.61723 14.96148
#
# Velocity S-wave (km/s) = 3.22933 2.22243 2.77199
# Velocity P-wave (km/s) = 4.41833 4.22403 4.32227
#
# Compressibility (1/GPa) = 0.09143557
#
# Stress axis : x y z
#
# Youngs Moduli (GPa) = 23.64438 15.14913 74.78102
#
# Poissons Ratio (x) = 0.00329 0.60205
# Poissons Ratio (y) = 0.00513 0.51243
# Poissons Ratio (z) = 0.19036 0.10381
#
# Static dielectric constant tensor:
#      x y z
#    x 1.735410 0.000000 0.059660 
#    y 0.000000 1.676540 0.000000 
#    z 0.059660 0.000000 1.764870 
# 
# From -- ./inp_files/244185.got.cif
#   From: 2010.05.17/outbox.cif.g08.bks.cpg/sg12_123_cif.got.tgz:244185.got - 2010.06.03 13:09:07.
