data_PCOD9179154
_publ_section_title
;
Structure prediction by ZEFSAII (Michael W. Deem and Ramdas Pophale) SiO2 
 PCOD9179154
Probable space group: C 2/M
;
_chemical_formula_sum "Si O2"
_cell_formula_units_Z 44
_cell_length_a 5.730337
_cell_length_b 22.539980
_cell_length_c 17.186587
_cell_angle_alpha 90.000000
_cell_angle_beta 123.178505
_cell_angle_gamma 90.000000
_cell_volume 1857.945862
_symmetry_space_group_name_H-M "C 2/M"
_symmetry_group_IT_number 12
_symmetry_cell_setting 'monoclinic'
loop_
_space_group_symop_operation_xyz
x,y,z
-x,y,-z
-x,-y,-z
x,-y,z
1/2+x,1/2+y,z
1/2-x,1/2+y,-z
1/2-x,1/2-y,-z
1/2+x,1/2-y,z
loop_
_atom_site_type_symbol
_atom_site_label
_atom_site_fract_x
_atom_site_fract_y
_atom_site_fract_z
Si Si1 0.332378 0.230879 0.853313
Si Si2 0.791203 0.607936 0.771230
Si Si3 0.016470 0.309356 0.675174
Si Si4 0.800827 0.567684 0.032352
Si Si5 0.000000 0.188307 0.500000
Si Si6 0.761000 0.104417 0.590518
O O1 0.664818 0.242009 0.897007
O O2 0.246378 0.162262 0.824767
O O3 0.211343 0.264033 0.754804
O O4 0.517441 0.576253 0.685943
O O5 0.925377 0.643138 0.723737
O O6 0.012606 0.567973 0.856073
O O7 0.146320 0.349117 0.632078
O O8 0.751824 0.277534 0.586489
O O9 0.737945 0.500000 0.995224
O O10 0.500000 0.595730 0.000000
O O11 0.000000 0.593113 0.000000
O O12 0.109737 0.143914 0.454192
O O13 0.500000 0.072184 0.500000
#
# Coordination Sequence:
#
# PCOD9179154 Si02
#       6
#     8   8   8   8   4   8
#     4  10  19  31  48  78 113 159 198 233 271 334
#     4  10  20  34  59  83 117 159 192 242 302 341
#     4   9  17  30  48  77 115 164 203 240 273 334
#     4  10  24  45  70  97 116 137 187 253 312 366
#     4   8  16  28  44  70 115 164 207 244 274 306
#     4   9  16  30  49  80 118 161 203 236 276 337
#
# _framework density 23.682067
#
# number of rings (size 3 to 8) (size 9 to 14) (size 15 to 20)
#    0.000    2.545    1.818    0.000    2.545    0.000 
#    1.636    3.636    0.000   13.636    0.000   21.636 
#    0.000    0.000    0.000    0.000    0.000    0.000 
#
# Total GULP energy -122605.632055 kJ/mol
# GULP energy per Si atom -5572.983275 kJ/mol
# Density = 2.362817 g / cm^3
# Si number density = 23.682067 Si / 1000 Ang^3
#
#
#
# Elastic Constant Matrix: (Units=GPa)
#
#
# Indices 1 2 3 4 5 6 
#
# 1 142.2862 7.4150 64.5593 0.0000 9.6526 0.0000
# 2 7.4150 40.0101 16.9646 0.0000 4.4537 0.0000
# 3 64.5593 16.9646 138.5610 0.0000 0.2865 0.0000
# 4 0.0000 0.0000 0.0000 15.5783 0.0000 4.4963
# 5 9.6526 4.4537 0.2865 0.0000 32.1565 0.0000
# 6 0.0000 0.0000 0.0000 4.4963 0.0000 -3.1994
#
#
#
# Elastic Compliance Matrix: (Units=1/GPa)
#
#
# Indices 1 2 3 4 5 6 
#
# 1 0.009149 0.000441 -0.004311 0.000000 -0.002769 0.000000
# 2 0.000441 0.026812 -0.003480 0.000000 -0.003815 0.000000
# 3 -0.004311 -0.003480 0.009648 0.000000 0.001690 0.000000
# 4 0.000000 0.000000 0.000000 0.045668 0.000000 0.064179
# 5 -0.002769 -0.003815 0.001690 0.000000 0.032442 0.000000
# 6 0.000000 0.000000 0.000000 0.064179 0.000000 -0.222361
#
#
# Mechanical properties :
#
#
# Convention : Reuss Voigt Hill
#
# Bulk Modulus (GPa) = 32.35368 55.41500 43.88434
# Shear Modulus (GPa) = -67.90070 24.36829 -21.76620
#
# Velocity S-wave (km/s) = -5.36041 3.21125 -3.03496
# Velocity P-wave (km/s) = 4.96192 6.09917 2.50790
#
# Compressibility (1/GPa) = 0.03090839
#
# Stress axis : x y z
#
# Youngs Moduli (GPa) = 109.30177 37.29637 103.64601
#
# Poissons Ratio (x) = -0.01643 0.44681
# Poissons Ratio (y) = -0.04815 0.36070
# Poissons Ratio (z) = 0.47120 0.12980
#
# Static dielectric constant tensor:
#      x y z
#    x 2.043050 0.000000 0.099950 
#    y 0.000000 1.846570 0.000000 
#    z 0.099950 0.000000 1.947920 
# 
# From -- ./inp_files/253552.got.cif
#   From: 2010.05.17/outbox.cif.g08.bks.cpg/sg12_127_cif.got.tgz:253552.got - 2010.06.03 13:09:07.
