data_PCOD9179595
_publ_section_title
;
Structure prediction by ZEFSAII (Michael W. Deem and Ramdas Pophale) SiO2 
 PCOD9179595
Probable space group: C 2/M
;
_chemical_formula_sum "Si O2"
_cell_formula_units_Z 64
_cell_length_a 25.058261
_cell_length_b 8.777933
_cell_length_c 15.460656
_cell_angle_alpha 90.000000
_cell_angle_beta 108.129069
_cell_angle_gamma 90.000000
_cell_volume 3231.903140
_symmetry_space_group_name_H-M "C 2/M"
_symmetry_group_IT_number 12
_symmetry_cell_setting 'monoclinic'
loop_
_space_group_symop_operation_xyz
x,y,z
-x,y,-z
-x,-y,-z
x,-y,z
1/2+x,1/2+y,z
1/2-x,1/2+y,-z
1/2-x,1/2-y,-z
1/2+x,1/2-y,z
loop_
_atom_site_type_symbol
_atom_site_label
_atom_site_fract_x
_atom_site_fract_y
_atom_site_fract_z
Si Si1 0.092347 0.171444 0.987912
Si Si2 0.914037 0.682438 0.204279
Si Si3 0.773748 0.828250 0.927953
Si Si4 0.938636 0.683635 0.507534
Si Si5 0.725244 0.821503 0.251336
Si Si6 0.404572 0.816427 0.826287
Si Si7 0.840202 0.317083 0.325142
Si Si8 0.530554 0.681308 0.302474
O O1 0.082706 0.251789 0.891079
O O2 0.068387 0.000000 0.975453
O O3 0.159649 0.159833 0.028050
O O4 0.077467 0.259701 0.068902
O O5 0.913598 0.500000 0.198942
O O6 0.862135 0.730780 0.240004
O O7 0.969960 0.739624 0.279869
O O8 0.763432 0.718590 0.842747
O O9 0.751151 0.000000 0.902327
O O10 0.750000 0.750000 0.000000
O O11 0.937139 0.500000 0.517727
O O12 0.888881 0.727467 0.417161
O O13 0.933513 0.763701 0.597465
O O14 0.000000 0.722749 0.500000
O O15 0.660288 0.770470 0.229064
O O16 0.779076 0.743321 0.321851
O O17 0.726840 0.000000 0.269411
O O18 0.442939 0.742183 0.772891
O O19 0.407570 0.000000 0.825874
O O20 0.837689 0.500000 0.322522
O O21 0.525069 0.500000 0.297997
#
# Coordination Sequence:
#
# PCOD9179595 Si02
#       8
#     8   8   8   8   8   8   8   8
#     4  10  21  36  54  83 118 153 196 250 296 338
#     4  11  22  38  59  87 121 160 201 240 291 358
#     4  10  19  31  50  76 111 152 195 241 291 344
#     4  10  20  41  66  90 120 155 194 235 291 359
#     4  10  21  36  57  84 116 153 195 242 291 345
#     4  10  22  42  63  83 114 162 206 241 288 352
#     4  10  21  37  62  91 121 156 194 241 293 349
#     4  12  25  40  62  91 119 152 194 249 301 347
#
# _framework density 19.802572999999999
#
# number of rings (size 3 to 8) (size 9 to 14) (size 15 to 20)
#    0.000    1.625    1.250    3.750    0.000    7.250 
#    0.000    3.125    0.000    0.000    0.000    0.000 
#    0.000    0.000    0.000    0.000    0.000    0.000 
#
# Total GULP energy -178634.798802 kJ/mol
# GULP energy per Si atom -5582.337463 kJ/mol
# Density = 1.975750 g / cm^3
# Si number density = 19.802573 Si / 1000 Ang^3
#
#
#
# Elastic Constant Matrix: (Units=GPa)
#
#
# Indices 1 2 3 4 5 6 
#
# 1 44.4953 5.6624 3.1074 0.0000 6.7154 0.0000
# 2 5.6624 40.0605 22.2328 0.0000 -0.1281 0.0000
# 3 3.1074 22.2328 86.5899 0.0000 4.7132 0.0000
# 4 0.0000 0.0000 0.0000 21.7319 0.0000 3.5336
# 5 6.7154 -0.1281 4.7132 0.0000 33.5365 0.0000
# 6 0.0000 0.0000 0.0000 3.5336 0.0000 27.3044
#
#
#
# Elastic Compliance Matrix: (Units=1/GPa)
#
#
# Indices 1 2 3 4 5 6 
#
# 1 0.023624 -0.003532 0.000320 0.000000 -0.004789 0.000000
# 2 -0.003532 0.029684 -0.007598 0.000000 0.001888 0.000000
# 3 0.000320 -0.007598 0.013597 0.000000 -0.002004 0.000000
# 4 0.000000 0.000000 0.000000 0.047004 0.000000 -0.006083
# 5 -0.004789 0.001888 -0.002004 0.000000 0.031066 0.000000
# 6 0.000000 0.000000 0.000000 -0.006083 0.000000 0.037411
#
#
# Mechanical properties :
#
#
# Convention : Reuss Voigt Hill
#
# Bulk Modulus (GPa) = 22.08211 25.90565 23.99388
# Shear Modulus (GPa) = 22.82038 25.85742 24.33890
#
# Velocity S-wave (km/s) = 3.39838 3.61745 3.50962
# Velocity P-wave (km/s) = 5.15499 5.52796 5.34473
#
# Compressibility (1/GPa) = 0.04528554
#
# Stress axis : x y z
#
# Youngs Moduli (GPa) = 42.32946 33.68802 73.54516
#
# Poissons Ratio (x) = 0.11898 -0.02352
# Poissons Ratio (y) = 0.14951 0.55878
# Poissons Ratio (z) = -0.01353 0.25595
#
# Static dielectric constant tensor:
#      x y z
#    x 1.722860 0.000000 0.041790 
#    y 0.000000 1.682720 0.000000 
#    z 0.041790 0.000000 1.700310 
# 
# From -- ./inp_files/244242.got.cif
#   From: 2010.05.17/outbox.cif.g08.bks.cpg/sg12_123_cif.got.tgz:244242.got - 2010.06.03 13:09:07.
