data_PCOD9179197
_publ_section_title
;
Structure prediction by ZEFSAII (Michael W. Deem and Ramdas Pophale) SiO2 
 PCOD9179197
Probable space group: C 2/M
;
_chemical_formula_sum "Si O2"
_cell_formula_units_Z 48
_cell_length_a 27.596830
_cell_length_b 8.144095
_cell_length_c 11.921479
_cell_angle_alpha 90.000000
_cell_angle_beta 90.848724
_cell_angle_gamma 90.000000
_cell_volume 2679.072818
_symmetry_space_group_name_H-M "C 2/M"
_symmetry_group_IT_number 12
_symmetry_cell_setting 'monoclinic'
loop_
_space_group_symop_operation_xyz
x,y,z
-x,y,-z
-x,-y,-z
x,-y,z
1/2+x,1/2+y,z
1/2-x,1/2+y,-z
1/2-x,1/2-y,-z
1/2+x,1/2-y,z
loop_
_atom_site_type_symbol
_atom_site_label
_atom_site_fract_x
_atom_site_fract_y
_atom_site_fract_z
Si Si1 0.308068 0.698598 0.624648
Si Si2 0.944898 0.304984 0.012756
Si Si3 0.801338 0.685402 0.966418
Si Si4 0.623096 0.313196 0.188871
Si Si5 0.136056 0.805866 0.835870
Si Si6 0.799108 0.197216 0.368310
O O1 0.310881 0.500000 0.626404
O O2 0.355521 0.758732 0.694474
O O3 0.254716 0.744981 0.670344
O O4 0.307882 0.757494 0.495566
O O5 0.944959 0.500000 0.031863
O O6 0.917988 0.222522 0.118401
O O7 0.915224 0.271819 0.895827
O O8 0.000000 0.247561 0.000000
O O9 0.799934 0.500000 0.921414
O O10 0.833460 0.694511 0.078581
O O11 0.750000 0.750000 0.000000
O O12 0.827564 0.805916 0.881775
O O13 0.606740 0.500000 0.205201
O O14 0.156742 0.761965 0.714050
O O15 0.147065 0.000000 0.852962
O O16 0.796622 0.000000 0.372658
#
# Coordination Sequence:
#
# PCOD9179197 Si02
#       6
#     8   8   8   8   8   8
#     4   9  18  31  47  70 100 132 163 193 226 269
#     4  10  21  36  53  72  94 120 153 198 249 295
#     4  11  20  29  42  63  95 127 156 192 233 279
#     4  10  19  31  49  71  94 122 157 195 236 284
#     4  10  19  31  49  71  94 122 157 195 236 284
#     4   9  18  31  47  70 100 132 163 193 226 269
#
# _framework density 17.916647000000001
#
# number of rings (size 3 to 8) (size 9 to 14) (size 15 to 20)
#    0.000    2.167    0.000    6.000    0.000    6.667 
#    0.000    0.000    0.000    1.000    0.000    7.000 
#    0.000    0.000    0.000    0.000    0.000    0.000 
#
# Total GULP energy -133616.551963 kJ/mol
# GULP energy per Si atom -5567.356332 kJ/mol
# Density = 1.787587 g / cm^3
# Si number density = 17.916647 Si / 1000 Ang^3
#
#
#
# Elastic Constant Matrix: (Units=GPa)
#
#
# Indices 1 2 3 4 5 6 
#
# 1 107.2713 3.5604 41.3452 0.0000 -8.1602 0.0000
# 2 3.5604 36.5895 3.5980 0.0000 -2.9569 0.0000
# 3 41.3452 3.5980 80.3591 0.0000 -1.9702 0.0000
# 4 0.0000 0.0000 0.0000 16.0786 0.0000 0.6737
# 5 -8.1602 -2.9569 -1.9702 0.0000 23.9582 0.0000
# 6 0.0000 0.0000 0.0000 0.6737 0.0000 18.8629
#
#
#
# Elastic Compliance Matrix: (Units=1/GPa)
#
#
# Indices 1 2 3 4 5 6 
#
# 1 0.011927 -0.000282 -0.006037 0.000000 0.003531 0.000000
# 2 -0.000282 0.027720 -0.001017 0.000000 0.003242 0.000000
# 3 -0.006037 -0.001017 0.015574 0.000000 -0.000901 0.000000
# 4 0.000000 0.000000 0.000000 0.062288 0.000000 -0.002225
# 5 0.003531 0.003242 -0.000901 0.000000 0.043268 0.000000
# 6 0.000000 0.000000 0.000000 -0.002225 0.000000 0.053094
#
#
# Mechanical properties :
#
#
# Convention : Reuss Voigt Hill
#
# Bulk Modulus (GPa) = 24.66148 35.69192 30.17670
# Shear Modulus (GPa) = 20.65625 23.49436 22.07530
#
# Velocity S-wave (km/s) = 3.39913 3.62514 3.51395
# Velocity P-wave (km/s) = 5.40370 6.12262 5.77436
#
# Compressibility (1/GPa) = 0.04054906
#
# Stress axis : x y z
#
# Youngs Moduli (GPa) = 83.84280 36.07561 64.21022
#
# Poissons Ratio (x) = 0.01016 0.38766
# Poissons Ratio (y) = 0.02361 0.06529
# Poissons Ratio (z) = 0.50619 0.03668
#
# Static dielectric constant tensor:
#      x y z
#    x 1.520170 0.000000 0.032400 
#    y 0.000000 1.608230 0.000000 
#    z 0.032400 0.000000 1.679820 
# 
# From -- ./inp_files/179262.got.cif
#   From: 2010.05.17/outbox.cif.g08.bks.cpg/sg12_90_cif.got.tgz:179262.got - 2010.06.03 13:09:07.
