data_PCOD9179743
_publ_section_title
;
Structure prediction by ZEFSAII (Michael W. Deem and Ramdas Pophale) SiO2 
 PCOD9179743
Probable space group: C 2/M
;
_chemical_formula_sum "Si O2"
_cell_formula_units_Z 48
_cell_length_a 22.234767
_cell_length_b 26.052322
_cell_length_c 7.254862
_cell_angle_alpha 90.000000
_cell_angle_beta 40.203745
_cell_angle_gamma 90.000000
_cell_volume 2712.748566
_symmetry_space_group_name_H-M "C 2/M"
_symmetry_group_IT_number 12
_symmetry_cell_setting 'monoclinic'
loop_
_space_group_symop_operation_xyz
x,y,z
-x,y,-z
-x,-y,-z
x,-y,z
1/2+x,1/2+y,z
1/2-x,1/2+y,-z
1/2-x,1/2-y,-z
1/2+x,1/2-y,z
loop_
_atom_site_type_symbol
_atom_site_label
_atom_site_fract_x
_atom_site_fract_y
_atom_site_fract_z
Si Si1 0.095288 0.324264 0.228719
Si Si2 0.107998 0.058490 0.189528
Si Si3 0.899040 0.865873 0.135917
Si Si4 0.797997 0.870606 0.739069
Si Si5 0.159020 0.241702 0.334458
Si Si6 0.101052 0.252550 0.861055
O O1 0.088629 0.279494 0.399740
O O2 0.000000 0.354283 0.500000
O O3 0.190359 0.356450 0.027850
O O4 0.108048 0.294782 0.003441
O O5 0.166735 0.083821 0.216613
O O6 0.000000 0.057664 0.500000
O O7 0.137074 0.000000 0.082824
O O8 0.112936 0.095526 0.002988
O O9 0.820699 0.878411 0.471693
O O10 0.891025 0.806405 0.090365
O O11 0.000000 0.871642 0.000000
O O12 0.859402 0.818803 0.634474
O O13 0.169955 0.256648 0.523130
O O14 0.250000 0.250000 0.000000
O O15 0.000000 0.256573 0.000000
#
# Coordination Sequence:
#
# PCOD9179743 Si02
#       6
#     8   8   8   8   8   8
#     4  11  21  34  54  80 115 153 188 223 258 312
#     4  11  23  38  59  81 105 136 176 231 285 334
#     4  10  20  35  56  80 112 146 178 219 270 327
#     4  10  22  36  54  82 110 145 184 221 274 323
#     4   9  19  32  50  77 109 148 186 218 257 309
#     4  10  19  31  51  77 112 152 186 215 257 310
#
# _framework density 17.694230999999998
#
# number of rings (size 3 to 8) (size 9 to 14) (size 15 to 20)
#    0.000    1.833    3.333    1.000    0.000   11.000 
#    0.000    0.000    0.000    0.500    0.000    1.167 
#    0.000    0.000    0.000    0.000    0.000    0.000 
#
# Total GULP energy -133824.313299 kJ/mol
# GULP energy per Si atom -5576.013054 kJ/mol
# Density = 1.765396 g / cm^3
# Si number density = 17.694231 Si / 1000 Ang^3
#
#
#
# Elastic Constant Matrix: (Units=GPa)
#
#
# Indices 1 2 3 4 5 6 
#
# 1 60.0015 37.9832 23.6184 0.0000 -5.1457 0.0000
# 2 37.9832 69.1846 28.4121 0.0000 8.4016 0.0000
# 3 23.6184 28.4121 102.8394 0.0000 -1.1169 0.0000
# 4 0.0000 0.0000 0.0000 12.3824 0.0000 0.0441
# 5 -5.1457 8.4016 -1.1169 0.0000 31.3113 0.0000
# 6 0.0000 0.0000 0.0000 0.0441 0.0000 -11.3417
#
#
#
# Elastic Compliance Matrix: (Units=1/GPa)
#
#
# Indices 1 2 3 4 5 6 
#
# 1 0.028145 -0.015679 -0.002037 0.000000 0.008760 0.000000
# 2 -0.015679 0.025709 -0.003606 0.000000 -0.009604 0.000000
# 3 -0.002037 -0.003606 0.011199 0.000000 0.001032 0.000000
# 4 0.000000 0.000000 0.000000 0.080758 0.000000 0.000314
# 5 0.008760 -0.009604 0.001032 0.000000 0.035991 0.000000
# 6 0.000000 0.000000 0.000000 0.000314 0.000000 -0.088169
#
#
# Mechanical properties :
#
#
# Convention : Reuss Voigt Hill
#
# Bulk Modulus (GPa) = 44.62535 45.78366 45.20451
# Shear Modulus (GPa) = 34.78317 15.93786 25.36052
#
# Velocity S-wave (km/s) = 4.43854 3.00449 3.78996
# Velocity P-wave (km/s) = 7.17931 6.16174 6.68990
#
# Compressibility (1/GPa) = 0.02240879
#
# Stress axis : x y z
#
# Youngs Moduli (GPa) = 35.53066 38.89640 89.29177
#
# Poissons Ratio (x) = 0.60986 0.18188
# Poissons Ratio (y) = 0.55709 0.32201
# Poissons Ratio (z) = 0.07237 0.14027
#
# Static dielectric constant tensor:
#      x y z
#    x 1.704630 0.000000 -0.036070 
#    y 0.000000 1.585900 0.000000 
#    z -0.036070 0.000000 1.667000 
# 
# From -- ./inp_files/21778.got.cif
#   From: 2010.05.17/outbox.cif.g08.bks.cpg/sg12_11_cif.got.tgz:21778.got - 2010.06.03 13:09:07.
