data_PCOD9179294
_publ_section_title
;
Structure prediction by ZEFSAII (Michael W. Deem and Ramdas Pophale) SiO2 
 PCOD9179294
Probable space group: C 2/M
;
_chemical_formula_sum "Si O2"
_cell_formula_units_Z 48
_cell_length_a 18.060798
_cell_length_b 21.518508
_cell_length_c 15.104998
_cell_angle_alpha 90.000000
_cell_angle_beta 27.104023
_cell_angle_gamma 90.000000
_cell_volume 2674.610493
_symmetry_space_group_name_H-M "C 2/M"
_symmetry_group_IT_number 12
_symmetry_cell_setting 'monoclinic'
loop_
_space_group_symop_operation_xyz
x,y,z
-x,y,-z
-x,-y,-z
x,-y,z
1/2+x,1/2+y,z
1/2-x,1/2+y,-z
1/2-x,1/2-y,-z
1/2+x,1/2-y,z
loop_
_atom_site_type_symbol
_atom_site_label
_atom_site_fract_x
_atom_site_fract_y
_atom_site_fract_z
Si Si1 0.761350 0.334262 0.916342
Si Si2 0.328554 0.427096 0.132757
Si Si3 0.352794 0.195204 0.007377
Si Si4 0.667781 0.706641 0.373911
Si Si5 0.855058 0.344851 0.538574
Si Si6 0.777315 0.319759 0.435892
O O1 0.677147 0.389228 0.952561
O O2 0.682094 0.268656 0.972199
O O3 0.952775 0.335057 0.684408
O O4 0.759349 0.337282 0.024940
O O5 0.302589 0.500000 0.147141
O O6 0.191544 0.397062 0.341968
O O7 0.500000 0.417553 0.000000
O O8 0.294745 0.181131 0.167684
O O9 0.540402 0.179370 0.795477
O O10 0.500000 0.706310 0.500000
O O11 0.705935 0.778696 0.357567
O O12 0.663450 0.671274 0.472298
O O13 0.772330 0.358764 0.531442
O O14 0.750000 0.250000 0.500000
#
# Coordination Sequence:
#
# PCOD9179294 Si02
#       6
#     8   8   8   8   8   8
#     4  10  20  33  50  72 100 137 172 219 258 309
#     4  11  24  36  52  76 103 143 185 216 257 305
#     4  10  19  31  49  73 103 134 169 212 264 315
#     4  11  18  29  47  74 103 134 169 200 252 318
#     4  10  19  35  48  70 102 134 177 215 249 311
#     4   9  21  29  45  72  99 137 168 203 260 314
#
# _framework density 17.946539000000001
#
# number of rings (size 3 to 8) (size 9 to 14) (size 15 to 20)
#    0.000    1.833    3.333    1.000    7.000    1.333 
#    0.000    0.000    0.000    0.000    0.000    1.167 
#    0.000    9.333    0.000    0.000    0.000    0.000 
#
# Total GULP energy -133867.415581 kJ/mol
# GULP energy per Si atom -5577.808983 kJ/mol
# Density = 1.790569 g / cm^3
# Si number density = 17.946539 Si / 1000 Ang^3
#
#
#
# Elastic Constant Matrix: (Units=GPa)
#
#
# Indices 1 2 3 4 5 6 
#
# 1 153.3027 37.6314 21.3579 0.0033 21.3075 -0.0036
# 2 37.6314 57.5110 8.7983 -0.0008 2.8575 -0.0010
# 3 21.3579 8.7983 50.8801 -0.0019 16.7678 0.0025
# 4 0.0033 -0.0008 -0.0019 12.5609 0.0014 -0.1546
# 5 21.3075 2.8575 16.7678 0.0014 20.2471 0.0014
# 6 -0.0036 -0.0010 0.0025 -0.1546 0.0014 21.8480
#
#
#
# Elastic Compliance Matrix: (Units=1/GPa)
#
#
# Indices 1 2 3 4 5 6 
#
# 1 0.009100 -0.005523 0.000047 -0.000002 -0.008837 0.000002
# 2 -0.005523 0.021212 -0.003134 0.000002 0.005414 0.000000
# 3 0.000047 -0.003134 0.027572 0.000007 -0.022441 -0.000002
# 4 -0.000002 0.000002 0.000007 0.079619 -0.000009 0.000563
# 5 -0.008837 0.005414 -0.022441 -0.000009 0.076510 -0.000004
# 6 0.000002 0.000000 -0.000002 0.000563 -0.000004 0.045775
#
#
# Mechanical properties :
#
#
# Convention : Reuss Voigt Hill
#
# Bulk Modulus (GPa) = 24.59107 44.14098 34.36603
# Shear Modulus (GPa) = 17.20801 23.85828 20.53314
#
# Velocity S-wave (km/s) = 3.09989 3.65006 3.38617
# Velocity P-wave (km/s) = 5.15214 6.51254 5.87187
#
# Compressibility (1/GPa) = 0.04066517
#
# Stress axis : x y z
#
# Youngs Moduli (GPa) = 109.88577 47.14270 36.26894
#
# Poissons Ratio (x) = 0.26036 -0.00171
# Poissons Ratio (y) = 0.60688 0.11366
# Poissons Ratio (z) = -0.00518 0.14774
#
# Static dielectric constant tensor:
#      x y z
#    x 1.697650 0.000000 -0.016900 
#    y 0.000000 1.566920 0.000000 
#    z -0.016900 0.000000 1.677960 
# 
# From -- ./inp_files/77018.got.cif
#   From: 2010.05.17/outbox.cif.g08.bks.cpg/sg12_39_cif.got.tgz:77018.got - 2010.06.03 13:09:07.
