data_PCOD9179573
_publ_section_title
;
Structure prediction by ZEFSAII (Michael W. Deem and Ramdas Pophale) SiO2 
 PCOD9179573
Probable space group: C 2/M
;
_chemical_formula_sum "Si O2"
_cell_formula_units_Z 36
_cell_length_a 19.062911
_cell_length_b 14.538775
_cell_length_c 9.652062
_cell_angle_alpha 90.000000
_cell_angle_beta 142.217970
_cell_angle_gamma 90.000000
_cell_volume 1638.913755
_symmetry_space_group_name_H-M "C 2/M"
_symmetry_group_IT_number 12
_symmetry_cell_setting 'monoclinic'
loop_
_space_group_symop_operation_xyz
x,y,z
-x,y,-z
-x,-y,-z
x,-y,z
1/2+x,1/2+y,z
1/2-x,1/2+y,-z
1/2-x,1/2-y,-z
1/2+x,1/2-y,z
loop_
_atom_site_type_symbol
_atom_site_label
_atom_site_fract_x
_atom_site_fract_y
_atom_site_fract_z
Si Si1 0.548102 0.606864 0.228828
Si Si2 0.000000 0.262160 0.500000
Si Si3 0.712029 0.289017 0.667668
Si Si4 0.200869 0.897032 0.097619
Si Si5 0.125126 0.604853 0.889207
O O1 0.583176 0.500000 0.295690
O O2 0.649417 0.672120 0.435660
O O3 0.500000 0.623132 0.000000
O O4 0.433153 0.619545 0.141480
O O5 0.887653 0.207775 0.370080
O O6 0.970821 0.329083 0.324799
O O7 0.754085 0.184107 0.734696
O O8 0.816099 0.351427 0.884563
O O9 0.278527 0.895621 0.081993
O O10 0.208707 0.000000 0.170880
O O11 0.086686 0.500000 0.849573
#
# Coordination Sequence:
#
# PCOD9179573 Si02
#       5
#     8   4   8   8   8
#     4  10  21  36  52  71  97 129 166 208 248 283
#     4  10  19  32  49  74 106 132 155 194 245 294
#     4  11  19  32  53  75  99 129 167 200 236 292
#     4   9  19  34  50  72 101 130 159 198 248 291
#     4  10  19  31  50  76 104 131 159 195 241 293
#
# _framework density 21.965767
#
# number of rings (size 3 to 8) (size 9 to 14) (size 15 to 20)
#    0.000    2.000    0.000    6.333    0.000    1.778 
#    0.000    4.444    0.000    0.667    0.000    0.000 
#    0.000    0.000    0.000    0.000    0.000    0.000 
#
# Total GULP energy -100566.741280 kJ/mol
# GULP energy per Si atom -5587.041182 kJ/mol
# Density = 2.191577 g / cm^3
# Si number density = 21.965767 Si / 1000 Ang^3
#
#
#
# Elastic Constant Matrix: (Units=GPa)
#
#
# Indices 1 2 3 4 5 6 
#
# 1 24.0133 -8.8623 -16.0933 0.0000 -0.3472 0.0000
# 2 -8.8623 121.6501 75.5403 0.0000 -11.8209 0.0000
# 3 -16.0933 75.5403 128.0076 0.0000 0.1826 0.0000
# 4 0.0000 0.0000 0.0000 26.7205 0.0000 1.4968
# 5 -0.3472 -11.8209 0.1826 0.0000 19.4013 0.0000
# 6 0.0000 0.0000 0.0000 1.4968 0.0000 6.9916
#
#
#
# Elastic Compliance Matrix: (Units=1/GPa)
#
#
# Indices 1 2 3 4 5 6 
#
# 1 0.045492 -0.000284 0.005886 0.000000 0.000586 0.000000
# 2 -0.000284 0.014341 -0.008511 0.000000 0.008813 0.000000
# 3 0.005886 -0.008511 0.013582 0.000000 -0.005208 0.000000
# 4 0.000000 0.000000 0.000000 0.037879 0.000000 -0.008109
# 5 0.000586 0.008813 -0.005208 0.000000 0.056972 0.000000
# 6 0.000000 0.000000 0.000000 -0.008109 0.000000 0.144765
#
#
# Mechanical properties :
#
#
# Convention : Reuss Voigt Hill
#
# Bulk Modulus (GPa) = 14.79359 41.64893 28.22126
# Shear Modulus (GPa) = 14.64635 25.49510 20.07073
#
# Velocity S-wave (km/s) = 2.58501 3.41056 3.02607
# Velocity P-wave (km/s) = 3.95717 5.87463 5.00851
#
# Compressibility (1/GPa) = 0.06759686
#
# Stress axis : x y z
#
# Youngs Moduli (GPa) = 21.98188 69.72915 73.62561
#
# Poissons Ratio (x) = 0.01981 -0.43337
# Poissons Ratio (y) = 0.00624 0.62665
# Poissons Ratio (z) = -0.12939 0.59349
#
# Static dielectric constant tensor:
#      x y z
#    x 1.844050 0.000000 -0.027790 
#    y 0.000000 1.802220 0.000000 
#    z -0.027790 0.000000 1.789440 
# 
# From -- ./inp_files/58542.got.cif
#   From: 2010.05.17/outbox.cif.g08.bks.cpg/sg12_30_cif.got.tgz:58542.got - 2010.06.03 13:09:07.
