data_PCOD9179296
_publ_section_title
;
Structure prediction by ZEFSAII (Michael W. Deem and Ramdas Pophale) SiO2 
 PCOD9179296
Probable space group: C 2/M
;
_chemical_formula_sum "Si O2"
_cell_formula_units_Z 64
_cell_length_a 14.798070
_cell_length_b 7.432159
_cell_length_c 23.721230
_cell_angle_alpha 90.000000
_cell_angle_beta 77.109444
_cell_angle_gamma 90.000000
_cell_volume 2543.149518
_symmetry_space_group_name_H-M "C 2/M"
_symmetry_group_IT_number 12
_symmetry_cell_setting 'monoclinic'
loop_
_space_group_symop_operation_xyz
x,y,z
-x,y,-z
-x,-y,-z
x,-y,z
1/2+x,1/2+y,z
1/2-x,1/2+y,-z
1/2-x,1/2-y,-z
1/2+x,1/2-y,z
loop_
_atom_site_type_symbol
_atom_site_label
_atom_site_fract_x
_atom_site_fract_y
_atom_site_fract_z
Si Si1 0.958997 0.210158 0.599344
Si Si2 0.631866 0.280801 0.636604
Si Si3 0.478567 0.280738 0.236272
Si Si4 0.900370 0.281245 0.988563
Si Si5 0.223188 0.290641 0.091836
Si Si6 0.845452 0.782143 0.723342
Si Si7 0.197757 0.711864 0.449535
Si Si8 0.677195 0.293183 0.815066
O O1 0.893044 0.282482 0.658861
O O2 0.905568 0.224739 0.548324
O O3 0.062161 0.278562 0.595983
O O4 0.966748 0.000000 0.610591
O O5 0.638135 0.500000 0.636938
O O6 0.581807 0.225790 0.700747
O O7 0.733317 0.211787 0.608130
O O8 0.478050 0.500000 0.234757
O O9 0.582864 0.227593 0.236632
O O10 0.421893 0.215817 0.189760
O O11 0.901230 0.500000 0.987968
O O12 0.865065 0.219173 0.931297
O O13 0.814956 0.221829 0.039891
O O14 0.000000 0.222985 0.000000
O O15 0.201221 0.500000 0.105588
O O16 0.261514 0.206538 0.144255
O O17 0.744765 0.708531 0.751578
O O18 0.839546 0.000000 0.723153
O O19 0.192314 0.500000 0.444545
O O20 0.250000 0.750000 0.500000
O O21 0.659810 0.500000 0.834336
#
# Coordination Sequence:
#
# PCOD9179296 Si02
#       8
#     8   8   8   8   8   8   8   8
#     4   9  18  35  55  73  95 126 164 203 237 280
#     4   8  16  32  53  71  92 128 166 192 229 294
#     4   8  15  30  50  71  95 127 162 192 232 291
#     4   9  18  34  53  69  92 130 170 208 253 301
#     4   9  19  33  48  72 100 127 165 208 247 289
#     4   9  18  32  51  74  99 127 161 197 236 287
#     4  11  22  35  52  75 100 128 163 203 248 296
#     4  10  19  31  49  73 104 133 159 200 246 289
#
# _framework density 25.165645999999999
#
# number of rings (size 3 to 8) (size 9 to 14) (size 15 to 20)
#    0.000    2.875    0.000    2.625    0.000    3.750 
#    0.000    4.375    0.000    2.250    0.000    0.000 
#    0.000    0.000    0.000    0.000    0.000    0.000 
#
# Total GULP energy -178602.914292 kJ/mol
# GULP energy per Si atom -5581.341072 kJ/mol
# Density = 2.510837 g / cm^3
# Si number density = 25.165646 Si / 1000 Ang^3
#
#
#
# Elastic Constant Matrix: (Units=GPa)
#
#
# Indices 1 2 3 4 5 6 
#
# 1 163.0934 -6.2978 35.9302 0.0000 52.6220 0.0000
# 2 -6.2978 86.5782 -7.5444 0.0000 3.4745 0.0000
# 3 35.9302 -7.5444 47.8117 0.0000 30.8556 0.0000
# 4 0.0000 0.0000 0.0000 3.8926 0.0000 -8.9727
# 5 52.6220 3.4745 30.8556 0.0000 48.6206 0.0000
# 6 0.0000 0.0000 0.0000 -8.9727 0.0000 -0.3048
#
#
#
# Elastic Compliance Matrix: (Units=1/GPa)
#
#
# Indices 1 2 3 4 5 6 
#
# 1 0.009533 0.001055 -0.000492 0.000000 -0.010081 0.000000
# 2 0.001055 0.012170 0.004108 0.000000 -0.004619 0.000000
# 3 -0.000492 0.004108 0.036886 0.000000 -0.023170 0.000000
# 4 0.000000 0.000000 0.000000 0.003731 0.000000 -0.109830
# 5 -0.010081 -0.004619 -0.023170 0.000000 0.046512 0.000000
# 6 0.000000 0.000000 0.000000 -0.109830 0.000000 -0.047647
#
#
# Mechanical properties :
#
#
# Convention : Reuss Voigt Hill
#
# Bulk Modulus (GPa) = 14.72033 37.96215 26.34124
# Shear Modulus (GPa) = 67.12513 28.80134 47.96324
#
# Velocity S-wave (km/s) = 5.17022 3.38667 4.37040
# Velocity P-wave (km/s) = 6.44234 5.51456 5.99642
#
# Compressibility (1/GPa) = 0.06793327
#
# Stress axis : x y z
#
# Youngs Moduli (GPa) = 104.89660 82.16674 27.11045
#
# Poissons Ratio (x) = -0.08670 0.01333
# Poissons Ratio (y) = -0.11069 -0.11138
# Poissons Ratio (z) = 0.05158 -0.33757
#
# Static dielectric constant tensor:
#      x y z
#    x 1.911840 0.000000 0.043140 
#    y 0.000000 1.993960 0.000000 
#    z 0.043140 0.000000 2.056270 
# 
# From -- ./inp_files/338705.got.cif
#   From: 2010.05.17/outbox.cif.g08.bks.cpg/sg12_170_cif.got.tgz:338705.got - 2010.06.03 13:09:07.
