data_PCOD9179783
_publ_section_title
;
Structure prediction by ZEFSAII (Michael W. Deem and Ramdas Pophale) SiO2 
 PCOD9179783
Probable space group: C 2/M
;
_chemical_formula_sum "Si O2"
_cell_formula_units_Z 64
_cell_length_a 26.328445
_cell_length_b 7.610680
_cell_length_c 15.800649
_cell_angle_alpha 90.000000
_cell_angle_beta 70.115914
_cell_angle_gamma 90.000000
_cell_volume 2977.338386
_symmetry_space_group_name_H-M "C 2/M"
_symmetry_group_IT_number 12
_symmetry_cell_setting 'monoclinic'
loop_
_space_group_symop_operation_xyz
x,y,z
-x,y,-z
-x,-y,-z
x,-y,z
1/2+x,1/2+y,z
1/2-x,1/2+y,-z
1/2-x,1/2-y,-z
1/2+x,1/2-y,z
loop_
_atom_site_type_symbol
_atom_site_label
_atom_site_fract_x
_atom_site_fract_y
_atom_site_fract_z
Si Si1 0.187728 0.710531 0.516452
Si Si2 0.632091 0.209475 0.203927
Si Si3 0.952596 0.298408 0.970705
Si Si4 0.335183 0.305034 0.001801
Si Si5 0.815395 0.788515 0.192892
Si Si6 0.605742 0.788092 0.705879
Si Si7 0.486039 0.799408 0.757368
Si Si8 0.201524 0.715181 0.323192
O O1 0.181329 0.500000 0.520048
O O2 0.250000 0.750000 0.500000
O O3 0.148321 0.778524 0.611864
O O4 0.177670 0.773554 0.426406
O O5 0.659938 0.232442 0.095950
O O6 0.570603 0.281978 0.242212
O O7 0.668140 0.274797 0.260562
O O8 0.626590 0.000000 0.216223
O O9 0.940804 0.500000 0.006173
O O10 0.897437 0.193960 0.997595
O O11 0.975026 0.310655 0.863615
O O12 0.000000 0.222575 0.000000
O O13 0.312214 0.500000 0.005523
O O14 0.309098 0.218557 0.100028
O O15 0.869505 0.748770 0.215212
O O16 0.763777 0.729479 0.276553
O O17 0.813226 0.000000 0.186430
O O18 0.545781 0.719524 0.717989
O O19 0.602314 0.000000 0.703576
O O20 0.489214 0.000000 0.721289
O O21 0.201456 0.500000 0.323294
#
# Coordination Sequence:
#
# PCOD9179783 Si02
#       8
#     8   8   8   8   8   8   8   8
#     4  10  19  33  54  78 103 129 159 199 249 300
#     4   9  18  35  55  69  92 138 177 202 243 295
#     4   9  16  28  47  67  93 133 171 205 248 295
#     4  10  20  31  45  70 102 133 167 210 251 289
#     4  10  20  33  49  72 104 136 163 201 255 302
#     4  10  19  31  51  79 104 126 161 208 248 291
#     4   8  15  28  46  70  98 125 160 203 243 285
#     4   9  18  34  54  73  97 131 169 203 246 304
#
# _framework density 21.495709000000002
#
# number of rings (size 3 to 8) (size 9 to 14) (size 15 to 20)
#    0.000    2.625    1.250    1.875    0.000    2.750 
#    0.000    5.625    0.000    3.750    0.000    0.000 
#    0.000    6.000    0.000    0.000    0.000    0.000 
#
# Total GULP energy -178349.570649 kJ/mol
# GULP energy per Si atom -5573.424083 kJ/mol
# Density = 2.144678 g / cm^3
# Si number density = 21.495709 Si / 1000 Ang^3
#
#
#
# Elastic Constant Matrix: (Units=GPa)
#
#
# Indices 1 2 3 4 5 6 
#
# 1 55.7593 -0.8949 38.4235 0.0000 9.2638 0.0000
# 2 -0.8949 45.6221 1.6685 0.0000 -0.7822 0.0000
# 3 38.4235 1.6685 110.4115 0.0000 6.5329 0.0000
# 4 0.0000 0.0000 0.0000 10.8569 0.0000 1.2823
# 5 9.2638 -0.7822 6.5329 0.0000 37.9359 0.0000
# 6 0.0000 0.0000 0.0000 1.2823 0.0000 13.6495
#
#
#
# Elastic Compliance Matrix: (Units=1/GPa)
#
#
# Indices 1 2 3 4 5 6 
#
# 1 0.024361 0.000701 -0.008221 0.000000 -0.004519 0.000000
# 2 0.000701 0.021961 -0.000599 0.000000 0.000385 0.000000
# 3 -0.008221 -0.000599 0.011931 0.000000 -0.000059 0.000000
# 4 0.000000 0.000000 0.000000 0.093141 0.000000 -0.008750
# 5 -0.004519 0.000385 -0.000059 0.000000 0.027482 0.000000
# 6 0.000000 0.000000 0.000000 -0.008750 0.000000 0.074085
#
#
# Mechanical properties :
#
#
# Convention : Reuss Voigt Hill
#
# Bulk Modulus (GPa) = 23.80040 32.24301 28.02171
# Shear Modulus (GPa) = 17.65518 23.99485 20.82502
#
# Velocity S-wave (km/s) = 2.86900 3.34468 3.11593
# Velocity P-wave (km/s) = 4.69799 5.47249 5.09996
#
# Compressibility (1/GPa) = 0.04201609
#
# Stress axis : x y z
#
# Youngs Moduli (GPa) = 41.04876 45.53432 83.81862
#
# Poissons Ratio (x) = -0.03192 0.68907
# Poissons Ratio (y) = -0.02878 0.05017
# Poissons Ratio (z) = 0.33746 0.02726
#
# Static dielectric constant tensor:
#      x y z
#    x 1.804120 0.000000 -0.012240 
#    y 0.000000 1.897710 0.000000 
#    z -0.012240 0.000000 1.798830 
# 
# From -- ./inp_files/243737.got.cif
#   From: 2010.05.17/outbox.cif.g08.bks.cpg/sg12_122_cif.got.tgz:243737.got - 2010.06.03 13:09:07.
