data_PCOD9179892
_publ_section_title
;
Structure prediction by ZEFSAII (Michael W. Deem and Ramdas Pophale) SiO2 
 PCOD9179892
Probable space group: C 2/M
;
_chemical_formula_sum "Si O2"
_cell_formula_units_Z 64
_cell_length_a 25.251988
_cell_length_b 8.549922
_cell_length_c 16.767976
_cell_angle_alpha 90.000000
_cell_angle_beta 91.714790
_cell_angle_gamma 90.000000
_cell_volume 3618.627144
_symmetry_space_group_name_H-M "C 2/M"
_symmetry_group_IT_number 12
_symmetry_cell_setting 'monoclinic'
loop_
_space_group_symop_operation_xyz
x,y,z
-x,y,-z
-x,-y,-z
x,-y,z
1/2+x,1/2+y,z
1/2-x,1/2+y,-z
1/2-x,1/2-y,-z
1/2+x,1/2-y,z
loop_
_atom_site_type_symbol
_atom_site_label
_atom_site_fract_x
_atom_site_fract_y
_atom_site_fract_z
Si Si1 0.790055 0.312462 0.759838
Si Si2 0.057333 0.309427 0.968614
Si Si3 0.383826 0.188872 0.875018
Si Si4 0.306269 0.812762 0.471395
Si Si5 0.678931 0.810978 0.710699
Si Si6 0.569594 0.810794 0.786771
Si Si7 0.363799 0.312606 0.622010
Si Si8 0.958121 0.187178 0.738384
O O1 0.789794 0.500000 0.755533
O O2 0.827316 0.263374 0.835747
O O3 0.730659 0.250225 0.758494
O O4 0.819473 0.247386 0.682392
O O5 0.057193 0.500000 0.966789
O O6 0.066430 0.256592 0.878767
O O7 0.101203 0.259988 0.035289
O O8 0.000000 0.261100 0.000000
O O9 0.428434 0.249342 0.815893
O O10 0.385922 0.000000 0.873411
O O11 0.250000 0.750000 0.500000
O O12 0.316681 0.759935 0.381388
O O13 0.350482 0.755647 0.535395
O O14 0.304307 0.000000 0.471879
O O15 0.624005 0.759661 0.747920
O O16 0.680256 0.000000 0.711924
O O17 0.517193 0.752252 0.739823
O O18 0.568607 0.000000 0.786825
O O19 0.360720 0.500000 0.618924
O O20 0.420247 0.266621 0.662786
O O21 0.959240 0.000000 0.741994
#
# Coordination Sequence:
#
# PCOD9179892 Si02
#       8
#     8   8   8   8   8   8   8   8
#     4  10  19  31  52  78 105 138 174 215 263 308
#     4   9  15  28  54  81 102 130 176 222 253 295
#     4   9  17  31  52  79 105 134 176 219 255 306
#     4  11  21  34  54  80 106 135 176 220 264 307
#     4  10  22  37  53  75 107 141 173 212 261 317
#     4  10  20  36  56  76 103 143 179 210 256 314
#     4  10  20  34  53  78 107 136 172 217 264 312
#     4  10  20  33  51  78 109 138 168 215 269 311
#
# _framework density 17.686266
#
# number of rings (size 3 to 8) (size 9 to 14) (size 15 to 20)
#    0.000    2.125    2.500    1.500    0.000    3.000 
#    0.000    2.500    0.000    3.750    0.000    0.000 
#    0.000    0.000    0.000    0.000    0.000    0.000 
#
# Total GULP energy -178543.796794 kJ/mol
# GULP energy per Si atom -5579.493650 kJ/mol
# Density = 1.764601 g / cm^3
# Si number density = 17.686266 Si / 1000 Ang^3
#
#
#
# Elastic Constant Matrix: (Units=GPa)
#
#
# Indices 1 2 3 4 5 6 
#
# 1 164.4803 24.8660 80.8381 0.0000 12.6797 0.0000
# 2 24.8660 14.9413 21.0494 0.0000 2.2301 0.0000
# 3 80.8381 21.0494 114.1537 0.0000 12.5313 0.0000
# 4 0.0000 0.0000 0.0000 13.1013 0.0000 6.0991
# 5 12.6797 2.2301 12.5313 0.0000 29.1021 0.0000
# 6 0.0000 0.0000 0.0000 6.0991 0.0000 26.3276
#
#
#
# Elastic Compliance Matrix: (Units=1/GPa)
#
#
# Indices 1 2 3 4 5 6 
#
# 1 0.010233 -0.009226 -0.005388 0.000000 -0.001431 0.000000
# 2 -0.009226 0.098736 -0.011844 0.000000 0.001553 0.000000
# 3 -0.005388 -0.011844 0.015117 0.000000 -0.003254 0.000000
# 4 0.000000 0.000000 0.000000 0.085555 0.000000 -0.019820
# 5 -0.001431 0.001553 -0.003254 0.000000 0.036268 0.000000
# 6 0.000000 0.000000 0.000000 -0.019820 0.000000 0.042575
#
#
# Mechanical properties :
#
#
# Convention : Reuss Voigt Hill
#
# Bulk Modulus (GPa) = 14.05078 60.78691 37.41884
# Shear Modulus (GPa) = 13.69406 24.82765 19.26085
#
# Velocity S-wave (km/s) = 2.78560 3.75077 3.30362
# Velocity P-wave (km/s) = 4.27876 7.29396 5.97954
#
# Compressibility (1/GPa) = 0.07117044
#
# Stress axis : x y z
#
# Youngs Moduli (GPa) = 97.72307 10.12805 66.15083
#
# Poissons Ratio (x) = 0.09344 0.35644
# Poissons Ratio (y) = 0.90155 0.78348
# Poissons Ratio (z) = 0.52655 0.11995
#
# Static dielectric constant tensor:
#      x y z
#    x 1.589820 0.000000 0.026210 
#    y 0.000000 1.601900 0.000000 
#    z 0.026210 0.000000 1.609410 
# 
# From -- ./inp_files/287782.got.cif
#   From: 2010.05.17/outbox.cif.g08.bks.cpg/sg12_144_cif.got.tgz:287782.got - 2010.06.03 13:09:07.
