data_PCOD9179337
_publ_section_title
;
Structure prediction by ZEFSAII (Michael W. Deem and Ramdas Pophale) SiO2 
 PCOD9179337
Probable space group: C 2/M
;
_chemical_formula_sum "Si O2"
_cell_formula_units_Z 48
_cell_length_a 28.402622
_cell_length_b 9.124223
_cell_length_c 11.235533
_cell_angle_alpha 90.000000
_cell_angle_beta 102.325140
_cell_angle_gamma 90.000000
_cell_volume 2844.600189
_symmetry_space_group_name_H-M "C 2/M"
_symmetry_group_IT_number 12
_symmetry_cell_setting 'monoclinic'
loop_
_space_group_symop_operation_xyz
x,y,z
-x,y,-z
-x,-y,-z
x,-y,z
1/2+x,1/2+y,z
1/2-x,1/2+y,-z
1/2-x,1/2-y,-z
1/2+x,1/2-y,z
loop_
_atom_site_type_symbol
_atom_site_label
_atom_site_fract_x
_atom_site_fract_y
_atom_site_fract_z
Si Si1 0.822699 0.674011 0.609654
Si Si2 0.086320 0.172941 0.232292
Si Si3 0.489190 0.831171 0.136318
Si Si4 0.731776 0.827239 0.663862
Si Si5 0.203466 0.674593 0.917085
Si Si6 0.892154 0.826785 0.037448
O O1 0.828238 0.500000 0.627695
O O2 0.872062 0.754811 0.666752
O O3 0.780176 0.734128 0.671628
O O4 0.803605 0.703966 0.465736
O O5 0.034922 0.251880 0.219382
O O6 0.082055 0.000000 0.252530
O O7 0.101688 0.191491 0.101831
O O8 0.439449 0.743819 0.122962
O O9 0.484696 0.000000 0.171915
O O10 0.500000 0.831173 0.000000
O O11 0.707423 0.800999 0.777399
O O12 0.744895 0.000000 0.664236
O O13 0.204040 0.500000 0.939180
O O14 0.155514 0.745789 0.944331
O O15 0.250000 0.750000 0.000000
O O16 0.889493 0.000000 0.060237
#
# Coordination Sequence:
#
# PCOD9179337 Si02
#       6
#     8   8   8   8   8   8
#     4  10  19  32  52  74  96 126 165 205 243 288
#     4  10  19  31  49  74 103 131 160 199 246 290
#     4   9  17  30  49  73  99 128 164 202 240 286
#     4   9  20  36  50  69  99 131 162 201 248 290
#     4  11  22  35  51  72 100 132 165 200 241 290
#     4  10  20  33  49  72 103 134 162 197 244 292
#
# _framework density 16.874075000000001
#
# number of rings (size 3 to 8) (size 9 to 14) (size 15 to 20)
#    0.000    2.167    0.000    3.500    0.000   10.000 
#    0.000    0.000    0.000    1.000    0.000    7.000 
#    0.000    0.000    0.000    0.000    0.000    0.000 
#
# Total GULP energy -133964.326671 kJ/mol
# GULP energy per Si atom -5581.846945 kJ/mol
# Density = 1.683567 g / cm^3
# Si number density = 16.874075 Si / 1000 Ang^3
#
#
#
# Elastic Constant Matrix: (Units=GPa)
#
#
# Indices 1 2 3 4 5 6 
#
# 1 155.6721 87.9958 40.8424 0.0000 18.7402 0.0000
# 2 87.9958 113.9787 46.5164 0.0000 10.0251 0.0000
# 3 40.8424 46.5164 35.8869 0.0000 6.4967 0.0000
# 4 0.0000 0.0000 0.0000 23.5427 0.0000 4.1666
# 5 18.7402 10.0251 6.4967 0.0000 26.5421 0.0000
# 6 0.0000 0.0000 0.0000 4.1666 0.0000 38.5639
#
#
#
# Elastic Compliance Matrix: (Units=1/GPa)
#
#
# Indices 1 2 3 4 5 6 
#
# 1 0.012179 -0.007805 -0.002847 0.000000 -0.004954 0.000000
# 2 -0.007805 0.023664 -0.022152 0.000000 0.001995 0.000000
# 3 -0.002847 -0.022152 0.060627 0.000000 -0.004463 0.000000
# 4 0.000000 0.000000 0.000000 0.043304 0.000000 -0.004679
# 5 -0.004954 0.001995 -0.004463 0.000000 0.041513 0.000000
# 6 0.000000 0.000000 0.000000 -0.004679 0.000000 0.026437
#
#
# Mechanical properties :
#
#
# Convention : Reuss Voigt Hill
#
# Bulk Modulus (GPa) = 32.40241 72.91631 52.65936
# Shear Modulus (GPa) = 17.62926 26.40861 22.01894
#
# Velocity S-wave (km/s) = 3.23577 3.96035 3.61626
# Velocity P-wave (km/s) = 5.76233 8.01364 6.97936
#
# Compressibility (1/GPa) = 0.03086190
#
# Stress axis : x y z
#
# Youngs Moduli (GPa) = 82.10877 42.25755 16.49432
#
# Poissons Ratio (x) = 0.32982 0.04696
# Poissons Ratio (y) = 0.64085 0.36538
# Poissons Ratio (z) = 0.23378 0.93610
#
# Static dielectric constant tensor:
#      x y z
#    x 1.539870 0.000000 0.005530 
#    y 0.000000 1.562800 0.000000 
#    z 0.005530 0.000000 1.560500 
# 
# From -- ./inp_files/172019.got.cif
#   From: 2010.05.17/outbox.cif.g08.bks.cpg/sg12_87_cif.got.tgz:172019.got - 2010.06.03 13:09:07.
