data_PCOD9179016
_publ_section_title
;
Structure prediction by ZEFSAII (Michael W. Deem and Ramdas Pophale) SiO2 
 PCOD9179016
Probable space group: C 2/M
;
_chemical_formula_sum "Si O2"
_cell_formula_units_Z 56
_cell_length_a 26.876991
_cell_length_b 7.537751
_cell_length_c 14.926325
_cell_angle_alpha 90.000000
_cell_angle_beta 57.051811
_cell_angle_gamma 90.000000
_cell_volume 2537.590338
_symmetry_space_group_name_H-M "C 2/M"
_symmetry_group_IT_number 12
_symmetry_cell_setting 'monoclinic'
loop_
_space_group_symop_operation_xyz
x,y,z
-x,y,-z
-x,-y,-z
x,-y,z
1/2+x,1/2+y,z
1/2-x,1/2+y,-z
1/2-x,1/2-y,-z
1/2+x,1/2-y,z
loop_
_atom_site_type_symbol
_atom_site_label
_atom_site_fract_x
_atom_site_fract_y
_atom_site_fract_z
Si Si1 0.755651 0.286893 0.599238
Si Si2 0.983787 0.295196 0.380481
Si Si3 0.129284 0.294306 0.414957
Si Si4 0.467595 0.714939 0.197947
Si Si5 0.640846 0.716987 0.819935
Si Si6 0.895781 0.783216 0.951601
Si Si7 0.881599 0.799234 0.770415
O O1 0.756534 0.500000 0.609724
O O2 0.750000 0.250000 0.500000
O O3 0.816738 0.216230 0.581426
O O4 0.698584 0.222014 0.709931
O O5 0.998492 0.500000 0.388437
O O6 0.935465 0.219770 0.496521
O O7 0.954840 0.284390 0.310124
O O8 0.046784 0.200865 0.310025
O O9 0.123671 0.500000 0.447166
O O10 0.141785 0.287221 0.297227
O O11 0.466526 0.500000 0.202774
O O12 0.418459 0.771674 0.174968
O O13 0.534871 0.768018 0.108427
O O14 0.640732 0.500000 0.820044
O O15 0.637835 0.773112 0.926212
O O16 0.871546 0.720227 0.879092
O O17 0.894991 0.000000 0.948617
O O18 0.859486 0.000000 0.791939
#
# Coordination Sequence:
#
# PCOD9179016 Si02
#       7
#     8   8   8   8   8   8   8
#     4  10  21  36  54  75  99 130 166 202 239 284
#     4  10  19  31  48  70 101 136 161 192 245 300
#     4  10  21  35  49  69 100 135 165 196 243 295
#     4   9  16  27  48  77 102 126 161 204 244 284
#     4   9  16  29  51  74  97 130 168 202 240 287
#     4   8  15  28  47  74 102 124 156 204 249 287
#     4  10  20  33  52  76  98 123 161 208 247 284
#
# _framework density 22.068180000000002
#
# number of rings (size 3 to 8) (size 9 to 14) (size 15 to 20)
#    0.000    2.571    0.000    3.429    0.000    5.143 
#    0.000    0.714    0.000   12.000    0.000    0.000 
#    0.000    0.000    0.000    0.000    0.000    0.000 
#
# Total GULP energy -156340.217769 kJ/mol
# GULP energy per Si atom -5583.579206 kJ/mol
# Density = 2.201795 g / cm^3
# Si number density = 22.068180 Si / 1000 Ang^3
#
#
#
# Elastic Constant Matrix: (Units=GPa)
#
#
# Indices 1 2 3 4 5 6 
#
# 1 72.1861 -6.9841 36.5507 0.0005 26.2349 0.0001
# 2 -6.9841 54.8098 -5.9395 0.0009 -4.4470 0.0000
# 3 36.5507 -5.9395 153.8058 0.0003 25.0126 0.0001
# 4 0.0005 0.0009 0.0003 -19.1427 0.0001 -3.1952
# 5 26.2349 -4.4470 25.0126 0.0001 31.3314 0.0000
# 6 0.0001 0.0000 0.0001 -3.1952 0.0000 5.5081
#
#
#
# Elastic Compliance Matrix: (Units=1/GPa)
#
#
# Indices 1 2 3 4 5 6 
#
# 1 0.020732 0.001142 -0.002397 0.000000 -0.015284 0.000000
# 2 0.001142 0.018535 0.000198 0.000001 0.001517 0.000000
# 3 -0.002397 0.000198 0.007755 0.000000 -0.004156 0.000000
# 4 0.000000 0.000001 0.000000 -0.047628 0.000000 -0.027629
# 5 -0.015284 0.001517 -0.004156 0.000000 0.048247 0.000000
# 6 0.000000 0.000000 0.000000 -0.027629 0.000000 0.165523
#
#
# Mechanical properties :
#
#
# Convention : Reuss Voigt Hill
#
# Bulk Modulus (GPa) = 22.26837 36.45063 29.35950
# Shear Modulus (GPa) = 21.71565 20.68435 21.20000
#
# Velocity S-wave (km/s) = 3.14032 3.06485 3.10281
# Velocity P-wave (km/s) = 4.82301 5.39236 5.11561
#
# Compressibility (1/GPa) = 0.04490674
#
# Stress axis : x y z
#
# Youngs Moduli (GPa) = 48.23463 53.95220 128.95236
#
# Poissons Ratio (x) = -0.06161 0.30912
# Poissons Ratio (y) = -0.05508 -0.02550
# Poissons Ratio (z) = 0.11563 -0.01067
#
# Static dielectric constant tensor:
#      x y z
#    x 1.803030 0.000000 0.009230 
#    y 0.000000 1.824440 0.000000 
#    z 0.009230 0.000000 1.801330 
# 
# From -- ./inp_files/243690.got.cif
#   From: 2010.05.17/outbox.cif.g08.bks.cpg/sg12_122_cif.got.tgz:243690.got - 2010.06.03 13:09:07.
