data_PCOD9179552
_publ_section_title
;
Structure prediction by ZEFSAII (Michael W. Deem and Ramdas Pophale) SiO2 
 PCOD9179552
Probable space group: C 2/M
;
_chemical_formula_sum "Si O2"
_cell_formula_units_Z 48
_cell_length_a 27.558515
_cell_length_b 8.836173
_cell_length_c 20.847127
_cell_angle_alpha 90.000000
_cell_angle_beta 146.043722
_cell_angle_gamma 90.000000
_cell_volume 2835.542425
_symmetry_space_group_name_H-M "C 2/M"
_symmetry_group_IT_number 12
_symmetry_cell_setting 'monoclinic'
loop_
_space_group_symop_operation_xyz
x,y,z
-x,y,-z
-x,-y,-z
x,-y,z
1/2+x,1/2+y,z
1/2-x,1/2+y,-z
1/2-x,1/2-y,-z
1/2+x,1/2-y,z
loop_
_atom_site_type_symbol
_atom_site_label
_atom_site_fract_x
_atom_site_fract_y
_atom_site_fract_z
Si Si1 0.805090 0.321270 0.001470
Si Si2 0.019955 0.174443 0.767848
Si Si3 0.468949 0.675333 0.373739
Si Si4 0.656530 0.181881 0.583088
Si Si5 0.792004 0.320755 0.223639
Si Si6 0.677454 0.317356 0.466765
O O1 0.794617 0.500000 0.994132
O O2 0.768314 0.263007 0.893497
O O3 0.750000 0.250000 0.000000
O O4 0.905369 0.273862 0.118855
O O5 0.036205 0.177150 0.709171
O O6 0.919642 0.222503 0.664990
O O7 0.028903 0.000000 0.799229
O O8 0.462134 0.500000 0.386648
O O9 0.562085 0.745039 0.492737
O O10 0.390026 0.773063 0.313351
O O11 0.716996 0.216272 0.710745
O O12 0.686634 0.250044 0.548396
O O13 0.647997 0.000000 0.568812
O O14 0.781232 0.500000 0.203665
O O15 0.681453 0.500000 0.474309
O O16 0.750000 0.250000 0.500000
#
# Coordination Sequence:
#
# PCOD9179552 Si02
#       6
#     8   8   8   8   8   8
#     4  12  23  34  52  76 108 149 188 226 264 315
#     4   9  19  35  53  78 109 142 181 221 265 319
#     4  10  19  31  50  75 107 145 181 221 267 318
#     4  10  21  35  52  77 108 141 180 223 271 324
#     4  11  22  34  50  73 107 149 185 221 265 318
#     4  10  21  38  62  86 109 137 174 224 278 328
#
# _framework density 16.927976999999998
#
# number of rings (size 3 to 8) (size 9 to 14) (size 15 to 20)
#    0.000    1.667    1.667    5.000    0.000    8.000 
#    0.000    0.000    0.000    1.000    0.000    7.000 
#    0.000    0.000    0.000    0.000    0.000    0.000 
#
# Total GULP energy -133996.040882 kJ/mol
# GULP energy per Si atom -5583.168370 kJ/mol
# Density = 1.688945 g / cm^3
# Si number density = 16.927977 Si / 1000 Ang^3
#
#
#
# Elastic Constant Matrix: (Units=GPa)
#
#
# Indices 1 2 3 4 5 6 
#
# 1 72.7250 37.1372 64.1793 0.0000 7.4330 0.0000
# 2 37.1372 101.5194 70.2279 0.0000 -8.9456 0.0000
# 3 64.1793 70.2279 132.7491 0.0000 -20.2892 0.0000
# 4 0.0000 0.0000 0.0000 29.0744 0.0000 -0.9945
# 5 7.4330 -8.9456 -20.2892 0.0000 16.8503 0.0000
# 6 0.0000 0.0000 0.0000 -0.9945 0.0000 24.3280
#
#
#
# Elastic Compliance Matrix: (Units=1/GPa)
#
#
# Indices 1 2 3 4 5 6 
#
# 1 0.049849 -0.000732 -0.033252 0.000000 -0.062417 0.000000
# 2 -0.000732 0.015603 -0.008070 0.000000 -0.001111 0.000000
# 3 -0.033252 -0.008070 0.036111 0.000000 0.053865 0.000000
# 4 0.000000 0.000000 0.000000 0.034443 0.000000 0.001408
# 5 -0.062417 -0.001111 0.053865 0.000000 0.151148 0.000000
# 6 0.000000 0.000000 0.000000 0.001408 0.000000 0.041163
#
#
# Mechanical properties :
#
#
# Convention : Reuss Voigt Hill
#
# Bulk Modulus (GPa) = 57.29526 72.23137 64.76332
# Shear Modulus (GPa) = 11.95477 23.08047 17.51762
#
# Velocity S-wave (km/s) = 2.66035 3.69650 3.22037
# Velocity P-wave (km/s) = 6.58457 7.80905 7.22281
#
# Compressibility (1/GPa) = 0.01745345
#
# Stress axis : x y z
#
# Youngs Moduli (GPa) = 20.06070 64.09021 27.69227
#
# Poissons Ratio (x) = 0.04694 0.92083
# Poissons Ratio (y) = 0.01469 0.22348
# Poissons Ratio (z) = 0.66706 0.51721
#
# Static dielectric constant tensor:
#      x y z
#    x 1.561010 0.000000 -0.019270 
#    y 0.000000 1.569460 0.000000 
#    z -0.019270 0.000000 1.584510 
# 
# From -- ./inp_files/329008.got.cif
#   From: 2010.05.17/outbox.cif.g08.bks.cpg/sg12_165_cif.got.tgz:329008.got - 2010.06.03 13:09:07.
