data_PCOD9179326
_publ_section_title
;
Structure prediction by ZEFSAII (Michael W. Deem and Ramdas Pophale) SiO2 
 PCOD9179326
Probable space group: C 2/M
;
_chemical_formula_sum "Si O2"
_cell_formula_units_Z 64
_cell_length_a 21.395304
_cell_length_b 17.906069
_cell_length_c 24.469924
_cell_angle_alpha 90.000000
_cell_angle_beta 155.343707
_cell_angle_gamma 90.000000
_cell_volume 3910.825875
_symmetry_space_group_name_H-M "C 2/M"
_symmetry_group_IT_number 12
_symmetry_cell_setting 'monoclinic'
loop_
_space_group_symop_operation_xyz
x,y,z
-x,y,-z
-x,-y,-z
x,-y,z
1/2+x,1/2+y,z
1/2-x,1/2+y,-z
1/2-x,1/2-y,-z
1/2+x,1/2-y,z
loop_
_atom_site_type_symbol
_atom_site_label
_atom_site_fract_x
_atom_site_fract_y
_atom_site_fract_z
Si Si1 0.721217 0.151782 0.148791
Si Si2 0.183485 0.085788 0.391286
Si Si3 0.520147 0.290043 0.819451
Si Si4 0.064030 0.584223 0.123213
Si Si5 0.995708 0.413346 0.692704
Si Si6 0.648677 0.134251 0.308451
Si Si7 0.774830 0.718735 0.110807
Si Si8 0.051305 0.086471 0.408527
O O1 0.648945 0.142590 0.151312
O O2 0.726868 0.232488 0.124856
O O3 0.886893 0.119102 0.282768
O O4 0.611368 0.101856 0.023716
O O5 0.356999 0.105830 0.541966
O O6 0.103310 0.088706 0.386822
O O7 0.090939 0.141652 0.280064
O O8 0.178797 0.000000 0.368477
O O9 0.421161 0.216379 0.750576
O O10 0.619387 0.270707 0.844216
O O11 0.634450 0.301411 0.960432
O O12 0.097811 0.500000 0.131369
O O13 0.110617 0.593274 0.222352
O O14 0.037681 0.500000 0.717312
O O15 0.129207 0.353741 0.796153
O O16 0.927346 0.405293 0.699575
O O17 0.825338 0.132391 0.459920
O O18 0.056205 0.000000 0.430232
#
# Coordination Sequence:
#
# PCOD9179326 Si02
#       8
#     8   8   8   8   8   8   8   8
#     4  11  21  35  49  73  97 137 179 212 246 296
#     4   9  18  31  50  76 105 135 167 203 257 314
#     4  10  19  33  48  75 103 135 171 206 259 304
#     4  11  22  37  53  70 102 144 177 211 251 290
#     4   9  19  33  52  79 107 133 165 208 260 309
#     4  10  20  33  52  74 107 138 170 207 251 301
#     4  10  20  32  50  74 103 133 170 216 252 303
#     4  10  19  31  49  74 101 133 174 212 247 297
#
# _framework density 16.364830000000001
#
# number of rings (size 3 to 8) (size 9 to 14) (size 15 to 20)
#    0.000    2.000    2.500    3.375    1.750    2.500 
#    0.000    1.250    0.000    0.000    0.000    2.625 
#    0.000    2.000    0.000    0.000    0.000    0.000 
#
# Total GULP energy -178429.183764 kJ/mol
# GULP energy per Si atom -5575.911993 kJ/mol
# Density = 1.632758 g / cm^3
# Si number density = 16.364830 Si / 1000 Ang^3
#
#
#
# Elastic Constant Matrix: (Units=GPa)
#
#
# Indices 1 2 3 4 5 6 
#
# 1 39.7675 27.5554 30.3225 0.0000 -6.1278 -0.0009
# 2 27.5554 100.3291 72.5981 -0.0071 -6.9637 0.0008
# 3 30.3225 72.5981 133.2894 -0.0013 1.9897 0.0010
# 4 0.0000 -0.0071 -0.0013 31.8090 0.0045 -1.5875
# 5 -6.1278 -6.9637 1.9897 0.0045 11.8698 0.0018
# 6 -0.0009 0.0008 0.0010 -1.5875 0.0018 18.2145
#
#
#
# Elastic Compliance Matrix: (Units=1/GPa)
#
#
# Indices 1 2 3 4 5 6 
#
# 1 0.035171 -0.004175 -0.005976 -0.000004 0.016709 0.000000
# 2 -0.004175 0.018573 -0.009320 0.000002 0.010303 -0.000001
# 3 -0.005976 -0.009320 0.014101 0.000000 -0.010917 0.000000
# 4 -0.000004 0.000002 0.000000 0.031575 -0.000013 0.002752
# 5 0.016709 0.010303 -0.010917 -0.000013 0.100748 -0.000010
# 6 0.000000 -0.000001 0.000000 0.002752 -0.000010 0.055141
#
#
# Mechanical properties :
#
#
# Convention : Reuss Voigt Hill
#
# Bulk Modulus (GPa) = 34.60003 59.37090 46.98546
# Shear Modulus (GPa) = 16.45345 21.90598 19.17972
#
# Velocity S-wave (km/s) = 3.17427 3.66266 3.42717
# Velocity P-wave (km/s) = 5.88417 7.36513 6.66590
#
# Compressibility (1/GPa) = 0.02890171
#
# Stress axis : x y z
#
# Youngs Moduli (GPa) = 28.43250 53.84142 70.91536
#
# Poissons Ratio (x) = 0.22481 0.42382
# Poissons Ratio (y) = 0.11872 0.66093
# Poissons Ratio (z) = 0.16992 0.50180
#
# Static dielectric constant tensor:
#      x y z
#    x 1.541080 0.000000 0.000410 
#    y 0.000000 1.547130 0.000000 
#    z 0.000410 0.000000 1.555210 
# 
# From -- ./inp_files/368249.got.cif
#   From: 2010.05.17/outbox.cif.g08.bks.cpg/sg12_185_cif.got.tgz:368249.got - 2010.06.03 13:09:07.
