data_PCOD9179728
_publ_section_title
;
Structure prediction by ZEFSAII (Michael W. Deem and Ramdas Pophale) SiO2 
 PCOD9179728
Probable space group: C 2/M
;
_chemical_formula_sum "Si O2"
_cell_formula_units_Z 64
_cell_length_a 19.261532
_cell_length_b 7.508551
_cell_length_c 20.678016
_cell_angle_alpha 90.000000
_cell_angle_beta 84.709424
_cell_angle_gamma 90.000000
_cell_volume 2977.842534
_symmetry_space_group_name_H-M "C 2/M"
_symmetry_group_IT_number 12
_symmetry_cell_setting 'monoclinic'
loop_
_space_group_symop_operation_xyz
x,y,z
-x,y,-z
-x,-y,-z
x,-y,z
1/2+x,1/2+y,z
1/2-x,1/2+y,-z
1/2-x,1/2-y,-z
1/2+x,1/2-y,z
loop_
_atom_site_type_symbol
_atom_site_label
_atom_site_fract_x
_atom_site_fract_y
_atom_site_fract_z
Si Si1 0.670936 0.298394 0.857409
Si Si2 0.033883 0.218355 0.929899
Si Si3 0.329497 0.215239 0.404774
Si Si4 0.302392 0.791618 0.778796
Si Si5 0.543017 0.287049 0.194139
Si Si6 0.579285 0.781646 0.480889
Si Si7 0.180995 0.291127 0.365980
Si Si8 0.596203 0.209174 0.732777
O O1 0.683423 0.500000 0.879829
O O2 0.613118 0.218692 0.910292
O O3 0.744932 0.213557 0.832663
O O4 0.630958 0.301736 0.791625
O O5 0.987811 0.274111 0.872144
O O6 0.035561 0.000000 0.928957
O O7 0.000000 0.274206 0.000000
O O8 0.370400 0.274551 0.464812
O O9 0.249981 0.275341 0.403853
O O10 0.371422 0.273398 0.337013
O O11 0.329104 0.000000 0.405546
O O12 0.380186 0.780535 0.798447
O O13 0.302391 0.713415 0.706199
O O14 0.282384 0.000000 0.774321
O O15 0.545766 0.500000 0.192953
O O16 0.486605 0.232372 0.253025
O O17 0.500000 0.725391 0.500000
O O18 0.614956 0.719911 0.411184
O O19 0.579127 0.000000 0.480114
O O20 0.166675 0.500000 0.356455
O O21 0.612212 0.000000 0.737398
#
# Coordination Sequence:
#
# PCOD9179728 Si02
#       8
#     8   8   8   8   8   8   8   8
#     4   9  17  32  53  77 105 135 170 208 247 299
#     4   8  15  31  55  78 100 133 174 208 245 299
#     4  10  20  33  53  77 101 131 169 214 258 305
#     4  10  20  33  51  77 107 136 171 212 258 304
#     4  10  21  34  52  77 106 137 170 211 256 301
#     4   9  19  34  52  73  98 131 174 215 254 304
#     4  10  20  34  55  75  98 137 173 210 255 306
#     4  10  19  31  51  77 103 133 170 212 256 304
#
# _framework density 21.492070999999999
#
# number of rings (size 3 to 8) (size 9 to 14) (size 15 to 20)
#    0.000    2.500    1.250    1.875    1.750    1.500 
#    0.000    0.625    0.000   10.125    0.000    0.000 
#    0.000    0.000    0.000    0.000    0.000    0.000 
#
# Total GULP energy -178623.430485 kJ/mol
# GULP energy per Si atom -5581.982203 kJ/mol
# Density = 2.144315 g / cm^3
# Si number density = 21.492071 Si / 1000 Ang^3
#
#
#
# Elastic Constant Matrix: (Units=GPa)
#
#
# Indices 1 2 3 4 5 6 
#
# 1 166.0829 -8.7196 49.1787 0.0000 -35.0983 0.0000
# 2 -8.7196 61.1957 3.0018 0.0000 -5.2361 0.0000
# 3 49.1787 3.0018 81.0040 0.0000 -35.4052 0.0000
# 4 0.0000 0.0000 0.0000 -241.4036 0.0000 -42.4308
# 5 -35.0983 -5.2361 -35.4052 0.0000 39.1349 0.0000
# 6 0.0000 0.0000 0.0000 -42.4308 0.0000 8.3341
#
#
#
# Elastic Compliance Matrix: (Units=1/GPa)
#
#
# Indices 1 2 3 4 5 6 
#
# 1 0.007956 0.001685 -0.002771 0.000000 0.004854 0.000000
# 2 0.001685 0.016904 -0.000001 0.000000 0.003772 0.000000
# 3 -0.002771 -0.000001 0.021405 0.000000 0.016880 0.000000
# 4 0.000000 0.000000 0.000000 -0.002186 0.000000 -0.011130
# 5 0.004854 0.003772 0.016880 0.000000 0.045682 0.000000
# 6 0.000000 0.000000 0.000000 -0.011130 0.000000 0.063323
#
#
# Mechanical properties :
#
#
# Convention : Reuss Voigt Hill
#
# Bulk Modulus (GPa) = 22.68011 43.91159 33.29585
# Shear Modulus (GPa) = 29.41967 -21.13214 4.14377
#
# Velocity S-wave (km/s) = 3.70383 -3.13909 1.39005
# Velocity P-wave (km/s) = 5.37278 2.70876 4.25466
#
# Compressibility (1/GPa) = 0.04409150
#
# Stress axis : x y z
#
# Youngs Moduli (GPa) = 125.69443 59.15799 46.71715
#
# Poissons Ratio (x) = -0.09967 0.12946
# Poissons Ratio (y) = -0.21177 0.00002
# Poissons Ratio (z) = 0.34831 0.00003
#
# Static dielectric constant tensor:
#      x y z
#    x 1.773780 0.000000 -0.040520 
#    y 0.000000 1.800210 0.000000 
#    z -0.040520 0.000000 1.766620 
# 
# From -- ./inp_files/314138.got.cif
#   From: 2010.05.17/outbox.cif.g08.bks.cpg/sg12_158_cif.got.tgz:314138.got - 2010.06.03 13:09:07.
