data_PCOD9179716
_publ_section_title
;
Structure prediction by ZEFSAII (Michael W. Deem and Ramdas Pophale) SiO2 
 PCOD9179716
Probable space group: C 2/M
;
_chemical_formula_sum "Si O2"
_cell_formula_units_Z 48
_cell_length_a 15.896499
_cell_length_b 7.752286
_cell_length_c 14.448319
_cell_angle_alpha 90.000000
_cell_angle_beta 90.913401
_cell_angle_gamma 90.000000
_cell_volume 1780.300880
_symmetry_space_group_name_H-M "C 2/M"
_symmetry_group_IT_number 12
_symmetry_cell_setting 'monoclinic'
loop_
_space_group_symop_operation_xyz
x,y,z
-x,y,-z
-x,-y,-z
x,-y,z
1/2+x,1/2+y,z
1/2-x,1/2+y,-z
1/2-x,1/2-y,-z
1/2+x,1/2-y,z
loop_
_atom_site_type_symbol
_atom_site_label
_atom_site_fract_x
_atom_site_fract_y
_atom_site_fract_z
Si Si1 0.689122 0.698844 0.603940
Si Si2 0.335109 0.206857 0.057457
Si Si3 0.438335 0.799339 0.893325
Si Si4 0.468971 0.201932 0.277582
Si Si5 0.082862 0.793594 0.438213
Si Si6 0.725578 0.701717 0.216918
O O1 0.709718 0.500000 0.592319
O O2 0.603350 0.708829 0.664223
O O3 0.659703 0.772366 0.503798
O O4 0.757270 0.780274 0.673919
O O5 0.308642 0.259474 0.160491
O O6 0.345539 0.000000 0.059218
O O7 0.250000 0.250000 0.000000
O O8 0.410005 0.274014 0.992603
O O9 0.507408 0.726555 0.823413
O O10 0.352703 0.795323 0.830858
O O11 0.460861 0.000000 0.905808
O O12 0.553988 0.214354 0.341064
O O13 0.445196 0.000000 0.269234
O O14 0.000000 0.764598 0.500000
O O15 0.092430 0.000000 0.426710
O O16 0.711865 0.500000 0.197510
#
# Coordination Sequence:
#
# PCOD9179716 Si02
#       6
#     8   8   8   8   8   8
#     4  10  20  34  51  70  97 131 161 195 242 288
#     4   8  15  29  48  69  94 125 159 193 232 282
#     4   9  18  33  51  72 100 130 157 191 241 292
#     4  10  19  31  51  76  98 124 160 199 237 282
#     4   8  16  31  49  68  92 126 162 194 236 287
#     4  10  19  31  51  76  97 123 163 204 237 276
#
# _framework density 26.961735000000001
#
# number of rings (size 3 to 8) (size 9 to 14) (size 15 to 20)
#    0.000    2.833    0.000    2.500    0.000    5.667 
#    0.000    1.667    0.000    5.000    0.000    0.000 
#    0.000    0.000    0.000    0.000    0.000    0.000 
#
# Total GULP energy -134193.127792 kJ/mol
# GULP energy per Si atom -5591.380325 kJ/mol
# Density = 2.690037 g / cm^3
# Si number density = 26.961735 Si / 1000 Ang^3
#
#
#
# Elastic Constant Matrix: (Units=GPa)
#
#
# Indices 1 2 3 4 5 6 
#
# 1 115.4946 12.3978 19.1785 0.0000 4.0074 0.0000
# 2 12.3978 55.5215 13.2015 0.0000 3.2300 0.0000
# 3 19.1785 13.2015 205.7932 0.0000 -2.5845 0.0000
# 4 0.0000 0.0000 0.0000 -7.8747 0.0000 -3.5356
# 5 4.0074 3.2300 -2.5845 0.0000 64.0705 0.0000
# 6 0.0000 0.0000 0.0000 -3.5356 0.0000 16.4472
#
#
#
# Elastic Compliance Matrix: (Units=1/GPa)
#
#
# Indices 1 2 3 4 5 6 
#
# 1 0.008991 -0.001805 -0.000728 0.000000 -0.000501 0.000000
# 2 -0.001805 0.018713 -0.001043 0.000000 -0.000873 0.000000
# 3 -0.000728 -0.001043 0.004998 0.000000 0.000300 0.000000
# 4 0.000000 0.000000 0.000000 -0.115812 0.000000 -0.024896
# 5 -0.000501 -0.000873 0.000300 0.000000 0.015695 0.000000
# 6 0.000000 0.000000 0.000000 -0.024896 0.000000 0.055449
#
#
# Mechanical properties :
#
#
# Convention : Reuss Voigt Hill
#
# Bulk Modulus (GPa) = 39.14231 51.81832 45.48032
# Shear Modulus (GPa) = 1350.25000 36.66403 693.45702
#
# Velocity S-wave (km/s) = 22.40289 3.69162 16.05487
# Velocity P-wave (km/s) = 26.14833 6.11814 18.98904
#
# Compressibility (1/GPa) = 0.02554780
#
# Stress axis : x y z
#
# Youngs Moduli (GPa) = 111.22830 53.43893 200.08783
#
# Poissons Ratio (x) = 0.09647 0.14573
# Poissons Ratio (y) = 0.20080 0.20872
# Poissons Ratio (z) = 0.08101 0.05574
#
# Static dielectric constant tensor:
#      x y z
#    x 2.240900 0.000000 -0.014140 
#    y 0.000000 1.991430 0.000000 
#    z -0.014140 0.000000 2.150510 
# 
# From -- ./inp_files/221713.got.cif
#   From: 2010.05.17/outbox.cif.g08.bks.cpg/sg12_111_cif.got.tgz:221713.got - 2010.06.03 13:09:07.
