data_PCOD9179331
_publ_section_title
;
Structure prediction by ZEFSAII (Michael W. Deem and Ramdas Pophale) SiO2 
 PCOD9179331
Probable space group: C 2/M
;
_chemical_formula_sum "Si O2"
_cell_formula_units_Z 48
_cell_length_a 15.965850
_cell_length_b 7.668962
_cell_length_c 19.070863
_cell_angle_alpha 90.000000
_cell_angle_beta 130.698407
_cell_angle_gamma 90.000000
_cell_volume 1770.335299
_symmetry_space_group_name_H-M "C 2/M"
_symmetry_group_IT_number 12
_symmetry_cell_setting 'monoclinic'
loop_
_space_group_symop_operation_xyz
x,y,z
-x,y,-z
-x,-y,-z
x,-y,z
1/2+x,1/2+y,z
1/2-x,1/2+y,-z
1/2-x,1/2-y,-z
1/2+x,1/2-y,z
loop_
_atom_site_type_symbol
_atom_site_label
_atom_site_fract_x
_atom_site_fract_y
_atom_site_fract_z
Si Si1 0.618046 0.304598 0.981784
Si Si2 0.361648 0.703288 0.310519
Si Si3 0.631118 0.201424 0.140612
Si Si4 0.595523 0.708952 0.477227
Si Si5 0.327697 0.790199 0.639558
Si Si6 0.936578 0.292904 0.197445
O O1 0.658722 0.500000 0.012586
O O2 0.484175 0.298564 0.915487
O O3 0.633315 0.244494 0.910227
O O4 0.657426 0.200858 0.071446
O O5 0.350670 0.500000 0.324712
O O6 0.237147 0.774568 0.239426
O O7 0.469291 0.776709 0.409690
O O8 0.396474 0.708516 0.247436
O O9 0.611734 0.000000 0.151547
O O10 0.586953 0.500000 0.482237
O O11 0.635505 0.742022 0.419365
O O12 0.701438 0.773812 0.579578
O O13 0.434879 0.736029 0.742277
O O14 0.321184 0.000000 0.640235
O O15 0.936527 0.500000 0.209297
#
# Coordination Sequence:
#
# PCOD9179331 Si02
#       6
#     8   8   8   8   8   8
#     4  11  22  36  53  71  93 125 164 201 241 288
#     4   9  18  31  50  76 102 127 156 195 241 285
#     4  10  20  36  55  73  95 124 159 197 241 292
#     4   8  13  24  42  66  96 125 154 188 228 276
#     4   8  14  24  41  66  95 126 157 189 227 273
#     4  10  19  31  49  74 102 130 161 198 238 278
#
# _framework density 27.113509000000001
#
# number of rings (size 3 to 8) (size 9 to 14) (size 15 to 20)
#    0.000    2.667    0.000    3.500    0.000    2.667 
#    0.000    0.000    0.000    1.000    0.000    7.000 
#    0.000    0.000    0.000    0.000    0.000    0.000 
#
# Total GULP energy -134222.800864 kJ/mol
# GULP energy per Si atom -5592.616703 kJ/mol
# Density = 2.705180 g / cm^3
# Si number density = 27.113509 Si / 1000 Ang^3
#
#
#
# Elastic Constant Matrix: (Units=GPa)
#
#
# Indices 1 2 3 4 5 6 
#
# 1 116.7329 4.1792 34.6331 0.0000 17.4219 0.0000
# 2 4.1792 75.5789 0.3037 0.0000 -4.3026 0.0000
# 3 34.6331 0.3037 225.8413 0.0000 17.6852 0.0000
# 4 0.0000 0.0000 0.0000 -9.5118 0.0000 10.9368
# 5 17.4219 -4.3026 17.6852 0.0000 73.0901 0.0000
# 6 0.0000 0.0000 0.0000 10.9368 0.0000 7.7834
#
#
#
# Elastic Compliance Matrix: (Units=1/GPa)
#
#
# Indices 1 2 3 4 5 6 
#
# 1 0.009253 -0.000617 -0.001267 0.000000 -0.001935 0.000000
# 2 -0.000617 0.013318 0.000004 0.000000 0.000930 0.000000
# 3 -0.001267 0.000004 0.004687 0.000000 -0.000832 0.000000
# 4 0.000000 0.000000 0.000000 -0.040194 0.000000 0.056478
# 5 -0.001935 0.000930 -0.000832 0.000000 0.014399 0.000000
# 6 0.000000 0.000000 0.000000 0.056478 0.000000 0.049119
#
#
# Mechanical properties :
#
#
# Convention : Reuss Voigt Hill
#
# Bulk Modulus (GPa) = 42.55366 55.15388 48.85377
# Shear Modulus (GPa) = 80.41699 39.54148 59.97923
#
# Velocity S-wave (km/s) = 5.45195 3.82300 4.70846
# Velocity P-wave (km/s) = 7.44046 6.31452 6.90049
#
# Compressibility (1/GPa) = 0.02349974
#
# Stress axis : x y z
#
# Youngs Moduli (GPa) = 108.06967 75.08496 213.34365
#
# Poissons Ratio (x) = 0.04631 0.27022
# Poissons Ratio (y) = 0.06665 -0.00082
# Poissons Ratio (z) = 0.13688 -0.00029
#
# Static dielectric constant tensor:
#      x y z
#    x 2.235280 0.000000 0.001250 
#    y 0.000000 2.007710 0.000000 
#    z 0.001250 0.000000 2.135600 
# 
# From -- ./inp_files/236319.got.cif
#   From: 2010.05.17/outbox.cif.g08.bks.cpg/sg12_119_cif.got.tgz:236319.got - 2010.06.03 13:09:07.
