data_PCOD9179685
_publ_section_title
;
Structure prediction by ZEFSAII (Michael W. Deem and Ramdas Pophale) SiO2 
 PCOD9179685
Probable space group: C 2/M
;
_chemical_formula_sum "Si O2"
_cell_formula_units_Z 52
_cell_length_a 19.406576
_cell_length_b 13.583218
_cell_length_c 22.395786
_cell_angle_alpha 90.000000
_cell_angle_beta 19.214853
_cell_angle_gamma 90.000000
_cell_volume 1942.946709
_symmetry_space_group_name_H-M "C 2/M"
_symmetry_group_IT_number 12
_symmetry_cell_setting 'monoclinic'
loop_
_space_group_symop_operation_xyz
x,y,z
-x,y,-z
-x,-y,-z
x,-y,z
1/2+x,1/2+y,z
1/2-x,1/2+y,-z
1/2-x,1/2-y,-z
1/2+x,1/2-y,z
loop_
_atom_site_type_symbol
_atom_site_label
_atom_site_fract_x
_atom_site_fract_y
_atom_site_fract_z
Si Si1 0.164704 0.889312 0.310695
Si Si2 0.958570 0.393706 0.908513
Si Si3 0.500000 0.365699 0.000000
Si Si4 0.347725 0.364517 0.352986
Si Si5 0.131021 0.633940 0.642964
Si Si6 0.169194 0.175398 0.991828
Si Si7 0.058786 0.331291 0.383065
O O1 0.394596 0.881013 0.153467
O O2 0.116436 0.784408 0.317145
O O3 0.000000 0.891935 0.500000
O O4 0.154409 0.000000 0.290893
O O5 0.847729 0.500000 0.003243
O O6 0.113312 0.402569 0.724910
O O7 0.825445 0.295109 0.003912
O O8 0.452265 0.329655 0.971043
O O9 0.737115 0.396042 0.793351
O O10 0.308271 0.401485 0.452470
O O11 0.342920 0.248465 0.367199
O O12 0.537242 0.379043 0.151916
O O13 0.134671 0.380162 0.491416
O O14 0.898859 0.627877 0.803791
O O15 0.000000 0.322685 0.500000
#
# Coordination Sequence:
#
# PCOD9179685 Si02
#       7
#     8   8   4   8   8   8   8
#     4   9  16  27  45  66  97 139 170 198 240 290
#     4  10  19  33  50  72 104 142 177 211 254 300
#     4  12  20  30  51  76 103 132 170 208 258 300
#     4  10  19  31  51  73  97 132 174 213 259 294
#     4  10  20  33  54  74  97 138 178 219 259 304
#     4  11  20  35  52  76 106 137 172 222 255 306
#     4  11  18  31  46  68 104 130 167 212 248 295
#
# _framework density 26.763472
#
# number of rings (size 3 to 8) (size 9 to 14) (size 15 to 20)
#    0.000    1.692    4.615    4.615    0.000    0.000 
#    0.000    1.538    0.000   14.769    0.000    0.538 
#    0.000    2.154    0.000    0.000    0.000    0.000 
#
# Total GULP energy -144916.640031 kJ/mol
# GULP energy per Si atom -5573.716924 kJ/mol
# Density = 2.670256 g / cm^3
# Si number density = 26.763472 Si / 1000 Ang^3
#
#
#
# Elastic Constant Matrix: (Units=GPa)
#
#
# Indices 1 2 3 4 5 6 
#
# 1 113.6166 -5.3240 27.7616 -0.0092 11.0366 -0.0026
# 2 -5.3240 148.7352 18.0252 -0.0155 6.7740 -0.0162
# 3 27.7616 18.0252 129.9990 -0.1029 15.7005 0.0296
# 4 -0.0092 -0.0155 -0.1029 25.1449 0.0004 -57.5168
# 5 11.0366 6.7740 15.7005 0.0004 63.8074 -0.0132
# 6 -0.0026 -0.0162 0.0296 -57.5168 -0.0132 -30.5776
#
#
#
# Elastic Compliance Matrix: (Units=1/GPa)
#
#
# Indices 1 2 3 4 5 6 
#
# 1 0.009427 0.000630 -0.001953 -0.000002 -0.001217 0.000001
# 2 0.000630 0.006896 -0.001019 -0.000002 -0.000590 -0.000001
# 3 -0.001953 -0.001019 0.008448 0.000010 -0.001633 -0.000010
# 4 -0.000002 -0.000002 0.000010 0.007500 -0.000005 -0.014107
# 5 -0.001217 -0.000590 -0.001633 -0.000005 0.016347 0.000001
# 6 0.000001 -0.000001 -0.000010 -0.014107 0.000001 -0.006167
#
#
# Mechanical properties :
#
#
# Convention : Reuss Voigt Hill
#
# Bulk Modulus (GPa) = 49.78980 52.58627 51.18803
# Shear Modulus (GPa) = 92.88214 35.13415 64.00815
#
# Velocity S-wave (km/s) = 5.89747 3.62714 4.89573
# Velocity P-wave (km/s) = 8.06335 6.10186 7.15018
#
# Compressibility (1/GPa) = 0.02008444
#
# Stress axis : x y z
#
# Youngs Moduli (GPa) = 106.08370 145.00497 118.37043
#
# Poissons Ratio (x) = -0.09129 0.23123
# Poissons Ratio (y) = -0.06679 0.12067
# Poissons Ratio (z) = 0.20722 0.14782
#
# Static dielectric constant tensor:
#      x y z
#    x 2.095500 0.000210 0.013650 
#    y 0.000210 2.533180 0.000020 
#    z 0.013650 0.000020 2.074800 
# 
# From -- ./inp_files/348001.got.cif
#   From: 2010.05.17/outbox.cif.g08.bks.cpg/sg12_175_cif.got.tgz:348001.got - 2010.06.03 13:09:07.
