data_PCOD9179554
_publ_section_title
;
Structure prediction by ZEFSAII (Michael W. Deem and Ramdas Pophale) SiO2 
 PCOD9179554
Probable space group: C 2/M
;
_chemical_formula_sum "Si O2"
_cell_formula_units_Z 56
_cell_length_a 9.818120
_cell_length_b 23.924877
_cell_length_c 14.153237
_cell_angle_alpha 90.000000
_cell_angle_beta 57.462221
_cell_angle_gamma 90.000000
_cell_volume 2802.724800
_symmetry_space_group_name_H-M "C 2/M"
_symmetry_group_IT_number 12
_symmetry_cell_setting 'monoclinic'
loop_
_space_group_symop_operation_xyz
x,y,z
-x,y,-z
-x,-y,-z
x,-y,z
1/2+x,1/2+y,z
1/2-x,1/2+y,-z
1/2-x,1/2-y,-z
1/2+x,1/2-y,z
loop_
_atom_site_type_symbol
_atom_site_label
_atom_site_fract_x
_atom_site_fract_y
_atom_site_fract_z
Si Si1 0.367939 0.932414 0.913615
Si Si2 0.929673 0.063250 0.329333
Si Si3 0.229243 0.568013 0.842197
Si Si4 0.188645 0.707373 0.401702
Si Si5 0.312281 0.670958 0.560420
Si Si6 0.295773 0.897665 0.734488
Si Si7 0.349152 0.935912 0.412817
O O1 0.556364 0.918302 0.861533
O O2 0.304751 0.902771 0.843272
O O3 0.357295 0.000000 0.903488
O O4 0.277458 0.917230 0.044153
O O5 0.855772 0.070147 0.253121
O O6 0.776730 0.073376 0.454474
O O7 0.105517 0.091501 0.265129
O O8 0.967615 0.000000 0.339734
O O9 0.231570 0.500000 0.840095
O O10 0.282715 0.688879 0.461511
O O11 0.225611 0.772271 0.368542
O O12 0.213886 0.664005 0.307594
O O13 0.000000 0.704927 0.500000
O O14 0.500000 0.656047 0.500000
O O15 0.202768 0.618191 0.627593
O O16 0.462785 0.926570 0.635504
O O17 0.328240 0.000000 0.385373
#
# Coordination Sequence:
#
# PCOD9179554 Si02
#       7
#     8   8   8   8   8   8   8
#     4   9  18  33  54  76 109 156 199 239 292 348
#     4  10  19  31  50  75 113 155 194 238 285 339
#     4   8  17  35  52  72 108 157 202 240 284 345
#     4  10  19  38  56  76 108 151 198 243 277 333
#     4  10  21  36  57  75 106 155 197 241 277 334
#     4  12  20  33  53  82 116 154 193 235 287 345
#     4  11  22  35  53  82 124 159 185 228 292 354
#
# _framework density 19.980556
#
# number of rings (size 3 to 8) (size 9 to 14) (size 15 to 20)
#    0.000    2.000    2.857    2.571    0.000    3.143 
#    0.000    3.571    0.000    0.000    0.000    0.000 
#    0.000   38.857    0.000    0.286    0.000    0.000 
#
# Total GULP energy -156047.441110 kJ/mol
# GULP energy per Si atom -5573.122897 kJ/mol
# Density = 1.993508 g / cm^3
# Si number density = 19.980556 Si / 1000 Ang^3
#
#
#
# Elastic Constant Matrix: (Units=GPa)
#
#
# Indices 1 2 3 4 5 6 
#
# 1 63.2209 -19.4340 19.0312 0.0000 -4.6134 0.0000
# 2 -19.4340 84.4683 6.8498 0.0000 2.7551 0.0000
# 3 19.0312 6.8498 61.1609 0.0000 13.1140 0.0000
# 4 0.0000 0.0000 0.0000 13.7016 0.0000 5.7703
# 5 -4.6134 2.7551 13.1140 0.0000 35.7350 0.0000
# 6 0.0000 0.0000 0.0000 5.7703 0.0000 26.1747
#
#
#
# Elastic Compliance Matrix: (Units=1/GPa)
#
#
# Indices 1 2 3 4 5 6 
#
# 1 0.020154 0.005114 -0.007942 0.000000 0.005122 0.000000
# 2 0.005114 0.013252 -0.003254 0.000000 0.000833 0.000000
# 3 -0.007942 -0.003254 0.021005 0.000000 -0.008483 0.000000
# 4 0.000000 0.000000 0.000000 0.080454 0.000000 -0.017736
# 5 0.005122 0.000833 -0.008483 0.000000 0.031694 0.000000
# 6 0.000000 0.000000 0.000000 -0.017736 0.000000 0.042115
#
#
# Mechanical properties :
#
#
# Convention : Reuss Voigt Hill
#
# Bulk Modulus (GPa) = 23.67061 24.63825 24.15443
# Shear Modulus (GPa) = 21.28378 28.61581 24.94979
#
# Velocity S-wave (km/s) = 3.26732 3.78852 3.53753
# Velocity P-wave (km/s) = 5.10944 5.61205 5.36663
#
# Compressibility (1/GPa) = 0.04224647
#
# Stress axis : x y z
#
# Youngs Moduli (GPa) = 49.61735 75.45987 47.60761
#
# Poissons Ratio (x) = -0.38590 0.37812
# Poissons Ratio (y) = -0.25374 0.15492
# Poissons Ratio (z) = 0.39408 0.24555
#
# Static dielectric constant tensor:
#      x y z
#    x 1.760240 0.000000 0.010750 
#    y 0.000000 1.757190 0.000000 
#    z 0.010750 0.000000 1.754510 
# 
# From -- ./inp_files/199682.got.cif
#   From: 2010.05.17/outbox.cif.g08.bks.cpg/sg12_100_cif.got.tgz:199682.got - 2010.06.03 13:09:07.
