data_PCOD9179637
_publ_section_title
;
Structure prediction by ZEFSAII (Michael W. Deem and Ramdas Pophale) SiO2 
 PCOD9179637
Probable space group: C 2/M
;
_chemical_formula_sum "Si O2"
_cell_formula_units_Z 64
_cell_length_a 24.365053
_cell_length_b 14.329681
_cell_length_c 17.864227
_cell_angle_alpha 90.000000
_cell_angle_beta 145.077302
_cell_angle_gamma 90.000000
_cell_volume 3570.601658
_symmetry_space_group_name_H-M "C 2/M"
_symmetry_group_IT_number 12
_symmetry_cell_setting 'monoclinic'
loop_
_space_group_symop_operation_xyz
x,y,z
-x,y,-z
-x,-y,-z
x,-y,z
1/2+x,1/2+y,z
1/2-x,1/2+y,-z
1/2-x,1/2-y,-z
1/2+x,1/2-y,z
loop_
_atom_site_type_symbol
_atom_site_label
_atom_site_fract_x
_atom_site_fract_y
_atom_site_fract_z
Si Si1 0.704032 0.103886 0.432804
Si Si2 0.341049 0.258038 0.011153
Si Si3 0.125676 0.892884 0.257078
Si Si4 0.458579 0.744890 0.727841
Si Si5 0.964063 0.891605 0.596870
Si Si6 0.235652 0.106062 0.671993
Si Si7 0.386779 0.260281 0.891655
Si Si8 0.681491 0.610067 0.872694
O O1 0.781721 0.113212 0.585425
O O2 0.624900 0.182147 0.352931
O O3 0.751980 0.111237 0.404710
O O4 0.661855 0.000000 0.390585
O O5 0.362535 0.284483 0.949901
O O6 0.256065 0.182506 0.919710
O O7 0.437564 0.209397 0.150553
O O8 0.328234 0.345731 0.053850
O O9 0.048226 0.832545 0.214943
O O10 0.140391 0.844252 0.194356
O O11 0.097977 0.000000 0.218560
O O12 0.447150 0.687309 0.639642
O O13 0.878137 0.876028 0.441174
O O14 0.078823 0.885517 0.714488
O O15 0.948515 0.000000 0.605629
O O16 0.315565 0.174880 0.792829
O O17 0.255864 0.000000 0.718571
O O18 0.500000 0.238922 0.000000
O O19 0.708528 0.500000 0.904991
#
# Coordination Sequence:
#
# PCOD9179637 Si02
#       8
#     8   8   8   8   8   8   8   8
#     4  10  19  31  50  78 111 147 190 222 258 316
#     4  10  22  37  56  83 110 142 188 219 268 338
#     4  11  21  32  50  79 113 150 183 217 261 318
#     4  11  17  32  53  77 111 146 176 224 267 315
#     4   9  17  31  56  84 100 128 182 237 281 307
#     4  10  19  32  52  77 108 147 186 223 267 320
#     4  12  23  37  50  80 122 155 175 211 268 344
#     4   9  20  40  63  81 102 136 185 245 279 306
#
# _framework density 17.924150999999998
#
# number of rings (size 3 to 8) (size 9 to 14) (size 15 to 20)
#    0.000    1.750    3.750    1.500    0.000    2.500 
#    0.000    0.625    0.000    2.250    0.000    0.000 
#    0.000   11.000    0.000    0.000    0.000    0.000 
#
# Total GULP energy -178233.244389 kJ/mol
# GULP energy per Si atom -5569.788887 kJ/mol
# Density = 1.788335 g / cm^3
# Si number density = 17.924151 Si / 1000 Ang^3
#
#
#
# Elastic Constant Matrix: (Units=GPa)
#
#
# Indices 1 2 3 4 5 6 
#
# 1 35.2720 8.0423 5.4296 0.0000 -6.6092 0.0000
# 2 8.0423 85.4076 40.1978 0.0000 10.2500 0.0000
# 3 5.4296 40.1978 66.1809 0.0000 5.2964 0.0000
# 4 0.0000 0.0000 0.0000 19.5553 0.0000 3.2496
# 5 -6.6092 10.2500 5.2964 0.0000 26.4621 0.0000
# 6 0.0000 0.0000 0.0000 3.2496 0.0000 9.9420
#
#
#
# Elastic Compliance Matrix: (Units=1/GPa)
#
#
# Indices 1 2 3 4 5 6 
#
# 1 0.031082 -0.003496 -0.001175 0.000000 0.009352 0.000000
# 2 -0.003496 0.017316 -0.009781 0.000000 -0.005623 0.000000
# 3 -0.001175 -0.009781 0.021207 0.000000 -0.000749 0.000000
# 4 0.000000 0.000000 0.000000 0.054074 0.000000 -0.017674
# 5 0.009352 -0.005623 -0.000749 0.000000 0.042454 0.000000
# 6 0.000000 0.000000 0.000000 -0.017674 0.000000 0.106360
#
#
# Mechanical properties :
#
#
# Convention : Reuss Voigt Hill
#
# Bulk Modulus (GPa) = 24.56935 32.68886 28.62910
# Shear Modulus (GPa) = 15.87485 20.07127 17.97306
#
# Velocity S-wave (km/s) = 2.97925 3.34996 3.17002
# Velocity P-wave (km/s) = 5.05685 5.76540 5.42271
#
# Compressibility (1/GPa) = 0.04070112
#
# Stress axis : x y z
#
# Youngs Moduli (GPa) = 32.17339 57.75005 47.15376
#
# Poissons Ratio (x) = 0.20191 0.05540
# Poissons Ratio (y) = 0.11249 0.46120
# Poissons Ratio (z) = 0.03780 0.56484
#
# Static dielectric constant tensor:
#      x y z
#    x 1.653150 0.000000 0.001430 
#    y 0.000000 1.591020 0.000000 
#    z 0.001430 0.000000 1.658840 
# 
# From -- ./inp_files/290170.got.cif
#   From: 2010.05.17/outbox.cif.g08.bks.cpg/sg12_146_cif.got.tgz:290170.got - 2010.06.03 13:09:07.
