data_PCOD9179026
_publ_section_title
;
Structure prediction by ZEFSAII (Michael W. Deem and Ramdas Pophale) SiO2 
 PCOD9179026
Probable space group: C 2/M
;
_chemical_formula_sum "Si O2"
_cell_formula_units_Z 56
_cell_length_a 18.545360
_cell_length_b 9.365591
_cell_length_c 23.599078
_cell_angle_alpha 90.000000
_cell_angle_beta 127.085632
_cell_angle_gamma 90.000000
_cell_volume 3269.822900
_symmetry_space_group_name_H-M "C 2/M"
_symmetry_group_IT_number 12
_symmetry_cell_setting 'monoclinic'
loop_
_space_group_symop_operation_xyz
x,y,z
-x,y,-z
-x,-y,-z
x,-y,z
1/2+x,1/2+y,z
1/2-x,1/2+y,-z
1/2-x,1/2-y,-z
1/2+x,1/2-y,z
loop_
_atom_site_type_symbol
_atom_site_label
_atom_site_fract_x
_atom_site_fract_y
_atom_site_fract_z
Si Si1 0.619496 0.835866 0.209910
Si Si2 0.235954 0.327190 0.368138
Si Si3 0.088129 0.329777 0.503645
Si Si4 0.012924 0.831231 0.070100
Si Si5 0.435993 0.173270 0.637155
Si Si6 0.663617 0.331288 0.934698
Si Si7 0.441263 0.165467 0.206392
O O1 0.701191 0.785867 0.288825
O O2 0.591991 0.744785 0.142708
O O3 0.531643 0.834614 0.209873
O O4 0.635362 0.000000 0.201208
O O5 0.243074 0.500000 0.372569
O O6 0.327547 0.253626 0.430468
O O7 0.156010 0.285580 0.374006
O O8 0.108066 0.500000 0.511724
O O9 0.067994 0.281981 0.429719
O O10 0.000000 0.308346 0.500000
O O11 0.920124 0.812191 0.061321
O O12 0.031999 0.000000 0.076680
O O13 0.000000 0.777652 0.000000
O O14 0.522113 0.219047 0.715571
O O15 0.439327 0.000000 0.640227
O O16 0.680541 0.500000 0.936897
O O17 0.631036 0.261716 0.860176
O O18 0.750000 0.250000 0.000000
O O19 0.410920 0.000000 0.195884
#
# Coordination Sequence:
#
# PCOD9179026 Si02
#       7
#     8   8   8   8   8   8   8
#     4   8  15  28  47  70  92 117 152 192 232 271
#     4   9  17  31  51  71  90 117 156 196 230 268
#     4  10  20  32  46  68  98 127 153 184 227 278
#     4   9  18  32  49  70  95 122 153 189 229 273
#     4   8  15  30  51  71  90 117 155 194 230 271
#     4  10  19  31  48  70  96 123 153 190 229 272
#     4   8  14  28  49  68  89 119 154 192 231 269
#
# _framework density 17.12631
#
# number of rings (size 3 to 8) (size 9 to 14) (size 15 to 20)
#    0.000    3.143    0.000    2.571    0.000    1.714 
#    0.000    4.286    0.000    6.857    0.000    0.000 
#    0.000    0.000    0.000    0.000    0.000    0.000 
#
# Total GULP energy -155959.262350 kJ/mol
# GULP energy per Si atom -5569.973655 kJ/mol
# Density = 1.708733 g / cm^3
# Si number density = 17.126310 Si / 1000 Ang^3
#
#
#
# Elastic Constant Matrix: (Units=GPa)
#
#
# Indices 1 2 3 4 5 6 
#
# 1 31.5421 32.4145 59.9396 0.0000 -1.9527 0.0000
# 2 32.4145 54.8681 79.5646 0.0000 5.2593 0.0000
# 3 59.9396 79.5646 220.3783 0.0000 -0.4653 0.0000
# 4 0.0000 0.0000 0.0000 35.2755 0.0000 5.3439
# 5 -1.9527 5.2593 -0.4653 0.0000 25.6237 0.0000
# 6 0.0000 0.0000 0.0000 5.3439 0.0000 14.6697
#
#
#
# Elastic Compliance Matrix: (Units=1/GPa)
#
#
# Indices 1 2 3 4 5 6 
#
# 1 0.098763 -0.044104 -0.010904 0.000000 0.016381 0.000000
# 2 -0.044104 0.059707 -0.009594 0.000000 -0.015790 0.000000
# 3 -0.010904 -0.009594 0.010970 0.000000 0.001337 0.000000
# 4 0.000000 0.000000 0.000000 0.030004 0.000000 -0.010930
# 5 0.016381 -0.015790 0.001337 0.000000 0.043540 0.000000
# 6 0.000000 0.000000 0.000000 -0.010930 0.000000 0.072150
#
#
# Mechanical properties :
#
#
# Convention : Reuss Voigt Hill
#
# Bulk Modulus (GPa) = 24.85393 72.29178 48.57285
# Shear Modulus (GPa) = 10.92298 24.10509 17.51404
#
# Velocity S-wave (km/s) = 2.52819 3.75572 3.20134
# Velocity P-wave (km/s) = 4.80270 7.81728 6.48752
#
# Compressibility (1/GPa) = 0.04023509
#
# Stress axis : x y z
#
# Youngs Moduli (GPa) = 10.12523 16.74849 91.15716
#
# Poissons Ratio (x) = 0.73868 0.99401
# Poissons Ratio (y) = 0.44657 0.87456
# Poissons Ratio (z) = 0.11041 0.16069
#
# Static dielectric constant tensor:
#      x y z
#    x 1.569480 0.000000 -0.015200 
#    y 0.000000 1.570720 0.000000 
#    z -0.015200 0.000000 1.591320 
# 
# From -- ./inp_files/342221.got.cif
#   From: 2010.05.17/outbox.cif.g08.bks.cpg/sg12_172_cif.got.tgz:342221.got - 2010.06.03 13:09:07.
