data_PCOD9179675
_publ_section_title
;
Structure prediction by ZEFSAII (Michael W. Deem and Ramdas Pophale) SiO2 
 PCOD9179675
Probable space group: C 2/M
;
_chemical_formula_sum "Si O2"
_cell_formula_units_Z 48
_cell_length_a 24.320804
_cell_length_b 7.555812
_cell_length_c 12.270063
_cell_angle_alpha 90.000000
_cell_angle_beta 68.948346
_cell_angle_gamma 90.000000
_cell_volume 2104.297332
_symmetry_space_group_name_H-M "C 2/M"
_symmetry_group_IT_number 12
_symmetry_cell_setting 'monoclinic'
loop_
_space_group_symop_operation_xyz
x,y,z
-x,y,-z
-x,-y,-z
x,-y,z
1/2+x,1/2+y,z
1/2-x,1/2+y,-z
1/2-x,1/2-y,-z
1/2+x,1/2-y,z
loop_
_atom_site_type_symbol
_atom_site_label
_atom_site_fract_x
_atom_site_fract_y
_atom_site_fract_z
Si Si1 0.862665 0.285059 0.304064
Si Si2 0.923123 0.702561 0.725772
Si Si3 0.709203 0.708375 0.131364
Si Si4 0.898410 0.700723 0.504700
Si Si5 0.589518 0.500000 0.884204
Si Si6 0.233624 0.788734 0.355146
Si Si7 0.965004 0.000000 0.852186
O O1 0.866619 0.500000 0.290180
O O2 0.901585 0.224355 0.380483
O O3 0.793736 0.239136 0.372140
O O4 0.880897 0.176496 0.185115
O O5 0.943950 0.500000 0.712054
O O6 0.854841 0.703062 0.813854
O O7 0.923653 0.774140 0.600063
O O8 0.957625 0.829491 0.781549
O O9 0.696455 0.500000 0.140353
O O10 0.742744 0.748654 0.220160
O O11 0.750000 0.750000 0.000000
O O12 0.920326 0.500000 0.483338
O O13 0.827681 0.698057 0.572883
O O14 0.525324 0.500000 0.874698
O O15 0.584639 0.500000 0.017580
O O16 0.224687 0.000000 0.374262
#
# Coordination Sequence:
#
# PCOD9179675 Si02
#       7
#     8   8   8   8   4   8   4
#     4  10  22  40  61  91 128 161 206 258 299 365
#     4  10  21  39  64  90 121 163 197 252 319 361
#     4  10  19  31  50  85 125 161 208 247 288 368
#     4   9  19  35  59  94 129 164 202 238 301 380
#     4  11  28  45  67  89 113 162 217 263 320 363
#     4   9  19  31  51  84 126 171 201 235 298 361
#     4  11  26  49  65  89 117 154 219 271 312 372
#
# _framework density 22.810466000000002
#
# number of rings (size 3 to 8) (size 9 to 14) (size 15 to 20)
#    0.000    2.167    0.833    1.000    5.833    2.000 
#    0.000    3.333    0.000    3.000    0.000    0.000 
#    0.000    0.000    0.000    0.000    0.000    0.000 
#
# Total GULP energy -134057.951455 kJ/mol
# GULP energy per Si atom -5585.747977 kJ/mol
# Density = 2.275855 g / cm^3
# Si number density = 22.810466 Si / 1000 Ang^3
#
#
#
# Elastic Constant Matrix: (Units=GPa)
#
#
# Indices 1 2 3 4 5 6 
#
# 1 74.5014 26.2869 29.1814 0.0000 13.9156 0.0000
# 2 26.2869 87.5269 24.2130 0.0000 10.7949 0.0000
# 3 29.1814 24.2130 82.3620 0.0000 9.5771 0.0000
# 4 0.0000 0.0000 0.0000 9.0258 0.0000 13.4910
# 5 13.9156 10.7949 9.5771 0.0000 38.3137 0.0000
# 6 0.0000 0.0000 0.0000 13.4910 0.0000 15.4957
#
#
#
# Elastic Compliance Matrix: (Units=1/GPa)
#
#
# Indices 1 2 3 4 5 6 
#
# 1 0.017196 -0.003376 -0.004619 0.000000 -0.004140 0.000000
# 2 -0.003376 0.013370 -0.002512 0.000000 -0.001913 0.000000
# 3 -0.004619 -0.002512 0.014665 0.000000 -0.001281 0.000000
# 4 0.000000 0.000000 0.000000 -0.367671 0.000000 0.320104
# 5 -0.004140 -0.001913 -0.001281 0.000000 0.028463 0.000000
# 6 0.000000 0.000000 0.000000 0.320104 0.000000 -0.214158
#
#
# Mechanical properties :
#
#
# Convention : Reuss Voigt Hill
#
# Bulk Modulus (GPa) = 41.29222 44.86142 43.07682
# Shear Modulus (GPa) = -10.43737 23.54766 6.55515
#
# Velocity S-wave (km/s) = -2.14141 3.21646 1.69705
# Velocity P-wave (km/s) = 3.46806 5.78825 4.77134
#
# Compressibility (1/GPa) = 0.02421764
#
# Stress axis : x y z
#
# Youngs Moduli (GPa) = 58.15235 74.79537 68.18798
#
# Poissons Ratio (x) = 0.25253 0.31495
# Poissons Ratio (y) = 0.19634 0.17128
# Poissons Ratio (z) = 0.26859 0.18787
#
# Static dielectric constant tensor:
#      x y z
#    x 1.860120 0.000000 -0.003690 
#    y 0.000000 1.831550 0.000000 
#    z -0.003690 0.000000 1.880340 
# 
# From -- ./inp_files/172978.got.cif
#   From: 2010.05.17/outbox.cif.g08.bks.cpg/sg12_87_cif.got.tgz:172978.got - 2010.06.03 13:09:07.
