data_PCOD9179432
_publ_section_title
;
Structure prediction by ZEFSAII (Michael W. Deem and Ramdas Pophale) SiO2 
 PCOD9179432
Probable space group: C 2/M
;
_chemical_formula_sum "Si O2"
_cell_formula_units_Z 64
_cell_length_a 29.011026
_cell_length_b 7.706657
_cell_length_c 17.514057
_cell_angle_alpha 90.000000
_cell_angle_beta 134.112725
_cell_angle_gamma 90.000000
_cell_volume 2811.403733
_symmetry_space_group_name_H-M "C 2/M"
_symmetry_group_IT_number 12
_symmetry_cell_setting 'monoclinic'
loop_
_space_group_symop_operation_xyz
x,y,z
-x,y,-z
-x,-y,-z
x,-y,z
1/2+x,1/2+y,z
1/2-x,1/2+y,-z
1/2-x,1/2-y,-z
1/2+x,1/2-y,z
loop_
_atom_site_type_symbol
_atom_site_label
_atom_site_fract_x
_atom_site_fract_y
_atom_site_fract_z
Si Si1 0.091770 0.203104 0.256284
Si Si2 0.948336 0.798909 0.069318
Si Si3 0.427135 0.209365 0.600098
Si Si4 0.567210 0.786845 0.718853
Si Si5 0.745138 0.711462 0.819056
Si Si6 0.359835 0.798268 0.841910
Si Si7 0.335627 0.199701 0.051521
Si Si8 0.104610 0.701688 0.603337
O O1 0.107025 0.229009 0.362642
O O2 0.138979 0.277670 0.247268
O O3 0.019606 0.275609 0.159750
O O4 0.088718 0.000000 0.236780
O O5 0.894932 0.705234 0.059473
O O6 0.948935 0.000000 0.094335
O O7 0.921146 0.790374 0.952081
O O8 0.502256 0.262022 0.687367
O O9 0.401048 0.274084 0.488388
O O10 0.424187 0.000000 0.598187
O O11 0.631126 0.721530 0.835323
O O12 0.564114 0.726566 0.627844
O O13 0.569821 0.000000 0.722001
O O14 0.741313 0.500000 0.816427
O O15 0.796265 0.763410 0.812415
O O16 0.676868 0.785331 0.717544
O O17 0.775584 0.773106 0.934957
O O18 0.366153 0.000000 0.867457
O O19 0.319953 0.000000 0.049955
O O20 0.085283 0.500000 0.573871
#
# Coordination Sequence:
#
# PCOD9179432 Si02
#       8
#     8   8   8   8   8   8   8   8
#     4  11  22  34  52  82 115 142 175 222 278 328
#     4  10  19  31  49  79 117 145 171 217 274 327
#     4  10  20  36  58  81 109 144 184 226 269 323
#     4   9  17  33  58  84 110 138 179 231 273 318
#     4   9  20  37  54  77 110 145 183 223 265 322
#     4  10  21  36  56  79 106 145 189 221 260 324
#     4   9  17  32  55  80 108 147 185 219 265 324
#     4  10  21  36  57  83 106 141 189 230 272 320
#
# _framework density 22.764430000000001
#
# number of rings (size 3 to 8) (size 9 to 14) (size 15 to 20)
#    0.000    2.250    1.250    2.625    0.000    8.000 
#    0.000    1.875    0.000    1.500    0.000    0.000 
#    0.000    0.000    0.000    0.000    0.000    0.000 
#
# Total GULP energy -178719.375136 kJ/mol
# GULP energy per Si atom -5584.980473 kJ/mol
# Density = 2.271262 g / cm^3
# Si number density = 22.764430 Si / 1000 Ang^3
#
#
#
# Elastic Constant Matrix: (Units=GPa)
#
#
# Indices 1 2 3 4 5 6 
#
# 1 72.6965 1.5655 23.8192 0.0000 -30.8349 0.0000
# 2 1.5655 47.3079 -7.8382 0.0000 0.6279 0.0000
# 3 23.8192 -7.8382 95.9169 0.0000 -26.4999 0.0000
# 4 0.0000 0.0000 0.0000 12.5950 0.0000 5.6217
# 5 -30.8349 0.6279 -26.4999 0.0000 40.3553 0.0000
# 6 0.0000 0.0000 0.0000 5.6217 0.0000 -2.8786
#
#
#
# Elastic Compliance Matrix: (Units=1/GPa)
#
#
# Indices 1 2 3 4 5 6 
#
# 1 0.020470 -0.001047 -0.001030 0.000000 0.014981 0.000000
# 2 -0.001047 0.021515 0.002082 0.000000 0.000233 0.000000
# 3 -0.001030 0.002082 0.012980 0.000000 0.007704 0.000000
# 4 0.000000 0.000000 0.000000 0.042419 0.000000 0.082844
# 5 0.014981 0.000233 0.007704 0.000000 0.041282 0.000000
# 6 0.000000 0.000000 0.000000 0.082844 0.000000 -0.185604
#
#
# Mechanical properties :
#
#
# Convention : Reuss Voigt Hill
#
# Bulk Modulus (GPa) = 18.18972 27.89046 23.04009
# Shear Modulus (GPa) = -174.68159 23.23933 -75.72113
#
# Velocity S-wave (km/s) = -8.76932 3.19856 -5.77366
# Velocity P-wave (km/s) = 9.72250 5.09111 5.85694
#
# Compressibility (1/GPa) = 0.05497610
#
# Stress axis : x y z
#
# Youngs Moduli (GPa) = 48.85169 46.47982 77.04060
#
# Poissons Ratio (x) = 0.04866 0.07935
# Poissons Ratio (y) = 0.05114 -0.16043
# Poissons Ratio (z) = 0.05032 -0.09679
#
# Static dielectric constant tensor:
#      x y z
#    x 1.863210 0.000000 -0.029690 
#    y 0.000000 1.843050 0.000000 
#    z -0.029690 0.000000 1.871310 
# 
# From -- ./inp_files/295706.got.cif
#   From: 2010.05.17/outbox.cif.g08.bks.cpg/sg12_148_cif.got.tgz:295706.got - 2010.06.03 13:09:07.
