data_PCOD9179127
_publ_section_title
;
Structure prediction by ZEFSAII (Michael W. Deem and Ramdas Pophale) SiO2 
 PCOD9179127
Probable space group: C 2/M
;
_chemical_formula_sum "Si O2"
_cell_formula_units_Z 64
_cell_length_a 25.582957
_cell_length_b 8.760678
_cell_length_c 24.389267
_cell_angle_alpha 90.000000
_cell_angle_beta 45.964524
_cell_angle_gamma 90.000000
_cell_volume 3929.718661
_symmetry_space_group_name_H-M "C 2/M"
_symmetry_group_IT_number 12
_symmetry_cell_setting 'monoclinic'
loop_
_space_group_symop_operation_xyz
x,y,z
-x,y,-z
-x,-y,-z
x,-y,z
1/2+x,1/2+y,z
1/2-x,1/2+y,-z
1/2-x,1/2-y,-z
1/2+x,1/2-y,z
loop_
_atom_site_type_symbol
_atom_site_label
_atom_site_fract_x
_atom_site_fract_y
_atom_site_fract_z
Si Si1 0.586611 0.316428 0.581297
Si Si2 0.311667 0.316635 0.686111
Si Si3 0.109204 0.316562 0.682838
Si Si4 0.830730 0.182231 0.159701
Si Si5 0.726614 0.685115 0.410377
Si Si6 0.547068 0.317718 0.837907
Si Si7 0.937340 0.323591 0.998802
Si Si8 0.970005 0.317113 0.582515
O O1 0.585239 0.500000 0.583572
O O2 0.581883 0.250524 0.645602
O O3 0.663271 0.265988 0.497970
O O4 0.522760 0.255954 0.588986
O O5 0.316145 0.500000 0.683758
O O6 0.245724 0.260277 0.771873
O O7 0.293035 0.267118 0.637145
O O8 0.388501 0.245612 0.646532
O O9 0.108114 0.500000 0.681979
O O10 0.192941 0.264262 0.631306
O O11 0.063364 0.258557 0.768013
O O12 0.886085 0.221091 0.169458
O O13 0.823288 0.000000 0.163670
O O14 0.869089 0.240924 0.076410
O O15 0.727333 0.500000 0.409863
O O16 0.544603 0.500000 0.834655
O O17 0.474011 0.257734 0.920227
O O18 0.921145 0.500000 0.998866
O O19 0.000000 0.319202 0.000000
O O20 0.970677 0.500000 0.587149
O O21 0.000000 0.276865 0.500000
#
# Coordination Sequence:
#
# PCOD9179127 Si02
#       8
#     8   8   8   8   8   8   8   8
#     4  11  22  38  55  75 101 138 181 222 266 315
#     4  11  20  34  55  78 103 138 179 218 263 316
#     4  11  21  35  52  76 107 141 178 219 261 313
#     4  10  19  31  48  75 108 138 172 216 261 311
#     4   9  19  33  52  75 103 137 175 215 262 313
#     4  10  19  31  48  73 105 141 175 212 259 312
#     4   9  17  29  47  71 101 139 175 210 255 312
#     4  11  23  38  55  77 102 133 175 224 272 315
#
# _framework density 16.286152999999999
#
# number of rings (size 3 to 8) (size 9 to 14) (size 15 to 20)
#    0.000    1.750    2.500    3.000    0.000    3.000 
#    0.000    1.875    0.000    0.000    0.000    0.875 
#    0.000    0.000    0.000    0.000    0.000    0.000 
#
# Total GULP energy -178671.780917 kJ/mol
# GULP energy per Si atom -5583.493154 kJ/mol
# Density = 1.624909 g / cm^3
# Si number density = 16.286153 Si / 1000 Ang^3
#
#
#
# Elastic Constant Matrix: (Units=GPa)
#
#
# Indices 1 2 3 4 5 6 
#
# 1 87.0544 38.1073 70.9913 0.0004 15.1373 0.0003
# 2 38.1073 63.3575 58.3324 0.0023 3.6542 0.0068
# 3 70.9913 58.3324 160.6612 -0.0006 -0.5193 0.0006
# 4 0.0004 0.0023 -0.0006 28.5551 0.0001 -1.2810
# 5 15.1373 3.6542 -0.5193 0.0001 15.6039 -0.0002
# 6 0.0003 0.0068 0.0006 -1.2810 -0.0002 20.3701
#
#
#
# Elastic Compliance Matrix: (Units=1/GPa)
#
#
# Indices 1 2 3 4 5 6 
#
# 1 0.025787 -0.005346 -0.009532 0.000000 -0.024082 0.000001
# 2 -0.005346 0.025361 -0.006849 -0.000002 -0.000981 -0.000008
# 3 -0.009532 -0.006849 0.012959 0.000001 0.011282 0.000002
# 4 0.000000 -0.000002 0.000001 0.035119 0.000000 0.002208
# 5 -0.024082 -0.000981 0.011282 0.000000 0.088053 0.000001
# 6 0.000001 -0.000008 0.000002 0.002208 0.000001 0.049230
#
#
# Mechanical properties :
#
#
# Convention : Reuss Voigt Hill
#
# Bulk Modulus (GPa) = 48.41452 71.77056 60.09254
# Shear Modulus (GPa) = 17.43081 22.48196 19.95638
#
# Velocity S-wave (km/s) = 3.27507 3.71945 3.50431
# Velocity P-wave (km/s) = 6.64028 7.91264 7.30422
#
# Compressibility (1/GPa) = 0.02065496
#
# Stress axis : x y z
#
# Youngs Moduli (GPa) = 38.77875 39.43031 77.16512
#
# Poissons Ratio (x) = 0.21078 0.73551
# Poissons Ratio (y) = 0.20730 0.52852
# Poissons Ratio (z) = 0.36962 0.27006
#
# Static dielectric constant tensor:
#      x y z
#    x 1.517660 0.000000 -0.003120 
#    y 0.000000 1.539010 0.000000 
#    z -0.003120 0.000000 1.537040 
# 
# From -- ./inp_files/324106.got.cif
#   From: 2010.05.17/outbox.cif.g08.bks.cpg/sg12_163_cif.got.tgz:324106.got - 2010.06.03 13:09:07.
