data_PCOD9179484
_publ_section_title
;
Structure prediction by ZEFSAII (Michael W. Deem and Ramdas Pophale) SiO2 
 PCOD9179484
Probable space group: C 2/M
;
_chemical_formula_sum "Si O2"
_cell_formula_units_Z 64
_cell_length_a 17.863376
_cell_length_b 23.347603
_cell_length_c 13.039676
_cell_angle_alpha 90.000000
_cell_angle_beta 46.738174
_cell_angle_gamma 90.000000
_cell_volume 3960.417094
_symmetry_space_group_name_H-M "C 2/M"
_symmetry_group_IT_number 12
_symmetry_cell_setting 'monoclinic'
loop_
_space_group_symop_operation_xyz
x,y,z
-x,y,-z
-x,-y,-z
x,-y,z
1/2+x,1/2+y,z
1/2-x,1/2+y,-z
1/2-x,1/2-y,-z
1/2+x,1/2-y,z
loop_
_atom_site_type_symbol
_atom_site_label
_atom_site_fract_x
_atom_site_fract_y
_atom_site_fract_z
Si Si1 0.229459 0.780173 0.811464
Si Si2 0.063141 0.353014 0.640345
Si Si3 0.031960 0.063284 0.850718
Si Si4 0.948721 0.813632 0.869168
Si Si5 0.581072 0.064976 0.329237
Si Si6 0.540915 0.256063 0.355906
Si Si7 0.244486 0.393915 0.331285
Si Si8 0.076896 0.707926 0.841477
O O1 0.346621 0.770579 0.732197
O O2 0.222331 0.831206 0.736499
O O3 0.181554 0.724623 0.800901
O O4 0.158891 0.798498 0.974097
O O5 0.160227 0.385371 0.499510
O O6 0.082930 0.332732 0.737379
O O7 0.962893 0.392582 0.715351
O O8 0.036964 0.295525 0.600508
O O9 0.155083 0.071757 0.730278
O O10 0.979800 0.120440 0.854856
O O11 0.004059 0.000000 0.835249
O O12 0.000000 0.063737 0.000000
O O13 0.950725 0.797774 0.748128
O O14 0.026763 0.768418 0.850290
O O15 0.500000 0.069586 0.500000
O O16 0.687915 0.080014 0.284167
O O17 0.581937 0.000000 0.291541
O O18 0.500000 0.282224 0.500000
O O19 0.000000 0.684288 0.000000
#
# Coordination Sequence:
#
# PCOD9179484 Si02
#       8
#     8   8   8   8   8   8   8   8
#     4  11  18  32  49  72 105 134 155 198 250 297
#     4  10  19  31  50  74 100 133 160 202 244 298
#     4  11  21  34  51  73 101 134 168 203 242 293
#     4  10  20  34  50  72 102 134 165 202 249 296
#     4   9  17  30  47  70 100 128 154 193 246 295
#     4  11  20  32  50  76 102 130 167 203 245 297
#     4  11  18  30  49  74 106 124 160 199 245 297
#     4   9  19  33  50  72 102 131 164 200 247 296
#
# _framework density 16.159914000000001
#
# number of rings (size 3 to 8) (size 9 to 14) (size 15 to 20)
#    0.000    1.750    5.000    1.500    0.000    2.000 
#    0.000    0.000    0.000    0.750    0.000    0.875 
#    0.000    0.000    0.000    0.000    0.000    0.000 
#
# Total GULP energy -178343.960171 kJ/mol
# GULP energy per Si atom -5573.248755 kJ/mol
# Density = 1.612313 g / cm^3
# Si number density = 16.159914 Si / 1000 Ang^3
#
#
#
# Elastic Constant Matrix: (Units=GPa)
#
#
# Indices 1 2 3 4 5 6 
#
# 1 48.5379 20.2853 44.0032 0.0000 3.6390 0.0000
# 2 20.2853 77.7410 29.0696 0.0000 10.8408 0.0000
# 3 44.0032 29.0696 81.4220 0.0000 7.4440 0.0000
# 4 0.0000 0.0000 0.0000 2.7880 0.0000 6.2734
# 5 3.6390 10.8408 7.4440 0.0000 25.4376 0.0000
# 6 0.0000 0.0000 0.0000 6.2734 0.0000 15.2640
#
#
#
# Elastic Compliance Matrix: (Units=1/GPa)
#
#
# Indices 1 2 3 4 5 6 
#
# 1 0.040968 -0.002979 -0.021225 0.000001 0.001620 0.000000
# 2 -0.002979 0.015683 -0.003511 0.000000 -0.005230 0.000000
# 3 -0.021225 -0.003511 0.025268 0.000001 -0.002862 -0.000001
# 4 0.000001 0.000000 0.000001 4.770321 -0.000003 -1.960587
# 5 0.001620 -0.005230 -0.002862 -0.000003 0.042146 0.000001
# 6 0.000000 0.000000 -0.000001 -1.960587 0.000001 0.871308
#
#
# Mechanical properties :
#
#
# Convention : Reuss Voigt Hill
#
# Bulk Modulus (GPa) = 37.75290 43.82415 40.78853
# Shear Modulus (GPa) = 0.85764 16.32076 8.58920
#
# Velocity S-wave (km/s) = 0.72930 3.18142 2.30796
# Velocity P-wave (km/s) = 4.91141 6.37755 5.69189
#
# Compressibility (1/GPa) = 0.02648803
#
# Stress axis : x y z
#
# Youngs Moduli (GPa) = 24.40918 63.76433 39.57649
#
# Poissons Ratio (x) = 0.18997 0.84001
# Poissons Ratio (y) = 0.07272 0.13895
# Poissons Ratio (z) = 0.51809 0.22387
#
# Static dielectric constant tensor:
#      x y z
#    x 1.561010 0.000000 -0.028320 
#    y 0.000000 1.546990 0.000000 
#    z -0.028320 0.000000 1.547370 
# 
# From -- ./inp_files/160291.got.cif
#   From: 2010.05.17/outbox.cif.g08.bks.cpg/sg12_81_cif.got.tgz:160291.got - 2010.06.03 13:09:07.
