data_PCOD9179168
_publ_section_title
;
Structure prediction by ZEFSAII (Michael W. Deem and Ramdas Pophale) SiO2 
 PCOD9179168
Probable space group: C 2/M
;
_chemical_formula_sum "Si O2"
_cell_formula_units_Z 64
_cell_length_a 16.546931
_cell_length_b 7.232565
_cell_length_c 20.003794
_cell_angle_alpha 90.000000
_cell_angle_beta 80.680873
_cell_angle_gamma 90.000000
_cell_volume 2362.392579
_symmetry_space_group_name_H-M "C 2/M"
_symmetry_group_IT_number 12
_symmetry_cell_setting 'monoclinic'
loop_
_space_group_symop_operation_xyz
x,y,z
-x,y,-z
-x,-y,-z
x,-y,z
1/2+x,1/2+y,z
1/2-x,1/2+y,-z
1/2-x,1/2-y,-z
1/2+x,1/2-y,z
loop_
_atom_site_type_symbol
_atom_site_label
_atom_site_fract_x
_atom_site_fract_y
_atom_site_fract_z
Si Si1 0.927192 0.225207 0.460448
Si Si2 0.402832 0.275390 0.090697
Si Si3 0.949631 0.774388 0.832668
Si Si4 0.370505 0.290557 0.332938
Si Si5 0.192697 0.224648 0.413713
Si Si6 0.395410 0.708909 0.704119
Si Si7 0.658492 0.719489 0.037865
Si Si8 0.282098 0.275686 0.215798
O O1 0.927936 0.289221 0.383542
O O2 0.844452 0.280237 0.510469
O O3 0.000000 0.280404 0.500000
O O4 0.928438 0.000000 0.457468
O O5 0.406370 0.500000 0.088497
O O6 0.476027 0.219171 0.129385
O O7 0.318956 0.223403 0.139730
O O8 0.399269 0.212414 0.014949
O O9 0.950955 0.709474 0.755757
O O10 0.870028 0.712420 0.885944
O O11 0.950429 0.000000 0.827446
O O12 0.397267 0.500000 0.315807
O O13 0.281500 0.295031 0.381555
O O14 0.346506 0.211733 0.264318
O O15 0.128739 0.287663 0.364542
O O16 0.196136 0.000000 0.410519
O O17 0.422779 0.500000 0.686416
O O18 0.306514 0.703239 0.752915
O O19 0.646723 0.500000 0.042941
O O20 0.750000 0.750000 0.000000
O O21 0.277923 0.500000 0.220033
#
# Coordination Sequence:
#
# PCOD9179168 Si02
#       8
#     8   8   8   8   8   8   8   8
#     4   9  17  28  43  65  90 113 142 182 222 257
#     4   9  17  29  46  68  91 115 146 182 217 255
#     4   9  17  29  46  68  91 115 146 182 217 255
#     4   9  17  29  46  66  87 114 146 179 216 257
#     4   9  17  29  46  66  87 114 146 179 216 257
#     4   9  17  29  46  67  89 114 145 180 216 256
#     4  10  19  31  49  69  89 116 148 182 218 256
#     4   9  17  29  46  67  89 114 145 180 216 256
#
# _framework density 27.091176999999998
#
# number of rings (size 3 to 8) (size 9 to 14) (size 15 to 20)
#    0.000    2.875    0.000    1.500    0.000    2.500 
#    0.000    5.000    0.000    5.250    0.000    7.000 
#    0.000    0.000    0.000    0.000    0.000    0.000 
#
# Total GULP energy -178992.839241 kJ/mol
# GULP energy per Si atom -5593.526226 kJ/mol
# Density = 2.702952 g / cm^3
# Si number density = 27.091177 Si / 1000 Ang^3
#
#
#
# Elastic Constant Matrix: (Units=GPa)
#
#
# Indices 1 2 3 4 5 6 
#
# 1 88.3932 -8.2423 7.4664 0.0000 11.4309 0.0000
# 2 -8.2423 136.9525 -1.2789 0.0000 1.1960 0.0000
# 3 7.4664 -1.2789 162.9484 0.0000 15.5206 0.0000
# 4 0.0000 0.0000 0.0000 -6.2206 0.0000 -8.6375
# 5 11.4309 1.1960 15.5206 0.0000 57.3310 0.0000
# 6 0.0000 0.0000 0.0000 -8.6375 0.0000 -1.0475
#
#
#
# Elastic Compliance Matrix: (Units=1/GPa)
#
#
# Indices 1 2 3 4 5 6 
#
# 1 0.011699 0.000721 -0.000315 0.000000 -0.002262 0.000000
# 2 0.000721 0.007348 0.000054 0.000000 -0.000312 0.000000
# 3 -0.000315 0.000054 0.006309 0.000000 -0.001646 0.000000
# 4 0.000000 0.000000 0.000000 0.015384 0.000000 -0.126854
# 5 -0.002262 -0.000312 -0.001646 0.000000 0.018346 0.000000
# 6 0.000000 0.000000 0.000000 -0.126854 0.000000 0.091359
#
#
# Mechanical properties :
#
#
# Convention : Reuss Voigt Hill
#
# Bulk Modulus (GPa) = 38.05585 42.68716 40.37151
# Shear Modulus (GPa) = 31.58891 36.03583 33.81237
#
# Velocity S-wave (km/s) = 3.41841 3.65110 3.53667
# Velocity P-wave (km/s) = 5.44596 5.79354 5.62244
#
# Compressibility (1/GPa) = 0.02627717
#
# Stress axis : x y z
#
# Youngs Moduli (GPa) = 85.47379 136.08363 158.51460
#
# Poissons Ratio (x) = -0.09811 0.04992
# Poissons Ratio (y) = -0.06162 -0.00861
# Poissons Ratio (z) = 0.02692 -0.00739
#
# Static dielectric constant tensor:
#      x y z
#    x 2.151740 0.000000 0.018250 
#    y 0.000000 2.215160 0.000000 
#    z 0.018250 0.000000 2.076520 
# 
# From -- ./inp_files/314017.got.cif
#   From: 2010.05.17/outbox.cif.g08.bks.cpg/sg12_158_cif.got.tgz:314017.got - 2010.06.03 13:09:07.
