data_PCOD9179686
_publ_section_title
;
Structure prediction by ZEFSAII (Michael W. Deem and Ramdas Pophale) SiO2 
 PCOD9179686
Probable space group: C 2/M
;
_chemical_formula_sum "Si O2"
_cell_formula_units_Z 48
_cell_length_a 15.978424
_cell_length_b 19.191400
_cell_length_c 8.041790
_cell_angle_alpha 90.000000
_cell_angle_beta 119.668306
_cell_angle_gamma 90.000000
_cell_volume 2142.722099
_symmetry_space_group_name_H-M "C 2/M"
_symmetry_group_IT_number 12
_symmetry_cell_setting 'monoclinic'
loop_
_space_group_symop_operation_xyz
x,y,z
-x,y,-z
-x,-y,-z
x,-y,z
1/2+x,1/2+y,z
1/2-x,1/2+y,-z
1/2-x,1/2-y,-z
1/2+x,1/2-y,z
loop_
_atom_site_type_symbol
_atom_site_label
_atom_site_fract_x
_atom_site_fract_y
_atom_site_fract_z
Si Si1 0.223312 0.717081 0.765965
Si Si2 0.913200 0.780279 0.090774
Si Si3 0.955188 0.922110 0.272050
Si Si4 0.728214 0.919857 0.988171
Si Si5 0.563124 0.816191 0.393556
Si Si6 0.392570 0.923023 0.823653
O O1 0.165284 0.767575 0.836868
O O2 0.158707 0.724523 0.540397
O O3 0.338026 0.726758 0.866451
O O4 0.214803 0.637266 0.829983
O O5 0.967655 0.853884 0.169263
O O6 0.992933 0.722367 0.196530
O O7 0.839033 0.925345 0.153334
O O8 0.000000 0.909483 0.500000
O O9 0.989610 0.000000 0.252599
O O10 0.670132 0.891470 0.089742
O O11 0.696123 0.000000 0.916225
O O12 0.500000 0.826120 0.500000
O O13 0.600190 0.884834 0.342201
O O14 0.351876 0.000000 0.758705
O O15 0.500000 0.927456 0.000000
#
# Coordination Sequence:
#
# PCOD9179686 Si02
#       6
#     8   8   8   8   8   8
#     4   9  17  30  52  73  97 134 169 208 257 296
#     4   9  17  30  47  69 101 127 162 210 252 292
#     4   9  16  28  51  77  96 123 166 213 261 307
#     4   9  18  32  50  76 107 134 166 210 255 302
#     4  10  19  31  51  74 100 137 177 210 248 299
#     4  10  20  33  49  72 107 144 171 204 250 297
#
# _framework density 22.401413000000002
#
# number of rings (size 3 to 8) (size 9 to 14) (size 15 to 20)
#    0.000    2.667    0.000    3.500    0.000    1.000 
#    0.000    0.000    0.000   55.000    0.000    3.500 
#    0.000   28.667    0.000    0.000    0.000    0.000 
#
# Total GULP energy -133777.071516 kJ/mol
# GULP energy per Si atom -5574.044647 kJ/mol
# Density = 2.235043 g / cm^3
# Si number density = 22.401413 Si / 1000 Ang^3
#
#
#
# Elastic Constant Matrix: (Units=GPa)
#
#
# Indices 1 2 3 4 5 6 
#
# 1 54.6721 10.7519 20.1345 0.0000 -4.7779 0.0000
# 2 10.7519 102.2974 10.3900 0.0000 -1.5306 0.0000
# 3 20.1345 10.3900 94.9731 0.0000 24.5323 0.0000
# 4 0.0000 0.0000 0.0000 3.6714 0.0000 5.9960
# 5 -4.7779 -1.5306 24.5323 0.0000 22.9388 0.0000
# 6 0.0000 0.0000 0.0000 5.9960 0.0000 7.2024
#
#
#
# Elastic Compliance Matrix: (Units=1/GPa)
#
#
# Indices 1 2 3 4 5 6 
#
# 1 0.022705 -0.001365 -0.008100 0.000000 0.013300 0.000000
# 2 -0.001365 0.010073 -0.001261 0.000000 0.001737 0.000000
# 3 -0.008100 -0.001261 0.017744 0.000000 -0.020748 0.000000
# 4 0.000000 0.000000 0.000000 -0.757504 0.000000 0.630614
# 5 0.013300 0.001737 -0.020748 0.000000 0.068669 0.000000
# 6 0.000000 0.000000 0.000000 0.630614 0.000000 -0.386137
#
#
# Mechanical properties :
#
#
# Convention : Reuss Voigt Hill
#
# Bulk Modulus (GPa) = 34.39995 37.16617 35.78306
# Shear Modulus (GPa) = -5.03368 20.80695 7.88664
#
# Velocity S-wave (km/s) = -1.50064 3.05097 1.87836
# Velocity P-wave (km/s) = 3.51951 5.38871 4.55111
#
# Compressibility (1/GPa) = 0.02906981
#
# Stress axis : x y z
#
# Youngs Moduli (GPa) = 44.04406 99.27586 56.35801
#
# Poissons Ratio (x) = 0.13548 0.45648
# Poissons Ratio (y) = 0.06011 0.07108
# Poissons Ratio (z) = 0.35675 0.12522
#
# Static dielectric constant tensor:
#      x y z
#    x 1.818800 0.000000 -0.026680 
#    y 0.000000 1.930920 0.000000 
#    z -0.026680 0.000000 1.912640 
# 
# From -- ./inp_files/89278.got.cif
#   From: 2010.05.17/outbox.cif.g08.bks.cpg/sg12_45_cif.got.tgz:89278.got - 2010.06.03 13:09:07.
