data_PCOD9179228
_publ_section_title
;
Structure prediction by ZEFSAII (Michael W. Deem and Ramdas Pophale) SiO2 
 PCOD9179228
Probable space group: C 2/M
;
_chemical_formula_sum "Si O2"
_cell_formula_units_Z 56
_cell_length_a 18.815090
_cell_length_b 8.638501
_cell_length_c 23.826329
_cell_angle_alpha 90.000000
_cell_angle_beta 126.896655
_cell_angle_gamma 90.000000
_cell_volume 3096.988711
_symmetry_space_group_name_H-M "C 2/M"
_symmetry_group_IT_number 12
_symmetry_cell_setting 'monoclinic'
loop_
_space_group_symop_operation_xyz
x,y,z
-x,y,-z
-x,-y,-z
x,-y,z
1/2+x,1/2+y,z
1/2-x,1/2+y,-z
1/2-x,1/2-y,-z
1/2+x,1/2-y,z
loop_
_atom_site_type_symbol
_atom_site_label
_atom_site_fract_x
_atom_site_fract_y
_atom_site_fract_z
Si Si1 0.428768 0.314389 0.632718
Si Si2 0.550062 0.316564 0.787210
Si Si3 0.386343 0.186667 0.781431
Si Si4 0.736088 0.184898 0.373600
Si Si5 0.158530 0.684591 0.933383
Si Si6 0.079070 0.684827 0.495505
Si Si7 0.006826 0.312040 0.066466
O O1 0.419065 0.500000 0.632318
O O2 0.518057 0.270212 0.709752
O O3 0.343835 0.237704 0.623149
O O4 0.432048 0.262995 0.570265
O O5 0.563243 0.500000 0.794593
O O6 0.464166 0.269286 0.783407
O O7 0.631989 0.239208 0.858291
O O8 0.296422 0.222756 0.705353
O O9 0.405850 0.228594 0.855306
O O10 0.399183 0.000000 0.782539
O O11 0.826591 0.266060 0.433975
O O12 0.746450 0.000000 0.383125
O O13 0.160973 0.500000 0.935082
O O14 0.078775 0.734940 0.937437
O O15 0.250000 0.750000 0.000000
O O16 0.076818 0.500000 0.487251
O O17 0.000000 0.730815 0.500000
O O18 0.005453 0.500000 0.062929
O O19 0.000000 0.252269 0.000000
#
# Coordination Sequence:
#
# PCOD9179228 Si02
#       7
#     8   8   8   8   8   8   8
#     4  10  20  35  57  81 102 128 168 214 256 304
#     4   9  17  30  50  75 100 127 163 207 250 293
#     4   8  15  28  48  74  99 127 162 202 250 295
#     4  10  19  33  55  79 103 131 169 214 254 301
#     4  10  19  31  49  72 101 135 169 207 250 297
#     4  11  24  39  53  72 103 139 170 205 255 310
#     4   8  14  27  48  72  97 126 162 202 242 286
#
# _framework density 18.082080999999999
#
# number of rings (size 3 to 8) (size 9 to 14) (size 15 to 20)
#    0.000    2.571    0.000    3.429    0.000    3.429 
#    0.000    1.429    0.000   14.143    0.000    0.000 
#    0.000    0.000    0.000    0.000    0.000    0.000 
#
# Total GULP energy -156002.269656 kJ/mol
# GULP energy per Si atom -5571.509631 kJ/mol
# Density = 1.804092 g / cm^3
# Si number density = 18.082081 Si / 1000 Ang^3
#
#
#
# Elastic Constant Matrix: (Units=GPa)
#
#
# Indices 1 2 3 4 5 6 
#
# 1 45.5194 9.8816 52.5600 0.0000 -3.8180 0.0000
# 2 9.8816 24.9861 24.5840 0.0000 3.9116 0.0000
# 3 52.5600 24.5840 176.3228 0.0000 -4.1044 0.0000
# 4 0.0000 0.0000 0.0000 19.7665 0.0000 8.8889
# 5 -3.8180 3.9116 -4.1044 0.0000 26.1050 0.0000
# 6 0.0000 0.0000 0.0000 8.8889 0.0000 13.7046
#
#
#
# Elastic Compliance Matrix: (Units=1/GPa)
#
#
# Indices 1 2 3 4 5 6 
#
# 1 0.034294 -0.004951 -0.009433 0.000000 0.004274 0.000000
# 2 -0.004951 0.048825 -0.005539 0.000000 -0.008911 0.000000
# 3 -0.009433 -0.005539 0.009277 0.000000 0.000909 0.000000
# 4 0.000000 0.000000 0.000000 0.071423 0.000000 -0.046325
# 5 0.004274 -0.008911 0.000909 0.000000 0.040410 0.000000
# 6 0.000000 0.000000 0.000000 -0.046325 0.000000 0.103015
#
#
# Mechanical properties :
#
#
# Convention : Reuss Voigt Hill
#
# Bulk Modulus (GPa) = 19.02945 46.76439 32.89692
# Shear Modulus (GPa) = 13.71341 22.56872 18.14107
#
# Velocity S-wave (km/s) = 2.75689 3.53672 3.17087
# Velocity P-wave (km/s) = 4.54760 6.52658 5.62481
#
# Compressibility (1/GPa) = 0.05255012
#
# Stress axis : x y z
#
# Youngs Moduli (GPa) = 29.15978 20.48120 107.79677
#
# Poissons Ratio (x) = 0.10140 1.01683
# Poissons Ratio (y) = 0.14437 0.59710
# Poissons Ratio (z) = 0.27506 0.11345
#
# Static dielectric constant tensor:
#      x y z
#    x 1.596240 0.000000 -0.013260 
#    y 0.000000 1.607740 0.000000 
#    z -0.013260 0.000000 1.669480 
# 
# From -- ./inp_files/342606.got.cif
#   From: 2010.05.17/outbox.cif.g08.bks.cpg/sg12_172_cif.got.tgz:342606.got - 2010.06.03 13:09:07.
