data_PCOD9179761
_publ_section_title
;
Structure prediction by ZEFSAII (Michael W. Deem and Ramdas Pophale) SiO2 
 PCOD9179761
Probable space group: C 2/M
;
_chemical_formula_sum "Si O2"
_cell_formula_units_Z 44
_cell_length_a 12.898355
_cell_length_b 13.141287
_cell_length_c 15.121515
_cell_angle_alpha 90.000000
_cell_angle_beta 128.675461
_cell_angle_gamma 90.000000
_cell_volume 2001.016471
_symmetry_space_group_name_H-M "C 2/M"
_symmetry_group_IT_number 12
_symmetry_cell_setting 'monoclinic'
loop_
_space_group_symop_operation_xyz
x,y,z
-x,y,-z
-x,-y,-z
x,-y,z
1/2+x,1/2+y,z
1/2-x,1/2+y,-z
1/2-x,1/2-y,-z
1/2+x,1/2-y,z
loop_
_atom_site_type_symbol
_atom_site_label
_atom_site_fract_x
_atom_site_fract_y
_atom_site_fract_z
Si Si1 0.296677 0.386968 0.511125
Si Si2 0.641056 0.798070 0.573962
Si Si3 0.758778 0.683502 0.797776
Si Si4 0.380691 0.303815 0.109840
Si Si5 0.440704 0.891206 0.748689
Si Si6 0.500000 0.682496 0.000000
O O1 0.352368 0.500000 0.532266
O O2 0.374835 0.301102 0.498851
O O3 0.263163 0.357487 0.593861
O O4 0.150712 0.385071 0.386872
O O5 0.500000 0.853580 0.500000
O O6 0.679036 0.759481 0.690942
O O7 0.666632 0.640345 0.826335
O O8 0.833320 0.608798 0.770917
O O9 0.877495 0.746852 0.905652
O O10 0.472187 0.208774 0.190128
O O11 0.250000 0.250000 0.000000
O O12 0.450775 0.364829 0.066954
O O13 0.514129 0.000000 0.787982
#
# Coordination Sequence:
#
# PCOD9179761 Si02
#       6
#     8   8   8   8   8   4
#     4   9  19  34  50  74 107 139 172 210 253 305
#     4  10  19  31  51  78 105 136 170 209 259 312
#     4   9  17  30  49  74 101 131 168 207 251 301
#     4   9  16  29  47  72  97 126 162 203 252 297
#     4   9  17  31  51  75 102 130 168 214 250 290
#     4   8  16  30  49  68  91 128 168 204 242 294
#
# _framework density 21.988823
#
# number of rings (size 3 to 8) (size 9 to 14) (size 15 to 20)
#    0.000    2.909    0.000    1.091    0.000    2.182 
#    0.000   17.273    0.000    0.000    0.000   67.455 
#    0.000    0.000    0.000    0.000    0.000    0.000 
#
# Total GULP energy -122509.792046 kJ/mol
# GULP energy per Si atom -5568.626911 kJ/mol
# Density = 2.193878 g / cm^3
# Si number density = 21.988823 Si / 1000 Ang^3
#
#
#
# Elastic Constant Matrix: (Units=GPa)
#
#
# Indices 1 2 3 4 5 6 
#
# 1 110.4854 -4.8868 24.8523 0.0000 -32.0391 0.0000
# 2 -4.8868 46.7283 -5.1734 0.0000 1.5990 0.0000
# 3 24.8523 -5.1734 78.6743 0.0000 -11.3830 0.0000
# 4 0.0000 0.0000 0.0000 -9.0720 0.0000 8.7913
# 5 -32.0391 1.5990 -11.3830 0.0000 44.5804 0.0000
# 6 0.0000 0.0000 0.0000 8.7913 0.0000 3.1556
#
#
#
# Elastic Compliance Matrix: (Units=1/GPa)
#
#
# Indices 1 2 3 4 5 6 
#
# 1 0.011957 0.000693 -0.002587 0.000000 0.007908 0.000000
# 2 0.000693 0.021605 0.001206 0.000000 0.000031 0.000000
# 3 -0.002587 0.001206 0.013843 0.000000 0.001632 0.000000
# 4 0.000000 0.000000 0.000000 -0.029794 0.000000 0.083004
# 5 0.007908 0.000031 0.001632 0.000000 0.028530 0.000000
# 6 0.000000 0.000000 0.000000 0.083004 0.000000 0.085654
#
#
# Mechanical properties :
#
#
# Convention : Reuss Voigt Hill
#
# Bulk Modulus (GPa) = 21.72497 29.49693 25.61095
# Shear Modulus (GPa) = 33.66663 22.47250 28.06957
#
# Velocity S-wave (km/s) = 3.91715 3.20034 3.57674
# Velocity P-wave (km/s) = 5.51001 5.20575 5.36004
#
# Compressibility (1/GPa) = 0.04602998
#
# Stress axis : x y z
#
# Youngs Moduli (GPa) = 83.63516 46.28495 72.23675
#
# Poissons Ratio (x) = -0.03209 0.18690
# Poissons Ratio (y) = -0.05799 -0.08713
# Poissons Ratio (z) = 0.21639 -0.05583
#
# Static dielectric constant tensor:
#      x y z
#    x 1.714100 0.000000 -0.073290 
#    y 0.000000 1.922130 0.000000 
#    z -0.073290 0.000000 1.823870 
# 
# From -- ./inp_files/214441.got.cif
#   From: 2010.05.17/outbox.cif.g08.bks.cpg/sg12_108_cif.got.tgz:214441.got - 2010.06.03 13:09:07.
