data_PCOD9179733
_publ_section_title
;
Structure prediction by ZEFSAII (Michael W. Deem and Ramdas Pophale) SiO2 
 PCOD9179733
Probable space group: C 2/M
;
_chemical_formula_sum "Si O2"
_cell_formula_units_Z 64
_cell_length_a 20.154317
_cell_length_b 8.998301
_cell_length_c 24.211930
_cell_angle_alpha 90.000000
_cell_angle_beta 57.910580
_cell_angle_gamma 90.000000
_cell_volume 3720.096687
_symmetry_space_group_name_H-M "C 2/M"
_symmetry_group_IT_number 12
_symmetry_cell_setting 'monoclinic'
loop_
_space_group_symop_operation_xyz
x,y,z
-x,y,-z
-x,-y,-z
x,-y,z
1/2+x,1/2+y,z
1/2-x,1/2+y,-z
1/2-x,1/2-y,-z
1/2+x,1/2-y,z
loop_
_atom_site_type_symbol
_atom_site_label
_atom_site_fract_x
_atom_site_fract_y
_atom_site_fract_z
Si Si1 0.221264 0.826160 0.456557
Si Si2 0.669051 0.676947 0.054211
Si Si3 0.412443 0.170003 0.812011
Si Si4 0.010488 0.178703 0.059358
Si Si5 0.012466 0.678418 0.667899
Si Si6 0.343640 0.677562 0.328381
Si Si7 0.534311 0.674512 0.543198
Si Si8 0.577545 0.170762 0.805628
O O1 0.250000 0.750000 0.500000
O O2 0.263359 0.743117 0.387653
O O3 0.127966 0.815472 0.497382
O O4 0.243620 0.000000 0.446102
O O5 0.676195 0.500000 0.049517
O O6 0.644457 0.729995 0.126398
O O7 0.596132 0.719493 0.046165
O O8 0.750000 0.750000 0.000000
O O9 0.437453 0.216703 0.739376
O O10 0.495700 0.170696 0.807528
O O11 0.383508 0.000000 0.824125
O O12 0.945251 0.255305 0.126457
O O13 0.003328 0.000000 0.067769
O O14 0.000000 0.218658 0.000000
O O15 0.022994 0.500000 0.666722
O O16 0.087977 0.757942 0.661802
O O17 0.005918 0.732923 0.608346
O O18 0.344809 0.500000 0.329944
O O19 0.363342 0.736851 0.258581
O O20 0.500000 0.724807 0.500000
O O21 0.513834 0.500000 0.560297
O O22 0.602660 0.000000 0.800394
#
# Coordination Sequence:
#
# PCOD9179733 Si02
#       8
#     8   8   8   8   8   8   8   8
#     4  11  21  34  54  80 107 135 173 217 260 309
#     4  10  19  31  51  77 104 135 168 210 254 299
#     4   8  16  30  48  73 102 130 166 211 254 301
#     4   9  18  33  53  77 105 138 175 210 253 308
#     4  10  19  32  53  79 105 134 172 218 263 308
#     4  11  20  31  51  78 107 137 172 218 264 308
#     4  10  22  38  55  76 105 141 175 211 260 316
#     4   9  17  30  49  76 106 135 170 214 261 307
#
# _framework density 17.203852999999999
#
# number of rings (size 3 to 8) (size 9 to 14) (size 15 to 20)
#    0.000    2.250    1.250    3.375    0.000    5.000 
#    0.000    0.000    2.750    0.000    0.000    0.000 
#    0.000    0.000    0.000    0.000    0.000    0.000 
#
# Total GULP energy -178473.554970 kJ/mol
# GULP energy per Si atom -5577.298593 kJ/mol
# Density = 1.716470 g / cm^3
# Si number density = 17.203853 Si / 1000 Ang^3
#
#
#
# Elastic Constant Matrix: (Units=GPa)
#
#
# Indices 1 2 3 4 5 6 
#
# 1 36.4989 28.6190 41.2339 -0.0001 7.9706 0.0000
# 2 28.6190 95.8364 78.1353 -0.0001 -1.3489 0.0003
# 3 41.2339 78.1353 176.2142 0.0000 6.2989 -0.0001
# 4 -0.0001 -0.0001 0.0000 37.3028 -0.0001 -2.5751
# 5 7.9706 -1.3489 6.2989 -0.0001 25.5024 -0.0001
# 6 0.0000 0.0003 -0.0001 -2.5751 -0.0001 15.1377
#
#
#
# Elastic Compliance Matrix: (Units=1/GPa)
#
#
# Indices 1 2 3 4 5 6 
#
# 1 0.043416 -0.008179 -0.006086 0.000000 -0.012499 0.000000
# 2 -0.008179 0.018067 -0.006278 0.000000 0.005063 0.000000
# 3 -0.006086 -0.006278 0.009914 0.000000 -0.000879 0.000000
# 4 0.000000 0.000000 0.000000 0.027126 0.000000 0.004614
# 5 -0.012499 0.005063 -0.000879 0.000000 0.043603 0.000000
# 6 0.000000 0.000000 0.000000 0.004614 0.000000 0.066845
#
#
# Mechanical properties :
#
#
# Convention : Reuss Voigt Hill
#
# Bulk Modulus (GPa) = 32.99133 67.16955 50.08044
# Shear Modulus (GPa) = 19.21883 26.29268 22.75576
#
# Velocity S-wave (km/s) = 3.34597 3.91359 3.64086
# Velocity P-wave (km/s) = 5.84343 7.71684 6.84454
#
# Compressibility (1/GPa) = 0.03031099
#
# Stress axis : x y z
#
# Youngs Moduli (GPa) = 23.03276 55.35051 100.86623
#
# Poissons Ratio (x) = 0.45273 0.61385
# Poissons Ratio (y) = 0.18839 0.63324
# Poissons Ratio (z) = 0.14017 0.34749
#
# Static dielectric constant tensor:
#      x y z
#    x 1.566600 0.000000 0.001180 
#    y 0.000000 1.586120 0.000000 
#    z 0.001180 0.000000 1.592790 
# 
# From -- ./inp_files/319760.got.cif
#   From: 2010.05.17/outbox.cif.g08.bks.cpg/sg12_160_cif.got.tgz:319760.got - 2010.06.03 13:09:07.
