data_PCOD9179206
_publ_section_title
;
Structure prediction by ZEFSAII (Michael W. Deem and Ramdas Pophale) SiO2 
 PCOD9179206
Probable space group: C 2/M
;
_chemical_formula_sum "Si O2"
_cell_formula_units_Z 48
_cell_length_a 29.041910
_cell_length_b 8.463582
_cell_length_c 11.690981
_cell_angle_alpha 90.000000
_cell_angle_beta 101.657649
_cell_angle_gamma 90.000000
_cell_volume 2814.350691
_symmetry_space_group_name_H-M "C 2/M"
_symmetry_group_IT_number 12
_symmetry_cell_setting 'monoclinic'
loop_
_space_group_symop_operation_xyz
x,y,z
-x,y,-z
-x,-y,-z
x,-y,z
1/2+x,1/2+y,z
1/2-x,1/2+y,-z
1/2-x,1/2-y,-z
1/2+x,1/2-y,z
loop_
_atom_site_type_symbol
_atom_site_label
_atom_site_fract_x
_atom_site_fract_y
_atom_site_fract_z
Si Si1 0.974741 0.691058 0.163223
Si Si2 0.428263 0.807566 0.905911
Si Si3 0.045196 0.188822 0.594587
Si Si4 0.238959 0.189337 0.622365
Si Si5 0.160057 0.307355 0.280195
Si Si6 0.640979 0.811310 0.532689
O O1 0.973701 0.500000 0.168571
O O2 0.960416 0.758485 0.277477
O O3 0.027718 0.737481 0.152602
O O4 0.941154 0.741265 0.041217
O O5 0.379179 0.751861 0.828577
O O6 0.427573 0.000000 0.906291
O O7 0.093144 0.251573 0.563785
O O8 0.000000 0.247118 0.500000
O O9 0.045839 0.000000 0.589446
O O10 0.250000 0.250000 0.500000
O O11 0.285740 0.239029 0.715111
O O12 0.187506 0.254817 0.623515
O O13 0.236832 0.000000 0.620892
O O14 0.159158 0.500000 0.279559
O O15 0.145988 0.257563 0.402386
O O16 0.640995 0.000000 0.531351
#
# Coordination Sequence:
#
# PCOD9179206 Si02
#       6
#     8   8   8   8   8   8
#     4   9  17  30  50  72  94 123 157 193 229 271
#     4   8  14  27  48  73  96 119 154 195 231 270
#     4  11  23  35  47  67  97 128 155 188 232 282
#     4   9  16  27  44  68  98 129 159 194 236 278
#     4   8  14  25  45  72  97 121 152 191 233 276
#     4  10  19  31  49  71  95 125 159 196 237 280
#
# _framework density 17.055443
#
# number of rings (size 3 to 8) (size 9 to 14) (size 15 to 20)
#    0.000    2.833    0.000    4.500    0.000    2.667 
#    0.000    1.667    0.000    8.000    0.000    0.000 
#    0.000    0.000    0.000    0.000    0.000    0.000 
#
# Total GULP energy -133704.225671 kJ/mol
# GULP energy per Si atom -5571.009403 kJ/mol
# Density = 1.701662 g / cm^3
# Si number density = 17.055443 Si / 1000 Ang^3
#
#
#
# Elastic Constant Matrix: (Units=GPa)
#
#
# Indices 1 2 3 4 5 6 
#
# 1 173.8006 29.6170 84.6232 0.0000 28.5715 0.0000
# 2 29.6170 26.1781 18.0400 0.0000 2.3904 0.0000
# 3 84.6232 18.0400 92.1891 0.0000 19.4185 0.0000
# 4 0.0000 0.0000 0.0000 13.7421 0.0000 2.8877
# 5 28.5715 2.3904 19.4185 0.0000 33.0272 0.0000
# 6 0.0000 0.0000 0.0000 2.8877 0.0000 11.5945
#
#
#
# Elastic Compliance Matrix: (Units=1/GPa)
#
#
# Indices 1 2 3 4 5 6 
#
# 1 0.011910 -0.007164 -0.008526 0.000000 -0.004772 0.000000
# 2 -0.007164 0.048597 -0.003993 0.000000 0.005028 0.000000
# 3 -0.008526 -0.003993 0.020362 0.000000 -0.004307 0.000000
# 4 0.000000 0.000000 0.000000 0.076788 0.000000 -0.019125
# 5 -0.004772 0.005028 -0.004307 0.000000 0.036575 0.000000
# 6 0.000000 0.000000 0.000000 -0.019125 0.000000 0.091011
#
#
# Mechanical properties :
#
#
# Convention : Reuss Voigt Hill
#
# Bulk Modulus (GPa) = 24.09370 61.85869 42.97620
# Shear Modulus (GPa) = 14.77355 22.33193 18.55274
#
# Velocity S-wave (km/s) = 2.94633 3.62245 3.30174
# Velocity P-wave (km/s) = 5.07266 7.33786 6.30777
#
# Compressibility (1/GPa) = 0.04150463
#
# Stress axis : x y z
#
# Youngs Moduli (GPa) = 83.96244 20.57731 49.11140
#
# Poissons Ratio (x) = 0.14741 0.41871
# Poissons Ratio (y) = 0.60148 0.19610
# Poissons Ratio (z) = 0.71583 0.08216
#
# Static dielectric constant tensor:
#      x y z
#    x 1.592020 0.000000 0.037000 
#    y 0.000000 1.580530 0.000000 
#    z 0.037000 0.000000 1.567500 
# 
# From -- ./inp_files/179159.got.cif
#   From: 2010.05.17/outbox.cif.g08.bks.cpg/sg12_90_cif.got.tgz:179159.got - 2010.06.03 13:09:07.
