data_PCOD9179824
_publ_section_title
;
Structure prediction by ZEFSAII (Michael W. Deem and Ramdas Pophale) SiO2 
 PCOD9179824
Probable space group: C 2/M
;
_chemical_formula_sum "Si O2"
_cell_formula_units_Z 56
_cell_length_a 31.174897
_cell_length_b 8.535971
_cell_length_c 12.271263
_cell_angle_alpha 90.000000
_cell_angle_beta 118.580995
_cell_angle_gamma 90.000000
_cell_volume 2867.555470
_symmetry_space_group_name_H-M "C 2/M"
_symmetry_group_IT_number 12
_symmetry_cell_setting 'monoclinic'
loop_
_space_group_symop_operation_xyz
x,y,z
-x,y,-z
-x,-y,-z
x,-y,z
1/2+x,1/2+y,z
1/2-x,1/2+y,-z
1/2-x,1/2-y,-z
1/2+x,1/2-y,z
loop_
_atom_site_type_symbol
_atom_site_label
_atom_site_fract_x
_atom_site_fract_y
_atom_site_fract_z
Si Si1 0.248014 0.688726 0.123497
Si Si2 0.498986 0.320824 0.629138
Si Si3 0.402025 0.688913 0.631454
Si Si4 0.100720 0.685525 0.752476
Si Si5 0.557039 0.689094 0.083228
Si Si6 0.839045 0.311925 0.373709
Si Si7 0.360123 0.189238 0.977086
O O1 0.251276 0.500000 0.122008
O O2 0.290416 0.754414 0.253294
O O3 0.195845 0.730802 0.115858
O O4 0.250000 0.750000 0.000000
O O5 0.500000 0.321207 0.500000
O O6 0.505209 0.500000 0.675464
O O7 0.448727 0.260335 0.616157
O O8 0.545813 0.222992 0.718096
O O9 0.399086 0.500000 0.626446
O O10 0.417360 0.738429 0.771696
O O11 0.354094 0.751895 0.511687
O O12 0.106587 0.500000 0.752817
O O13 0.118556 0.748238 0.658314
O O14 0.133617 0.744271 0.890621
O O15 0.555132 0.500000 0.080410
O O16 0.595138 0.743656 0.037732
O O17 0.500000 0.742243 0.000000
O O18 0.838365 0.500000 0.377090
O O19 0.364029 0.000000 0.978124
#
# Coordination Sequence:
#
# PCOD9179824 Si02
#       7
#     8   8   8   8   8   8   8
#     4  11  22  39  62  90 124 159 198 249 304 359
#     4  10  19  31  51  80 111 148 192 233 287 357
#     4  10  21  38  57  83 120 156 197 249 300 353
#     4  10  20  34  52  80 118 152 186 238 294 349
#     4  10  22  41  64  89 120 158 203 251 295 352
#     4  11  22  37  57  86 121 155 196 241 298 362
#     4  10  22  40  60  86 119 153 198 248 296 353
#
# _framework density 19.528829000000002
#
# number of rings (size 3 to 8) (size 9 to 14) (size 15 to 20)
#    0.000    1.714    2.857    1.714    0.000    5.143 
#    0.000    0.714    0.000    0.000    0.000    0.000 
#    0.000    0.000    0.000    0.000    0.000    0.000 
#
# Total GULP energy -156069.398586 kJ/mol
# GULP energy per Si atom -5573.907092 kJ/mol
# Density = 1.948438 g / cm^3
# Si number density = 19.528829 Si / 1000 Ang^3
#
#
#
# Elastic Constant Matrix: (Units=GPa)
#
#
# Indices 1 2 3 4 5 6 
#
# 1 86.9175 12.5960 45.5711 0.0000 12.9071 0.0000
# 2 12.5960 19.1305 31.7643 0.0000 0.9749 0.0000
# 3 45.5711 31.7643 142.6340 0.0000 19.9585 0.0000
# 4 0.0000 0.0000 0.0000 27.7091 0.0000 3.1663
# 5 12.9071 0.9749 19.9585 0.0000 29.0525 0.0000
# 6 0.0000 0.0000 0.0000 3.1663 0.0000 26.0061
#
#
#
# Elastic Compliance Matrix: (Units=1/GPa)
#
#
# Indices 1 2 3 4 5 6 
#
# 1 0.014329 -0.004090 -0.003093 0.000000 -0.004104 0.000000
# 2 -0.004090 0.087387 -0.019912 0.000000 0.012564 0.000000
# 3 -0.003093 -0.019912 0.013440 0.000000 -0.007190 0.000000
# 4 0.000000 0.000000 0.000000 0.036598 0.000000 -0.004456
# 5 -0.004104 0.012564 -0.007190 0.000000 0.040762 0.000000
# 6 0.000000 0.000000 0.000000 -0.004456 0.000000 0.038995
#
#
# Mechanical properties :
#
#
# Convention : Reuss Voigt Hill
#
# Bulk Modulus (GPa) = 16.40261 47.61607 32.00934
# Shear Modulus (GPa) = 16.33863 27.13693 21.73778
#
# Velocity S-wave (km/s) = 2.89561 3.73176 3.33995
# Velocity P-wave (km/s) = 4.42683 6.55770 5.59465
#
# Compressibility (1/GPa) = 0.06096590
#
# Stress axis : x y z
#
# Youngs Moduli (GPa) = 69.78883 11.44330 74.40612
#
# Poissons Ratio (x) = 0.04680 0.23014
# Poissons Ratio (y) = 0.28541 1.48160
# Poissons Ratio (z) = 0.21586 0.22786
#
# Static dielectric constant tensor:
#      x y z
#    x 1.687790 0.000000 0.009900 
#    y 0.000000 1.676460 0.000000 
#    z 0.009900 0.000000 1.739390 
# 
# From -- ./inp_files/187688.got.cif
#   From: 2010.05.17/outbox.cif.g08.bks.cpg/sg12_94_cif.got.tgz:187688.got - 2010.06.03 13:09:07.
