data_PCOD9179125
_publ_section_title
;
Structure prediction by ZEFSAII (Michael W. Deem and Ramdas Pophale) SiO2 
 PCOD9179125
Probable space group: C 2/M
;
_chemical_formula_sum "Si O2"
_cell_formula_units_Z 64
_cell_length_a 30.073598
_cell_length_b 8.615725
_cell_length_c 16.120337
_cell_angle_alpha 90.000000
_cell_angle_beta 117.710851
_cell_angle_gamma 90.000000
_cell_volume 3697.809506
_symmetry_space_group_name_H-M "C 2/M"
_symmetry_group_IT_number 12
_symmetry_cell_setting 'monoclinic'
loop_
_space_group_symop_operation_xyz
x,y,z
-x,y,-z
-x,-y,-z
x,-y,z
1/2+x,1/2+y,z
1/2-x,1/2+y,-z
1/2-x,1/2-y,-z
1/2+x,1/2-y,z
loop_
_atom_site_type_symbol
_atom_site_label
_atom_site_fract_x
_atom_site_fract_y
_atom_site_fract_z
Si Si1 0.928727 0.687449 0.776163
Si Si2 0.174231 0.312538 0.398909
Si Si3 0.724581 0.685466 0.605657
Si Si4 0.691041 0.312039 0.058914
Si Si5 0.205562 0.314083 0.770581
Si Si6 0.411622 0.686031 0.944120
Si Si7 0.040020 0.314387 0.848626
Si Si8 0.363701 0.685836 0.154851
O O1 0.927465 0.500000 0.781173
O O2 0.879846 0.736891 0.682136
O O3 0.925417 0.754799 0.865684
O O4 0.982297 0.731118 0.783387
O O5 0.174802 0.500000 0.406842
O O6 0.218801 0.269019 0.373455
O O7 0.189068 0.240903 0.499930
O O8 0.722943 0.500000 0.610897
O O9 0.709673 0.758968 0.679869
O O10 0.693209 0.500000 0.058013
O O11 0.744518 0.255436 0.137440
O O12 0.645937 0.271367 0.082635
O O13 0.673028 0.259202 0.952390
O O14 0.205369 0.500000 0.772676
O O15 0.157671 0.251333 0.778462
O O16 0.416252 0.500000 0.952574
O O17 0.445203 0.759241 0.045937
O O18 0.955767 0.500000 0.151794
O O19 0.080940 0.240991 0.822869
O O20 0.362779 0.500000 0.155241
#
# Coordination Sequence:
#
# PCOD9179125 Si02
#       8
#     8   8   8   8   8   8   8   8
#     4  10  20  33  51  74 100 132 170 208 246 294
#     4   9  19  36  55  76 103 133 163 199 247 299
#     4  10  20  34  53  78 105 131 161 200 247 297
#     4   8  17  31  47  71 102 134 167 203 242 289
#     4  11  20  32  52  75 100 133 170 204 245 296
#     4  10  19  31  48  73 105 137 169 205 246 291
#     4  10  20  34  50  70  99 135 173 209 247 291
#     4  10  20  35  51  71 101 133 169 211 251 290
#
# _framework density 17.307544
#
# number of rings (size 3 to 8) (size 9 to 14) (size 15 to 20)
#    0.000    2.250    0.000    4.125    0.000    3.500 
#    0.000    6.250    0.000    0.750    0.000    5.250 
#    0.000    0.000    0.000    0.000    0.000    0.000 
#
# Total GULP energy -178620.023224 kJ/mol
# GULP energy per Si atom -5581.875726 kJ/mol
# Density = 1.726815 g / cm^3
# Si number density = 17.307544 Si / 1000 Ang^3
#
#
#
# Elastic Constant Matrix: (Units=GPa)
#
#
# Indices 1 2 3 4 5 6 
#
# 1 142.2384 44.9733 96.9340 0.0000 -5.1678 0.0000
# 2 44.9733 39.2245 34.9746 0.0000 -2.3848 0.0000
# 3 96.9340 34.9746 88.9063 0.0000 -1.1098 0.0000
# 4 0.0000 0.0000 0.0000 22.6988 0.0000 -3.2606
# 5 -5.1678 -2.3848 -1.1098 0.0000 29.2982 0.0000
# 6 0.0000 0.0000 0.0000 -3.2606 0.0000 25.3384
#
#
#
# Elastic Compliance Matrix: (Units=1/GPa)
#
#
# Indices 1 2 3 4 5 6 
#
# 1 0.029147 -0.007567 -0.028759 0.000000 0.003436 0.000000
# 2 -0.007567 0.041433 -0.008028 0.000000 0.001734 0.000000
# 3 -0.028759 -0.008028 0.045712 0.000000 -0.003995 0.000000
# 4 0.000000 0.000000 0.000000 0.044885 0.000000 0.005776
# 5 0.003436 0.001734 -0.003995 0.000000 0.034728 0.000000
# 6 0.000000 0.000000 0.000000 0.005776 0.000000 0.040209
#
#
# Mechanical properties :
#
#
# Convention : Reuss Voigt Hill
#
# Bulk Modulus (GPa) = 36.25176 69.34814 52.79995
# Shear Modulus (GPa) = 14.96939 21.69955 18.33447
#
# Velocity S-wave (km/s) = 2.94412 3.54469 3.25827
# Velocity P-wave (km/s) = 5.70510 7.54376 6.68792
#
# Compressibility (1/GPa) = 0.02758486
#
# Stress axis : x y z
#
# Youngs Moduli (GPa) = 34.30938 24.13509 21.87627
#
# Poissons Ratio (x) = 0.18262 0.62914
# Poissons Ratio (y) = 0.25960 0.17562
# Poissons Ratio (z) = 0.98670 0.19376
#
# Static dielectric constant tensor:
#      x y z
#    x 1.594000 0.000000 0.018820 
#    y 0.000000 1.580810 0.000000 
#    z 0.018820 0.000000 1.562070 
# 
# From -- ./inp_files/249183.got.cif
#   From: 2010.05.17/outbox.cif.g08.bks.cpg/sg12_125_cif.got.tgz:249183.got - 2010.06.03 13:09:07.
