data_PCOD9179550
_publ_section_title
;
Structure prediction by ZEFSAII (Michael W. Deem and Ramdas Pophale) SiO2 
 PCOD9179550
Probable space group: C 2/M
;
_chemical_formula_sum "Si O2"
_cell_formula_units_Z 64
_cell_length_a 32.343948
_cell_length_b 8.762087
_cell_length_c 24.664190
_cell_angle_alpha 90.000000
_cell_angle_beta 149.786455
_cell_angle_gamma 90.000000
_cell_volume 3517.458732
_symmetry_space_group_name_H-M "C 2/M"
_symmetry_group_IT_number 12
_symmetry_cell_setting 'monoclinic'
loop_
_space_group_symop_operation_xyz
x,y,z
-x,y,-z
-x,-y,-z
x,-y,z
1/2+x,1/2+y,z
1/2-x,1/2+y,-z
1/2-x,1/2-y,-z
1/2+x,1/2-y,z
loop_
_atom_site_type_symbol
_atom_site_label
_atom_site_fract_x
_atom_site_fract_y
_atom_site_fract_z
Si Si1 0.208391 0.182310 0.158471
Si Si2 0.664176 0.172293 0.411517
Si Si3 0.867278 0.323119 0.748687
Si Si4 0.274483 0.817270 0.942136
Si Si5 0.561044 0.813847 0.395556
Si Si6 0.376358 0.815146 0.160103
Si Si7 0.533313 0.827350 0.977492
Si Si8 0.285956 0.184375 0.359495
O O1 0.224522 0.250875 0.117303
O O2 0.265752 0.231710 0.274543
O O3 0.213907 0.000000 0.161146
O O4 0.116630 0.234832 0.069638
O O5 0.750000 0.250000 0.500000
O O6 0.629649 0.170662 0.312352
O O7 0.605872 0.239503 0.391172
O O8 0.680397 0.000000 0.448363
O O9 0.867059 0.500000 0.768469
O O10 0.787234 0.245799 0.684350
O O11 0.954598 0.249351 0.861317
O O12 0.194421 0.755624 0.882731
O O13 0.272146 0.000000 0.936254
O O14 0.351570 0.776217 0.069455
O O15 0.466193 0.764654 0.282968
O O16 0.624485 0.768606 0.515445
O O17 0.557438 0.000000 0.392510
O O18 0.372657 0.000000 0.159534
O O19 0.547935 0.000000 0.971591
O O20 0.500000 0.843447 0.000000
O O21 0.282777 0.000000 0.357713
#
# Coordination Sequence:
#
# PCOD9179550 Si02
#       8
#     8   8   8   8   8   8   8   8
#     4  11  23  36  54  81 110 144 186 225 265 319
#     4  10  19  31  50  75 107 143 182 221 263 314
#     4  10  20  32  49  74 106 144 184 226 270 316
#     4  10  21  38  62  86 111 139 169 216 277 329
#     4   9  18  34  56  80 106 141 181 222 267 317
#     4   9  19  38  64  86 107 136 174 220 271 327
#     4  10  20  34  52  74 105 146 187 224 267 318
#     4  10  20  35  54  75 107 147 185 223 265 312
#
# _framework density 18.194953999999999
#
# number of rings (size 3 to 8) (size 9 to 14) (size 15 to 20)
#    0.000    2.125    2.500    0.750    1.750    1.750 
#    0.000    1.875    0.000    3.750    0.000    0.000 
#    0.000    0.000    0.000    0.000    0.000    0.000 
#
# Total GULP energy -178168.316893 kJ/mol
# GULP energy per Si atom -5567.759903 kJ/mol
# Density = 1.815354 g / cm^3
# Si number density = 18.194954 Si / 1000 Ang^3
#
#
#
# Elastic Constant Matrix: (Units=GPa)
#
#
# Indices 1 2 3 4 5 6 
#
# 1 101.1660 22.7186 65.1854 0.0000 -13.4791 0.0000
# 2 22.7186 21.0281 29.4911 0.0000 -3.9846 0.0000
# 3 65.1854 29.4911 177.6407 0.0000 -3.0618 0.0000
# 4 0.0000 0.0000 0.0000 21.3366 0.0000 4.5194
# 5 -13.4791 -3.9846 -3.0618 0.0000 23.3449 0.0000
# 6 0.0000 0.0000 0.0000 4.5194 0.0000 9.2533
#
#
#
# Elastic Compliance Matrix: (Units=1/GPa)
#
#
# Indices 1 2 3 4 5 6 
#
# 1 0.015572 -0.010026 -0.003933 0.000000 0.006764 0.000000
# 2 -0.010026 0.070503 -0.007936 0.000000 0.005204 0.000000
# 3 -0.003933 -0.007936 0.008346 0.000000 -0.002531 0.000000
# 4 0.000000 0.000000 0.000000 0.052276 0.000000 -0.025532
# 5 0.006764 0.005204 -0.002531 0.000000 0.047297 0.000000
# 6 0.000000 0.000000 0.000000 -0.025532 0.000000 0.120540
#
#
# Mechanical properties :
#
#
# Convention : Reuss Voigt Hill
#
# Bulk Modulus (GPa) = 19.75048 59.40279 39.57663
# Shear Modulus (GPa) = 13.32618 22.94963 18.13791
#
# Velocity S-wave (km/s) = 2.70925 3.55536 3.16074
# Velocity P-wave (km/s) = 4.54590 7.04080 5.92613
#
# Compressibility (1/GPa) = 0.05063168
#
# Stress axis : x y z
#
# Youngs Moduli (GPa) = 64.21948 14.18372 119.81204
#
# Poissons Ratio (x) = 0.14221 0.47122
# Poissons Ratio (y) = 0.64386 0.95082
# Poissons Ratio (z) = 0.25257 0.11256
#
# Static dielectric constant tensor:
#      x y z
#    x 1.590640 0.000000 0.018590 
#    y 0.000000 1.622620 0.000000 
#    z 0.018590 0.000000 1.573320 
# 
# From -- ./inp_files/353430.got.cif
#   From: 2010.05.17/outbox.cif.g08.bks.cpg/sg12_177_cif.got.tgz:353430.got - 2010.06.03 13:09:07.
