data_PCOD9179524
_publ_section_title
;
Structure prediction by ZEFSAII (Michael W. Deem and Ramdas Pophale) SiO2 
 PCOD9179524
Probable space group: C 2/M
;
_chemical_formula_sum "Si O2"
_cell_formula_units_Z 58
_cell_length_a 20.522865
_cell_length_b 7.867818
_cell_length_c 13.367138
_cell_angle_alpha 90.000000
_cell_angle_beta 91.882833
_cell_angle_gamma 90.000000
_cell_volume 2157.228695
_symmetry_space_group_name_H-M "C 2/M"
_symmetry_group_IT_number 12
_symmetry_cell_setting 'monoclinic'
loop_
_space_group_symop_operation_xyz
x,y,z
-x,y,-z
-x,-y,-z
x,-y,z
1/2+x,1/2+y,z
1/2-x,1/2+y,-z
1/2-x,1/2-y,-z
1/2+x,1/2-y,z
loop_
_atom_site_type_symbol
_atom_site_label
_atom_site_fract_x
_atom_site_fract_y
_atom_site_fract_z
Si Si1 0.735772 0.298060 0.114363
Si Si2 0.495024 0.807226 0.292709
Si Si3 0.876415 0.191495 0.164186
Si Si4 0.590557 0.299925 0.071781
Si Si5 0.233613 0.705308 0.614236
Si Si6 0.903807 0.707410 0.452994
Si Si7 0.000000 0.500000 0.000000
Si Si8 0.630257 0.302489 0.321386
O O1 0.737559 0.500000 0.123327
O O2 0.800114 0.234235 0.175376
O O3 0.750000 0.250000 0.000000
O O4 0.659841 0.252397 0.128952
O O5 0.432427 0.803283 0.217493
O O6 0.466410 0.732175 0.394599
O O7 0.562600 0.728916 0.259176
O O8 0.513459 0.000000 0.315043
O O9 0.888207 0.201751 0.045710
O O10 0.889733 0.000000 0.197009
O O11 0.571985 0.500000 0.087932
O O12 0.537772 0.150524 0.066992
O O13 0.231070 0.500000 0.626018
O O14 0.250000 0.750000 0.500000
O O15 0.158981 0.764040 0.615909
O O16 0.296511 0.775747 0.676967
O O17 0.905568 0.500000 0.454554
O O18 0.892490 0.766609 0.565000
O O19 0.642405 0.500000 0.309431
#
# Coordination Sequence:
#
# PCOD9179524 Si02
#       8
#     8   8   8   8   8   8   2   8
#     4   9  17  31  56  84 111 138 178 227 265 316
#     4  11  22  33  51  75 105 142 181 225 279 340
#     4  10  21  36  57  80 111 143 183 235 282 334
#     4   9  21  37  57  91 119 150 192 231 276 332
#     4   8  15  29  49  69  92 125 165 211 264 320
#     4   9  18  33  51  73 100 133 178 230 276 323
#     4  12  22  32  68  86 124 160 180 234 270 342
#     4  10  19  31  50  75 101 136 179 227 278 334
#
# _framework density 26.886348000000002
#
# number of rings (size 3 to 8) (size 9 to 14) (size 15 to 20)
#    0.000    2.483    0.000    3.103    5.793    3.310 
#    0.000    0.000    3.034    0.000    0.000    0.000 
#    0.000    0.000    0.000    0.000    0.000    0.000 
#
# Total GULP energy -161876.738072 kJ/mol
# GULP energy per Si atom -5581.956485 kJ/mol
# Density = 2.682515 g / cm^3
# Si number density = 26.886348 Si / 1000 Ang^3
#
#
#
# Elastic Constant Matrix: (Units=GPa)
#
#
# Indices 1 2 3 4 5 6 
#
# 1 218.2537 36.8564 21.2500 0.0000 24.6337 0.0000
# 2 36.8564 76.6337 17.0838 0.0000 12.4596 0.0000
# 3 21.2500 17.0838 105.2530 0.0000 46.2287 0.0000
# 4 0.0000 0.0000 0.0000 20.0774 0.0000 16.0736
# 5 24.6337 12.4596 46.2287 0.0000 59.2735 0.0000
# 6 0.0000 0.0000 0.0000 16.0736 0.0000 27.6088
#
#
#
# Elastic Compliance Matrix: (Units=1/GPa)
#
#
# Indices 1 2 3 4 5 6 
#
# 1 0.005143 -0.002210 0.000084 0.000000 -0.001738 0.000000
# 2 -0.002210 0.014605 -0.001490 0.000000 -0.000990 0.000000
# 3 0.000084 -0.001490 0.014607 0.000000 -0.011114 0.000000
# 4 0.000000 0.000000 0.000000 0.093287 0.000000 -0.054311
# 5 -0.001738 -0.000990 -0.011114 0.000000 0.026470 0.000000
# 6 0.000000 0.000000 0.000000 -0.054311 0.000000 0.067839
#
#
# Mechanical properties :
#
#
# Convention : Reuss Voigt Hill
#
# Bulk Modulus (GPa) = 36.86735 61.16897 49.01816
# Shear Modulus (GPa) = 20.98868 43.05530 32.02199
#
# Velocity S-wave (km/s) = 2.79703 4.00607 3.45485
# Velocity P-wave (km/s) = 4.91663 6.64819 5.84687
#
# Compressibility (1/GPa) = 0.02712427
#
# Stress axis : x y z
#
# Youngs Moduli (GPa) = 194.43963 68.47074 68.45878
#
# Poissons Ratio (x) = 0.15129 -0.00573
# Poissons Ratio (y) = 0.42962 0.10198
# Poissons Ratio (z) = -0.01629 0.10200
#
# Static dielectric constant tensor:
#      x y z
#    x 2.121400 0.000000 -0.026210 
#    y 0.000000 1.983780 0.000000 
#    z -0.026210 0.000000 2.246650 
# 
# From -- ./inp_files/281496.got.cif
#   From: 2010.05.17/outbox.cif.g08.bks.cpg/sg12_141_cif.got.tgz:281496.got - 2010.06.03 13:09:07.
