data_PCOD9179812
_publ_section_title
;
Structure prediction by ZEFSAII (Michael W. Deem and Ramdas Pophale) SiO2 
 PCOD9179812
Probable space group: C 2/M
;
_chemical_formula_sum "Si O2"
_cell_formula_units_Z 48
_cell_length_a 29.921789
_cell_length_b 13.586824
_cell_length_c 11.558378
_cell_angle_alpha 90.000000
_cell_angle_beta 143.232612
_cell_angle_gamma 90.000000
_cell_volume 2812.650064
_symmetry_space_group_name_H-M "C 2/M"
_symmetry_group_IT_number 12
_symmetry_cell_setting 'monoclinic'
loop_
_space_group_symop_operation_xyz
x,y,z
-x,y,-z
-x,-y,-z
x,-y,z
1/2+x,1/2+y,z
1/2-x,1/2+y,-z
1/2-x,1/2-y,-z
1/2+x,1/2-y,z
loop_
_atom_site_type_symbol
_atom_site_label
_atom_site_fract_x
_atom_site_fract_y
_atom_site_fract_z
Si Si1 0.155753 0.881782 0.065531
Si Si2 0.708187 0.218526 0.530521
Si Si3 0.086460 0.119485 0.676567
Si Si4 0.509837 0.690367 0.881909
Si Si5 0.447029 0.890231 0.778369
Si Si6 0.133324 0.887594 0.523134
O O1 0.130425 0.852750 0.883557
O O2 0.092615 0.838129 0.018970
O O3 0.155325 0.000000 0.072170
O O4 0.234454 0.839835 0.269329
O O5 0.750000 0.250000 0.500000
O O6 0.634724 0.151269 0.357640
O O7 0.680327 0.315568 0.539885
O O8 0.127271 0.148872 0.642787
O O9 0.000000 0.153396 0.500000
O O10 0.083715 0.000000 0.667774
O O11 0.485640 0.799974 0.790024
O O12 0.451341 0.617362 0.700738
O O13 0.500000 0.686162 0.000000
O O14 0.441743 0.000000 0.715438
O O15 0.500000 0.898641 0.000000
O O16 0.160138 0.000000 0.575387
#
# Coordination Sequence:
#
# PCOD9179812 Si02
#       6
#     8   8   8   8   8   8
#     4  11  21  34  55  80 109 139 176 229 276 316
#     4  11  23  35  50  81 114 142 181 222 266 336
#     4   9  17  33  56  81 104 135 182 224 271 327
#     4  10  19  31  51  80 105 133 179 222 267 330
#     4   9  18  34  52  68  99 144 180 211 254 315
#     4  10  20  35  54  77 107 142 178 225 271 317
#
# _framework density 17.065756
#
# number of rings (size 3 to 8) (size 9 to 14) (size 15 to 20)
#    0.000    2.000    1.667    4.000    0.000    4.667 
#    0.000    0.833    0.000    0.000    0.000   10.500 
#    0.000    0.000    0.000    0.000    0.000    0.000 
#
# Total GULP energy -133774.590702 kJ/mol
# GULP energy per Si atom -5573.941279 kJ/mol
# Density = 1.702691 g / cm^3
# Si number density = 17.065756 Si / 1000 Ang^3
#
#
#
# Elastic Constant Matrix: (Units=GPa)
#
#
# Indices 1 2 3 4 5 6 
#
# 1 93.9255 35.0755 41.4371 0.0000 -2.3391 0.0000
# 2 35.0755 92.4316 32.0018 0.0000 6.8776 0.0000
# 3 41.4371 32.0018 120.1488 0.0000 7.8992 0.0000
# 4 0.0000 0.0000 0.0000 22.7672 0.0000 -2.7764
# 5 -2.3391 6.8776 7.8992 0.0000 29.6355 0.0000
# 6 0.0000 0.0000 0.0000 -2.7764 0.0000 12.3782
#
#
#
# Elastic Compliance Matrix: (Units=1/GPa)
#
#
# Indices 1 2 3 4 5 6 
#
# 1 0.014022 -0.004195 -0.003924 0.000000 0.003126 0.000000
# 2 -0.004195 0.013285 -0.001901 0.000000 -0.002908 0.000000
# 3 -0.003924 -0.001901 0.010355 0.000000 -0.002629 0.000000
# 4 0.000000 0.000000 0.000000 0.045158 0.000000 0.010129
# 5 0.003126 -0.002908 -0.002629 0.000000 0.035366 0.000000
# 6 0.000000 0.000000 0.000000 0.010129 0.000000 0.083059
#
#
# Mechanical properties :
#
#
# Convention : Reuss Voigt Hill
#
# Bulk Modulus (GPa) = 56.74331 58.17052 57.45692
# Shear Modulus (GPa) = 22.01093 26.15563 24.08328
#
# Velocity S-wave (km/s) = 3.59524 3.91914 3.76068
# Velocity P-wave (km/s) = 7.11029 7.39186 7.25245
#
# Compressibility (1/GPa) = 0.01762322
#
# Stress axis : x y z
#
# Youngs Moduli (GPa) = 71.31400 75.27218 96.56747
#
# Poissons Ratio (x) = 0.31578 0.37896
# Poissons Ratio (y) = 0.29917 0.18353
# Poissons Ratio (z) = 0.27985 0.14306
#
# Static dielectric constant tensor:
#      x y z
#    x 1.574470 0.000000 -0.011180 
#    y 0.000000 1.607700 0.000000 
#    z -0.011180 0.000000 1.584880 
# 
# From -- ./inp_files/189524.got.cif
#   From: 2010.05.17/outbox.cif.g08.bks.cpg/sg12_95_cif.got.tgz:189524.got - 2010.06.03 13:09:07.
