data_PCOD9179676
_publ_section_title
;
Structure prediction by ZEFSAII (Michael W. Deem and Ramdas Pophale) SiO2 
 PCOD9179676
Probable space group: C 2/M
;
_chemical_formula_sum "Si O2"
_cell_formula_units_Z 32
_cell_length_a 13.679795
_cell_length_b 11.621511
_cell_length_c 11.255874
_cell_angle_alpha 90.000000
_cell_angle_beta 43.976806
_cell_angle_gamma 90.000000
_cell_volume 1242.540506
_symmetry_space_group_name_H-M "C 2/M"
_symmetry_group_IT_number 12
_symmetry_cell_setting 'monoclinic'
loop_
_space_group_symop_operation_xyz
x,y,z
-x,y,-z
-x,-y,-z
x,-y,z
1/2+x,1/2+y,z
1/2-x,1/2+y,-z
1/2-x,1/2-y,-z
1/2+x,1/2-y,z
loop_
_atom_site_type_symbol
_atom_site_label
_atom_site_fract_x
_atom_site_fract_y
_atom_site_fract_z
Si Si1 0.586154 0.000000 0.048661
Si Si2 0.455081 0.741157 0.851109
Si Si3 0.166221 0.000000 0.329407
Si Si4 0.801930 0.864018 0.186337
Si Si5 0.854301 0.775518 0.515985
O O1 0.547617 0.879864 0.144418
O O2 0.500000 0.000000 0.000000
O O3 0.751315 0.000000 0.866716
O O4 0.576746 0.686966 0.831820
O O5 0.498468 0.701758 0.680602
O O6 0.320440 0.693540 0.040951
O O7 0.207870 0.884963 0.361861
O O8 0.000000 0.000000 0.500000
O O9 0.660296 0.827669 0.378231
O O10 0.816737 0.000000 0.163272
O O11 0.750000 0.750000 0.500000
#
# Coordination Sequence:
#
# PCOD9179676 Si02
#       5
#     4   8   4   8   8
#     4  12  18  38  64  93 126 172 228 274 315 387
#     4  10  19  31  54  87 124 162 214 272 324 371
#     4  12  26  46  66  96 142 179 211 278 352 394
#     4  10  19  31  50  90 131 155 205 283 335 358
#     4  10  22  36  62  95 124 171 227 272 314 395
#
# _framework density 25.753688
#
# number of rings (size 3 to 8) (size 9 to 14) (size 15 to 20)
#    0.000    1.500    5.000    3.000   10.500    0.000 
#    0.000    1.250    0.000    0.750    0.000    0.000 
#    0.000    0.000    0.000    0.000    0.000    0.000 
#
# Total GULP energy -89451.305625 kJ/mol
# GULP energy per Si atom -5590.706602 kJ/mol
# Density = 2.569507 g / cm^3
# Si number density = 25.753688 Si / 1000 Ang^3
#
#
#
# Elastic Constant Matrix: (Units=GPa)
#
#
# Indices 1 2 3 4 5 6 
#
# 1 64.1210 4.8085 6.7518 0.0000 -5.7694 0.0000
# 2 4.8085 202.5754 34.4715 0.0000 29.0786 0.0000
# 3 6.7518 34.4715 190.8595 0.0000 34.4407 0.0000
# 4 0.0000 0.0000 0.0000 42.3836 0.0000 0.8034
# 5 -5.7694 29.0786 34.4407 0.0000 48.8428 0.0000
# 6 0.0000 0.0000 0.0000 0.8034 0.0000 11.2269
#
#
#
# Elastic Compliance Matrix: (Units=1/GPa)
#
#
# Indices 1 2 3 4 5 6 
#
# 1 0.016014 -0.000638 -0.000987 0.000000 0.002967 0.000000
# 2 -0.000638 0.005457 -0.000416 0.000000 -0.003031 0.000000
# 3 -0.000987 -0.000416 0.006102 0.000000 -0.004172 0.000000
# 4 0.000000 0.000000 0.000000 0.023626 0.000000 -0.001691
# 5 0.002967 -0.003031 -0.004172 0.000000 0.025571 0.000000
# 6 0.000000 0.000000 0.000000 -0.001691 0.000000 0.089193
#
#
# Mechanical properties :
#
#
# Convention : Reuss Voigt Hill
#
# Bulk Modulus (GPa) = 42.56767 61.06881 51.81824
# Shear Modulus (GPa) = 28.10944 47.92561 38.01753
#
# Velocity S-wave (km/s) = 3.30733 4.31852 3.84630
# Velocity P-wave (km/s) = 5.58115 6.97354 6.31583
#
# Compressibility (1/GPa) = 0.02349201
#
# Stress axis : x y z
#
# Youngs Moduli (GPa) = 62.44429 183.23453 163.87222
#
# Poissons Ratio (x) = 0.11693 0.16169
# Poissons Ratio (y) = 0.03985 0.06820
# Poissons Ratio (z) = 0.06161 0.07625
#
# Static dielectric constant tensor:
#      x y z
#    x 3.152500 0.000000 -1.196730 
#    y 0.000000 1.982230 0.000000 
#    z -1.196730 0.000000 3.263660 
# 
# From -- ./inp_files/223664.got.cif
#   From: 2010.05.17/outbox.cif.g08.bks.cpg/sg12_112_cif.got.tgz:223664.got - 2010.06.03 13:09:07.
