data_PCOD9179750
_publ_section_title
;
Structure prediction by ZEFSAII (Michael W. Deem and Ramdas Pophale) SiO2 
 PCOD9179750
Probable space group: C 2/M
;
_chemical_formula_sum "Si O2"
_cell_formula_units_Z 56
_cell_length_a 24.214825
_cell_length_b 7.641742
_cell_length_c 12.759773
_cell_angle_alpha 90.000000
_cell_angle_beta 89.655016
_cell_angle_gamma 90.000000
_cell_volume 2361.069557
_symmetry_space_group_name_H-M "C 2/M"
_symmetry_group_IT_number 12
_symmetry_cell_setting 'monoclinic'
loop_
_space_group_symop_operation_xyz
x,y,z
-x,y,-z
-x,-y,-z
x,-y,z
1/2+x,1/2+y,z
1/2-x,1/2+y,-z
1/2-x,1/2-y,-z
1/2+x,1/2-y,z
loop_
_atom_site_type_symbol
_atom_site_label
_atom_site_fract_x
_atom_site_fract_y
_atom_site_fract_z
Si Si1 0.755444 0.302143 0.211276
Si Si2 0.447704 0.290852 0.935686
Si Si3 0.187256 0.200958 0.579513
Si Si4 0.421706 0.206598 0.322342
Si Si5 0.164479 0.215212 0.354727
Si Si6 0.954530 0.788969 0.697898
Si Si7 0.863406 0.710475 0.109569
O O1 0.744396 0.500000 0.175021
O O2 0.787677 0.304983 0.323077
O O3 0.697303 0.224493 0.250352
O O4 0.801330 0.221256 0.133718
O O5 0.453962 0.500000 0.928861
O O6 0.449772 0.224284 0.817794
O O7 0.500000 0.220160 0.000000
O O8 0.392028 0.257378 0.000797
O O9 0.121231 0.203773 0.599915
O O10 0.194217 0.269939 0.461812
O O11 0.205141 0.000000 0.588159
O O12 0.485569 0.238785 0.344222
O O13 0.403919 0.267480 0.204718
O O14 0.411691 0.000000 0.327400
O O15 0.101236 0.272560 0.356689
O O16 0.166167 0.000000 0.354088
O O17 0.952703 0.000000 0.697691
O O18 0.859875 0.500000 0.115269
#
# Coordination Sequence:
#
# PCOD9179750 Si02
#       7
#     8   8   8   8   8   8   8
#     4   9  18  35  55  77 103 134 173 210 251 301
#     4  10  19  31  51  78 102 128 165 212 257 295
#     4  10  19  32  54  80 101 131 174 215 253 297
#     4  10  20  34  51  76 106 137 168 209 261 306
#     4   9  19  35  54  74 102 140 175 207 250 306
#     4  10  20  35  53  74 103 138 173 210 253 305
#     4   9  18  31  51  75 100 131 165 206 253 304
#
# _framework density 23.718063999999998
#
# number of rings (size 3 to 8) (size 9 to 14) (size 15 to 20)
#    0.000    2.429    1.429    2.143    0.000    3.714 
#    0.000    6.429    0.000    0.000    0.000    0.000 
#    0.000    0.000    0.000    0.000    0.000    0.000 
#
# Total GULP energy -156363.533689 kJ/mol
# GULP energy per Si atom -5584.411917 kJ/mol
# Density = 2.366408 g / cm^3
# Si number density = 23.718064 Si / 1000 Ang^3
#
#
#
# Elastic Constant Matrix: (Units=GPa)
#
#
# Indices 1 2 3 4 5 6 
#
# 1 76.8235 6.7805 -8.9639 0.0000 -25.6001 0.0000
# 2 6.7805 63.5135 -0.9042 0.0000 2.4345 0.0000
# 3 -8.9639 -0.9042 42.3622 0.0000 -18.7310 0.0000
# 4 0.0000 0.0000 0.0000 13.6790 0.0000 -9.2137
# 5 -25.6001 2.4345 -18.7310 0.0000 41.7121 0.0000
# 6 0.0000 0.0000 0.0000 -9.2137 0.0000 18.6328
#
#
#
# Elastic Compliance Matrix: (Units=1/GPa)
#
#
# Indices 1 2 3 4 5 6 
#
# 1 0.020977 -0.002777 0.012656 0.000000 0.018720 0.000000
# 2 -0.002777 0.016148 -0.001763 0.000000 -0.003438 0.000000
# 3 0.012656 -0.001763 0.037091 0.000000 0.024526 0.000000
# 4 0.000000 0.000000 0.000000 0.109614 0.000000 0.054203
# 5 0.018720 -0.003438 0.024526 0.000000 0.046677 0.000000
# 6 0.000000 0.000000 0.000000 0.054203 0.000000 0.080472
#
#
# Mechanical properties :
#
#
# Convention : Reuss Voigt Hill
#
# Bulk Modulus (GPa) = 11.05600 19.61379 15.33490
# Shear Modulus (GPa) = 15.38957 27.19057 21.29007
#
# Velocity S-wave (km/s) = 2.55003 3.38954 2.99930
# Velocity P-wave (km/s) = 3.65263 4.85861 4.29813
#
# Compressibility (1/GPa) = 0.09044860
#
# Stress axis : x y z
#
# Youngs Moduli (GPa) = 47.67201 61.92785 26.96065
#
# Poissons Ratio (x) = 0.17196 -0.34123
# Poissons Ratio (y) = 0.13237 0.04754
# Poissons Ratio (z) = -0.60336 0.10919
#
# Static dielectric constant tensor:
#      x y z
#    x 1.960110 0.000000 -0.028170 
#    y 0.000000 1.883350 0.000000 
#    z -0.028170 0.000000 1.886410 
# 
# From -- ./inp_files/237404.got.cif
#   From: 2010.05.17/outbox.cif.g08.bks.cpg/sg12_119_cif.got.tgz:237404.got - 2010.06.03 13:09:07.
