data_PCOD9179747
_publ_section_title
;
Structure prediction by ZEFSAII (Michael W. Deem and Ramdas Pophale) SiO2 
 PCOD9179747
Probable space group: C 2/M
;
_chemical_formula_sum "Si O2"
_cell_formula_units_Z 44
_cell_length_a 9.128073
_cell_length_b 25.988548
_cell_length_c 11.137593
_cell_angle_alpha 90.000000
_cell_angle_beta 62.762965
_cell_angle_gamma 90.000000
_cell_volume 2349.163252
_symmetry_space_group_name_H-M "C 2/M"
_symmetry_group_IT_number 12
_symmetry_cell_setting 'monoclinic'
loop_
_space_group_symop_operation_xyz
x,y,z
-x,y,-z
-x,-y,-z
x,-y,z
1/2+x,1/2+y,z
1/2-x,1/2+y,-z
1/2-x,1/2-y,-z
1/2+x,1/2-y,z
loop_
_atom_site_type_symbol
_atom_site_label
_atom_site_fract_x
_atom_site_fract_y
_atom_site_fract_z
Si Si1 0.184992 0.862352 0.729614
Si Si2 0.500000 0.823854 0.000000
Si Si3 0.160868 0.839437 0.224485
Si Si4 0.899419 0.718831 0.785273
Si Si5 0.189438 0.349289 0.589078
Si Si6 0.048018 0.442433 0.341266
O O1 0.252271 0.817190 0.790738
O O2 0.250163 0.849976 0.570051
O O3 0.274743 0.914968 0.734212
O O4 0.989738 0.864645 0.789352
O O5 0.339513 0.854106 0.105124
O O6 0.563123 0.791086 0.089297
O O7 0.138726 0.778007 0.220463
O O8 0.170084 0.848935 0.363329
O O9 0.064557 0.698519 0.656082
O O10 0.080798 0.400188 0.656984
O O11 0.040956 0.500000 0.293502
O O12 0.000000 0.445983 0.500000
#
# Coordination Sequence:
#
# PCOD9179747 Si02
#       6
#     8   4   8   8   8   8
#     4  10  19  31  51  78 101 128 167 200 241 301
#     4  10  22  36  46  66  99 138 179 206 236 278
#     4  11  21  32  48  71 102 135 166 207 242 280
#     4  10  20  33  50  71 101 137 167 201 242 286
#     4   9  19  32  48  77 106 129 161 195 247 306
#     4   8  15  31  52  72  99 130 158 196 245 297
#
# _framework density 18.730073999999998
#
# number of rings (size 3 to 8) (size 9 to 14) (size 15 to 20)
#    0.000    2.364    0.000    4.909    0.000    5.091 
#    0.000    0.909    0.000    4.364    0.000   75.091 
#    0.000    0.000    0.000    0.000    0.000    0.000 
#
# Total GULP energy -122712.301240 kJ/mol
# GULP energy per Si atom -5577.831875 kJ/mol
# Density = 1.868744 g / cm^3
# Si number density = 18.730074 Si / 1000 Ang^3
#
#
#
# Elastic Constant Matrix: (Units=GPa)
#
#
# Indices 1 2 3 4 5 6 
#
# 1 138.8894 34.6541 30.3453 0.0000 5.3596 0.0000
# 2 34.6541 62.1997 20.2030 0.0000 -7.8810 0.0000
# 3 30.3453 20.2030 58.7826 0.0000 5.8950 0.0000
# 4 0.0000 0.0000 0.0000 4.2724 0.0000 -2.0698
# 5 5.3596 -7.8810 5.8950 0.0000 35.4220 0.0000
# 6 0.0000 0.0000 0.0000 -2.0698 0.0000 -14.6510
#
#
#
# Elastic Compliance Matrix: (Units=1/GPa)
#
#
# Indices 1 2 3 4 5 6 
#
# 1 0.008988 -0.004265 -0.002992 0.000000 -0.001811 0.000000
# 2 -0.004265 0.021094 -0.005678 0.000000 0.006283 0.000000
# 3 -0.002992 -0.005678 0.020939 0.000000 -0.004295 0.000000
# 4 0.000000 0.000000 0.000000 0.219070 0.000000 -0.030949
# 5 -0.001811 0.006283 -0.004295 0.000000 0.030618 0.000000
# 6 0.000000 0.000000 0.000000 -0.030949 0.000000 -0.063882
#
#
# Mechanical properties :
#
#
# Convention : Reuss Voigt Hill
#
# Bulk Modulus (GPa) = 39.76216 47.80850 43.78533
# Shear Modulus (GPa) = 18.44473 16.65327 17.54900
#
# Velocity S-wave (km/s) = 3.14150 2.98505 3.06427
# Velocity P-wave (km/s) = 5.86804 6.12054 5.99562
#
# Compressibility (1/GPa) = 0.02514954
#
# Stress axis : x y z
#
# Youngs Moduli (GPa) = 111.26214 47.40700 47.75809
#
# Poissons Ratio (x) = 0.20219 0.14291
# Poissons Ratio (y) = 0.47453 0.27118
# Poissons Ratio (z) = 0.33293 0.26919
#
# Static dielectric constant tensor:
#      x y z
#    x 1.684670 0.000000 -0.024530 
#    y 0.000000 1.621600 0.000000 
#    z -0.024530 0.000000 1.687550 
# 
# From -- ./inp_files/121759.got.cif
#   From: 2010.05.17/outbox.cif.g08.bks.cpg/sg12_61_cif.got.tgz:121759.got - 2010.06.03 13:09:07.
