data_PCOD9179267
_publ_section_title
;
Structure prediction by ZEFSAII (Michael W. Deem and Ramdas Pophale) SiO2 
 PCOD9179267
Probable space group: C 2/M
;
_chemical_formula_sum "Si O2"
_cell_formula_units_Z 56
_cell_length_a 14.570301
_cell_length_b 16.530476
_cell_length_c 14.303788
_cell_angle_alpha 90.000000
_cell_angle_beta 120.339265
_cell_angle_gamma 90.000000
_cell_volume 2973.313482
_symmetry_space_group_name_H-M "C 2/M"
_symmetry_group_IT_number 12
_symmetry_cell_setting 'monoclinic'
loop_
_space_group_symop_operation_xyz
x,y,z
-x,y,-z
-x,-y,-z
x,-y,z
1/2+x,1/2+y,z
1/2-x,1/2+y,-z
1/2-x,1/2-y,-z
1/2+x,1/2-y,z
loop_
_atom_site_type_symbol
_atom_site_label
_atom_site_fract_x
_atom_site_fract_y
_atom_site_fract_z
Si Si1 0.523114 0.598402 0.660407
Si Si2 0.127340 0.596473 0.872315
Si Si3 0.669923 0.401114 0.563024
Si Si4 0.022476 0.902797 0.870933
Si Si5 0.390133 0.905502 0.737037
Si Si6 0.126888 0.337126 0.074388
Si Si7 0.170234 0.156513 0.114682
O O1 0.523648 0.500000 0.662435
O O2 0.407580 0.623231 0.561186
O O3 0.609975 0.622683 0.628168
O O4 0.543846 0.624908 0.776469
O O5 0.120407 0.500000 0.879362
O O6 0.215133 0.617880 0.841290
O O7 0.009006 0.628894 0.787781
O O8 0.161451 0.630449 0.991404
O O9 0.672645 0.500000 0.564127
O O10 0.790936 0.371071 0.628153
O O11 0.903252 0.879086 0.841148
O O12 0.034284 0.000000 0.884011
O O13 0.102279 0.863007 0.985878
O O14 0.360679 0.896979 0.831830
O O15 0.397644 0.000000 0.717344
O O16 0.179599 0.252508 0.126851
O O17 0.000000 0.322409 0.000000
#
# Coordination Sequence:
#
# PCOD9179267 Si02
#       7
#     8   8   8   8   8   8   8
#     4   8  15  27  48  75  99 122 159 209 258 293
#     4  10  20  32  48  70  99 135 170 203 239 293
#     4   8  14  28  48  74 100 122 158 211 257 293
#     4  10  19  31  49  72  99 134 166 204 247 294
#     4   9  18  31  50  73 100 130 162 203 250 298
#     4  10  19  33  47  70 101 131 169 203 250 290
#     4  11  20  33  47  70 104 136 169 201 239 295
#
# _framework density 18.834205999999998
#
# number of rings (size 3 to 8) (size 9 to 14) (size 15 to 20)
#    0.000    2.571    1.429    3.429    2.000    1.714 
#    0.000    0.000    0.000    1.714    0.000    5.000 
#    0.000    0.000    0.000    0.000    0.000    0.000 
#
# Total GULP energy -156090.159762 kJ/mol
# GULP energy per Si atom -5574.648563 kJ/mol
# Density = 1.879134 g / cm^3
# Si number density = 18.834206 Si / 1000 Ang^3
#
#
#
# Elastic Constant Matrix: (Units=GPa)
#
#
# Indices 1 2 3 4 5 6 
#
# 1 52.9361 -2.4978 8.2308 0.0000 10.0373 0.0000
# 2 -2.4978 16.8814 -9.2936 0.0000 -2.7851 0.0000
# 3 8.2308 -9.2936 43.7569 0.0000 2.7468 0.0000
# 4 0.0000 0.0000 0.0000 -7.9068 0.0000 8.6401
# 5 10.0373 -2.7851 2.7468 0.0000 28.3005 0.0000
# 6 0.0000 0.0000 0.0000 8.6401 0.0000 21.8370
#
#
#
# Elastic Compliance Matrix: (Units=1/GPa)
#
#
# Indices 1 2 3 4 5 6 
#
# 1 0.020762 0.000006 -0.003463 0.000000 -0.007027 0.000000
# 2 0.000006 0.067865 0.014079 0.000000 0.005310 0.000000
# 3 -0.003463 0.014079 0.026493 0.000000 0.000042 0.000000
# 4 0.000000 0.000000 0.000000 -0.088297 0.000000 0.034936
# 5 -0.007027 0.005310 0.000042 0.000000 0.038346 0.000000
# 6 0.000000 0.000000 0.000000 0.034936 0.000000 0.031971
#
#
# Mechanical properties :
#
#
# Convention : Reuss Voigt Hill
#
# Bulk Modulus (GPa) = 7.33329 11.82813 9.58071
# Shear Modulus (GPa) = 41.20383 16.25514 28.72948
#
# Velocity S-wave (km/s) = 4.68237 2.94098 3.90986
# Velocity P-wave (km/s) = 5.75629 4.22212 5.04783
#
# Compressibility (1/GPa) = 0.13636445
#
# Stress axis : x y z
#
# Youngs Moduli (GPa) = 48.16541 14.73519 37.74646
#
# Poissons Ratio (x) = -0.00009 0.13071
# Poissons Ratio (y) = -0.00030 -0.53144
# Poissons Ratio (z) = 0.16679 -0.20746
#
# Static dielectric constant tensor:
#      x y z
#    x 1.681460 0.000000 0.031580 
#    y 0.000000 1.648870 0.000000 
#    z 0.031580 0.000000 1.659750 
# 
# From -- ./inp_files/216008.got.cif
#   From: 2010.05.17/outbox.cif.g08.bks.cpg/sg12_109_cif.got.tgz:216008.got - 2010.06.03 13:09:07.
