data_PCOD9179646
_publ_section_title
;
Structure prediction by ZEFSAII (Michael W. Deem and Ramdas Pophale) SiO2 
 PCOD9179646
Probable space group: C 2/M
;
_chemical_formula_sum "Si O2"
_cell_formula_units_Z 56
_cell_length_a 19.796176
_cell_length_b 8.991303
_cell_length_c 27.936422
_cell_angle_alpha 90.000000
_cell_angle_beta 143.899135
_cell_angle_gamma 90.000000
_cell_volume 2929.839072
_symmetry_space_group_name_H-M "C 2/M"
_symmetry_group_IT_number 12
_symmetry_cell_setting 'monoclinic'
loop_
_space_group_symop_operation_xyz
x,y,z
-x,y,-z
-x,-y,-z
x,-y,z
1/2+x,1/2+y,z
1/2-x,1/2+y,-z
1/2-x,1/2-y,-z
1/2+x,1/2-y,z
loop_
_atom_site_type_symbol
_atom_site_label
_atom_site_fract_x
_atom_site_fract_y
_atom_site_fract_z
Si Si1 0.055468 0.824199 0.914567
Si Si2 0.016218 0.677302 0.789536
Si Si3 0.044235 0.328574 0.470014
Si Si4 0.177683 0.826776 0.681315
Si Si5 0.864442 0.673658 0.868889
Si Si6 0.279061 0.321384 0.644478
Si Si7 0.268602 0.676662 0.906224
O O1 0.034590 0.734629 0.854181
O O2 0.960631 0.772239 0.898485
O O3 0.045080 0.000000 0.898836
O O4 0.176203 0.795674 0.010061
O O5 0.000532 0.500000 0.781212
O O6 0.134049 0.712321 0.829606
O O7 0.902720 0.754430 0.704208
O O8 0.039947 0.500000 0.451536
O O9 0.175889 0.277860 0.549374
O O10 0.000000 0.326063 0.500000
O O11 0.951770 0.232516 0.388844
O O12 0.250701 0.810680 0.771164
O O13 0.241311 0.737565 0.675287
O O14 0.176494 0.000000 0.666917
O O15 0.898191 0.500000 0.888066
O O16 0.835555 0.730553 0.904964
O O17 0.282653 0.500000 0.647930
O O18 0.282730 0.500000 0.904724
#
# Coordination Sequence:
#
# PCOD9179646 Si02
#       7
#     8   8   8   8   8   8   8
#     4  11  22  38  60  82 107 143 185 228 276 329
#     4  11  22  37  57  82 112 143 182 230 275 325
#     4   8  16  29  47  75 108 139 176 219 266 320
#     4  10  19  31  50  79 111 141 177 223 272 319
#     4  11  23  37  56  83 113 145 183 228 273 322
#     4  10  19  32  52  79 109 143 180 220 269 325
#     4  10  24  41  56  79 110 146 186 227 275 329
#
# _framework density 19.113676999999999
#
# number of rings (size 3 to 8) (size 9 to 14) (size 15 to 20)
#    0.000    1.857    1.429    3.857    0.000    8.857 
#    0.000    0.000    0.000    0.857    0.000    0.000 
#    0.000    0.000    0.000    0.000    0.000    0.000 
#
# Total GULP energy -156362.023587 kJ/mol
# GULP energy per Si atom -5584.357985 kJ/mol
# Density = 1.907017 g / cm^3
# Si number density = 19.113677 Si / 1000 Ang^3
#
#
#
# Elastic Constant Matrix: (Units=GPa)
#
#
# Indices 1 2 3 4 5 6 
#
# 1 23.6255 0.1085 -9.6608 0.0000 6.3914 0.0001
# 2 0.1085 35.9592 20.7132 0.0001 6.5950 0.0002
# 3 -9.6608 20.7132 72.0345 0.0000 23.6515 0.0000
# 4 0.0000 0.0001 0.0000 48.4384 0.0000 41.8854
# 5 6.3914 6.5950 23.6515 0.0000 22.7422 0.0000
# 6 0.0001 0.0002 0.0000 41.8854 0.0000 136.1825
#
#
#
# Elastic Compliance Matrix: (Units=1/GPa)
#
#
# Indices 1 2 3 4 5 6 
#
# 1 0.062816 -0.006319 0.023440 0.000000 -0.040198 0.000000
# 2 -0.006319 0.033969 -0.012093 0.000000 0.004502 0.000000
# 3 0.023440 -0.012093 0.032670 0.000000 -0.037057 0.000000
# 4 0.000000 0.000000 0.000000 0.028125 0.000000 -0.008650
# 5 -0.040198 0.004502 -0.037057 0.000000 0.092501 0.000000
# 6 0.000000 0.000000 0.000000 -0.008650 0.000000 0.010004
#
#
# Mechanical properties :
#
#
# Convention : Reuss Voigt Hill
#
# Bulk Modulus (GPa) = 7.16794 17.10458 12.13626
# Shear Modulus (GPa) = 16.86154 49.50317 33.18236
#
# Velocity S-wave (km/s) = 2.97336 5.09466 4.17112
# Velocity P-wave (km/s) = 3.94286 6.60119 5.43700
#
# Compressibility (1/GPa) = 0.13951010
#
# Stress axis : x y z
#
# Youngs Moduli (GPa) = 15.91955 29.43891 30.60879
#
# Poissons Ratio (x) = 0.18603 -0.71747
# Poissons Ratio (y) = 0.10060 0.37016
# Poissons Ratio (z) = -0.37315 0.35601
#
# Static dielectric constant tensor:
#      x y z
#    x 1.638270 0.000000 0.027490 
#    y 0.000000 1.639700 0.000000 
#    z 0.027490 0.000000 1.697960 
# 
# From -- ./inp_files/275125.got.cif
#   From: 2010.05.17/outbox.cif.g08.bks.cpg/sg12_138_cif.got.tgz:275125.got - 2010.06.03 13:09:07.
