data_PCOD9179562
_publ_section_title
;
Structure prediction by ZEFSAII (Michael W. Deem and Ramdas Pophale) SiO2 
 PCOD9179562
Probable space group: C 2/M
;
_chemical_formula_sum "Si O2"
_cell_formula_units_Z 48
_cell_length_a 18.885608
_cell_length_b 28.988494
_cell_length_c 5.145145
_cell_angle_alpha 90.000000
_cell_angle_beta 67.911547
_cell_angle_gamma 90.000000
_cell_volume 2610.048738
_symmetry_space_group_name_H-M "C 2/M"
_symmetry_group_IT_number 12
_symmetry_cell_setting 'monoclinic'
loop_
_space_group_symop_operation_xyz
x,y,z
-x,y,-z
-x,-y,-z
x,-y,z
1/2+x,1/2+y,z
1/2-x,1/2+y,-z
1/2-x,1/2-y,-z
1/2+x,1/2-y,z
loop_
_atom_site_type_symbol
_atom_site_label
_atom_site_fract_x
_atom_site_fract_y
_atom_site_fract_z
Si Si1 0.092806 0.552660 0.876858
Si Si2 0.592526 0.110537 0.378962
Si Si3 0.946063 0.851444 0.825364
Si Si4 0.055348 0.950866 0.174271
Si Si5 0.840586 0.231279 0.146739
Si Si6 0.667566 0.790433 0.358391
O O1 0.119239 0.500000 0.880373
O O2 0.114511 0.574030 0.570967
O O3 0.115594 0.587921 0.072944
O O4 0.000000 0.551084 0.000000
O O5 0.500000 0.115874 0.500000
O O6 0.629457 0.159616 0.396463
O O7 0.903870 0.901311 0.867670
O O8 0.000000 0.845194 0.500000
O O9 0.892121 0.808858 0.957948
O O10 0.000000 0.854551 0.000000
O O11 0.000000 0.951051 0.500000
O O12 0.098576 0.000000 0.112856
O O13 0.000000 0.951030 0.000000
O O14 0.757049 0.209341 0.311708
O O15 0.868321 0.256300 0.373171
O O16 0.835586 0.269021 0.925298
#
# Coordination Sequence:
#
# PCOD9179562 Si02
#       6
#     8   8   8   8   8   8
#     4   9  17  30  49  74 103 131 161 200 248 300
#     4  10  19  31  50  76 100 128 168 210 247 286
#     4  10  19  31  50  76  99 124 162 205 247 287
#     4   8  14  25  42  65  92 119 148 186 234 286
#     4  10  21  36  51  70  98 135 170 203 250 304
#     4  10  21  36  52  70  98 136 172 203 248 303
#
# _framework density 18.390463
#
# number of rings (size 3 to 8) (size 9 to 14) (size 15 to 20)
#    0.000    2.500    0.000    2.500    0.000    4.000 
#    0.000    0.000    0.000    2.000    0.000    9.333 
#    0.000    0.000    0.000    0.000    0.000    0.000 
#
# Total GULP energy -133642.288566 kJ/mol
# GULP energy per Si atom -5568.428690 kJ/mol
# Density = 1.834861 g / cm^3
# Si number density = 18.390463 Si / 1000 Ang^3
#
#
#
# Elastic Constant Matrix: (Units=GPa)
#
#
# Indices 1 2 3 4 5 6 
#
# 1 22.6660 30.5641 20.5230 0.0000 10.8223 0.0000
# 2 30.5641 140.9564 26.5229 0.0000 -8.2112 0.0000
# 3 20.5230 26.5229 91.1545 0.0000 25.0881 0.0000
# 4 0.0000 0.0000 0.0000 20.0814 0.0000 16.5329
# 5 10.8223 -8.2112 25.0881 0.0000 25.0030 0.0000
# 6 0.0000 0.0000 0.0000 16.5329 0.0000 6.6445
#
#
#
# Elastic Compliance Matrix: (Units=1/GPa)
#
#
# Indices 1 2 3 4 5 6 
#
# 1 0.104801 -0.025362 -0.001988 0.000000 -0.051696 0.000000
# 2 -0.025362 0.014475 -0.003911 0.000000 0.019656 0.000000
# 3 -0.001988 -0.003911 0.017508 0.000000 -0.017991 0.000000
# 4 0.000000 0.000000 0.000000 -0.047493 0.000000 0.118171
# 5 -0.051696 0.019656 -0.017991 0.000000 0.086879 0.000000
# 6 0.000000 0.000000 0.000000 0.118171 0.000000 -0.143534
#
#
# Mechanical properties :
#
#
# Convention : Reuss Voigt Hill
#
# Bulk Modulus (GPa) = 13.46593 45.55521 29.51057
# Shear Modulus (GPa) = 41.69741 22.15692 31.92716
#
# Velocity S-wave (km/s) = 4.76682 3.47480 4.17114
# Velocity P-wave (km/s) = 6.13473 6.39717 6.26733
#
# Compressibility (1/GPa) = 0.07426148
#
# Stress axis : x y z
#
# Youngs Moduli (GPa) = 9.54187 69.08618 57.11777
#
# Poissons Ratio (x) = 1.75215 0.11354
# Poissons Ratio (y) = 0.24200 0.22341
# Poissons Ratio (z) = 0.01897 0.27022
#
# Static dielectric constant tensor:
#      x y z
#    x 1.618520 0.000000 0.005410 
#    y 0.000000 1.683700 0.000000 
#    z 0.005410 0.000000 1.628760 
# 
# From -- ./inp_files/21563.got.cif
#   From: 2010.05.17/outbox.cif.g08.bks.cpg/sg12_11_cif.got.tgz:21563.got - 2010.06.03 13:09:07.
