data_PCOD9179271
_publ_section_title
;
Structure prediction by ZEFSAII (Michael W. Deem and Ramdas Pophale) SiO2 
 PCOD9179271
Probable space group: C 2/M
;
_chemical_formula_sum "Si O2"
_cell_formula_units_Z 48
_cell_length_a 24.167495
_cell_length_b 14.035303
_cell_length_c 8.952038
_cell_angle_alpha 90.000000
_cell_angle_beta 90.000031
_cell_angle_gamma 90.000000
_cell_volume 3036.514416
_symmetry_space_group_name_H-M "C 2/M"
_symmetry_group_IT_number 12
_symmetry_cell_setting 'monoclinic'
loop_
_space_group_symop_operation_xyz
x,y,z
-x,y,-z
-x,-y,-z
x,-y,z
1/2+x,1/2+y,z
1/2-x,1/2+y,-z
1/2-x,1/2-y,-z
1/2+x,1/2-y,z
loop_
_atom_site_type_symbol
_atom_site_label
_atom_site_fract_x
_atom_site_fract_y
_atom_site_fract_z
Si Si1 0.440908 0.387928 0.571645
Si Si2 0.336859 0.285290 0.071763
Si Si3 0.222127 0.389869 0.429271
Si Si4 0.836860 0.214710 0.428237
Si Si5 0.277873 0.110130 0.929270
Si Si6 0.059092 0.887928 0.071645
O O1 0.500000 0.362631 0.500000
O O2 0.430736 0.500000 0.537542
O O3 0.391483 0.326169 0.504376
O O4 0.443401 0.377335 0.750000
O O5 0.343530 0.283213 0.250000
O O6 0.284344 0.353641 0.036410
O O7 0.319402 0.181919 0.010649
O O8 0.391483 0.326169 0.995624
O O9 0.215359 0.500000 0.471438
O O10 0.180598 0.318082 0.510650
O O11 0.284344 0.353641 0.463590
O O12 0.214981 0.381427 0.250000
O O13 0.284642 0.000000 0.971437
O O14 0.069263 0.000000 0.037542
O O15 0.000000 0.862629 0.000000
#
# Coordination Sequence:
#
# PCOD9179271 Si02
#       6
#     8   8   8   8   8   8
#     4  10  20  33  50  72  98 128 161 197 238 285
#     4  10  19  31  49  73 100 128 160 199 241 285
#     4   9  18  32  49  70  98 131 164 198 237 282
#     4  10  19  31  49  73 100 128 160 199 241 285
#     4   9  18  32  49  70  98 131 164 198 237 282
#     4  10  20  33  50  72  98 128 161 197 238 285
#
# _framework density 15.807598
#
# number of rings (size 3 to 8) (size 9 to 14) (size 15 to 20)
#    0.000    2.333    0.000    3.000    0.000    5.333 
#    0.000    0.000    0.000    1.000    0.000    0.000 
#    0.000    0.000    0.000    0.000    0.000    0.000 
#
# Total GULP energy -133931.710854 kJ/mol
# GULP energy per Si atom -5580.487952 kJ/mol
# Density = 1.577162 g / cm^3
# Si number density = 15.807598 Si / 1000 Ang^3
#
#
#
# Elastic Constant Matrix: (Units=GPa)
#
#
# Indices 1 2 3 4 5 6 
#
# 1 143.7493 89.3593 67.3758 0.0000 -0.0007 0.0000
# 2 89.3593 132.1330 61.0783 0.0000 -0.0004 0.0000
# 3 67.3758 61.0783 56.6963 0.0000 -0.0006 0.0000
# 4 0.0000 0.0000 0.0000 26.2623 0.0000 0.0000
# 5 -0.0007 -0.0004 -0.0006 0.0000 28.9874 0.0000
# 6 0.0000 0.0000 0.0000 0.0000 0.0000 24.3604
#
#
#
# Elastic Compliance Matrix: (Units=1/GPa)
#
#
# Indices 1 2 3 4 5 6 
#
# 1 0.016824 -0.004255 -0.015409 0.000000 0.000000 0.000000
# 2 -0.004255 0.016151 -0.012343 0.000000 0.000000 0.000000
# 3 -0.015409 -0.012343 0.049247 0.000000 0.000000 0.000000
# 4 0.000000 0.000000 0.000000 0.038077 0.000000 0.000000
# 5 0.000000 0.000000 0.000000 0.000000 0.034498 0.000000
# 6 0.000000 0.000000 0.000000 0.000000 0.000000 0.041050
#
#
# Mechanical properties :
#
#
# Convention : Reuss Voigt Hill
#
# Bulk Modulus (GPa) = 54.92285 85.35615 70.13950
# Shear Modulus (GPa) = 18.80186 23.57303 21.18744
#
# Velocity S-wave (km/s) = 3.45254 3.86586 3.66503
# Velocity P-wave (km/s) = 7.12133 8.60468 7.89791
#
# Compressibility (1/GPa) = 0.01820736
#
# Stress axis : x y z
#
# Youngs Moduli (GPa) = 59.43968 61.91452 20.30584
#
# Poissons Ratio (x) = 0.26343 0.31290
# Poissons Ratio (y) = 0.25290 0.25064
# Poissons Ratio (z) = 0.91591 0.76424
#
# Static dielectric constant tensor:
#      x y z
#    x 1.496580 0.000000 0.000000 
#    y 0.000000 1.510700 0.000000 
#    z 0.000000 0.000000 1.521280 
# 
# From -- ./inp_files/85133.got.cif
#   From: 2010.05.17/outbox.cif.g08.bks.cpg/sg12_43_cif.got.tgz:85133.got - 2010.06.03 13:09:07.
