data_PCOD9179249
_publ_section_title
;
Structure prediction by ZEFSAII (Michael W. Deem and Ramdas Pophale) SiO2 
 PCOD9179249
Probable space group: C 2/M
;
_chemical_formula_sum "Si O2"
_cell_formula_units_Z 52
_cell_length_a 19.142655
_cell_length_b 7.821679
_cell_length_c 19.381243
_cell_angle_alpha 90.000000
_cell_angle_beta 44.030897
_cell_angle_gamma 90.000000
_cell_volume 2016.960747
_symmetry_space_group_name_H-M "C 2/M"
_symmetry_group_IT_number 12
_symmetry_cell_setting 'monoclinic'
loop_
_space_group_symop_operation_xyz
x,y,z
-x,y,-z
-x,-y,-z
x,-y,z
1/2+x,1/2+y,z
1/2-x,1/2+y,-z
1/2-x,1/2-y,-z
1/2+x,1/2-y,z
loop_
_atom_site_type_symbol
_atom_site_label
_atom_site_fract_x
_atom_site_fract_y
_atom_site_fract_z
Si Si1 0.082218 0.697471 0.844804
Si Si2 0.204223 0.500000 0.086410
Si Si3 0.643446 0.791343 0.448032
Si Si4 0.854450 0.690985 0.000885
Si Si5 0.781596 0.698872 0.754214
Si Si6 0.851601 0.803409 0.349322
Si Si7 0.516902 0.699363 0.333159
O O1 0.085399 0.500000 0.821817
O O2 0.170832 0.722360 0.837497
O O3 0.112718 0.801522 0.755273
O O4 0.967270 0.731315 0.945063
O O5 0.281031 0.349637 0.061433
O O6 0.143092 0.649366 0.083888
O O7 0.671127 0.732463 0.351544
O O8 0.738382 0.733606 0.427424
O O9 0.542044 0.723068 0.553013
O O10 0.638035 0.000000 0.451654
O O11 0.181179 0.500000 0.949665
O O12 0.763928 0.500000 0.756947
O O13 0.874641 0.715285 0.740328
O O14 0.938346 0.722542 0.334227
O O15 0.843352 0.000000 0.378188
O O16 0.534075 0.500000 0.306522
#
# Coordination Sequence:
#
# PCOD9179249 Si02
#       7
#     8   4   8   8   8   8   8
#     4  10  19  31  49  72  98 125 156 193 229 281
#     4   8  14  26  44  70 104 128 148 194 232 274
#     4   9  18  33  49  64  85 117 158 203 248 291
#     4   8  15  26  43  71 102 128 156 188 233 279
#     4  10  21  34  47  66  91 124 160 193 243 292
#     4   9  20  34  46  66  93 124 158 192 242 291
#     4  11  21  32  47  66  91 120 160 205 239 282
#
# _framework density 25.781362999999999
#
# number of rings (size 3 to 8) (size 9 to 14) (size 15 to 20)
#    0.462    2.154    0.000    3.231    2.154    6.154 
#    0.000    0.000    0.000    0.000    0.000    0.000 
#    0.000    7.385    0.000    0.000    0.000    0.000 
#
# Total GULP energy -144847.673461 kJ/mol
# GULP energy per Si atom -5571.064364 kJ/mol
# Density = 2.572268 g / cm^3
# Si number density = 25.781363 Si / 1000 Ang^3
#
#
#
# Elastic Constant Matrix: (Units=GPa)
#
#
# Indices 1 2 3 4 5 6 
#
# 1 183.6568 22.1684 47.9803 0.0000 -44.9351 0.0001
# 2 22.1684 63.7978 26.5724 -0.0001 -24.2983 0.0002
# 3 47.9803 26.5724 105.5163 0.0000 -34.7715 0.0000
# 4 0.0000 -0.0001 0.0000 15.9623 0.0000 -5.0109
# 5 -44.9351 -24.2983 -34.7715 0.0000 49.4343 0.0000
# 6 0.0001 0.0002 0.0000 -5.0109 0.0000 34.7756
#
#
#
# Elastic Compliance Matrix: (Units=1/GPa)
#
#
# Indices 1 2 3 4 5 6 
#
# 1 0.007172 0.000259 -0.001479 0.000000 0.005606 0.000000
# 2 0.000259 0.019716 -0.002358 0.000000 0.008267 0.000000
# 3 -0.001479 -0.002358 0.012911 0.000000 0.006578 0.000000
# 4 0.000000 0.000000 0.000000 0.065615 0.000000 0.009455
# 5 0.005606 0.008267 0.006578 0.000000 0.034015 0.000000
# 6 0.000000 0.000000 0.000000 0.009455 0.000000 0.030118
#
#
# Mechanical properties :
#
#
# Convention : Reuss Voigt Hill
#
# Bulk Modulus (GPa) = 30.63532 60.71256 45.67394
# Shear Modulus (GPa) = 26.65463 37.11777 31.88620
#
# Velocity S-wave (km/s) = 3.21888 3.79847 3.52062
# Velocity P-wave (km/s) = 5.07183 6.54507 5.85497
#
# Compressibility (1/GPa) = 0.03264207
#
# Stress axis : x y z
#
# Youngs Moduli (GPa) = 139.43782 50.72141 77.45108
#
# Poissons Ratio (x) = -0.01314 0.11455
# Poissons Ratio (y) = -0.03613 0.18266
# Poissons Ratio (z) = 0.20622 0.11962
#
# Static dielectric constant tensor:
#      x y z
#    x 2.106170 0.000000 0.110160 
#    y 0.000000 1.991120 0.000000 
#    z 0.110160 0.000000 2.106560 
# 
# From -- ./inp_files/236699.got.cif
#   From: 2010.05.17/outbox.cif.g08.bks.cpg/sg12_119_cif.got.tgz:236699.got - 2010.06.03 13:09:07.
