data_PCOD9179809
_publ_section_title
;
Structure prediction by ZEFSAII (Michael W. Deem and Ramdas Pophale) SiO2 
 PCOD9179809
Probable space group: C 2/M
;
_chemical_formula_sum "Si O2"
_cell_formula_units_Z 56
_cell_length_a 29.391007
_cell_length_b 7.746072
_cell_length_c 11.117923
_cell_angle_alpha 90.000000
_cell_angle_beta 78.654974
_cell_angle_gamma 90.000000
_cell_volume 2481.702409
_symmetry_space_group_name_H-M "C 2/M"
_symmetry_group_IT_number 12
_symmetry_cell_setting 'monoclinic'
loop_
_space_group_symop_operation_xyz
x,y,z
-x,y,-z
-x,-y,-z
x,-y,z
1/2+x,1/2+y,z
1/2-x,1/2+y,-z
1/2-x,1/2-y,-z
1/2+x,1/2-y,z
loop_
_atom_site_type_symbol
_atom_site_label
_atom_site_fract_x
_atom_site_fract_y
_atom_site_fract_z
Si Si1 0.550061 0.802008 0.454566
Si Si2 0.054477 0.793552 0.711231
Si Si3 0.195980 0.294513 0.526936
Si Si4 0.854669 0.711886 0.688494
Si Si5 0.530480 0.207767 0.096191
Si Si6 0.864093 0.704521 0.941760
Si Si7 0.357651 0.702436 0.202217
O O1 0.500000 0.715394 0.500000
O O2 0.569131 0.797178 0.580669
O O3 0.591602 0.731272 0.353806
O O4 0.542191 0.000000 0.418774
O O5 0.090562 0.729607 0.793664
O O6 0.001827 0.750466 0.773098
O O7 0.059325 0.000000 0.695280
O O8 0.190537 0.500000 0.529448
O O9 0.250000 0.250000 0.500000
O O10 0.173340 0.226839 0.413960
O O11 0.172347 0.231406 0.662599
O O12 0.854000 0.500000 0.682644
O O13 0.840300 0.766767 0.830514
O O14 0.532583 0.000000 0.085237
O O15 0.500000 0.275967 0.000000
O O16 0.582958 0.274597 0.075276
O O17 0.868951 0.500000 0.922853
O O18 0.840380 0.729152 0.083293
O O19 0.361814 0.500000 0.181978
#
# Coordination Sequence:
#
# PCOD9179809 Si02
#       7
#     8   8   8   8   8   8   8
#     4  10  19  34  57  82 114 156 204 248 290 349
#     4  11  22  33  50  78 118 159 201 248 293 346
#     4  11  23  43  70  95 119 151 196 251 310 368
#     4   9  19  36  60  90 120 153 196 249 303 354
#     4  10  19  31  51  79 114 160 211 250 285 341
#     4  10  20  37  60  87 120 160 204 249 298 350
#     4  11  23  39  59  88 122 158 198 242 295 359
#
# _framework density 22.565156000000002
#
# number of rings (size 3 to 8) (size 9 to 14) (size 15 to 20)
#    0.000    1.714    2.857    2.143    0.000    4.571 
#    0.000    2.857    0.000    0.000    0.000    0.000 
#    0.000    0.000    0.000    0.000    0.000    0.000 
#
# Total GULP energy -156313.171116 kJ/mol
# GULP energy per Si atom -5582.613254 kJ/mol
# Density = 2.251380 g / cm^3
# Si number density = 22.565156 Si / 1000 Ang^3
#
#
#
# Elastic Constant Matrix: (Units=GPa)
#
#
# Indices 1 2 3 4 5 6 
#
# 1 88.0085 -2.2139 49.8058 0.0000 9.7717 0.0000
# 2 -2.2139 41.5816 -4.5186 0.0000 6.2615 0.0000
# 3 49.8058 -4.5186 166.3128 0.0000 32.3737 0.0000
# 4 0.0000 0.0000 0.0000 -34.1963 0.0000 -4.0616
# 5 9.7717 6.2615 32.3737 0.0000 27.8308 0.0000
# 6 0.0000 0.0000 0.0000 -4.0616 0.0000 14.4340
#
#
#
# Elastic Compliance Matrix: (Units=1/GPa)
#
#
# Indices 1 2 3 4 5 6 
#
# 1 0.013685 0.000310 -0.004060 0.000000 -0.000152 0.000000
# 2 0.000310 0.025589 0.002255 0.000000 -0.008489 0.000000
# 3 -0.004060 0.002255 0.009193 0.000000 -0.009775 0.000000
# 4 0.000000 0.000000 0.000000 -0.028297 0.000000 -0.007963
# 5 -0.000152 -0.008489 -0.009775 0.000000 0.049265 0.000000
# 6 0.000000 0.000000 0.000000 -0.007963 0.000000 0.067040
#
#
# Mechanical properties :
#
#
# Convention : Reuss Voigt Hill
#
# Bulk Modulus (GPa) = 21.98968 42.44996 32.21982
# Shear Modulus (GPa) = 32.33645 18.46900 25.40273
#
# Velocity S-wave (km/s) = 3.78964 2.86400 3.35886
# Velocity P-wave (km/s) = 5.37723 5.45799 5.41776
#
# Compressibility (1/GPa) = 0.04547588
#
# Stress axis : x y z
#
# Youngs Moduli (GPa) = 73.07272 39.07947 108.78179
#
# Poissons Ratio (x) = -0.01212 0.44169
# Poissons Ratio (y) = -0.02267 -0.24527
# Poissons Ratio (z) = 0.29670 -0.08811
#
# Static dielectric constant tensor:
#      x y z
#    x 1.846170 0.000000 0.063520 
#    y 0.000000 1.837930 0.000000 
#    z 0.063520 0.000000 1.914900 
# 
# From -- ./inp_files/186408.got.cif
#   From: 2010.05.17/outbox.cif.g08.bks.cpg/sg12_94_cif.got.tgz:186408.got - 2010.06.03 13:09:07.
