data_PCOD9179221
_publ_section_title
;
Structure prediction by ZEFSAII (Michael W. Deem and Ramdas Pophale) SiO2 
 PCOD9179221
Probable space group: C 2/M
;
_chemical_formula_sum "Si O2"
_cell_formula_units_Z 64
_cell_length_a 30.591599
_cell_length_b 8.747847
_cell_length_c 15.574342
_cell_angle_alpha 90.000000
_cell_angle_beta 79.321497
_cell_angle_gamma 90.000000
_cell_volume 4095.682065
_symmetry_space_group_name_H-M "C 2/M"
_symmetry_group_IT_number 12
_symmetry_cell_setting 'monoclinic'
loop_
_space_group_symop_operation_xyz
x,y,z
-x,y,-z
-x,-y,-z
x,-y,z
1/2+x,1/2+y,z
1/2-x,1/2+y,-z
1/2-x,1/2-y,-z
1/2+x,1/2-y,z
loop_
_atom_site_type_symbol
_atom_site_label
_atom_site_fract_x
_atom_site_fract_y
_atom_site_fract_z
Si Si1 0.560847 0.183401 0.620339
Si Si2 0.964488 0.815172 0.889928
Si Si3 0.405154 0.316975 0.570396
Si Si4 0.307024 0.683551 0.551762
Si Si5 0.063412 0.814631 0.915320
Si Si6 0.459607 0.182722 0.707501
Si Si7 0.709236 0.182011 0.630065
Si Si8 0.374081 0.316619 0.258119
O O1 0.571561 0.246154 0.522061
O O2 0.510697 0.224975 0.666011
O O3 0.595481 0.253010 0.675640
O O4 0.564917 0.000000 0.619128
O O5 0.949687 0.742957 0.806335
O O6 0.015975 0.771682 0.890452
O O7 0.962833 0.000000 0.884136
O O8 0.937489 0.766442 0.984967
O O9 0.409525 0.500000 0.565580
O O10 0.352749 0.278354 0.582494
O O11 0.427774 0.253907 0.647545
O O12 0.306406 0.500000 0.536977
O O13 0.305238 0.764463 0.460010
O O14 0.261418 0.723232 0.617575
O O15 0.103135 0.764359 0.839127
O O16 0.063765 0.000000 0.916492
O O17 0.456367 0.000000 0.706016
O O18 0.675755 0.259366 0.708512
O O19 0.704875 0.000000 0.637680
O O20 0.375149 0.500000 0.261343
#
# Coordination Sequence:
#
# PCOD9179221 Si02
#       8
#     8   8   8   8   8   8   8   8
#     4  11  22  34  46  67 100 134 165 199 237 280
#     4   9  16  32  52  70  92 126 166 200 238 281
#     4  11  22  35  52  70  91 128 173 207 235 278
#     4   9  19  34  49  69  94 124 164 203 238 286
#     4   8  16  29  50  73  95 123 161 204 238 279
#     4  11  23  35  47  69 101 132 163 201 244 287
#     4  10  19  31  49  71  98 127 155 196 249 291
#     4  11  19  30  49  74 100 129 163 197 236 287
#
# _framework density 15.626213999999999
#
# number of rings (size 3 to 8) (size 9 to 14) (size 15 to 20)
#    0.000    2.000    2.500    3.000    0.000    4.000 
#    0.000    2.500    0.000    0.000    0.000    0.875 
#    0.000    0.000    0.000    0.000    0.000    0.000 
#
# Total GULP energy -178541.769312 kJ/mol
# GULP energy per Si atom -5579.430291 kJ/mol
# Density = 1.559065 g / cm^3
# Si number density = 15.626214 Si / 1000 Ang^3
#
#
#
# Elastic Constant Matrix: (Units=GPa)
#
#
# Indices 1 2 3 4 5 6 
#
# 1 71.5423 29.6528 59.6415 0.0000 -9.9259 0.0000
# 2 29.6528 31.3117 31.4044 0.0000 -3.8212 0.0000
# 3 59.6415 31.4044 138.0821 0.0000 -13.2323 0.0000
# 4 0.0000 0.0000 0.0000 1.0450 0.0000 -10.1699
# 5 -9.9259 -3.8212 -13.2323 0.0000 23.9729 0.0000
# 6 0.0000 0.0000 0.0000 -10.1699 0.0000 18.8016
#
#
#
# Elastic Compliance Matrix: (Units=1/GPa)
#
#
# Indices 1 2 3 4 5 6 
#
# 1 0.029004 -0.019149 -0.007723 0.000000 0.004694 0.000000
# 2 -0.019149 0.054067 -0.004181 0.000000 -0.001618 0.000000
# 3 -0.007723 -0.004181 0.011781 0.000000 0.002639 0.000000
# 4 0.000000 0.000000 0.000000 -0.224421 0.000000 -0.121391
# 5 0.004694 -0.001618 0.002639 0.000000 0.044856 0.000000
# 6 0.000000 0.000000 0.000000 -0.121391 0.000000 -0.012474
#
#
# Mechanical properties :
#
#
# Convention : Reuss Voigt Hill
#
# Bulk Modulus (GPa) = 30.53644 53.59262 42.06453
# Shear Modulus (GPa) = -206.89935 16.77973 -95.05981
#
# Velocity S-wave (km/s) = -11.51923 3.28047 -7.80805
# Velocity P-wave (km/s) = 12.54350 6.97995 7.36952
#
# Compressibility (1/GPa) = 0.03274775
#
# Stress axis : x y z
#
# Youngs Moduli (GPa) = 34.47823 18.49556 84.87929
#
# Poissons Ratio (x) = 0.35417 0.65549
# Poissons Ratio (y) = 0.66022 0.35486
# Poissons Ratio (z) = 0.26626 0.07733
#
# Static dielectric constant tensor:
#      x y z
#    x 1.518400 0.000000 -0.025920 
#    y 0.000000 1.524880 0.000000 
#    z -0.025920 0.000000 1.509730 
# 
# From -- ./inp_files/248260.got.cif
#   From: 2010.05.17/outbox.cif.g08.bks.cpg/sg12_125_cif.got.tgz:248260.got - 2010.06.03 13:09:07.
