data_PCOD9179322
_publ_section_title
;
Structure prediction by ZEFSAII (Michael W. Deem and Ramdas Pophale) SiO2 
 PCOD9179322
Probable space group: C 2/M
;
_chemical_formula_sum "Si O2"
_cell_formula_units_Z 64
_cell_length_a 24.541746
_cell_length_b 14.859150
_cell_length_c 8.017038
_cell_angle_alpha 90.000000
_cell_angle_beta 96.222272
_cell_angle_gamma 90.000000
_cell_volume 2906.346103
_symmetry_space_group_name_H-M "C 2/M"
_symmetry_group_IT_number 12
_symmetry_cell_setting 'monoclinic'
loop_
_space_group_symop_operation_xyz
x,y,z
-x,y,-z
-x,-y,-z
x,-y,z
1/2+x,1/2+y,z
1/2-x,1/2+y,-z
1/2-x,1/2-y,-z
1/2+x,1/2-y,z
loop_
_atom_site_type_symbol
_atom_site_label
_atom_site_fract_x
_atom_site_fract_y
_atom_site_fract_z
Si Si1 0.935749 0.096876 0.003716
Si Si2 0.565015 0.785393 0.080372
Si Si3 0.780669 0.259430 0.770866
Si Si4 0.378217 0.399615 0.314695
Si Si5 0.518446 0.898845 0.338230
Si Si6 0.606209 0.898611 0.805786
Si Si7 0.276235 0.603279 0.023673
Si Si8 0.163129 0.724297 0.552868
O O1 0.917664 0.182630 0.893588
O O2 0.909217 0.000000 0.957377
O O3 0.926116 0.116608 0.196326
O O4 0.000000 0.088480 0.000000
O O5 0.560684 0.845161 0.242562
O O6 0.500000 0.781996 0.000000
O O7 0.606241 0.830234 0.961247
O O8 0.792889 0.167748 0.876129
O O9 0.821183 0.287083 0.635188
O O10 0.721452 0.239486 0.665611
O O11 0.771453 0.341061 0.897844
O O12 0.383622 0.500000 0.390160
O O13 0.370878 0.316672 0.434823
O O14 0.325397 0.400128 0.174399
O O15 0.500000 0.850184 0.500000
O O16 0.459704 0.908439 0.231324
O O17 0.539302 0.000000 0.382535
O O18 0.632289 0.853141 0.649673
O O19 0.627849 0.000000 0.839881
O O20 0.262866 0.500000 0.974130
#
# Coordination Sequence:
#
# PCOD9179322 Si02
#       8
#     8   8   8   8   8   8   8   8
#     4   9  16  27  47  75 102 128 164 206 244 280
#     4   9  16  29  50  72  96 129 166 199 238 285
#     4   9  20  35  53  74 101 132 160 206 257 300
#     4   9  17  31  52  74  99 132 169 206 243 292
#     4   9  18  33  49  69 100 135 168 199 240 293
#     4  10  19  31  49  74 100 128 163 204 243 288
#     4   9  18  35  55  74  98 132 169 199 242 304
#     4  10  19  34  51  75 104 127 163 209 255 298
#
# _framework density 22.020776000000001
#
# number of rings (size 3 to 8) (size 9 to 14) (size 15 to 20)
#    0.000    2.750    1.250    0.375    0.000    3.000 
#    2.250    2.500    0.000    1.875    0.000    0.000 
#    0.000    0.000    0.000    0.000    0.000    0.000 
#
# Total GULP energy -178427.805402 kJ/mol
# GULP energy per Si atom -5575.868919 kJ/mol
# Density = 2.197066 g / cm^3
# Si number density = 22.020776 Si / 1000 Ang^3
#
#
#
# Elastic Constant Matrix: (Units=GPa)
#
#
# Indices 1 2 3 4 5 6 
#
# 1 81.2313 26.5770 19.7777 0.0000 -23.3307 0.0000
# 2 26.5770 180.4017 68.3342 0.0000 -41.1514 0.0000
# 3 19.7777 68.3342 95.6166 0.0000 -45.1677 0.0000
# 4 0.0000 0.0000 0.0000 3.4360 0.0000 -4.7846
# 5 -23.3307 -41.1514 -45.1677 0.0000 36.7639 0.0000
# 6 0.0000 0.0000 0.0000 -4.7846 0.0000 0.9771
#
#
#
# Elastic Compliance Matrix: (Units=1/GPa)
#
#
# Indices 1 2 3 4 5 6 
#
# 1 0.015551 -0.000541 0.003684 0.000000 0.013789 0.000000
# 2 -0.000541 0.007926 -0.003631 0.000000 0.004067 0.000000
# 3 0.003684 -0.003631 0.027347 0.000000 0.031871 0.000000
# 4 0.000000 0.000000 0.000000 -0.050020 0.000000 -0.244928
# 5 0.013789 0.004067 0.031871 0.000000 0.079661 0.000000
# 6 0.000000 0.000000 0.000000 -0.244928 0.000000 -0.175895
#
#
# Mechanical properties :
#
#
# Convention : Reuss Voigt Hill
#
# Bulk Modulus (GPa) = 20.06127 65.18081 42.62104
# Shear Modulus (GPa) = -64.23699 24.40613 -19.91543
#
# Velocity S-wave (km/s) = -5.40689 3.33276 -3.01058
# Velocity P-wave (km/s) = 5.46345 6.66886 2.70411
#
# Compressibility (1/GPa) = 0.04984729
#
# Stress axis : x y z
#
# Youngs Moduli (GPa) = 64.30446 126.16370 36.56682
#
# Poissons Ratio (x) = 0.06824 -0.13470
# Poissons Ratio (y) = 0.03478 0.13279
# Poissons Ratio (z) = -0.23688 0.45814
#
# Static dielectric constant tensor:
#      x y z
#    x 1.870960 0.000000 0.051840 
#    y 0.000000 1.839560 0.000000 
#    z 0.051840 0.000000 1.837600 
# 
# From -- ./inp_files/111180.got.cif
#   From: 2010.05.17/outbox.cif.g08.bks.cpg/sg12_56_cif.got.tgz:111180.got - 2010.06.03 13:09:07.
