data_PCOD9179863
_publ_section_title
;
Structure prediction by ZEFSAII (Michael W. Deem and Ramdas Pophale) SiO2 
 PCOD9179863
Probable space group: C 2/M
;
_chemical_formula_sum "Si O2"
_cell_formula_units_Z 56
_cell_length_a 20.363580
_cell_length_b 8.492758
_cell_length_c 21.765195
_cell_angle_alpha 90.000000
_cell_angle_beta 125.725554
_cell_angle_gamma 90.000000
_cell_volume 3055.813839
_symmetry_space_group_name_H-M "C 2/M"
_symmetry_group_IT_number 12
_symmetry_cell_setting 'monoclinic'
loop_
_space_group_symop_operation_xyz
x,y,z
-x,y,-z
-x,-y,-z
x,-y,z
1/2+x,1/2+y,z
1/2-x,1/2+y,-z
1/2-x,1/2-y,-z
1/2+x,1/2-y,z
loop_
_atom_site_type_symbol
_atom_site_label
_atom_site_fract_x
_atom_site_fract_y
_atom_site_fract_z
Si Si1 0.409162 0.307943 0.454187
Si Si2 0.653641 0.810322 0.125235
Si Si3 0.755657 0.190397 0.298816
Si Si4 0.606450 0.312375 0.292706
Si Si5 0.497731 0.187640 0.874493
Si Si6 0.175058 0.186663 0.999844
Si Si7 0.340948 0.690063 0.547623
O O1 0.500000 0.249736 0.500000
O O2 0.411098 0.500000 0.454340
O O3 0.346268 0.262762 0.366517
O O4 0.376202 0.257979 0.502151
O O5 0.722142 0.770179 0.213117
O O6 0.567277 0.759133 0.108331
O O7 0.649755 0.000000 0.117792
O O8 0.675200 0.742587 0.070872
O O9 0.694157 0.269478 0.312954
O O10 0.748213 0.000000 0.301345
O O11 0.593765 0.500000 0.282872
O O12 0.543057 0.230210 0.212807
O O13 0.608823 0.259753 0.364818
O O14 0.586647 0.259225 0.928015
O O15 0.504336 0.000000 0.884246
O O16 0.179373 0.000000 0.000236
O O17 0.250000 0.250000 0.000000
O O18 0.339946 0.500000 0.548152
O O19 0.250000 0.750000 0.500000
#
# Coordination Sequence:
#
# PCOD9179863 Si02
#       7
#     8   8   8   8   8   8   8
#     4   9  17  31  51  76 107 145 190 230 270 327
#     4   9  19  36  59  87 113 146 191 235 280 336
#     4   9  17  32  55  80 108 147 188 228 277 332
#     4  10  19  31  51  84 114 141 183 237 285 325
#     4  10  21  39  63  87 115 149 188 231 278 340
#     4  12  25  41  61  85 117 152 186 229 281 338
#     4  10  19  31  52  79 108 143 189 234 277 326
#
# _framework density 18.325723
#
# number of rings (size 3 to 8) (size 9 to 14) (size 15 to 20)
#    0.000    2.143    1.429    3.429    0.000    5.143 
#    2.571    0.000    0.000    1.714    0.000    0.000 
#    0.000    0.000    0.000    0.000    0.000    0.000 
#
# Total GULP energy -156176.358445 kJ/mol
# GULP energy per Si atom -5577.727087 kJ/mol
# Density = 1.828401 g / cm^3
# Si number density = 18.325723 Si / 1000 Ang^3
#
#
#
# Elastic Constant Matrix: (Units=GPa)
#
#
# Indices 1 2 3 4 5 6 
#
# 1 149.7286 33.5947 96.6233 0.0000 12.9880 0.0000
# 2 33.5947 33.2220 30.4444 0.0000 0.1422 0.0000
# 3 96.6233 30.4444 141.7075 0.0000 9.3617 0.0000
# 4 0.0000 0.0000 0.0000 24.4344 0.0000 -0.8991
# 5 12.9880 0.1422 9.3617 0.0000 25.9950 0.0000
# 6 0.0000 0.0000 0.0000 -0.8991 0.0000 25.7566
#
#
#
# Elastic Compliance Matrix: (Units=1/GPa)
#
#
# Indices 1 2 3 4 5 6 
#
# 1 0.013256 -0.006653 -0.007349 0.000000 -0.003940 0.000000
# 2 -0.006653 0.041013 -0.004589 0.000000 0.004752 0.000000
# 3 -0.007349 -0.004589 0.013121 0.000000 -0.001029 0.000000
# 4 0.000000 0.000000 0.000000 0.040979 0.000000 0.001430
# 5 -0.003940 0.004752 -0.001029 0.000000 0.040782 0.000000
# 6 0.000000 0.000000 0.000000 0.001430 0.000000 0.038875
#
#
# Mechanical properties :
#
#
# Convention : Reuss Voigt Hill
#
# Bulk Modulus (GPa) = 33.10288 71.77589 52.43938
# Shear Modulus (GPa) = 21.25162 26.17023 23.71092
#
# Velocity S-wave (km/s) = 3.40907 3.78307 3.60093
# Velocity P-wave (km/s) = 5.79642 7.63766 6.77984
#
# Compressibility (1/GPa) = 0.03020885
#
# Stress axis : x y z
#
# Youngs Moduli (GPa) = 75.44017 24.38243 76.21204
#
# Poissons Ratio (x) = 0.16222 0.56006
# Poissons Ratio (y) = 0.50191 0.34972
# Poissons Ratio (z) = 0.55438 0.11189
#
# Static dielectric constant tensor:
#      x y z
#    x 1.575030 0.000000 -0.001110 
#    y 0.000000 1.626930 0.000000 
#    z -0.001110 0.000000 1.647450 
# 
# From -- ./inp_files/314426.got.cif
#   From: 2010.05.17/outbox.cif.g08.bks.cpg/sg12_158_cif.got.tgz:314426.got - 2010.06.03 13:09:07.
