data_PCOD9179372
_publ_section_title
;
Structure prediction by ZEFSAII (Michael W. Deem and Ramdas Pophale) SiO2 
 PCOD9179372
Probable space group: C 2/M
;
_chemical_formula_sum "Si O2"
_cell_formula_units_Z 48
_cell_length_a 25.526385
_cell_length_b 9.126251
_cell_length_c 19.671300
_cell_angle_alpha 90.000000
_cell_angle_beta 32.971387
_cell_angle_gamma 90.000000
_cell_volume 2493.959506
_symmetry_space_group_name_H-M "C 2/M"
_symmetry_group_IT_number 12
_symmetry_cell_setting 'monoclinic'
loop_
_space_group_symop_operation_xyz
x,y,z
-x,y,-z
-x,-y,-z
x,-y,z
1/2+x,1/2+y,z
1/2-x,1/2+y,-z
1/2-x,1/2-y,-z
1/2+x,1/2-y,z
loop_
_atom_site_type_symbol
_atom_site_label
_atom_site_fract_x
_atom_site_fract_y
_atom_site_fract_z
Si Si1 0.583863 0.177719 0.999433
Si Si2 0.871196 0.323588 0.205305
Si Si3 0.031206 0.327822 0.312089
Si Si4 0.330664 0.173039 0.956799
Si Si5 0.390375 0.665446 0.647560
Si Si6 0.320681 0.174678 0.592012
O O1 0.471874 0.220005 0.130494
O O2 0.651516 0.230616 0.986608
O O3 0.584895 0.000000 0.000722
O O4 0.615263 0.216908 0.889222
O O5 0.861615 0.500000 0.219783
O O6 0.774459 0.247001 0.335356
O O7 0.039902 0.500000 0.321059
O O8 0.070557 0.310055 0.193546
O O9 0.097542 0.236964 0.291945
O O10 0.919777 0.287285 0.444790
O O11 0.308646 0.000000 0.984085
O O12 0.250000 0.250000 0.000000
O O13 0.500000 0.658712 0.500000
O O14 0.351148 0.500000 0.693395
O O15 0.334632 0.760851 0.652845
O O16 0.311858 0.000000 0.603872
#
# Coordination Sequence:
#
# PCOD9179372 Si02
#       6
#     8   8   8   8   8   8
#     4   8  17  35  56  76 102 134 173 217 262 305
#     4   9  17  33  57  80 100 131 174 220 261 304
#     4   9  19  34  49  70 106 142 171 205 259 319
#     4  10  21  37  55  76 103 140 177 212 256 311
#     4   9  17  29  47  71  99 132 172 214 250 293
#     4  10  19  31  49  75 106 138 168 209 263 314
#
# _framework density 19.246502
#
# number of rings (size 3 to 8) (size 9 to 14) (size 15 to 20)
#    0.000    2.833    0.000    2.000    2.333    3.333 
#    0.000    3.333    0.000    0.000    0.000    0.000 
#    0.000    0.000    0.000    0.000    0.000    0.000 
#
# Total GULP energy -133856.063474 kJ/mol
# GULP energy per Si atom -5577.335978 kJ/mol
# Density = 1.920270 g / cm^3
# Si number density = 19.246502 Si / 1000 Ang^3
#
#
#
# Elastic Constant Matrix: (Units=GPa)
#
#
# Indices 1 2 3 4 5 6 
#
# 1 89.6242 15.7125 22.6275 -0.0008 -14.4243 0.0003
# 2 15.7125 32.5874 22.5531 -0.0026 -6.6758 0.0016
# 3 22.6275 22.5531 63.9124 -0.0016 -22.9623 0.0012
# 4 -0.0008 -0.0026 -0.0016 20.3201 0.0010 -6.2414
# 5 -14.4243 -6.6758 -22.9623 0.0010 31.5107 -0.0006
# 6 0.0003 0.0016 0.0012 -6.2414 -0.0006 20.2812
#
#
#
# Elastic Compliance Matrix: (Units=1/GPa)
#
#
# Indices 1 2 3 4 5 6 
#
# 1 0.012949 -0.004281 -0.001720 0.000000 0.003767 0.000000
# 2 -0.004281 0.042163 -0.014708 0.000004 -0.003745 -0.000001
# 3 -0.001720 -0.014708 0.027152 -0.000001 0.015882 0.000000
# 4 0.000000 0.000004 -0.000001 0.054350 -0.000001 0.016726
# 5 0.003767 -0.003745 0.015882 -0.000001 0.044240 0.000000
# 6 0.000000 -0.000001 0.000000 0.016726 0.000000 0.054454
#
#
# Mechanical properties :
#
#
# Convention : Reuss Voigt Hill
#
# Bulk Modulus (GPa) = 24.48323 34.21222 29.34772
# Shear Modulus (GPa) = 17.22113 22.77113 19.99613
#
# Velocity S-wave (km/s) = 2.99451 3.44340 3.22677
# Velocity P-wave (km/s) = 4.97037 5.79860 5.40039
#
# Compressibility (1/GPa) = 0.04084429
#
# Stress axis : x y z
#
# Youngs Moduli (GPa) = 77.22702 23.71755 36.83006
#
# Poissons Ratio (x) = 0.10154 0.06336
# Poissons Ratio (y) = 0.33062 0.54170
# Poissons Ratio (z) = 0.13286 0.34884
#
# Static dielectric constant tensor:
#      x y z
#    x 1.665800 0.000000 -0.008210 
#    y 0.000000 1.651590 0.000000 
#    z -0.008210 0.000000 1.720910 
# 
# From -- ./inp_files/327179.got.cif
#   From: 2010.05.17/outbox.cif.g08.bks.cpg/sg12_164_cif.got.tgz:327179.got - 2010.06.03 13:09:07.
