data_PCOD9179811
_publ_section_title
;
Structure prediction by ZEFSAII (Michael W. Deem and Ramdas Pophale) SiO2 
 PCOD9179811
Probable space group: C 2/M
;
_chemical_formula_sum "Si O2"
_cell_formula_units_Z 56
_cell_length_a 24.684671
_cell_length_b 13.967509
_cell_length_c 23.845137
_cell_angle_alpha 90.000000
_cell_angle_beta 154.901604
_cell_angle_gamma 90.000000
_cell_volume 3487.307490
_symmetry_space_group_name_H-M "C 2/M"
_symmetry_group_IT_number 12
_symmetry_cell_setting 'monoclinic'
loop_
_space_group_symop_operation_xyz
x,y,z
-x,y,-z
-x,-y,-z
x,-y,z
1/2+x,1/2+y,z
1/2-x,1/2+y,-z
1/2-x,1/2-y,-z
1/2+x,1/2-y,z
loop_
_atom_site_type_symbol
_atom_site_label
_atom_site_fract_x
_atom_site_fract_y
_atom_site_fract_z
Si Si1 0.975849 0.605078 0.191620
Si Si2 0.970112 0.813010 0.157893
Si Si3 0.312594 0.389222 0.112194
Si Si4 0.760558 0.714995 0.140403
Si Si5 0.346373 0.613345 0.853052
Si Si6 0.219966 0.113380 0.335433
Si Si7 0.474521 0.111178 0.632806
O O1 0.007783 0.500000 0.197650
O O2 0.010194 0.701494 0.191876
O O3 0.034825 0.612157 0.308591
O O4 0.820832 0.610114 0.047869
O O5 0.919116 0.841102 0.171968
O O6 0.092949 0.869252 0.252424
O O7 0.848783 0.827005 0.003465
O O8 0.343816 0.500000 0.153859
O O9 0.282733 0.323453 0.138410
O O10 0.711024 0.686066 0.155249
O O11 0.897088 0.665802 0.261674
O O12 0.310771 0.500000 0.829928
O O13 0.302587 0.643510 0.749798
O O14 0.500000 0.616644 0.000000
O O15 0.347898 0.152051 0.484731
O O16 0.237300 0.000000 0.349047
O O17 0.490996 0.000000 0.631866
#
# Coordination Sequence:
#
# PCOD9179811 Si02
#       7
#     8   8   8   8   8   8   8
#     4   9  17  30  48  74 106 132 161 205 250 295
#     4  11  18  32  54  76 100 137 171 204 246 301
#     4  10  19  31  51  80 104 128 171 213 246 292
#     4  11  19  33  54  75  98 137 173 204 247 300
#     4  10  20  34  53  77 101 129 168 212 252 295
#     4  10  22  34  48  77 109 133 165 208 253 300
#     4  10  19  32  49  75 107 135 163 203 253 303
#
# _framework density 16.058233999999999
#
# number of rings (size 3 to 8) (size 9 to 14) (size 15 to 20)
#    0.000    1.857    4.286    1.714    0.000    2.286 
#    0.000    2.143    0.000    1.286    0.000    1.000 
#    0.000    0.000    0.000    0.000    0.000    0.000 
#
# Total GULP energy -155868.588424 kJ/mol
# GULP energy per Si atom -5566.735301 kJ/mol
# Density = 1.602168 g / cm^3
# Si number density = 16.058234 Si / 1000 Ang^3
#
#
#
# Elastic Constant Matrix: (Units=GPa)
#
#
# Indices 1 2 3 4 5 6 
#
# 1 62.7627 22.3711 28.9667 0.0003 -7.3904 0.0002
# 2 22.3711 46.1485 32.7389 0.0003 -6.8689 0.0003
# 3 28.9667 32.7389 99.7483 0.0006 2.7963 0.0006
# 4 0.0003 0.0003 0.0006 14.0980 0.0004 -1.7193
# 5 -7.3904 -6.8689 2.7963 0.0004 15.4544 0.0003
# 6 0.0002 0.0003 0.0006 -1.7193 0.0003 20.9269
#
#
#
# Elastic Compliance Matrix: (Units=1/GPa)
#
#
# Indices 1 2 3 4 5 6 
#
# 1 0.021024 -0.005821 -0.004427 0.000000 0.008268 0.000000
# 2 -0.005821 0.033398 -0.009659 -0.000001 0.013808 0.000000
# 3 -0.004427 -0.009659 0.014735 0.000000 -0.009076 0.000000
# 4 0.000000 -0.000001 0.000000 0.071650 -0.000002 0.005886
# 5 0.008268 0.013808 -0.009076 -0.000002 0.076440 -0.000001
# 6 0.000000 0.000000 0.000000 0.005886 -0.000001 0.048269
#
#
# Mechanical properties :
#
#
# Convention : Reuss Voigt Hill
#
# Bulk Modulus (GPa) = 34.07661 41.86811 37.97236
# Shear Modulus (GPa) = 15.86746 18.40139 17.13443
#
# Velocity S-wave (km/s) = 3.14685 3.38881 3.27007
# Velocity P-wave (km/s) = 5.87114 6.43749 6.16083
#
# Compressibility (1/GPa) = 0.02934564
#
# Stress axis : x y z
#
# Youngs Moduli (GPa) = 47.56375 29.94179 67.86444
#
# Poissons Ratio (x) = 0.17429 0.30042
# Poissons Ratio (y) = 0.27686 0.65547
# Poissons Ratio (z) = 0.21055 0.28919
#
# Static dielectric constant tensor:
#      x y z
#    x 1.522640 0.000000 -0.013550 
#    y 0.000000 1.564030 0.000000 
#    z -0.013550 0.000000 1.554690 
# 
# From -- ./inp_files/86343.got.cif
#   From: 2010.05.17/outbox.cif.g08.bks.cpg/sg12_44_cif.got.tgz:86343.got - 2010.06.03 13:09:07.
