data_PCOD9179209
_publ_section_title
;
Structure prediction by ZEFSAII (Michael W. Deem and Ramdas Pophale) SiO2 
 PCOD9179209
Probable space group: C 2/M
;
_chemical_formula_sum "Si O2"
_cell_formula_units_Z 64
_cell_length_a 14.423669
_cell_length_b 9.464164
_cell_length_c 22.471912
_cell_angle_alpha 90.000000
_cell_angle_beta 68.364265
_cell_angle_gamma 90.000000
_cell_volume 2851.472894
_symmetry_space_group_name_H-M "C 2/M"
_symmetry_group_IT_number 12
_symmetry_cell_setting 'monoclinic'
loop_
_space_group_symop_operation_xyz
x,y,z
-x,y,-z
-x,-y,-z
x,-y,z
1/2+x,1/2+y,z
1/2-x,1/2+y,-z
1/2-x,1/2-y,-z
1/2+x,1/2-y,z
loop_
_atom_site_type_symbol
_atom_site_label
_atom_site_fract_x
_atom_site_fract_y
_atom_site_fract_z
Si Si1 0.721445 0.659212 0.564685
Si Si2 0.885242 0.844275 0.689987
Si Si3 0.591608 0.340150 0.705189
Si Si4 0.806886 0.337594 0.072225
Si Si5 0.434935 0.844841 0.573405
Si Si6 0.905640 0.837335 0.948755
Si Si7 0.210067 0.660768 0.195113
Si Si8 0.496021 0.161711 0.175323
O O1 0.687266 0.500000 0.555408
O O2 0.750000 0.750000 0.500000
O O3 0.645930 0.717158 0.632803
O O4 0.823150 0.645911 0.576804
O O5 0.935187 0.780385 0.619730
O O6 0.811420 0.730263 0.735916
O O7 0.976050 0.857134 0.714424
O O8 0.841454 0.000000 0.690938
O O9 0.630518 0.500000 0.707649
O O10 0.584284 0.238149 0.763283
O O11 0.838580 0.500000 0.071469
O O12 0.700999 0.339837 0.061284
O O13 0.781387 0.260411 0.139721
O O14 0.882140 0.245954 0.014777
O O15 0.500000 0.817383 0.500000
O O16 0.464677 0.000000 0.591355
O O17 0.981088 0.752496 0.888749
O O18 0.935313 0.000000 0.950811
O O19 0.245994 0.500000 0.190275
O O20 0.103152 0.656375 0.185241
O O21 0.468812 0.000000 0.168873
#
# Coordination Sequence:
#
# PCOD9179209 Si02
#       8
#     8   8   8   8   8   8   8   8
#     4  10  21  36  54  75  99 127 159 196 238 285
#     4  10  19  31  49  71  95 125 161 200 241 286
#     4   9  18  32  48  68  95 126 160 198 241 288
#     4   9  15  22  33  52  81 117 158 200 239 283
#     4  10  21  36  53  74 100 128 158 194 238 287
#     4   9  15  22  33  51  80 119 158 196 240 287
#     4   9  16  26  40  59  86 120 157 196 240 289
#     4   9  16  25  39  60  85 117 157 198 240 286
#
# _framework density 22.44454
#
# number of rings (size 3 to 8) (size 9 to 14) (size 15 to 20)
#    0.000    2.625    0.000    2.625    0.000    7.750 
#    0.000    0.000    0.000    0.000    0.000    0.000 
#    0.000    1.000    0.000   10.750    0.000   15.500 
#
# Total GULP energy -178739.936509 kJ/mol
# GULP energy per Si atom -5585.623016 kJ/mol
# Density = 2.239346 g / cm^3
# Si number density = 22.444540 Si / 1000 Ang^3
#
#
#
# Elastic Constant Matrix: (Units=GPa)
#
#
# Indices 1 2 3 4 5 6 
#
# 1 40.7058 -3.9836 -4.3340 0.0000 -4.7252 0.0000
# 2 -3.9836 192.9384 106.2653 0.0000 -7.5123 0.0000
# 3 -4.3340 106.2653 156.5075 0.0000 -22.2365 0.0000
# 4 0.0000 0.0000 0.0000 65.4464 0.0000 1.1058
# 5 -4.7252 -7.5123 -22.2365 0.0000 21.1361 0.0000
# 6 0.0000 0.0000 0.0000 1.1058 0.0000 4.9294
#
#
#
# Elastic Compliance Matrix: (Units=1/GPa)
#
#
# Indices 1 2 3 4 5 6 
#
# 1 0.025650 -0.000265 0.001989 0.000000 0.007732 0.000000
# 2 -0.000265 0.008507 -0.006305 0.000000 -0.003668 0.000000
# 3 0.001989 -0.006305 0.012310 0.000000 0.011155 0.000000
# 4 0.000000 0.000000 0.000000 0.015338 0.000000 -0.003441
# 5 0.007732 -0.003668 0.011155 0.000000 0.059473 0.000000
# 6 0.000000 0.000000 0.000000 -0.003441 0.000000 0.203635
#
#
# Mechanical properties :
#
#
# Convention : Reuss Voigt Hill
#
# Bulk Modulus (GPa) = 26.80550 65.11635 45.96092
# Shear Modulus (GPa) = 14.42962 37.78265 26.10613
#
# Velocity S-wave (km/s) = 2.53830 4.10735 3.41418
# Velocity P-wave (km/s) = 4.53426 7.18115 6.00535
#
# Compressibility (1/GPa) = 0.03730578
#
# Stress axis : x y z
#
# Youngs Moduli (GPa) = 38.98642 117.54777 81.23368
#
# Poissons Ratio (x) = 0.03110 -0.16154
# Poissons Ratio (y) = 0.01031 0.51216
# Poissons Ratio (z) = -0.07753 0.74111
#
# Static dielectric constant tensor:
#      x y z
#    x 1.898860 0.000000 0.026180 
#    y 0.000000 1.829390 0.000000 
#    z 0.026180 0.000000 1.838910 
# 
# From -- ./inp_files/346084.got.cif
#   From: 2010.05.17/outbox.cif.g08.bks.cpg/sg12_174_cif.got.tgz:346084.got - 2010.06.03 13:09:07.
