data_PCOD9179518
_publ_section_title
;
Structure prediction by ZEFSAII (Michael W. Deem and Ramdas Pophale) SiO2 
 PCOD9179518
Probable space group: C 2/M
;
_chemical_formula_sum "Si O2"
_cell_formula_units_Z 40
_cell_length_a 15.326665
_cell_length_b 9.405696
_cell_length_c 18.417268
_cell_angle_alpha 90.000000
_cell_angle_beta 135.826693
_cell_angle_gamma 90.000000
_cell_volume 1850.083346
_symmetry_space_group_name_H-M "C 2/M"
_symmetry_group_IT_number 12
_symmetry_cell_setting 'monoclinic'
loop_
_space_group_symop_operation_xyz
x,y,z
-x,y,-z
-x,-y,-z
x,-y,z
1/2+x,1/2+y,z
1/2-x,1/2+y,-z
1/2-x,1/2-y,-z
1/2+x,1/2-y,z
loop_
_atom_site_type_symbol
_atom_site_label
_atom_site_fract_x
_atom_site_fract_y
_atom_site_fract_z
Si Si1 0.288124 0.663614 0.634043
Si Si2 0.496048 0.163369 0.173952
Si Si3 0.069056 0.163888 0.437565
Si Si4 0.854197 0.337509 0.243604
Si Si5 0.636489 0.838361 0.045937
O O1 0.262453 0.500000 0.636591
O O2 0.382354 0.738483 0.746423
O O3 0.163149 0.754042 0.546828
O O4 0.360663 0.664031 0.599302
O O5 0.431500 0.159913 0.213906
O O6 0.531335 0.000000 0.176016
O O7 0.394677 0.212287 0.054248
O O8 0.940056 0.247785 0.349373
O O9 0.050545 0.000000 0.446829
O O10 0.836798 0.500000 0.256708
O O11 0.726844 0.259799 0.146142
O O12 0.687864 0.000000 0.073754
O O13 0.500000 0.842398 0.000000
#
# Coordination Sequence:
#
# PCOD9179518 Si02
#       5
#     8   8   8   8   8
#     4   9  16  26  44  72 102 129 159 197 241 287
#     4   9  18  32  50  73 100 130 164 201 242 289
#     4   9  16  27  45  70 101 132 160 194 239 290
#     4  10  19  31  50  75 101 128 162 204 245 287
#     4  10  21  36  52  70  96 131 168 204 244 292
#
# _framework density 21.620647999999999
#
# number of rings (size 3 to 8) (size 9 to 14) (size 15 to 20)
#    0.000    2.600    0.000    2.400    0.000    6.800 
#    0.000    0.000    0.000    1.200    0.000    8.400 
#    0.000    0.000    0.000    0.000    0.000    0.000 
#
# Total GULP energy -111771.997189 kJ/mol
# GULP energy per Si atom -5588.599859 kJ/mol
# Density = 2.157144 g / cm^3
# Si number density = 21.620648 Si / 1000 Ang^3
#
#
#
# Elastic Constant Matrix: (Units=GPa)
#
#
# Indices 1 2 3 4 5 6 
#
# 1 34.4572 27.4317 45.5010 0.0000 -21.0084 0.0000
# 2 27.4317 182.2737 117.1826 0.0000 34.1666 0.0000
# 3 45.5010 117.1826 152.3857 0.0000 43.1288 0.0000
# 4 0.0000 0.0000 0.0000 43.2387 0.0000 9.7268
# 5 -21.0084 34.1666 43.1288 0.0000 19.8853 0.0000
# 6 0.0000 0.0000 0.0000 9.7268 0.0000 -0.3569
#
#
#
# Elastic Compliance Matrix: (Units=1/GPa)
#
#
# Indices 1 2 3 4 5 6 
#
# 1 -0.007765 -0.000265 0.012212 0.000000 -0.034234 0.000000
# 2 -0.000265 0.010857 -0.007538 0.000000 -0.002585 0.000000
# 3 0.012212 -0.007538 0.003614 0.000000 0.018014 0.000000
# 4 0.000000 0.000000 0.000000 0.003244 0.000000 0.088390
# 5 -0.034234 -0.002585 0.018014 0.000000 -0.020509 0.000000
# 6 0.000000 0.000000 0.000000 0.088390 0.000000 -0.392920
#
#
# Mechanical properties :
#
#
# Convention : Reuss Voigt Hill
#
# Bulk Modulus (GPa) = 64.42190 83.26079 73.84134
# Shear Modulus (GPa) = -12.28132 24.48683 6.10276
#
# Velocity S-wave (km/s) = -2.38594 3.36901 1.68190
# Velocity P-wave (km/s) = 4.71920 7.32988 6.16433
#
# Compressibility (1/GPa) = 0.01552267
#
# Stress axis : x y z
#
# Youngs Moduli (GPa) = -128.77561 92.10795 276.67767
#
# Poissons Ratio (x) = 0.02440 -3.37866
# Poissons Ratio (y) = -0.03412 2.08563
# Poissons Ratio (z) = 1.57255 0.69432
#
# Static dielectric constant tensor:
#      x y z
#    x 1.846100 0.000000 -0.040940 
#    y 0.000000 1.745570 0.000000 
#    z -0.040940 0.000000 1.743210 
# 
# From -- ./inp_files/151726.got.cif
#   From: 2010.05.17/outbox.cif.g08.bks.cpg/sg12_76_cif.got.tgz:151726.got - 2010.06.03 13:09:07.
