data_PCOD9179865
_publ_section_title
;
Structure prediction by ZEFSAII (Michael W. Deem and Ramdas Pophale) SiO2 
 PCOD9179865
Probable space group: C 2/M
;
_chemical_formula_sum "Si O2"
_cell_formula_units_Z 64
_cell_length_a 19.813439
_cell_length_b 18.275337
_cell_length_c 15.721244
_cell_angle_alpha 90.000000
_cell_angle_beta 143.473965
_cell_angle_gamma 90.000000
_cell_volume 3388.178852
_symmetry_space_group_name_H-M "C 2/M"
_symmetry_group_IT_number 12
_symmetry_cell_setting 'monoclinic'
loop_
_space_group_symop_operation_xyz
x,y,z
-x,y,-z
-x,-y,-z
x,-y,z
1/2+x,1/2+y,z
1/2-x,1/2+y,-z
1/2-x,1/2-y,-z
1/2+x,1/2-y,z
loop_
_atom_site_type_symbol
_atom_site_label
_atom_site_fract_x
_atom_site_fract_y
_atom_site_fract_z
Si Si1 0.287471 0.274215 0.248957
Si Si2 0.400461 0.699789 0.720831
Si Si3 0.547974 0.821641 0.958397
Si Si4 0.076110 0.916154 0.844550
Si Si5 0.338175 0.915097 0.079746
Si Si6 0.585436 0.581055 0.664817
Si Si7 0.663070 0.769593 0.522158
Si Si8 0.051479 0.361092 0.639244
O O1 0.334806 0.348666 0.256601
O O2 0.313178 0.282721 0.374548
O O3 0.355394 0.201669 0.289545
O O4 0.155553 0.271826 0.094006
O O5 0.452195 0.769766 0.821400
O O6 0.495371 0.637311 0.815053
O O7 0.367194 0.725097 0.592360
O O8 0.277045 0.681658 0.633115
O O9 0.596257 0.872558 0.930101
O O10 0.500000 0.854292 0.000000
O O11 0.028398 0.917290 0.699618
O O12 0.077546 0.000000 0.877839
O O13 0.207344 0.891018 0.965901
O O14 0.400109 0.907429 0.233708
O O15 0.332552 0.000000 0.049825
O O16 0.500000 0.586948 0.500000
O O17 0.641058 0.500000 0.714674
O O18 0.555033 0.817835 0.431658
O O19 0.000000 0.395628 0.500000
#
# Coordination Sequence:
#
# PCOD9179865 Si02
#       8
#     8   8   8   8   8   8   8   8
#     4  11  20  35  60  91 121 149 204 251 295 360
#     4  11  21  37  60  82 124 160 201 248 298 358
#     4  12  24  38  61  91 118 161 204 242 307 362
#     4  10  21  37  59  87 116 156 203 250 302 356
#     4  11  24  42  62  87 123 161 205 254 302 359
#     4  10  19  31  51  84 122 155 191 241 296 354
#     4  10  21  35  57  89 122 156 195 255 297 352
#     4  10  21  38  64  95 116 154 205 251 307 351
#
# _framework density 18.889202999999998
#
# number of rings (size 3 to 8) (size 9 to 14) (size 15 to 20)
#    0.000    1.375    3.750    3.375    0.000    1.500 
#    0.000    0.625    0.000    1.125    0.000    0.000 
#    0.000    0.000    0.000    0.000    0.000    0.000 
#
# Total GULP energy -178246.517623 kJ/mol
# GULP energy per Si atom -5570.203676 kJ/mol
# Density = 1.884621 g / cm^3
# Si number density = 18.889203 Si / 1000 Ang^3
#
#
#
# Elastic Constant Matrix: (Units=GPa)
#
#
# Indices 1 2 3 4 5 6 
#
# 1 76.2543 20.2125 23.3928 0.0000 5.3439 0.0000
# 2 20.2125 25.9942 13.6566 0.0000 -2.9091 0.0000
# 3 23.3928 13.6566 100.3355 0.0000 -3.0645 0.0000
# 4 0.0000 0.0000 0.0000 16.9817 0.0000 0.9665
# 5 5.3439 -2.9091 -3.0645 0.0000 35.5041 0.0000
# 6 0.0000 0.0000 0.0000 0.9665 0.0000 14.5507
#
#
#
# Elastic Compliance Matrix: (Units=1/GPa)
#
#
# Indices 1 2 3 4 5 6 
#
# 1 0.017529 -0.012770 -0.002468 0.000000 -0.003898 0.000000
# 2 -0.012770 0.051039 -0.003793 0.000000 0.005777 0.000000
# 3 -0.002468 -0.003793 0.011089 0.000000 0.001018 0.000000
# 4 0.000000 0.000000 0.000000 0.059111 0.000000 -0.003926
# 5 -0.003898 0.005777 0.001018 0.000000 0.029314 0.000000
# 6 0.000000 0.000000 0.000000 -0.003926 0.000000 0.068986
#
#
# Mechanical properties :
#
#
# Convention : Reuss Voigt Hill
#
# Bulk Modulus (GPa) = 24.04100 35.23419 29.63760
# Shear Modulus (GPa) = 17.30136 23.09544 20.19840
#
# Velocity S-wave (km/s) = 3.02973 3.50048 3.27358
# Velocity P-wave (km/s) = 4.99940 5.91873 5.47838
#
# Compressibility (1/GPa) = 0.04159560
#
# Stress axis : x y z
#
# Youngs Moduli (GPa) = 57.04796 19.59284 90.17712
#
# Poissons Ratio (x) = 0.25020 0.22254
# Poissons Ratio (y) = 0.72850 0.34206
# Poissons Ratio (z) = 0.14078 0.07432
#
# Static dielectric constant tensor:
#      x y z
#    x 1.706950 0.000000 -0.012190 
#    y 0.000000 1.651190 0.000000 
#    z -0.012190 0.000000 1.691900 
# 
# From -- ./inp_files/226893.got.cif
#   From: 2010.05.17/outbox.cif.g08.bks.cpg/sg12_114_cif.got.tgz:226893.got - 2010.06.03 13:09:07.
