data_PCOD9179711
_publ_section_title
;
Structure prediction by ZEFSAII (Michael W. Deem and Ramdas Pophale) SiO2 
 PCOD9179711
Probable space group: C 2/M
;
_chemical_formula_sum "Si O2"
_cell_formula_units_Z 64
_cell_length_a 19.586749
_cell_length_b 8.450942
_cell_length_c 23.928182
_cell_angle_alpha 90.000000
_cell_angle_beta 53.582646
_cell_angle_gamma 90.000000
_cell_volume 3187.269243
_symmetry_space_group_name_H-M "C 2/M"
_symmetry_group_IT_number 12
_symmetry_cell_setting 'monoclinic'
loop_
_space_group_symop_operation_xyz
x,y,z
-x,y,-z
-x,-y,-z
x,-y,z
1/2+x,1/2+y,z
1/2-x,1/2+y,-z
1/2-x,1/2-y,-z
1/2+x,1/2-y,z
loop_
_atom_site_type_symbol
_atom_site_label
_atom_site_fract_x
_atom_site_fract_y
_atom_site_fract_z
Si Si1 0.467872 0.179323 0.073375
Si Si2 0.699080 0.185646 0.101819
Si Si3 0.629437 0.679390 0.025176
Si Si4 0.394794 0.687903 0.216414
Si Si5 0.265172 0.811635 0.367507
Si Si6 0.092204 0.308343 0.614315
Si Si7 0.041559 0.811137 0.233773
Si Si8 0.585664 0.190672 0.488904
O O1 0.558035 0.188922 0.060540
O O2 0.404986 0.260272 0.147330
O O3 0.440564 0.000000 0.075327
O O4 0.500000 0.258246 0.000000
O O5 0.674793 0.301157 0.062668
O O6 0.632895 0.230068 0.181961
O O7 0.688252 0.000000 0.092678
O O8 0.800707 0.204761 0.057257
O O9 0.594769 0.500000 0.038584
O O10 0.386823 0.500000 0.223315
O O11 0.316515 0.765064 0.286977
O O12 0.479303 0.730944 0.211612
O O13 0.324848 0.756437 0.390542
O O14 0.171898 0.740344 0.416514
O O15 0.258880 0.000000 0.373899
O O16 0.090395 0.500000 0.616631
O O17 0.092113 0.254979 0.550263
O O18 0.010481 0.244790 0.687026
O O19 0.051595 0.000000 0.229157
O O20 0.500000 0.247616 0.500000
O O21 0.582211 0.000000 0.491620
#
# Coordination Sequence:
#
# PCOD9179711 Si02
#       8
#     8   8   8   8   8   8   8   8
#     4  11  23  37  54  77 107 144 185 231 281 331
#     4  10  19  31  51  76 106 138 172 221 274 327
#     4  10  20  33  50  75 102 137 181 221 271 327
#     4  10  20  35  56  81 108 140 183 231 277 329
#     4  10  20  35  59  87 114 145 184 233 283 333
#     4   9  19  35  56  83 114 148 187 231 281 332
#     4  10  19  31  52  82 111 140 180 230 279 328
#     4  10  21  38  59  84 116 153 189 226 273 335
#
# _framework density 20.079885000000001
#
# number of rings (size 3 to 8) (size 9 to 14) (size 15 to 20)
#    0.000    2.000    1.250    2.625    0.000    4.750 
#    0.000    1.250    0.000    1.500    0.000    0.000 
#    0.000    0.000    0.000    0.000    0.000    0.000 
#
# Total GULP energy -178440.320695 kJ/mol
# GULP energy per Si atom -5576.260022 kJ/mol
# Density = 2.003418 g / cm^3
# Si number density = 20.079885 Si / 1000 Ang^3
#
#
#
# Elastic Constant Matrix: (Units=GPa)
#
#
# Indices 1 2 3 4 5 6 
#
# 1 46.5612 8.6109 51.1283 -0.0001 -10.1586 0.0000
# 2 8.6109 32.7700 15.3866 -0.0003 -3.4580 0.0000
# 3 51.1283 15.3866 127.4998 0.0000 -12.2724 0.0000
# 4 -0.0001 -0.0003 0.0000 28.0712 0.0000 -2.9347
# 5 -10.1586 -3.4580 -12.2724 0.0000 33.4112 -0.0001
# 6 0.0000 0.0000 0.0000 -2.9347 -0.0001 12.6642
#
#
#
# Elastic Compliance Matrix: (Units=1/GPa)
#
#
# Indices 1 2 3 4 5 6 
#
# 1 0.039902 -0.002747 -0.015062 0.000000 0.006315 0.000000
# 2 -0.002747 0.032665 -0.002691 0.000000 0.001557 0.000000
# 3 -0.015062 -0.002691 0.014244 0.000000 0.000374 0.000000
# 4 0.000000 0.000000 0.000000 0.036508 0.000000 0.008460
# 5 0.006315 0.001557 0.000374 0.000000 0.032149 0.000000
# 6 0.000000 0.000000 0.000000 0.008460 0.000000 0.080923
#
#
# Mechanical properties :
#
#
# Convention : Reuss Voigt Hill
#
# Bulk Modulus (GPa) = 21.82786 39.67585 30.75185
# Shear Modulus (GPa) = 17.08469 23.60966 20.34718
#
# Velocity S-wave (km/s) = 2.92007 3.43269 3.18671
# Velocity P-wave (km/s) = 4.71839 5.95929 5.37477
#
# Compressibility (1/GPa) = 0.04581302
#
# Stress axis : x y z
#
# Youngs Moduli (GPa) = 25.06141 30.61365 70.20653
#
# Poissons Ratio (x) = 0.08408 1.05743
# Poissons Ratio (y) = 0.06883 0.18891
# Poissons Ratio (z) = 0.37747 0.08237
#
# Static dielectric constant tensor:
#      x y z
#    x 1.786300 0.000000 0.015620 
#    y 0.000000 1.684860 0.000000 
#    z 0.015620 0.000000 1.731040 
# 
# From -- ./inp_files/346073.got.cif
#   From: 2010.05.17/outbox.cif.g08.bks.cpg/sg12_174_cif.got.tgz:346073.got - 2010.06.03 13:09:07.
