data_PCOD9179730
_publ_section_title
;
Structure prediction by ZEFSAII (Michael W. Deem and Ramdas Pophale) SiO2 
 PCOD9179730
Probable space group: C 2/M
;
_chemical_formula_sum "Si O2"
_cell_formula_units_Z 48
_cell_length_a 29.668645
_cell_length_b 10.619854
_cell_length_c 20.594388
_cell_angle_alpha 90.000000
_cell_angle_beta 157.998327
_cell_angle_gamma 90.000000
_cell_volume 2430.927191
_symmetry_space_group_name_H-M "C 2/M"
_symmetry_group_IT_number 12
_symmetry_cell_setting 'monoclinic'
loop_
_space_group_symop_operation_xyz
x,y,z
-x,y,-z
-x,-y,-z
x,-y,z
1/2+x,1/2+y,z
1/2-x,1/2+y,-z
1/2-x,1/2-y,-z
1/2+x,1/2-y,z
loop_
_atom_site_type_symbol
_atom_site_label
_atom_site_fract_x
_atom_site_fract_y
_atom_site_fract_z
Si Si1 0.620811 0.362300 0.704911
Si Si2 0.588248 0.141604 0.355133
Si Si3 0.746117 0.138918 0.381264
Si Si4 0.733184 0.730980 0.729451
Si Si5 0.977999 0.645174 0.066497
Si Si6 0.506396 0.858459 0.628559
O O1 0.500000 0.369637 0.500000
O O2 0.642056 0.500000 0.763231
O O3 0.717700 0.331650 0.779091
O O4 0.594089 0.248741 0.718054
O O5 0.687652 0.249593 0.492995
O O6 0.514648 0.153641 0.190871
O O7 0.508498 0.152347 0.313795
O O8 0.641213 0.000000 0.427251
O O9 0.790774 0.146447 0.366431
O O10 0.602813 0.157359 0.194568
O O11 0.772082 0.000000 0.442625
O O12 0.628391 0.834906 0.581554
O O13 0.876401 0.748465 0.915810
O O14 0.933913 0.500000 0.995751
O O15 0.545140 0.000000 0.663558
#
# Coordination Sequence:
#
# PCOD9179730 Si02
#       6
#     8   8   8   8   8   8
#     4   9  17  29  49  75  99 126 162 203 245 288
#     4   9  19  35  52  71  99 135 167 196 240 295
#     4  10  19  32  53  77  99 128 166 204 241 286
#     4  10  19  31  51  77 104 127 160 207 250 287
#     4  10  19  32  51  75 102 131 163 201 245 291
#     4   9  19  35  53  72  98 132 167 201 241 294
#
# _framework density 19.745552
#
# number of rings (size 3 to 8) (size 9 to 14) (size 15 to 20)
#    0.000    2.500    0.000    2.500    0.000    9.000 
#    0.000    2.500    0.000    4.000    0.000    0.000 
#    0.000    0.000    0.000    0.000    0.000    0.000 
#
# Total GULP energy -133675.282246 kJ/mol
# GULP energy per Si atom -5569.803427 kJ/mol
# Density = 1.970061 g / cm^3
# Si number density = 19.745552 Si / 1000 Ang^3
#
#
#
# Elastic Constant Matrix: (Units=GPa)
#
#
# Indices 1 2 3 4 5 6 
#
# 1 93.0601 58.1338 18.5571 0.0000 7.1347 0.0000
# 2 58.1338 108.0443 15.5807 0.0000 -0.5221 0.0000
# 3 18.5571 15.5807 24.9955 0.0000 -0.5091 0.0000
# 4 0.0000 0.0000 0.0000 15.0231 0.0000 3.9702
# 5 7.1347 -0.5221 -0.5091 0.0000 16.7476 0.0000
# 6 0.0000 0.0000 0.0000 3.9702 0.0000 14.7828
#
#
#
# Elastic Compliance Matrix: (Units=1/GPa)
#
#
# Indices 1 2 3 4 5 6 
#
# 1 0.018597 -0.008825 -0.008478 0.000000 -0.008456 0.000000
# 2 -0.008825 0.014357 -0.002314 0.000000 0.004137 0.000000
# 3 -0.008478 -0.002314 0.047846 0.000000 0.004994 0.000000
# 4 0.000000 0.000000 0.000000 0.071649 0.000000 -0.019243
# 5 -0.008456 0.004137 0.004994 0.000000 0.063593 0.000000
# 6 0.000000 0.000000 0.000000 -0.019243 0.000000 0.072814
#
#
# Mechanical properties :
#
#
# Convention : Reuss Voigt Hill
#
# Bulk Modulus (GPa) = 24.05769 45.62702 34.84236
# Shear Modulus (GPa) = 14.62220 18.23259 16.42739
#
# Velocity S-wave (km/s) = 2.72422 3.04201 2.88749
# Velocity P-wave (km/s) = 4.70165 5.95786 5.36664
#
# Compressibility (1/GPa) = 0.04156675
#
# Stress axis : x y z
#
# Youngs Moduli (GPa) = 53.77110 69.65135 20.90055
#
# Poissons Ratio (x) = 0.61465 0.17720
# Poissons Ratio (y) = 0.47451 0.04836
# Poissons Ratio (z) = 0.45590 0.16115
#
# Static dielectric constant tensor:
#      x y z
#    x 1.755100 0.000000 0.020050 
#    y 0.000000 1.699720 0.000000 
#    z 0.020050 0.000000 1.699190 
# 
# From -- ./inp_files/330071.got.cif
#   From: 2010.05.17/outbox.cif.g08.bks.cpg/sg12_166_cif.got.tgz:330071.got - 2010.06.03 13:09:07.
