data_PCOD9179970
_publ_section_title
;
Structure prediction by ZEFSAII (Michael W. Deem and Ramdas Pophale) SiO2 
 PCOD9179970
Probable space group: C 2/M
;
_chemical_formula_sum "Si O2"
_cell_formula_units_Z 48
_cell_length_a 23.107656
_cell_length_b 11.854312
_cell_length_c 25.101218
_cell_angle_alpha 90.000000
_cell_angle_beta 161.235519
_cell_angle_gamma 90.000000
_cell_volume 2211.818366
_symmetry_space_group_name_H-M "C 2/M"
_symmetry_group_IT_number 12
_symmetry_cell_setting 'monoclinic'
loop_
_space_group_symop_operation_xyz
x,y,z
-x,y,-z
-x,-y,-z
x,-y,z
1/2+x,1/2+y,z
1/2-x,1/2+y,-z
1/2-x,1/2-y,-z
1/2+x,1/2-y,z
loop_
_atom_site_type_symbol
_atom_site_label
_atom_site_fract_x
_atom_site_fract_y
_atom_site_fract_z
Si Si1 0.012137 0.625500 0.827390
Si Si2 0.187225 0.315124 0.644305
Si Si3 0.270006 0.370815 0.230471
Si Si4 0.380157 0.703996 0.523302
Si Si5 0.928692 0.625325 0.239007
Si Si6 0.922614 0.206782 0.018002
O O1 0.050415 0.500000 0.881744
O O2 0.801758 0.635226 0.628262
O O3 0.115301 0.641140 0.861663
O O4 0.049151 0.716657 0.904721
O O5 0.196598 0.195900 0.685174
O O6 0.161844 0.294457 0.559838
O O7 0.390465 0.357759 0.830630
O O8 0.000000 0.370348 0.500000
O O9 0.216630 0.500000 0.192452
O O10 0.454685 0.366369 0.357176
O O11 0.134811 0.294814 0.077783
O O12 0.446063 0.773613 0.631582
O O13 0.009414 0.500000 0.314783
O O14 0.750213 0.631991 0.119546
#
# Coordination Sequence:
#
# PCOD9179970 Si02
#       6
#     8   8   8   8   8   8
#     4  10  19  33  55  83 112 142 175 214 268 324
#     4   9  19  33  51  73 102 136 170 211 264 320
#     4  10  19  31  52  82 113 142 171 209 268 335
#     4   9  19  34  53  77 110 142 177 218 259 312
#     4  10  21  37  56  76 104 145 188 227 264 305
#     4  10  20  34  53  78 111 141 175 219 265 319
#
# _framework density 21.701601
#
# number of rings (size 3 to 8) (size 9 to 14) (size 15 to 20)
#    0.000    2.333    0.000    2.500    0.000    7.000 
#    0.000    3.333    0.000   45.000    0.000    0.000 
#    0.000    0.000    0.000    0.000    0.000    0.000 
#
# Total GULP energy -133866.208091 kJ/mol
# GULP energy per Si atom -5577.758670 kJ/mol
# Density = 2.165221 g / cm^3
# Si number density = 21.701601 Si / 1000 Ang^3
#
#
#
# Elastic Constant Matrix: (Units=GPa)
#
#
# Indices 1 2 3 4 5 6 
#
# 1 54.8356 8.9810 -2.1476 0.0008 2.4036 0.0003
# 2 8.9810 67.1159 -4.3294 -0.0022 -10.7309 0.0005
# 3 -2.1476 -4.3294 80.7965 -0.0025 8.7886 0.0007
# 4 0.0008 -0.0022 -0.0025 -0.9634 0.0001 -1.0568
# 5 2.4036 -10.7309 8.7886 0.0001 38.5058 0.0000
# 6 0.0003 0.0005 0.0007 -1.0568 0.0000 9.4247
#
#
#
# Elastic Compliance Matrix: (Units=1/GPa)
#
#
# Indices 1 2 3 4 5 6 
#
# 1 0.018811 -0.002814 0.000577 0.000019 -0.002090 0.000002
# 2 -0.002814 0.016026 0.000286 -0.000034 0.004577 -0.000005
# 3 0.000577 0.000286 0.012718 -0.000029 -0.002859 -0.000004
# 4 0.000019 -0.000034 -0.000029 -0.924327 -0.000002 -0.103645
# 5 -0.002090 0.004577 -0.002859 -0.000002 0.028029 0.000000
# 6 0.000002 -0.000005 -0.000004 -0.103645 0.000000 0.094482
#
#
# Mechanical properties :
#
#
# Convention : Reuss Voigt Hill
#
# Bulk Modulus (GPa) = 22.90780 23.08399 22.99590
# Shear Modulus (GPa) = -6.79527 22.74303 7.97388
#
# Velocity S-wave (km/s) = -1.77145 3.24078 1.91893
# Velocity P-wave (km/s) = 2.52877 4.96625 3.94070
#
# Compressibility (1/GPa) = 0.04365325
#
# Stress axis : x y z
#
# Youngs Moduli (GPa) = 53.15915 62.39711 78.62605
#
# Poissons Ratio (x) = 0.17560 -0.04533
# Poissons Ratio (y) = 0.14960 -0.02250
# Poissons Ratio (z) = -0.03065 -0.01785
#
# Static dielectric constant tensor:
#      x y z
#    x 1.783540 0.000000 0.043620 
#    y 0.000000 1.737400 0.000000 
#    z 0.043620 0.000000 1.849160 
# 
# From -- ./inp_files/94290.got.cif
#   From: 2010.05.17/outbox.cif.g08.bks.cpg/sg12_48_cif.got.tgz:94290.got - 2010.06.03 13:09:07.
