data_PCOD9179851
_publ_section_title
;
Structure prediction by ZEFSAII (Michael W. Deem and Ramdas Pophale) SiO2 
 PCOD9179851
Probable space group: C 2/M
;
_chemical_formula_sum "Si O2"
_cell_formula_units_Z 64
_cell_length_a 16.367240
_cell_length_b 17.307804
_cell_length_c 15.236052
_cell_angle_alpha 90.000000
_cell_angle_beta 49.697163
_cell_angle_gamma 90.000000
_cell_volume 3291.602171
_symmetry_space_group_name_H-M "C 2/M"
_symmetry_group_IT_number 12
_symmetry_cell_setting 'monoclinic'
loop_
_space_group_symop_operation_xyz
x,y,z
-x,y,-z
-x,-y,-z
x,-y,z
1/2+x,1/2+y,z
1/2-x,1/2+y,-z
1/2-x,1/2-y,-z
1/2+x,1/2-y,z
loop_
_atom_site_type_symbol
_atom_site_label
_atom_site_fract_x
_atom_site_fract_y
_atom_site_fract_z
Si Si1 0.202177 0.334957 0.024535
Si Si2 0.741574 0.592122 0.638495
Si Si3 0.360173 0.702744 0.413869
Si Si4 0.527665 0.908947 0.842493
Si Si5 0.375744 0.587193 0.563385
Si Si6 0.274677 0.907653 0.173666
Si Si7 0.936922 0.634253 0.372637
Si Si8 0.318827 0.090654 0.775681
O O1 0.222266 0.372813 0.105514
O O2 0.075410 0.353594 0.094989
O O3 0.250000 0.250000 0.000000
O O4 0.250484 0.371849 0.902731
O O5 0.718688 0.500000 0.650550
O O6 0.649415 0.647255 0.663366
O O7 0.846700 0.608422 0.504736
O O8 0.766866 0.616518 0.720471
O O9 0.250000 0.750000 0.500000
O O10 0.365652 0.645751 0.491422
O O11 0.444030 0.772538 0.358480
O O12 0.608581 0.889871 0.865219
O O13 0.588082 0.899149 0.707014
O O14 0.494712 0.000000 0.873456
O O15 0.500000 0.582434 0.500000
O O16 0.337668 0.500000 0.567275
O O17 0.310414 0.615113 0.693234
O O18 0.270730 0.000000 0.167578
O O19 0.053440 0.604193 0.318420
O O20 0.300392 0.000000 0.795109
#
# Coordination Sequence:
#
# PCOD9179851 Si02
#       8
#     8   8   8   8   8   8   8   8
#     4  11  23  35  53  84 119 149 180 230 294 351
#     4  10  19  33  53  76 108 151 191 226 272 334
#     4  10  21  32  49  80 114 147 182 226 280 338
#     4  10  20  37  62  88 114 146 192 244 286 336
#     4  10  22  39  59  84 114 151 195 240 287 347
#     4  10  20  38  63  83 107 149 197 245 292 337
#     4  10  19  31  51  82 113 142 178 231 291 335
#     4  10  21  37  56  78 107 145 191 235 272 326
#
# _framework density 19.443418000000001
#
# number of rings (size 3 to 8) (size 9 to 14) (size 15 to 20)
#    0.000    1.875    0.000    5.625    0.000   10.000 
#    0.000    0.000    0.000    0.000    0.000    0.000 
#    0.000   27.000    0.000    0.000    0.000    0.000 
#
# Total GULP energy -178556.045421 kJ/mol
# GULP energy per Si atom -5579.876419 kJ/mol
# Density = 1.939916 g / cm^3
# Si number density = 19.443418 Si / 1000 Ang^3
#
#
#
# Elastic Constant Matrix: (Units=GPa)
#
#
# Indices 1 2 3 4 5 6 
#
# 1 67.3493 47.4520 45.7139 0.0000 28.4632 0.0000
# 2 47.4520 82.7390 33.0650 0.0000 18.8262 0.0000
# 3 45.7139 33.0650 74.0238 0.0000 24.6265 0.0000
# 4 0.0000 0.0000 0.0000 6.6171 0.0000 -64.3581
# 5 28.4632 18.8262 24.6265 0.0000 35.2271 0.0000
# 6 0.0000 0.0000 0.0000 -64.3581 0.0000 -46.0860
#
#
#
# Elastic Compliance Matrix: (Units=1/GPa)
#
#
# Indices 1 2 3 4 5 6 
#
# 1 0.040932 -0.014450 -0.013538 0.000000 -0.015886 0.000000
# 2 -0.014450 0.020321 -0.000553 0.000000 0.001202 0.000000
# 3 -0.013538 -0.000553 0.023949 0.000000 -0.005508 0.000000
# 4 0.000000 0.000000 0.000000 0.010364 0.000000 -0.014473
# 5 -0.015886 0.001202 -0.005508 0.000000 0.044431 0.000000
# 6 0.000000 0.000000 0.000000 -0.014473 0.000000 -0.001488
#
#
# Mechanical properties :
#
#
# Convention : Reuss Voigt Hill
#
# Bulk Modulus (GPa) = 35.56293 52.95264 44.25779
# Shear Modulus (GPa) = 24.39445 5.67707 15.03576
#
# Velocity S-wave (km/s) = 3.54593 1.71059 2.78386
# Velocity P-wave (km/s) = 5.92410 5.58524 5.75716
#
# Compressibility (1/GPa) = 0.02811917
#
# Stress axis : x y z
#
# Youngs Moduli (GPa) = 24.43086 49.21006 41.75488
#
# Poissons Ratio (x) = 0.71109 0.56528
# Poissons Ratio (y) = 0.35303 0.02310
# Poissons Ratio (z) = 0.33075 0.02722
#
# Static dielectric constant tensor:
#      x y z
#    x 1.694860 0.000000 -0.000080 
#    y 0.000000 1.531650 0.000000 
#    z -0.000080 0.000000 1.715430 
# 
# From -- ./inp_files/225682.got.cif
#   From: 2010.05.17/outbox.cif.g08.bks.cpg/sg12_113_cif.got.tgz:225682.got - 2010.06.03 13:09:07.
