data_PCOD9179802
_publ_section_title
;
Structure prediction by ZEFSAII (Michael W. Deem and Ramdas Pophale) SiO2 
 PCOD9179802
Probable space group: C 2/M
;
_chemical_formula_sum "Si O2"
_cell_formula_units_Z 56
_cell_length_a 22.984609
_cell_length_b 14.012752
_cell_length_c 10.405006
_cell_angle_alpha 90.000000
_cell_angle_beta 105.484701
_cell_angle_gamma 90.000000
_cell_volume 3229.576308
_symmetry_space_group_name_H-M "C 2/M"
_symmetry_group_IT_number 12
_symmetry_cell_setting 'monoclinic'
loop_
_space_group_symop_operation_xyz
x,y,z
-x,y,-z
-x,-y,-z
x,-y,z
1/2+x,1/2+y,z
1/2-x,1/2+y,-z
1/2-x,1/2-y,-z
1/2+x,1/2-y,z
loop_
_atom_site_type_symbol
_atom_site_label
_atom_site_fract_x
_atom_site_fract_y
_atom_site_fract_z
Si Si1 0.319824 0.723153 0.560453
Si Si2 0.349092 0.243206 0.306555
Si Si3 0.105571 0.606231 0.020112
Si Si4 0.682875 0.286107 0.984197
Si Si5 0.544067 0.109413 0.709100
Si Si6 0.271811 0.609554 0.758598
Si Si7 0.910534 0.610115 0.692233
O O1 0.250000 0.750000 0.500000
O O2 0.345468 0.697442 0.435426
O O3 0.314783 0.644612 0.668125
O O4 0.358415 0.815004 0.627925
O O5 0.345379 0.302944 0.172521
O O6 0.408729 0.178260 0.332406
O O7 0.290012 0.172742 0.273511
O O8 0.135022 0.500000 0.028848
O O9 0.078779 0.612506 0.147104
O O10 0.149176 0.695985 0.027967
O O11 0.061369 0.611141 0.871637
O O12 0.750000 0.250000 0.000000
O O13 0.690672 0.370889 0.089148
O O14 0.473526 0.133912 0.659553
O O15 0.552258 0.000000 0.670215
O O16 0.254870 0.500000 0.734945
O O17 0.894162 0.500000 0.651010
#
# Coordination Sequence:
#
# PCOD9179802 Si02
#       7
#     8   8   8   8   8   8   8
#     4  10  21  35  50  71 105 141 178 212 250 306
#     4   9  19  33  51  74 109 137 165 210 263 313
#     4   9  16  29  49  76 110 140 166 205 258 314
#     4   9  17  30  50  73 100 133 176 215 254 300
#     4   9  17  29  49  80 112 139 166 200 258 327
#     4  10  19  34  54  73 100 139 181 218 256 298
#     4  10  19  31  51  79 110 141 172 207 251 314
#
# _framework density 17.339735999999998
#
# number of rings (size 3 to 8) (size 9 to 14) (size 15 to 20)
#    0.000    2.571    1.429    0.857    0.000    8.571 
#    0.000    2.143    0.000    0.000    0.000   10.000 
#    0.000    0.000    0.000    0.000    0.000    0.000 
#
# Total GULP energy -155912.448476 kJ/mol
# GULP energy per Si atom -5568.301731 kJ/mol
# Density = 1.730027 g / cm^3
# Si number density = 17.339736 Si / 1000 Ang^3
#
#
#
# Elastic Constant Matrix: (Units=GPa)
#
#
# Indices 1 2 3 4 5 6 
#
# 1 76.0999 16.7528 17.0667 0.0000 -3.7352 0.0000
# 2 16.7528 33.5024 15.2923 0.0000 -0.7912 0.0000
# 3 17.0667 15.2923 84.5555 0.0000 -20.8832 0.0000
# 4 0.0000 0.0000 0.0000 6.3040 0.0000 2.9447
# 5 -3.7352 -0.7912 -20.8832 0.0000 24.5554 0.0000
# 6 0.0000 0.0000 0.0000 2.9447 0.0000 24.3137
#
#
#
# Elastic Compliance Matrix: (Units=1/GPa)
#
#
# Indices 1 2 3 4 5 6 
#
# 1 0.015028 -0.006747 -0.001648 0.000000 0.000667 0.000000
# 2 -0.006747 0.036057 -0.006489 0.000000 -0.005383 0.000000
# 3 -0.001648 -0.006489 0.016734 0.000000 0.013772 0.000000
# 4 0.000000 0.000000 0.000000 0.168142 0.000000 -0.020364
# 5 0.000667 -0.005383 0.013772 0.000000 0.052364 0.000000
# 6 0.000000 0.000000 0.000000 -0.020364 0.000000 0.043595
#
#
# Mechanical properties :
#
#
# Convention : Reuss Voigt Hill
#
# Bulk Modulus (GPa) = 26.28017 32.48680 29.38349
# Shear Modulus (GPa) = 13.35566 20.70436 17.03001
#
# Velocity S-wave (km/s) = 2.77832 3.45924 3.13731
# Velocity P-wave (km/s) = 5.04787 5.89332 5.48691
#
# Compressibility (1/GPa) = 0.03805150
#
# Stress axis : x y z
#
# Youngs Moduli (GPa) = 66.54133 27.73386 59.75806
#
# Poissons Ratio (x) = 0.18711 0.09851
# Poissons Ratio (y) = 0.44893 0.38776
# Poissons Ratio (z) = 0.10969 0.17996
#
# Static dielectric constant tensor:
#      x y z
#    x 1.600010 0.000000 -0.042930 
#    y 0.000000 1.538480 0.000000 
#    z -0.042930 0.000000 1.717160 
# 
# From -- ./inp_files/165032.got.cif
#   From: 2010.05.17/outbox.cif.g08.bks.cpg/sg12_83_cif.got.tgz:165032.got - 2010.06.03 13:09:07.
