data_PCOD9179460
_publ_section_title
;
Structure prediction by ZEFSAII (Michael W. Deem and Ramdas Pophale) SiO2 
 PCOD9179460
Probable space group: C 2/M
;
_chemical_formula_sum "Si O2"
_cell_formula_units_Z 64
_cell_length_a 12.920122
_cell_length_b 21.865905
_cell_length_c 12.373777
_cell_angle_alpha 90.000000
_cell_angle_beta 108.644925
_cell_angle_gamma 90.000000
_cell_volume 3312.255557
_symmetry_space_group_name_H-M "C 2/M"
_symmetry_group_IT_number 12
_symmetry_cell_setting 'monoclinic'
loop_
_space_group_symop_operation_xyz
x,y,z
-x,y,-z
-x,-y,-z
x,-y,z
1/2+x,1/2+y,z
1/2-x,1/2+y,-z
1/2-x,1/2-y,-z
1/2+x,1/2-y,z
loop_
_atom_site_type_symbol
_atom_site_label
_atom_site_fract_x
_atom_site_fract_y
_atom_site_fract_z
Si Si1 0.586667 0.429108 0.288719
Si Si2 0.143534 0.280032 0.644707
Si Si3 0.751181 0.070996 0.453758
Si Si4 0.174544 0.689755 0.980731
Si Si5 0.419794 0.645385 0.371293
Si Si6 0.679101 0.345675 0.148290
Si Si7 0.398850 0.183321 0.598664
Si Si8 0.927189 0.721435 0.844300
O O1 0.553866 0.500000 0.275148
O O2 0.683273 0.423812 0.410767
O O3 0.490655 0.386053 0.302090
O O4 0.627255 0.404174 0.187629
O O5 0.130192 0.210230 0.678621
O O6 0.233123 0.316807 0.739409
O O7 0.157030 0.282144 0.520171
O O8 0.027839 0.312883 0.624854
O O9 0.831569 0.098573 0.389546
O O10 0.647368 0.115047 0.419050
O O11 0.727373 0.000000 0.427251
O O12 0.251109 0.644095 0.937763
O O13 0.055001 0.702813 0.888544
O O14 0.250000 0.750000 0.000000
O O15 0.141078 0.679535 0.094121
O O16 0.500000 0.659220 0.500000
O O17 0.590616 0.290350 0.117358
O O18 0.380918 0.214335 0.708696
#
# Coordination Sequence:
#
# PCOD9179460 Si02
#       8
#     8   8   8   8   8   8   8   8
#     4  10  21  35  52  78 114 162 198 224 272 336
#     4  11  21  32  52  88 119 148 179 230 302 338
#     4  10  21  35  50  74 114 163 198 225 264 327
#     4   9  20  37  55  82 111 143 185 237 297 344
#     4  10  19  31  50  73 111 148 192 235 271 334
#     4  11  20  34  57  81 119 146 188 236 284 348
#     4  11  20  34  52  81 120 148 186 228 281 351
#     4  10  20  34  58  83 112 146 187 239 295 338
#
# _framework density 19.322181
#
# number of rings (size 3 to 8) (size 9 to 14) (size 15 to 20)
#    0.000    1.750    3.750    1.875    1.750    2.500 
#    0.000    1.875    0.000    0.750    0.000    8.750 
#    0.000    0.000    0.000    0.000    0.000    0.000 
#
# Total GULP energy -178598.484459 kJ/mol
# GULP energy per Si atom -5581.202639 kJ/mol
# Density = 1.927820 g / cm^3
# Si number density = 19.322181 Si / 1000 Ang^3
#
#
#
# Elastic Constant Matrix: (Units=GPa)
#
#
# Indices 1 2 3 4 5 6 
#
# 1 98.5856 34.1063 19.2805 0.0000 -17.3147 0.0000
# 2 34.1063 85.6853 1.5148 0.0000 -0.7527 0.0000
# 3 19.2805 1.5148 62.4303 0.0000 -18.5646 0.0000
# 4 0.0000 0.0000 0.0000 9.3410 0.0000 1.5147
# 5 -17.3147 -0.7527 -18.5646 0.0000 29.5368 0.0000
# 6 0.0000 0.0000 0.0000 1.5147 0.0000 25.1449
#
#
#
# Elastic Compliance Matrix: (Units=1/GPa)
#
#
# Indices 1 2 3 4 5 6 
#
# 1 0.013523 -0.005288 -0.002129 0.000000 0.006455 0.000000
# 2 -0.005288 0.013744 0.000593 0.000000 -0.002377 0.000000
# 3 -0.002129 0.000593 0.020040 0.000000 0.011363 0.000000
# 4 0.000000 0.000000 0.000000 0.108111 0.000000 -0.006513
# 5 0.006455 -0.002377 0.011363 0.000000 0.044721 0.000000
# 6 0.000000 0.000000 0.000000 -0.006513 0.000000 0.040162
#
#
# Mechanical properties :
#
#
# Convention : Reuss Voigt Hill
#
# Bulk Modulus (GPa) = 29.71008 39.61162 34.66085
# Shear Modulus (GPa) = 18.85590 25.59116 22.22353
#
# Velocity S-wave (km/s) = 3.12728 3.64324 3.39507
# Velocity P-wave (km/s) = 5.33379 6.18407 5.77460
#
# Compressibility (1/GPa) = 0.03365861
#
# Stress axis : x y z
#
# Youngs Moduli (GPa) = 73.94850 72.75780 49.90074
#
# Poissons Ratio (x) = 0.38477 0.10622
# Poissons Ratio (y) = 0.39107 -0.02958
# Poissons Ratio (z) = 0.15741 -0.04313
#
# Static dielectric constant tensor:
#      x y z
#    x 1.724430 0.000000 -0.027370 
#    y 0.000000 1.635750 0.000000 
#    z -0.027370 0.000000 1.734180 
# 
# From -- ./inp_files/207703.got.cif
#   From: 2010.05.17/outbox.cif.g08.bks.cpg/sg12_104_cif.got.tgz:207703.got - 2010.06.03 13:09:07.
