data_PCOD9179947
_publ_section_title
;
Structure prediction by ZEFSAII (Michael W. Deem and Ramdas Pophale) SiO2 
 PCOD9179947
Probable space group: C 2/M
;
_chemical_formula_sum "Si O2"
_cell_formula_units_Z 64
_cell_length_a 25.697909
_cell_length_b 8.841034
_cell_length_c 34.267989
_cell_angle_alpha 90.000000
_cell_angle_beta 151.715181
_cell_angle_gamma 90.000000
_cell_volume 3689.222466
_symmetry_space_group_name_H-M "C 2/M"
_symmetry_group_IT_number 12
_symmetry_cell_setting 'monoclinic'
loop_
_space_group_symop_operation_xyz
x,y,z
-x,y,-z
-x,-y,-z
x,-y,z
1/2+x,1/2+y,z
1/2-x,1/2+y,-z
1/2-x,1/2-y,-z
1/2+x,1/2-y,z
loop_
_atom_site_type_symbol
_atom_site_label
_atom_site_fract_x
_atom_site_fract_y
_atom_site_fract_z
Si Si1 0.346727 0.179944 0.507790
Si Si2 0.345540 0.181116 0.724349
Si Si3 0.901416 0.819230 0.464227
Si Si4 0.490513 0.318971 0.324896
Si Si5 0.399877 0.681535 0.680203
Si Si6 0.240018 0.682026 0.806811
Si Si7 0.900252 0.319109 0.847745
Si Si8 0.918429 0.173207 0.983559
O O1 0.409050 0.227645 0.509320
O O2 0.403949 0.266335 0.580840
O O3 0.220297 0.224415 0.416313
O O4 0.351894 0.000000 0.517417
O O5 0.216409 0.216777 0.632898
O O6 0.408357 0.249543 0.728753
O O7 0.383980 0.232017 0.792403
O O8 0.356279 0.000000 0.729924
O O9 0.000000 0.785692 0.500000
O O10 0.903247 0.000000 0.473917
O O11 0.480771 0.500000 0.320564
O O12 0.511215 0.273975 0.293516
O O13 0.382848 0.242573 0.271686
O O14 0.400463 0.500000 0.683881
O O15 0.243003 0.500000 0.806782
O O16 0.307943 0.747399 0.815084
O O17 0.305177 0.727972 0.889545
O O18 0.888927 0.500000 0.841930
O O19 0.018514 0.270614 0.942818
O O20 0.906557 0.000000 0.989347
O O21 0.000000 0.170511 0.000000
#
# Coordination Sequence:
#
# PCOD9179947 Si02
#       8
#     8   8   8   8   8   8   8   8
#     4  10  20  34  51  74 100 131 174 214 254 303
#     4   9  19  33  50  75 102 133 171 209 250 299
#     4   9  18  32  49  68  99 140 171 204 252 297
#     4  11  22  35  53  76 102 133 171 216 261 305
#     4   9  20  37  54  73  99 134 175 216 256 299
#     4  10  21  35  51  77 107 136 168 207 259 307
#     4  10  19  31  52  81 109 136 169 207 249 305
#     4   8  16  32  51  72 103 137 168 203 250 307
#
# _framework density 17.347829000000001
#
# number of rings (size 3 to 8) (size 9 to 14) (size 15 to 20)
#    0.000    2.500    0.000    2.625    1.750    5.500 
#    0.000    0.000    0.000    0.750    0.000    0.000 
#    0.000    0.000    0.000    0.000    0.000    0.000 
#
# Total GULP energy -178448.429614 kJ/mol
# GULP energy per Si atom -5576.513425 kJ/mol
# Density = 1.730834 g / cm^3
# Si number density = 17.347829 Si / 1000 Ang^3
#
#
#
# Elastic Constant Matrix: (Units=GPa)
#
#
# Indices 1 2 3 4 5 6 
#
# 1 77.7131 25.7220 36.9513 -0.0001 -24.3177 0.0004
# 2 25.7220 34.4568 24.8701 -0.0001 -11.0648 -0.0003
# 3 36.9513 24.8701 65.7225 -0.0005 -26.7959 -0.0001
# 4 -0.0001 -0.0001 -0.0005 27.1851 0.0000 -4.6787
# 5 -24.3177 -11.0648 -26.7959 0.0000 24.5522 -0.0002
# 6 0.0004 -0.0003 -0.0001 -4.6787 -0.0002 23.8098
#
#
#
# Elastic Compliance Matrix: (Units=1/GPa)
#
#
# Indices 1 2 3 4 5 6 
#
# 1 0.021875 -0.009729 -0.002831 0.000000 0.014192 0.000000
# 2 -0.009729 0.044354 -0.012780 0.000000 -0.003595 0.000001
# 3 -0.002831 -0.012780 0.032704 0.000001 0.027130 0.000000
# 4 0.000000 0.000000 0.000001 0.038072 0.000000 0.007481
# 5 0.014192 -0.003595 0.027130 0.000000 0.082774 0.000001
# 6 0.000000 0.000001 0.000000 0.007481 0.000001 0.043470
#
#
# Mechanical properties :
#
#
# Convention : Reuss Voigt Hill
#
# Bulk Modulus (GPa) = 20.72387 39.21992 29.97189
# Shear Modulus (GPa) = 15.15083 21.13269 18.14176
#
# Velocity S-wave (km/s) = 2.95847 3.49402 3.23734
# Velocity P-wave (km/s) = 4.86231 6.23976 5.59360
#
# Compressibility (1/GPa) = 0.04825353
#
# Stress axis : x y z
#
# Youngs Moduli (GPa) = 45.71430 22.54566 30.57697
#
# Poissons Ratio (x) = 0.21935 0.08657
# Poissons Ratio (y) = 0.44476 0.39077
# Poissons Ratio (z) = 0.12942 0.28813
#
# Static dielectric constant tensor:
#      x y z
#    x 1.576050 0.000000 -0.005820 
#    y 0.000000 1.582170 0.000000 
#    z -0.005820 0.000000 1.599230 
# 
# From -- ./inp_files/382444.got.cif
#   From: 2010.05.17/outbox.cif.g08.bks.cpg/sg12_192_cif.got.tgz:382444.got - 2010.06.03 13:09:07.
