data_PCOD9179407
_publ_section_title
;
Structure prediction by ZEFSAII (Michael W. Deem and Ramdas Pophale) SiO2 
 PCOD9179407
Probable space group: C 2/M
;
_chemical_formula_sum "Si O2"
_cell_formula_units_Z 58
_cell_length_a 25.042603
_cell_length_b 7.486562
_cell_length_c 15.116921
_cell_angle_alpha 90.000000
_cell_angle_beta 80.559541
_cell_angle_gamma 90.000000
_cell_volume 2795.781415
_symmetry_space_group_name_H-M "C 2/M"
_symmetry_group_IT_number 12
_symmetry_cell_setting 'monoclinic'
loop_
_space_group_symop_operation_xyz
x,y,z
-x,y,-z
-x,-y,-z
x,-y,z
1/2+x,1/2+y,z
1/2-x,1/2+y,-z
1/2-x,1/2-y,-z
1/2+x,1/2-y,z
loop_
_atom_site_type_symbol
_atom_site_label
_atom_site_fract_x
_atom_site_fract_y
_atom_site_fract_z
Si Si1 0.727069 0.206876 0.865792
Si Si2 0.228819 0.283249 0.668010
Si Si3 0.172175 0.792840 0.049726
Si Si4 0.090670 0.286609 0.216443
Si Si5 0.629675 0.784025 0.578218
Si Si6 0.500000 0.500000 0.500000
Si Si7 0.354482 0.790947 0.618903
Si Si8 0.511293 0.213976 0.652177
O O1 0.715989 0.279357 0.771496
O O2 0.780189 0.285434 0.900056
O O3 0.740571 0.000000 0.846433
O O4 0.679095 0.214291 0.950264
O O5 0.227643 0.500000 0.664523
O O6 0.183713 0.218670 0.611418
O O7 0.289800 0.225199 0.631256
O O8 0.117050 0.778736 0.118856
O O9 0.184619 0.000000 0.033294
O O10 0.097370 0.500000 0.211819
O O11 0.123980 0.217317 0.293700
O O12 0.028216 0.249338 0.254836
O O13 0.623531 0.713507 0.479528
O O14 0.574953 0.747600 0.646588
O O15 0.634265 0.000000 0.570394
O O16 0.493402 0.341951 0.578011
O O17 0.369752 0.000000 0.615922
O O18 0.505932 0.000000 0.632578
#
# Coordination Sequence:
#
# PCOD9179407 Si02
#       8
#     8   8   8   8   8   2   8   8
#     4   9  18  32  49  77 107 137 175 220 277 336
#     4  10  19  34  54  77 106 144 183 223 268 328
#     4  10  19  31  52  77 107 136 171 226 280 331
#     4  10  20  34  55  78 109 146 178 223 282 332
#     4   9  19  37  56  73 107 151 188 222 268 325
#     4  12  22  36  60  86 108 146 198 240 276 332
#     4  10  19  31  49  77 107 142 179 219 269 327
#     4  10  22  40  57  81 115 150 189 238 285 322
#
# _framework density 20.745540999999999
#
# number of rings (size 3 to 8) (size 9 to 14) (size 15 to 20)
#    0.000    2.207    1.379    1.862    0.966    3.310 
#    4.966    0.000    0.000    0.828    0.000    5.793 
#    0.000    0.000    0.000    0.000    0.000    0.000 
#
# Total GULP energy -161554.792631 kJ/mol
# GULP energy per Si atom -5570.854918 kJ/mol
# Density = 2.069832 g / cm^3
# Si number density = 20.745541 Si / 1000 Ang^3
#
#
#
# Elastic Constant Matrix: (Units=GPa)
#
#
# Indices 1 2 3 4 5 6 
#
# 1 75.3874 -13.3124 14.2434 0.0000 -17.6710 0.0000
# 2 -13.3124 64.2535 -11.5985 0.0000 1.4241 0.0000
# 3 14.2434 -11.5985 67.6060 0.0000 -21.7505 0.0000
# 4 0.0000 0.0000 0.0000 12.4959 0.0000 -4.4543
# 5 -17.6710 1.4241 -21.7505 0.0000 32.8218 0.0000
# 6 0.0000 0.0000 0.0000 -4.4543 0.0000 12.1834
#
#
#
# Elastic Compliance Matrix: (Units=1/GPa)
#
#
# Indices 1 2 3 4 5 6 
#
# 1 0.015769 0.003059 -0.000138 0.000000 0.008265 0.000000
# 2 0.003059 0.016707 0.003201 0.000000 0.003043 0.000000
# 3 -0.000138 0.003201 0.019447 0.000000 0.012674 0.000000
# 4 0.000000 0.000000 0.000000 0.092018 0.000000 0.033642
# 5 0.008265 0.003043 0.012674 0.000000 0.043185 0.000000
# 6 0.000000 0.000000 0.000000 0.033642 0.000000 0.094378
#
#
# Mechanical properties :
#
#
# Convention : Reuss Voigt Hill
#
# Bulk Modulus (GPa) = 15.58442 20.65688 18.12065
# Shear Modulus (GPa) = 17.20283 26.02786 21.61535
#
# Velocity S-wave (km/s) = 2.88276 3.54591 3.23139
# Velocity P-wave (km/s) = 4.31380 5.17141 4.76195
#
# Compressibility (1/GPa) = 0.06416663
#
# Stress axis : x y z
#
# Youngs Moduli (GPa) = 63.41755 59.85352 51.42049
#
# Poissons Ratio (x) = -0.18308 0.00711
# Poissons Ratio (y) = -0.19399 -0.16459
# Poissons Ratio (z) = 0.00876 -0.19159
#
# Static dielectric constant tensor:
#      x y z
#    x 1.760090 0.000000 -0.013710 
#    y 0.000000 1.777110 0.000000 
#    z -0.013710 0.000000 1.752480 
# 
# From -- ./inp_files/237598.got.cif
#   From: 2010.05.17/outbox.cif.g08.bks.cpg/sg12_119_cif.got.tgz:237598.got - 2010.06.03 13:09:07.
