data_PCOD9179027
_publ_section_title
;
Structure prediction by ZEFSAII (Michael W. Deem and Ramdas Pophale) SiO2 
 PCOD9179027
Probable space group: C 2/M
;
_chemical_formula_sum "Si O2"
_cell_formula_units_Z 56
_cell_length_a 27.944377
_cell_length_b 8.819921
_cell_length_c 14.971220
_cell_angle_alpha 90.000000
_cell_angle_beta 76.567839
_cell_angle_gamma 90.000000
_cell_volume 3588.979389
_symmetry_space_group_name_H-M "C 2/M"
_symmetry_group_IT_number 12
_symmetry_cell_setting 'monoclinic'
loop_
_space_group_symop_operation_xyz
x,y,z
-x,y,-z
-x,-y,-z
x,-y,z
1/2+x,1/2+y,z
1/2-x,1/2+y,-z
1/2-x,1/2-y,-z
1/2+x,1/2-y,z
loop_
_atom_site_type_symbol
_atom_site_label
_atom_site_fract_x
_atom_site_fract_y
_atom_site_fract_z
Si Si1 0.936092 0.680766 0.219482
Si Si2 0.118285 0.318572 0.211205
Si Si3 0.803627 0.318533 0.966990
Si Si4 0.038631 0.180714 0.111722
Si Si5 0.431287 0.317243 0.607092
Si Si6 0.956221 0.182185 0.397007
Si Si7 0.609164 0.182677 0.939262
O O1 0.939404 0.500000 0.224431
O O2 0.931869 0.747996 0.320148
O O3 0.894519 0.718732 0.163922
O O4 0.986725 0.744737 0.156671
O O5 0.111388 0.500000 0.208069
O O6 0.076363 0.234831 0.171904
O O7 0.109788 0.262291 0.315177
O O8 0.169057 0.280732 0.138349
O O9 0.799747 0.500000 0.973039
O O10 0.841416 0.271095 0.029631
O O11 0.750000 0.250000 0.000000
O O12 0.034098 0.000000 0.112904
O O13 0.063652 0.240221 0.010299
O O14 0.427276 0.500000 0.616153
O O15 0.485899 0.274518 0.619991
O O16 0.431522 0.276856 0.502257
O O17 0.955428 0.000000 0.390163
O O18 0.604229 0.000000 0.951774
#
# Coordination Sequence:
#
# PCOD9179027 Si02
#       7
#     8   8   8   8   8   8   8
#     4  11  20  30  45  65  92 128 161 189 228 272
#     4  10  19  31  48  70  96 124 156 194 234 278
#     4   9  19  35  52  71  94 118 148 191 238 282
#     4  11  20  29  43  65  93 125 161 194 224 267
#     4   9  17  30  46  66  94 128 160 195 234 268
#     4   9  18  30  44  65  96 128 161 198 229 263
#     4   9  20  35  47  64  93 123 153 191 233 279
#
# _framework density 15.603320999999999
#
# number of rings (size 3 to 8) (size 9 to 14) (size 15 to 20)
#    0.000    2.286    1.429    4.286    0.000    6.286 
#    0.000    1.429    0.000    0.000    0.000    1.000 
#    0.000    0.000    0.000    0.000    0.000    0.000 
#
# Total GULP energy -156104.984745 kJ/mol
# GULP energy per Si atom -5575.178027 kJ/mol
# Density = 1.556781 g / cm^3
# Si number density = 15.603321 Si / 1000 Ang^3
#
#
#
# Elastic Constant Matrix: (Units=GPa)
#
#
# Indices 1 2 3 4 5 6 
#
# 1 64.6198 21.3595 60.6816 0.0000 -5.3729 0.0000
# 2 21.3595 27.4488 40.7928 0.0000 3.4139 0.0000
# 3 60.6816 40.7928 145.9222 0.0000 11.0754 0.0000
# 4 0.0000 0.0000 0.0000 29.8821 0.0000 -1.7970
# 5 -5.3729 3.4139 11.0754 0.0000 19.5353 0.0000
# 6 0.0000 0.0000 0.0000 -1.7970 0.0000 15.6096
#
#
#
# Elastic Compliance Matrix: (Units=1/GPa)
#
#
# Indices 1 2 3 4 5 6 
#
# 1 0.030525 -0.008689 -0.011513 0.000000 0.016441 0.000000
# 2 -0.008689 0.064818 -0.014071 0.000000 -0.005739 0.000000
# 3 -0.011513 -0.014071 0.016331 0.000000 -0.009966 0.000000
# 4 0.000000 0.000000 0.000000 0.033698 0.000000 0.003879
# 5 0.016441 -0.005739 -0.009966 0.000000 0.062365 0.000000
# 6 0.000000 0.000000 0.000000 0.003879 0.000000 0.064510
#
#
# Mechanical properties :
#
#
# Convention : Reuss Voigt Hill
#
# Bulk Modulus (GPa) = 23.18640 53.73985 38.46313
# Shear Modulus (GPa) = 14.07784 20.68253 17.38018
#
# Velocity S-wave (km/s) = 3.00698 3.64472 3.34110
# Velocity P-wave (km/s) = 5.19115 7.22690 6.29190
#
# Compressibility (1/GPa) = 0.04312872
#
# Stress axis : x y z
#
# Youngs Moduli (GPa) = 32.75973 15.42774 61.23444
#
# Poissons Ratio (x) = 0.13404 0.70498
# Poissons Ratio (y) = 0.28463 0.86165
# Poissons Ratio (z) = 0.37716 0.21709
#
# Static dielectric constant tensor:
#      x y z
#    x 1.504480 0.000000 0.026460 
#    y 0.000000 1.521440 0.000000 
#    z 0.026460 0.000000 1.558290 
# 
# From -- ./inp_files/242995.got.cif
#   From: 2010.05.17/outbox.cif.g08.bks.cpg/sg12_122_cif.got.tgz:242995.got - 2010.06.03 13:09:07.
