data_PCOD9179361
_publ_section_title
;
Structure prediction by ZEFSAII (Michael W. Deem and Ramdas Pophale) SiO2 
 PCOD9179361
Probable space group: C 2/M
;
_chemical_formula_sum "Si O2"
_cell_formula_units_Z 64
_cell_length_a 27.050048
_cell_length_b 13.762960
_cell_length_c 16.274538
_cell_angle_alpha 90.000000
_cell_angle_beta 34.765207
_cell_angle_gamma 90.000000
_cell_volume 3454.832968
_symmetry_space_group_name_H-M "C 2/M"
_symmetry_group_IT_number 12
_symmetry_cell_setting 'monoclinic'
loop_
_space_group_symop_operation_xyz
x,y,z
-x,y,-z
-x,-y,-z
x,-y,z
1/2+x,1/2+y,z
1/2-x,1/2+y,-z
1/2-x,1/2-y,-z
1/2+x,1/2-y,z
loop_
_atom_site_type_symbol
_atom_site_label
_atom_site_fract_x
_atom_site_fract_y
_atom_site_fract_z
Si Si1 0.647517 0.116626 0.659194
Si Si2 0.983815 0.109572 0.371489
Si Si3 0.396365 0.390590 0.948199
Si Si4 0.039573 0.694615 0.362297
Si Si5 0.969746 0.780705 0.132285
Si Si6 0.842659 0.116586 0.428973
Si Si7 0.307555 0.115499 0.761500
Si Si8 0.111327 0.616060 0.522780
O O1 0.568873 0.172474 0.810053
O O2 0.741664 0.143780 0.566951
O O3 0.644342 0.147594 0.567094
O O4 0.638427 0.000000 0.676057
O O5 0.011290 0.193619 0.395404
O O6 0.898809 0.139611 0.434044
O O7 0.971135 0.000000 0.421050
O O8 0.061623 0.106939 0.199058
O O9 0.413164 0.500000 0.960872
O O10 0.294635 0.373905 0.088365
O O11 0.447438 0.306979 0.925814
O O12 0.139788 0.673120 0.240244
O O13 0.000000 0.649661 0.500000
O O14 0.988474 0.646261 0.356687
O O15 0.892491 0.841824 0.281348
O O16 0.000000 0.806767 0.000000
O O17 0.846576 0.000000 0.417059
O O18 0.336040 0.148989 0.630499
O O19 0.327909 0.000000 0.740859
O O20 0.117518 0.500000 0.514517
#
# Coordination Sequence:
#
# PCOD9179361 Si02
#       8
#     8   8   8   8   8   8   8   8
#     4  10  21  37  56  78 105 146 187 217 257 312
#     4   9  18  34  52  71 100 137 173 214 261 309
#     4   9  19  35  52  74 105 137 169 212 271 324
#     4  10  19  31  49  75 101 133 169 218 263 308
#     4  11  22  33  51  81 110 143 173 220 266 319
#     4   9  19  36  57  80 105 137 181 225 268 317
#     4   9  18  32  51  77 106 133 166 213 268 319
#     4   9  17  30  52  77 102 129 167 217 263 311
#
# _framework density 18.524774000000001
#
# number of rings (size 3 to 8) (size 9 to 14) (size 15 to 20)
#    0.000    2.500    0.000    3.375    1.750    3.500 
#    2.250    0.000    0.000    0.750    0.000    0.000 
#    0.000    0.000    0.000    0.000    0.000    0.000 
#
# Total GULP energy -178255.181424 kJ/mol
# GULP energy per Si atom -5570.474420 kJ/mol
# Density = 1.848261 g / cm^3
# Si number density = 18.524774 Si / 1000 Ang^3
#
#
#
# Elastic Constant Matrix: (Units=GPa)
#
#
# Indices 1 2 3 4 5 6 
#
# 1 72.0074 27.7431 50.0140 0.0000 -14.3378 0.0000
# 2 27.7431 50.5004 19.5161 0.0000 -14.6724 0.0000
# 3 50.0140 19.5161 56.0045 0.0000 -21.9844 0.0000
# 4 0.0000 0.0000 0.0000 23.8673 0.0000 -6.0326
# 5 -14.3378 -14.6724 -21.9844 0.0000 25.5149 0.0000
# 6 0.0000 0.0000 0.0000 -6.0326 0.0000 31.3795
#
#
#
# Elastic Compliance Matrix: (Units=1/GPa)
#
#
# Indices 1 2 3 4 5 6 
#
# 1 0.045779 -0.014045 -0.043913 0.000000 -0.020188 0.000000
# 2 -0.014045 0.028826 0.008925 0.000000 0.016374 0.000000
# 3 -0.043913 0.008925 0.069948 0.000000 0.040725 0.000000
# 4 0.000000 0.000000 0.000000 0.044038 0.000000 0.008466
# 5 -0.020188 0.016374 0.040725 0.000000 0.072354 0.000000
# 6 0.000000 0.000000 0.000000 0.008466 0.000000 0.033496
#
#
# Mechanical properties :
#
#
# Convention : Reuss Voigt Hill
#
# Bulk Modulus (GPa) = 21.51126 41.45099 31.48112
# Shear Modulus (GPa) = 12.25482 21.56826 16.91154
#
# Velocity S-wave (km/s) = 2.57483 3.41588 3.02473
# Velocity P-wave (km/s) = 4.52515 6.16297 5.40644
#
# Compressibility (1/GPa) = 0.04648729
#
# Stress axis : x y z
#
# Youngs Moduli (GPa) = 21.84385 34.69139 14.29630
#
# Poissons Ratio (x) = 0.48722 0.62780
# Poissons Ratio (y) = 0.30679 -0.12759
# Poissons Ratio (z) = 0.95923 -0.30961
#
# Static dielectric constant tensor:
#      x y z
#    x 1.666650 0.000000 -0.010020 
#    y 0.000000 1.693630 0.000000 
#    z -0.010020 0.000000 1.634220 
# 
# From -- ./inp_files/240691.got.cif
#   From: 2010.05.17/outbox.cif.g08.bks.cpg/sg12_121_cif.got.tgz:240691.got - 2010.06.03 13:09:07.
