data_PCOD9179738
_publ_section_title
;
Structure prediction by ZEFSAII (Michael W. Deem and Ramdas Pophale) SiO2 
 PCOD9179738
Probable space group: C 2/M
;
_chemical_formula_sum "Si O2"
_cell_formula_units_Z 56
_cell_length_a 18.659920
_cell_length_b 14.050218
_cell_length_c 12.775272
_cell_angle_alpha 90.000000
_cell_angle_beta 72.900427
_cell_angle_gamma 90.000000
_cell_volume 3201.310829
_symmetry_space_group_name_H-M "C 2/M"
_symmetry_group_IT_number 12
_symmetry_cell_setting 'monoclinic'
loop_
_space_group_symop_operation_xyz
x,y,z
-x,y,-z
-x,-y,-z
x,-y,z
1/2+x,1/2+y,z
1/2-x,1/2+y,-z
1/2-x,1/2-y,-z
1/2+x,1/2-y,z
loop_
_atom_site_type_symbol
_atom_site_label
_atom_site_fract_x
_atom_site_fract_y
_atom_site_fract_z
Si Si1 0.181697 0.109521 0.854144
Si Si2 0.506001 0.610012 0.702282
Si Si3 0.561492 0.697356 0.059119
Si Si4 0.262956 0.109052 0.443898
Si Si5 0.842821 0.108007 0.711342
Si Si6 0.156300 0.791070 0.649324
Si Si7 0.191388 0.277270 0.114878
O O1 0.160593 0.180123 0.768812
O O2 0.267459 0.133677 0.849339
O O3 0.173522 0.000000 0.826320
O O4 0.123422 0.132855 0.972752
O O5 0.529621 0.500000 0.690678
O O6 0.478353 0.638615 0.830986
O O7 0.432191 0.620986 0.662965
O O8 0.576032 0.674551 0.643050
O O9 0.609930 0.780425 0.094959
O O10 0.500000 0.727361 0.000000
O O11 0.201159 0.113496 0.378013
O O12 0.222267 0.150436 0.563542
O O13 0.327824 0.181194 0.381119
O O14 0.286122 0.000000 0.447528
O O15 0.814104 0.189951 0.800946
O O16 0.832021 0.000000 0.758934
O O17 0.250000 0.250000 0.000000
#
# Coordination Sequence:
#
# PCOD9179738 Si02
#       7
#     8   8   8   8   8   8   8
#     4  11  20  32  51  78 109 138 172 213 264 314
#     4  10  19  31  51  80 109 135 167 213 269 318
#     4  10  19  31  51  77 106 138 167 215 269 316
#     4  10  21  37  55  77 105 139 177 215 255 302
#     4   9  18  34  53  74 104 138 173 214 263 312
#     4  11  21  33  54  83 105 135 174 216 259 307
#     4   9  19  32  47  72 104 138 175 203 252 313
#
# _framework density 17.492833999999998
#
# number of rings (size 3 to 8) (size 9 to 14) (size 15 to 20)
#    0.000    2.000    2.857    1.714    0.000    4.571 
#    0.000    2.143    0.000    3.857    0.000    2.000 
#    0.000    0.000    0.000    0.000    0.000    0.000 
#
# Total GULP energy -156067.934757 kJ/mol
# GULP energy per Si atom -5573.854813 kJ/mol
# Density = 1.745302 g / cm^3
# Si number density = 17.492834 Si / 1000 Ang^3
#
#
#
# Elastic Constant Matrix: (Units=GPa)
#
#
# Indices 1 2 3 4 5 6 
#
# 1 81.7044 28.2801 -8.5133 0.0000 -5.2644 0.0000
# 2 28.2801 87.4195 17.7133 0.0000 -21.2512 0.0000
# 3 -8.5133 17.7133 23.0584 0.0000 -8.3584 0.0000
# 4 0.0000 0.0000 0.0000 13.3039 0.0000 -3.5551
# 5 -5.2644 -21.2512 -8.3584 0.0000 18.2852 0.0000
# 6 0.0000 0.0000 0.0000 -3.5551 0.0000 20.2790
#
#
#
# Elastic Compliance Matrix: (Units=1/GPa)
#
#
# Indices 1 2 3 4 5 6 
#
# 1 0.016133 -0.007253 0.012173 0.000000 0.001780 0.000000
# 2 -0.007253 0.020097 -0.012473 0.000000 0.015567 0.000000
# 3 0.012173 -0.012473 0.064077 0.000000 0.018299 0.000000
# 4 0.000000 0.000000 0.000000 0.078860 0.000000 0.013825
# 5 0.001780 0.015567 0.018299 0.000000 0.081658 0.000000
# 6 0.000000 0.000000 0.000000 0.013825 0.000000 0.051736
#
#
# Mechanical properties :
#
#
# Convention : Reuss Voigt Hill
#
# Bulk Modulus (GPa) = 11.73699 29.68252 20.70975
# Shear Modulus (GPa) = 14.04227 20.68710 17.36469
#
# Velocity S-wave (km/s) = 2.83635 3.44263 3.15409
# Velocity P-wave (km/s) = 4.17740 5.72778 5.01289
#
# Compressibility (1/GPa) = 0.08520074
#
# Stress axis : x y z
#
# Youngs Moduli (GPa) = 61.98601 49.75855 15.60617
#
# Poissons Ratio (x) = 0.36089 -0.18997
# Poissons Ratio (y) = 0.44957 0.19466
# Poissons Ratio (z) = -0.75455 0.62065
#
# Static dielectric constant tensor:
#      x y z
#    x 1.635490 0.000000 0.029620 
#    y 0.000000 1.581650 0.000000 
#    z 0.029620 0.000000 1.613500 
# 
# From -- ./inp_files/155951.got.cif
#   From: 2010.05.17/outbox.cif.g08.bks.cpg/sg12_78_cif.got.tgz:155951.got - 2010.06.03 13:09:07.
