data_PCOD9179722
_publ_section_title
;
Structure prediction by ZEFSAII (Michael W. Deem and Ramdas Pophale) SiO2 
 PCOD9179722
Probable space group: C 2/M
;
_chemical_formula_sum "Si O2"
_cell_formula_units_Z 64
_cell_length_a 15.140805
_cell_length_b 8.096653
_cell_length_c 28.249981
_cell_angle_alpha 90.000000
_cell_angle_beta 75.274465
_cell_angle_gamma 90.000000
_cell_volume 3349.411746
_symmetry_space_group_name_H-M "C 2/M"
_symmetry_group_IT_number 12
_symmetry_cell_setting 'monoclinic'
loop_
_space_group_symop_operation_xyz
x,y,z
-x,y,-z
-x,-y,-z
x,-y,z
1/2+x,1/2+y,z
1/2-x,1/2+y,-z
1/2-x,1/2-y,-z
1/2+x,1/2-y,z
loop_
_atom_site_type_symbol
_atom_site_label
_atom_site_fract_x
_atom_site_fract_y
_atom_site_fract_z
Si Si1 0.486744 0.196952 0.735148
Si Si2 0.285939 0.695707 0.444320
Si Si3 0.969211 0.801411 0.373566
Si Si4 0.597026 0.797608 0.811552
Si Si5 0.717211 0.699305 0.260175
Si Si6 0.827479 0.199710 0.630406
Si Si7 0.147391 0.698904 0.000328
Si Si8 0.963537 0.701800 0.076566
O O1 0.537090 0.259778 0.681075
O O2 0.531427 0.256503 0.777742
O O3 0.381242 0.246962 0.745125
O O4 0.493495 0.000000 0.733598
O O5 0.295081 0.500000 0.444985
O O6 0.250000 0.750000 0.500000
O O7 0.384757 0.765221 0.415259
O O8 0.217871 0.739810 0.411161
O O9 0.067946 0.742598 0.378074
O O10 0.970485 0.000000 0.376995
O O11 0.698732 0.743859 0.783105
O O12 0.564777 0.741756 0.867482
O O13 0.596395 0.000000 0.812450
O O14 0.718616 0.500000 0.260409
O O15 0.723644 0.753021 0.314321
O O16 0.826926 0.000000 0.629741
O O17 0.146819 0.500000 0.000364
O O18 0.065856 0.753183 0.047034
O O19 0.250000 0.750000 0.000000
O O20 0.109548 0.752773 0.953805
O O21 0.963700 0.500000 0.076483
#
# Coordination Sequence:
#
# PCOD9179722 Si02
#       8
#     8   8   8   8   8   8   8   8
#     4  10  19  31  51  77 100 126 164 206 243 284
#     4  11  23  37  54  77 102 129 163 204 249 293
#     4   9  20  38  56  73 100 137 167 195 242 300
#     4   9  17  30  49  72 101 135 167 201 243 296
#     4   9  18  33  52  73  99 133 166 196 241 299
#     4   9  18  35  55  73  97 130 166 200 238 291
#     4   9  17  31  52  72  93 128 171 212 252 295
#     4   8  16  31  48  69  98 133 170 202 244 305
#
# _framework density 19.107832999999999
#
# number of rings (size 3 to 8) (size 9 to 14) (size 15 to 20)
#    0.000    2.750    0.000    3.000    0.000    5.500 
#    0.000    5.000    0.000    3.000    0.000    0.000 
#    0.000    0.000    0.000    0.000    0.000    0.000 
#
# Total GULP energy -178468.790834 kJ/mol
# GULP energy per Si atom -5577.149714 kJ/mol
# Density = 1.906434 g / cm^3
# Si number density = 19.107833 Si / 1000 Ang^3
#
#
#
# Elastic Constant Matrix: (Units=GPa)
#
#
# Indices 1 2 3 4 5 6 
#
# 1 172.8439 15.5491 173.1737 0.0000 10.3882 0.0000
# 2 15.5491 7.8835 22.0140 0.0000 0.7586 0.0000
# 3 173.1737 22.0140 310.3067 0.0000 23.5550 0.0000
# 4 0.0000 0.0000 0.0000 15.8122 0.0000 1.8695
# 5 10.3882 0.7586 23.5550 0.0000 33.4441 0.0000
# 6 0.0000 0.0000 0.0000 1.8695 0.0000 24.2801
#
#
#
# Elastic Compliance Matrix: (Units=1/GPa)
#
#
# Indices 1 2 3 4 5 6 
#
# 1 0.013450 -0.006803 -0.007097 0.000000 0.000975 0.000000
# 2 -0.006803 0.162285 -0.008027 0.000000 0.004085 0.000000
# 3 -0.007097 -0.008027 0.007999 0.000000 -0.003247 0.000000
# 4 0.000000 0.000000 0.000000 0.063824 0.000000 -0.004914
# 5 0.000975 0.004085 -0.003247 0.000000 0.031792 0.000000
# 6 0.000000 0.000000 0.000000 -0.004914 0.000000 0.041564
#
#
# Mechanical properties :
#
#
# Convention : Reuss Voigt Hill
#
# Bulk Modulus (GPa) = 7.14897 101.38974 54.26936
# Shear Modulus (GPa) = 12.15378 33.39377 22.77378
#
# Velocity S-wave (km/s) = 2.52476 4.18502 3.45607
# Velocity P-wave (km/s) = 3.49982 8.74812 6.66252
#
# Compressibility (1/GPa) = 0.13988029
#
# Stress axis : x y z
#
# Youngs Moduli (GPa) = 74.34977 6.16202 125.00851
#
# Poissons Ratio (x) = 0.04192 0.88724
# Poissons Ratio (y) = 0.50579 1.00338
# Poissons Ratio (z) = 0.52770 0.04946
#
# Static dielectric constant tensor:
#      x y z
#    x 1.665750 0.000000 -0.018640 
#    y 0.000000 1.677320 0.000000 
#    z -0.018640 0.000000 1.668360 
# 
# From -- ./inp_files/359826.got.cif
#   From: 2010.05.17/outbox.cif.g08.bks.cpg/sg12_180_cif.got.tgz:359826.got - 2010.06.03 13:09:07.
