data_PCOD9179538
_publ_section_title
;
Structure prediction by ZEFSAII (Michael W. Deem and Ramdas Pophale) SiO2 
 PCOD9179538
Probable space group: C 2/M
;
_chemical_formula_sum "Si O2"
_cell_formula_units_Z 64
_cell_length_a 16.080138
_cell_length_b 7.837055
_cell_length_c 19.516987
_cell_angle_alpha 90.000000
_cell_angle_beta 90.381873
_cell_angle_gamma 90.000000
_cell_volume 2459.494145
_symmetry_space_group_name_H-M "C 2/M"
_symmetry_group_IT_number 12
_symmetry_cell_setting 'monoclinic'
loop_
_space_group_symop_operation_xyz
x,y,z
-x,y,-z
-x,-y,-z
x,-y,z
1/2+x,1/2+y,z
1/2-x,1/2+y,-z
1/2-x,1/2-y,-z
1/2+x,1/2-y,z
loop_
_atom_site_type_symbol
_atom_site_label
_atom_site_fract_x
_atom_site_fract_y
_atom_site_fract_z
Si Si1 0.070055 0.708953 0.079649
Si Si2 0.413105 0.195434 0.669812
Si Si3 0.668366 0.204023 0.954473
Si Si4 0.771300 0.299840 0.829573
Si Si5 0.519560 0.209070 0.792650
Si Si6 0.665987 0.203346 0.461013
Si Si7 0.177276 0.299506 0.704450
Si Si8 0.931137 0.192776 0.411509
O O1 0.067098 0.500000 0.075985
O O2 0.149656 0.762094 0.126487
O O3 0.995045 0.761729 0.129119
O O4 0.092295 0.765048 0.002652
O O5 0.444695 0.267789 0.742110
O O6 0.348013 0.275242 0.615756
O O7 0.498816 0.194744 0.624929
O O8 0.387802 0.000000 0.683212
O O9 0.693034 0.267791 0.879693
O O10 0.660216 0.000000 0.948513
O O11 0.750000 0.250000 0.000000
O O12 0.782541 0.500000 0.822495
O O13 0.756268 0.229533 0.753467
O O14 0.602537 0.261777 0.754312
O O15 0.519507 0.000000 0.792253
O O16 0.750000 0.250000 0.500000
O O17 0.593272 0.262153 0.511742
O O18 0.661953 0.000000 0.455598
O O19 0.169645 0.500000 0.691326
O O20 0.154106 0.208777 0.633683
O O21 0.961367 0.000000 0.407237
#
# Coordination Sequence:
#
# PCOD9179538 Si02
#       8
#     8   8   8   8   8   8   8   8
#     4   8  15  28  49  75  99 129 171 215 256 306
#     4   9  19  36  58  80 105 141 179 217 264 321
#     4   9  16  28  47  71 100 134 173 215 260 312
#     4  10  19  31  50  75 103 135 173 217 262 314
#     4   8  15  31  53  75  98 127 169 214 255 303
#     4  11  23  38  56  82 115 145 178 222 270 316
#     4  10  20  35  55  77 103 135 170 214 265 316
#     4  11  22  37  58  80 105 141 182 221 263 318
#
# _framework density 26.021609999999999
#
# number of rings (size 3 to 8) (size 9 to 14) (size 15 to 20)
#    0.000    2.500    0.000    4.500    0.000    3.500 
#    0.000    3.125    0.000   26.250    0.000    0.000 
#    0.000    0.000    0.000    0.000    0.000    0.000 
#
# Total GULP energy -178879.034056 kJ/mol
# GULP energy per Si atom -5589.969814 kJ/mol
# Density = 2.596238 g / cm^3
# Si number density = 26.021610 Si / 1000 Ang^3
#
#
#
# Elastic Constant Matrix: (Units=GPa)
#
#
# Indices 1 2 3 4 5 6 
#
# 1 75.5890 -7.3384 7.6784 0.0000 0.1061 0.0000
# 2 -7.3384 59.1337 8.2128 0.0000 1.3516 0.0000
# 3 7.6784 8.2128 193.4893 0.0000 5.8332 0.0000
# 4 0.0000 0.0000 0.0000 22.1476 0.0000 3.4723
# 5 0.1061 1.3516 5.8332 0.0000 56.1701 0.0000
# 6 0.0000 0.0000 0.0000 3.4723 0.0000 3.4531
#
#
#
# Elastic Compliance Matrix: (Units=1/GPa)
#
#
# Indices 1 2 3 4 5 6 
#
# 1 0.013462 0.001755 -0.000609 0.000000 -0.000004 0.000000
# 2 0.001755 0.017246 -0.000792 0.000000 -0.000336 0.000000
# 3 -0.000609 -0.000792 0.005242 0.000000 -0.000524 0.000000
# 4 0.000000 0.000000 0.000000 0.053602 0.000000 -0.053900
# 5 -0.000004 -0.000336 -0.000524 0.000000 0.017866 0.000000
# 6 0.000000 0.000000 0.000000 -0.053900 0.000000 0.343798
#
#
# Mechanical properties :
#
#
# Convention : Reuss Voigt Hill
#
# Bulk Modulus (GPa) = 27.27777 38.36861 32.82319
# Shear Modulus (GPa) = 10.80555 37.66477 24.23516
#
# Velocity S-wave (km/s) = 2.03999 3.80865 3.05511
# Velocity P-wave (km/s) = 4.00677 5.84106 5.00861
#
# Compressibility (1/GPa) = 0.03665989
#
# Stress axis : x y z
#
# Youngs Moduli (GPa) = 74.28498 57.98357 190.77440
#
# Poissons Ratio (x) = -0.10177 0.11610
# Poissons Ratio (y) = -0.13039 0.15101
# Poissons Ratio (z) = 0.04521 0.04590
#
# Static dielectric constant tensor:
#      x y z
#    x 2.159140 0.000000 0.002850 
#    y 0.000000 1.934360 0.000000 
#    z 0.002850 0.000000 1.990130 
# 
# From -- ./inp_files/314172.got.cif
#   From: 2010.05.17/outbox.cif.g08.bks.cpg/sg12_158_cif.got.tgz:314172.got - 2010.06.03 13:09:07.
