data_PCOD9179252
_publ_section_title
;
Structure prediction by ZEFSAII (Michael W. Deem and Ramdas Pophale) SiO2 
 PCOD9179252
Probable space group: C 2/M
;
_chemical_formula_sum "Si O2"
_cell_formula_units_Z 56
_cell_length_a 19.297007
_cell_length_b 7.982285
_cell_length_c 24.019831
_cell_angle_alpha 90.000000
_cell_angle_beta 127.980469
_cell_angle_gamma 90.000000
_cell_volume 2916.318135
_symmetry_space_group_name_H-M "C 2/M"
_symmetry_group_IT_number 12
_symmetry_cell_setting 'monoclinic'
loop_
_space_group_symop_operation_xyz
x,y,z
-x,y,-z
-x,-y,-z
x,-y,z
1/2+x,1/2+y,z
1/2-x,1/2+y,-z
1/2-x,1/2-y,-z
1/2+x,1/2-y,z
loop_
_atom_site_type_symbol
_atom_site_label
_atom_site_fract_x
_atom_site_fract_y
_atom_site_fract_z
Si Si1 0.629041 0.692761 0.220208
Si Si2 0.238647 0.303761 0.374525
Si Si3 0.073080 0.302215 0.494683
Si Si4 0.005918 0.794769 0.066647
Si Si5 0.424162 0.203730 0.629303
Si Si6 0.653751 0.300279 0.933009
Si Si7 0.469539 0.197880 0.216286
O O1 0.655482 0.500000 0.226546
O O2 0.702177 0.780810 0.293909
O O3 0.593293 0.760207 0.143560
O O4 0.540745 0.703981 0.214285
O O5 0.250624 0.500000 0.391107
O O6 0.330499 0.216711 0.431776
O O7 0.162350 0.240691 0.379060
O O8 0.053643 0.500000 0.479137
O O9 0.072448 0.231235 0.431674
O O10 0.000000 0.229369 0.500000
O O11 0.919950 0.740779 0.058972
O O12 0.007407 0.000000 0.068166
O O13 0.000000 0.740612 0.000000
O O14 0.508675 0.244166 0.709437
O O15 0.418581 0.000000 0.624443
O O16 0.648757 0.500000 0.928224
O O17 0.623832 0.231930 0.857951
O O18 0.750000 0.250000 0.000000
O O19 0.489508 0.000000 0.220304
#
# Coordination Sequence:
#
# PCOD9179252 Si02
#       7
#     8   8   8   8   8   8   8
#     4   9  16  28  49  74  97 122 157 199 238 278
#     4  10  19  32  51  72  96 125 159 198 236 280
#     4  10  20  34  51  71  97 126 157 195 238 285
#     4   8  15  29  49  72  95 121 157 198 237 278
#     4   8  16  31  51  74  94 119 158 198 237 280
#     4  10  19  31  49  72  98 128 162 199 238 282
#     4   9  16  29  49  71  97 125 156 197 240 282
#
# _framework density 19.202294999999999
#
# number of rings (size 3 to 8) (size 9 to 14) (size 15 to 20)
#    0.000    2.857    0.000    3.857    0.000    0.286 
#    0.000    5.000    0.000   24.000    0.000    0.000 
#    0.000    0.000    0.000    0.000    0.000    0.000 
#
# Total GULP energy -155982.514320 kJ/mol
# GULP energy per Si atom -5570.804083 kJ/mol
# Density = 1.915859 g / cm^3
# Si number density = 19.202295 Si / 1000 Ang^3
#
#
#
# Elastic Constant Matrix: (Units=GPa)
#
#
# Indices 1 2 3 4 5 6 
#
# 1 69.5884 4.2820 70.7731 0.0000 -3.5475 0.0000
# 2 4.2820 21.2702 -6.1028 0.0000 -4.3842 0.0000
# 3 70.7731 -6.1028 175.2181 0.0000 -8.1304 0.0000
# 4 0.0000 0.0000 0.0000 23.2909 0.0000 5.3335
# 5 -3.5475 -4.3842 -8.1304 0.0000 25.4791 0.0000
# 6 0.0000 0.0000 0.0000 5.3335 0.0000 10.9439
#
#
#
# Elastic Compliance Matrix: (Units=1/GPa)
#
#
# Indices 1 2 3 4 5 6 
#
# 1 0.025788 -0.008555 -0.010775 0.000000 -0.001320 0.000000
# 2 -0.008555 0.052368 0.005727 0.000000 0.009647 0.000000
# 3 -0.010775 0.005727 0.010389 0.000000 0.002800 0.000000
# 4 0.000000 0.000000 0.000000 0.048329 0.000000 -0.023553
# 5 -0.001320 0.009647 0.002800 0.000000 0.041618 0.000000
# 6 0.000000 0.000000 0.000000 -0.023553 0.000000 0.102854
#
#
# Mechanical properties :
#
#
# Convention : Reuss Voigt Hill
#
# Bulk Modulus (GPa) = 16.30305 44.88680 30.59492
# Shear Modulus (GPa) = 15.19764 25.08443 20.14103
#
# Velocity S-wave (km/s) = 2.81632 3.61823 3.24217
# Velocity P-wave (km/s) = 4.36854 6.39390 5.47568
#
# Compressibility (1/GPa) = 0.06133823
#
# Stress axis : x y z
#
# Youngs Moduli (GPa) = 38.77734 19.09561 96.25611
#
# Poissons Ratio (x) = 0.16337 1.03720
# Poissons Ratio (y) = 0.33175 -0.55128
# Poissons Ratio (z) = 0.41784 -0.10936
#
# Static dielectric constant tensor:
#      x y z
#    x 1.655260 0.000000 -0.018950 
#    y 0.000000 1.705650 0.000000 
#    z -0.018950 0.000000 1.706650 
# 
# From -- ./inp_files/345635.got.cif
#   From: 2010.05.17/outbox.cif.g08.bks.cpg/sg12_173_cif.got.tgz:345635.got - 2010.06.03 13:09:07.
