data_PCOD9179499
_publ_section_title
;
Structure prediction by ZEFSAII (Michael W. Deem and Ramdas Pophale) SiO2 
 PCOD9179499
Probable space group: C 2/M
;
_chemical_formula_sum "Si O2"
_cell_formula_units_Z 40
_cell_length_a 26.661262
_cell_length_b 7.697491
_cell_length_c 26.318772
_cell_angle_alpha 90.000000
_cell_angle_beta 157.040118
_cell_angle_gamma 90.000000
_cell_volume 2106.960718
_symmetry_space_group_name_H-M "C 2/M"
_symmetry_group_IT_number 12
_symmetry_cell_setting 'monoclinic'
loop_
_space_group_symop_operation_xyz
x,y,z
-x,y,-z
-x,-y,-z
x,-y,z
1/2+x,1/2+y,z
1/2-x,1/2+y,-z
1/2-x,1/2-y,-z
1/2+x,1/2-y,z
loop_
_atom_site_type_symbol
_atom_site_label
_atom_site_fract_x
_atom_site_fract_y
_atom_site_fract_z
Si Si1 0.639851 0.790979 0.856413
Si Si2 0.585705 0.707361 0.198249
Si Si3 0.704913 0.713549 0.094159
Si Si4 0.653528 0.298379 0.155367
Si Si5 0.630104 0.793953 0.352949
O O1 0.689260 0.728728 0.847577
O O2 0.503240 0.721305 0.748310
O O3 0.630495 0.000000 0.844264
O O4 0.750000 0.750000 0.000000
O O5 0.578926 0.500000 0.184356
O O6 0.660887 0.778239 0.218879
O O7 0.644649 0.738265 0.308138
O O8 0.437043 0.768642 0.057832
O O9 0.704868 0.500000 0.094994
O O10 0.718193 0.775175 0.164794
O O11 0.695132 0.500000 0.196868
O O12 0.500000 0.297447 0.000000
O O13 0.750000 0.750000 0.500000
O O14 0.617076 0.000000 0.339738
#
# Coordination Sequence:
#
# PCOD9179499 Si02
#       5
#     8   8   8   8   8
#     4  10  19  31  50  74  98 125 158 199 243 286
#     4   9  15  27  49  72  96 125 156 193 239 285
#     4   8  13  24  45  73 100 121 148 193 242 283
#     4   7  11  20  40  71  97 119 150 187 233 285
#     4  11  23  35  48  69  98 132 168 199 235 286
#
# _framework density 18.984693
#
# number of rings (size 3 to 8) (size 9 to 14) (size 15 to 20)
#    0.000    3.000    2.000    3.000    0.000    0.800 
#    0.000    0.000    0.000    7.800    0.000    8.400 
#    0.000    0.000    0.000    0.000    0.000    0.000 
#
# Total GULP energy -111387.199684 kJ/mol
# GULP energy per Si atom -5569.359984 kJ/mol
# Density = 1.894148 g / cm^3
# Si number density = 18.984693 Si / 1000 Ang^3
#
#
#
# Elastic Constant Matrix: (Units=GPa)
#
#
# Indices 1 2 3 4 5 6 
#
# 1 220.1127 4.1857 68.8532 0.0000 -21.5491 0.0000
# 2 4.1857 29.0401 -4.7995 0.0000 1.1734 0.0000
# 3 68.8532 -4.7995 82.3538 -0.0001 -10.8915 0.0000
# 4 0.0000 0.0000 -0.0001 11.2076 0.0000 -5.1633
# 5 -21.5491 1.1734 -10.8915 0.0000 22.7076 0.0000
# 6 0.0000 0.0000 0.0000 -5.1633 0.0000 12.7720
#
#
#
# Elastic Compliance Matrix: (Units=1/GPa)
#
#
# Indices 1 2 3 4 5 6 
#
# 1 0.006547 -0.001939 -0.005074 0.000000 0.003880 0.000000
# 2 -0.001939 0.035361 0.003413 0.000000 -0.002030 0.000000
# 3 -0.005074 0.003413 0.017002 0.000000 0.003164 0.000000
# 4 0.000000 0.000000 0.000000 0.109646 0.000000 0.044326
# 5 0.003880 -0.002030 0.003164 0.000000 0.049342 0.000000
# 6 0.000000 0.000000 0.000000 0.044326 0.000000 0.096216
#
#
# Mechanical properties :
#
#
# Convention : Reuss Voigt Hill
#
# Bulk Modulus (GPa) = 19.33810 51.99836 35.66823
# Shear Modulus (GPa) = 14.76892 26.88859 20.82876
#
# Velocity S-wave (km/s) = 2.79218 3.76750 3.31590
# Velocity P-wave (km/s) = 4.53909 6.80988 5.78696
#
# Compressibility (1/GPa) = 0.05171140
#
# Stress axis : x y z
#
# Youngs Moduli (GPa) = 152.74533 28.27992 58.81706
#
# Poissons Ratio (x) = 0.05483 0.29841
# Poissons Ratio (y) = 0.29616 -0.20076
# Poissons Ratio (z) = 0.77495 -0.09653
#
# Static dielectric constant tensor:
#      x y z
#    x 1.717850 0.000000 0.020430 
#    y 0.000000 1.705880 0.000000 
#    z 0.020430 0.000000 1.599400 
# 
# From -- ./inp_files/101029.got.cif
#   From: 2010.05.17/outbox.cif.g08.bks.cpg/sg12_51_cif.got.tgz:101029.got - 2010.06.03 13:09:07.
