data_PCOD9179041
_publ_section_title
;
Structure prediction by ZEFSAII (Michael W. Deem and Ramdas Pophale) SiO2 
 PCOD9179041
Probable space group: C 2/M
;
_chemical_formula_sum "Si O2"
_cell_formula_units_Z 56
_cell_length_a 15.441449
_cell_length_b 15.440157
_cell_length_c 19.003192
_cell_angle_alpha 90.000000
_cell_angle_beta 44.388846
_cell_angle_gamma 90.000000
_cell_volume 3169.341860
_symmetry_space_group_name_H-M "C 2/M"
_symmetry_group_IT_number 12
_symmetry_cell_setting 'monoclinic'
loop_
_space_group_symop_operation_xyz
x,y,z
-x,y,-z
-x,-y,-z
x,-y,z
1/2+x,1/2+y,z
1/2-x,1/2+y,-z
1/2-x,1/2-y,-z
1/2+x,1/2-y,z
loop_
_atom_site_type_symbol
_atom_site_label
_atom_site_fract_x
_atom_site_fract_y
_atom_site_fract_z
Si Si1 0.712094 0.101211 0.095794
Si Si2 0.488977 0.226392 0.249694
Si Si3 0.943164 0.099624 0.863007
Si Si4 0.613143 0.260052 0.550936
Si Si5 0.694108 0.599388 0.801695
Si Si6 0.548738 0.595379 0.391691
Si Si7 0.281838 0.255861 0.658648
O O1 0.593045 0.162355 0.160400
O O2 0.780929 0.115971 0.130672
O O3 0.675565 0.000000 0.115245
O O4 0.811836 0.115561 0.976465
O O5 0.529483 0.325126 0.208876
O O6 0.472314 0.211027 0.343166
O O7 0.353428 0.217039 0.292654
O O8 0.051043 0.105829 0.859881
O O9 0.946889 0.000000 0.834256
O O10 0.750000 0.250000 0.500000
O O11 0.564194 0.358492 0.582384
O O12 0.628255 0.237246 0.460274
O O13 0.732744 0.500000 0.764584
O O14 0.764871 0.670485 0.714602
O O15 0.500000 0.587456 0.500000
O O16 0.581952 0.500000 0.346639
O O17 0.658451 0.665457 0.332156
#
# Coordination Sequence:
#
# PCOD9179041 Si02
#       7
#     8   8   8   8   8   8   8
#     4  10  19  31  48  71  98 126 159 203 249 292
#     4  10  19  31  48  70  97 129 159 194 246 295
#     4   9  18  32  50  71  94 123 163 207 246 288
#     4   9  18  32  48  69  98 126 156 199 240 276
#     4   9  17  31  51  72  94 126 165 201 243 292
#     4   9  17  30  49  68  89 124 163 193 227 274
#     4   9  18  32  49  70  98 128 161 201 237 281
#
# _framework density 17.669284000000001
#
# number of rings (size 3 to 8) (size 9 to 14) (size 15 to 20)
#    0.000    2.714    0.000    1.714    0.000    2.857 
#    0.000    5.000    0.000    6.429    0.000    0.000 
#    0.000   16.000    0.000    0.000    0.000    0.000 
#
# Total GULP energy -155882.722014 kJ/mol
# GULP energy per Si atom -5567.240072 kJ/mol
# Density = 1.762907 g / cm^3
# Si number density = 17.669284 Si / 1000 Ang^3
#
#
#
# Elastic Constant Matrix: (Units=GPa)
#
#
# Indices 1 2 3 4 5 6 
#
# 1 64.4606 38.4701 30.7698 0.0000 -16.1377 0.0000
# 2 38.4701 91.6330 49.0656 0.0000 -19.9607 0.0000
# 3 30.7698 49.0656 81.4714 0.0000 -14.1762 0.0000
# 4 0.0000 0.0000 0.0000 24.8890 0.0000 -6.7928
# 5 -16.1377 -19.9607 -14.1762 0.0000 18.2707 0.0000
# 6 0.0000 0.0000 0.0000 -6.7928 0.0000 21.8544
#
#
#
# Elastic Compliance Matrix: (Units=1/GPa)
#
#
# Indices 1 2 3 4 5 6 
#
# 1 0.023397 -0.005279 -0.003543 0.000000 0.012149 0.000000
# 2 -0.005279 0.019769 -0.008053 0.000000 0.010687 0.000000
# 3 -0.003543 -0.008053 0.018944 0.000000 0.002772 0.000000
# 4 0.000000 0.000000 0.000000 0.043903 0.000000 0.013646
# 5 0.012149 0.010687 0.002772 0.000000 0.079289 0.000000
# 6 0.000000 0.000000 0.000000 0.013646 0.000000 0.049999
#
#
# Mechanical properties :
#
#
# Convention : Reuss Voigt Hill
#
# Bulk Modulus (GPa) = 35.26000 52.68624 43.97312
# Shear Modulus (GPa) = 17.95309 20.95346 19.45327
#
# Velocity S-wave (km/s) = 3.19103 3.44738 3.32168
# Velocity P-wave (km/s) = 5.79446 6.76229 6.29700
#
# Compressibility (1/GPa) = 0.02836075
#
# Stress axis : x y z
#
# Youngs Moduli (GPa) = 42.74125 50.58403 52.78626
#
# Poissons Ratio (x) = 0.26703 0.18704
# Poissons Ratio (y) = 0.22562 0.42506
# Poissons Ratio (z) = 0.15144 0.40733
#
# Static dielectric constant tensor:
#      x y z
#    x 1.627350 0.000000 0.018590 
#    y 0.000000 1.591000 0.000000 
#    z 0.018590 0.000000 1.611000 
# 
# From -- ./inp_files/183529.got.cif
#   From: 2010.05.17/outbox.cif.g08.bks.cpg/sg12_92_cif.got.tgz:183529.got - 2010.06.03 13:09:07.
