data_PCOD9179114
_publ_section_title
;
Structure prediction by ZEFSAII (Michael W. Deem and Ramdas Pophale) SiO2 
 PCOD9179114
Probable space group: C 2/M
;
_chemical_formula_sum "Si O2"
_cell_formula_units_Z 48
_cell_length_a 15.858056
_cell_length_b 7.721816
_cell_length_c 19.235656
_cell_angle_alpha 90.000000
_cell_angle_beta 48.554636
_cell_angle_gamma 90.000000
_cell_volume 1765.625461
_symmetry_space_group_name_H-M "C 2/M"
_symmetry_group_IT_number 12
_symmetry_cell_setting 'monoclinic'
loop_
_space_group_symop_operation_xyz
x,y,z
-x,y,-z
-x,-y,-z
x,-y,z
1/2+x,1/2+y,z
1/2-x,1/2+y,-z
1/2-x,1/2-y,-z
1/2+x,1/2-y,z
loop_
_atom_site_type_symbol
_atom_site_label
_atom_site_fract_x
_atom_site_fract_y
_atom_site_fract_z
Si Si1 0.381424 0.296816 0.366955
Si Si2 0.584640 0.292047 0.857382
Si Si3 0.154290 0.790745 0.979921
Si Si4 0.369288 0.299730 0.524554
Si Si5 0.391224 0.800391 0.814461
Si Si6 0.673921 0.702794 0.304121
O O1 0.354652 0.500000 0.387189
O O2 0.414276 0.230619 0.426496
O O3 0.265852 0.205824 0.411498
O O4 0.485430 0.281086 0.257813
O O5 0.585512 0.500000 0.847821
O O6 0.616144 0.256502 0.920992
O O7 0.691012 0.216152 0.759476
O O8 0.455753 0.230137 0.917267
O O9 0.282535 0.720863 0.913967
O O10 0.160184 0.000000 0.982890
O O11 0.402706 0.500000 0.509612
O O12 0.384735 0.226910 0.593791
O O13 0.352482 0.792789 0.754154
O O14 0.401843 0.000000 0.827138
O O15 0.645045 0.500000 0.310988
#
# Coordination Sequence:
#
# PCOD9179114 Si02
#       6
#     8   8   8   8   8   8
#     4  10  20  35  54  73  93 122 163 204 239 283
#     4   8  13  25  44  66  93 125 160 193 231 279
#     4   7  12  24  43  65  92 127 159 188 229 282
#     4   9  20  37  53  69  95 130 160 192 242 296
#     4  10  19  32  50  73 101 130 160 195 239 285
#     4  10  19  31  48  73 102 128 158 197 240 282
#
# _framework density 27.185832000000001
#
# number of rings (size 3 to 8) (size 9 to 14) (size 15 to 20)
#    0.000    3.000    0.000    3.500    0.000    2.667 
#    0.000   10.833    0.000    1.000    0.000    0.000 
#    0.000    0.000    0.000    0.000    0.000    0.000 
#
# Total GULP energy -134217.251100 kJ/mol
# GULP energy per Si atom -5592.385463 kJ/mol
# Density = 2.712396 g / cm^3
# Si number density = 27.185832 Si / 1000 Ang^3
#
#
#
# Elastic Constant Matrix: (Units=GPa)
#
#
# Indices 1 2 3 4 5 6 
#
# 1 105.1919 14.3955 23.3387 0.0000 -23.5742 0.0000
# 2 14.3955 71.9392 13.9766 0.0000 -4.6682 -0.0001
# 3 23.3387 13.9766 220.1104 0.0000 -7.7069 0.0000
# 4 0.0000 0.0000 0.0000 7.1173 0.0000 2.5482
# 5 -23.5742 -4.6682 -7.7069 0.0000 69.6025 0.0000
# 6 0.0000 -0.0001 0.0000 2.5482 0.0000 22.2530
#
#
#
# Elastic Compliance Matrix: (Units=1/GPa)
#
#
# Indices 1 2 3 4 5 6 
#
# 1 0.010711 -0.001746 -0.000905 0.000000 0.003410 0.000000
# 2 -0.001746 0.014409 -0.000719 0.000000 0.000295 0.000000
# 3 -0.000905 -0.000719 0.004691 0.000000 0.000164 0.000000
# 4 0.000000 0.000000 0.000000 0.146509 0.000000 -0.016777
# 5 0.003410 0.000295 0.000164 0.000000 0.015560 0.000000
# 6 0.000000 0.000000 0.000000 -0.016777 0.000000 0.046859
#
#
# Mechanical properties :
#
#
# Convention : Reuss Voigt Hill
#
# Bulk Modulus (GPa) = 43.34951 55.62924 49.48938
# Shear Modulus (GPa) = 19.74960 42.82994 31.28977
#
# Velocity S-wave (km/s) = 2.69823 3.97350 3.39626
# Velocity P-wave (km/s) = 5.06828 6.44660 5.79854
#
# Compressibility (1/GPa) = 0.02306831
#
# Stress axis : x y z
#
# Youngs Moduli (GPa) = 93.36612 69.40123 213.19153
#
# Poissons Ratio (x) = 0.12118 0.19302
# Poissons Ratio (y) = 0.16302 0.15338
# Poissons Ratio (z) = 0.08453 0.04993
#
# Static dielectric constant tensor:
#      x y z
#    x 2.255910 0.000000 0.015160 
#    y 0.000000 1.964160 0.000000 
#    z 0.015160 0.000000 2.157390 
# 
# From -- ./inp_files/273650.got.cif
#   From: 2010.05.17/outbox.cif.g08.bks.cpg/sg12_137_cif.got.tgz:273650.got - 2010.06.03 13:09:07.
