data_PCOD9179147
_publ_section_title
;
Structure prediction by ZEFSAII (Michael W. Deem and Ramdas Pophale) SiO2 
 PCOD9179147
Probable space group: C 2/M
;
_chemical_formula_sum "Si O2"
_cell_formula_units_Z 56
_cell_length_a 10.127886
_cell_length_b 27.739717
_cell_length_c 15.844977
_cell_angle_alpha 90.000000
_cell_angle_beta 50.268860
_cell_angle_gamma 90.000000
_cell_volume 3423.484013
_symmetry_space_group_name_H-M "C 2/M"
_symmetry_group_IT_number 12
_symmetry_cell_setting 'monoclinic'
loop_
_space_group_symop_operation_xyz
x,y,z
-x,y,-z
-x,-y,-z
x,-y,z
1/2+x,1/2+y,z
1/2-x,1/2+y,-z
1/2-x,1/2-y,-z
1/2+x,1/2-y,z
loop_
_atom_site_type_symbol
_atom_site_label
_atom_site_fract_x
_atom_site_fract_y
_atom_site_fract_z
Si Si1 0.044455 0.942926 0.804556
Si Si2 0.586817 0.864298 0.631891
Si Si3 0.152551 0.558537 0.000000
Si Si4 0.867377 0.286800 0.632623
Si Si5 0.653567 0.942926 0.195444
Si Si6 0.366802 0.323055 0.633198
Si Si7 0.149401 0.864298 0.631891
O O1 0.154631 0.936282 0.845369
O O2 0.132999 0.910949 0.696616
O O3 0.845668 0.927908 0.893893
O O4 0.049988 0.000000 0.782602
O O5 0.465043 0.818636 0.662030
O O6 0.473770 0.910949 0.696616
O O7 0.704420 0.851063 0.663370
O O8 0.709885 0.870850 0.500000
O O9 0.148416 0.500000 1.000000
O O10 0.133454 0.572092 0.106107
O O11 0.000000 0.575424 0.000000
O O12 0.825827 0.232156 0.674173
O O13 0.710897 0.318636 0.662030
O O14 0.000000 0.283596 0.500000
O O15 0.615193 0.000000 0.217398
O O16 0.500000 0.320456 0.500000
O O17 0.468840 0.351063 0.663370
#
# Coordination Sequence:
#
# PCOD9179147 Si02
#       7
#     8   8   8   8   8   8   8
#     4  10  20  34  52  74 102 134 167 204 244 292
#     4  10  19  31  48  76 107 135 167 200 245 302
#     4   9  19  35  55  75  94 123 168 216 252 286
#     4   9  16  30  49  70  99 134 171 208 243 285
#     4  10  20  34  52  74 102 134 167 204 244 292
#     4   9  18  30  47  70 101 136 169 210 249 283
#     4  10  19  31  48  76 107 135 167 200 245 302
#
# _framework density 16.357605
#
# number of rings (size 3 to 8) (size 9 to 14) (size 15 to 20)
#    0.000    2.429    1.429    1.286    2.000    5.714 
#    0.000    1.429    0.000    2.571    0.000    6.000 
#    0.000    0.000    0.000    0.000    0.000    0.000 
#
# Total GULP energy -155987.061053 kJ/mol
# GULP energy per Si atom -5570.966466 kJ/mol
# Density = 1.632037 g / cm^3
# Si number density = 16.357605 Si / 1000 Ang^3
#
#
#
# Elastic Constant Matrix: (Units=GPa)
#
#
# Indices 1 2 3 4 5 6 
#
# 1 138.6545 35.3566 29.9900 0.0000 4.6006 0.0000
# 2 35.3566 59.6778 28.9419 0.0000 0.4056 0.0000
# 3 29.9900 28.9419 47.4631 0.0000 1.1650 0.0000
# 4 0.0000 0.0000 0.0000 -2.2945 0.0000 1.2875
# 5 4.6006 0.4056 1.1650 0.0000 18.1669 0.0000
# 6 0.0000 0.0000 0.0000 1.2875 0.0000 18.0683
#
#
#
# Elastic Compliance Matrix: (Units=1/GPa)
#
#
# Indices 1 2 3 4 5 6 
#
# 1 0.008937 -0.003644 -0.003377 0.000000 -0.001965 0.000000
# 2 -0.003644 0.025281 -0.013143 0.000000 0.001201 0.000000
# 3 -0.003377 -0.013143 0.031238 0.000000 -0.000855 0.000000
# 4 0.000000 0.000000 0.000000 -0.419076 0.000000 0.029861
# 5 -0.001965 0.001201 -0.000855 0.000000 0.055571 0.000000
# 6 0.000000 0.000000 0.000000 0.029861 0.000000 0.053218
#
#
# Mechanical properties :
#
#
# Convention : Reuss Voigt Hill
#
# Bulk Modulus (GPa) = 39.79471 48.26361 44.02916
# Shear Modulus (GPa) = -25.49356 16.88860 -4.30248
#
# Velocity S-wave (km/s) = -3.95209 3.21668 -1.62357
# Velocity P-wave (km/s) = 1.88559 6.58524 4.84360
#
# Compressibility (1/GPa) = 0.02512897
#
# Stress axis : x y z
#
# Youngs Moduli (GPa) = 111.89558 39.55505 32.01236
#
# Poissons Ratio (x) = 0.14413 0.10810
# Poissons Ratio (y) = 0.40772 0.42074
# Poissons Ratio (z) = 0.37784 0.51987
#
# Static dielectric constant tensor:
#      x y z
#    x 1.579330 0.000000 0.003170 
#    y 0.000000 1.526370 0.000000 
#    z 0.003170 0.000000 1.529140 
# 
# From -- ./inp_files/185196.got.cif
#   From: 2010.05.17/outbox.cif.g08.bks.cpg/sg12_93_cif.got.tgz:185196.got - 2010.06.03 13:09:07.
