data_PCOD9179895
_publ_section_title
;
Structure prediction by ZEFSAII (Michael W. Deem and Ramdas Pophale) SiO2 
 PCOD9179895
Probable space group: C 2/M
;
_chemical_formula_sum "Si O2"
_cell_formula_units_Z 52
_cell_length_a 23.596257
_cell_length_b 25.448420
_cell_length_c 5.016518
_cell_angle_alpha 90.000000
_cell_angle_beta 115.922198
_cell_angle_gamma 90.000000
_cell_volume 2709.278421
_symmetry_space_group_name_H-M "C 2/M"
_symmetry_group_IT_number 12
_symmetry_cell_setting 'monoclinic'
loop_
_space_group_symop_operation_xyz
x,y,z
-x,y,-z
-x,-y,-z
x,-y,z
1/2+x,1/2+y,z
1/2-x,1/2+y,-z
1/2-x,1/2-y,-z
1/2+x,1/2-y,z
loop_
_atom_site_type_symbol
_atom_site_label
_atom_site_fract_x
_atom_site_fract_y
_atom_site_fract_z
Si Si1 0.762506 0.133150 0.607547
Si Si2 0.711757 0.300384 0.824543
Si Si3 0.070761 0.827388 0.605314
Si Si4 0.399074 0.605697 0.829314
Si Si5 0.432082 0.063231 0.443480
Si Si6 0.545245 0.500000 0.846142
Si Si7 0.145489 0.562858 0.211468
O O1 0.762014 0.182876 0.408971
O O2 0.824686 0.103070 0.632706
O O3 0.703185 0.096320 0.439275
O O4 0.772969 0.153371 0.929421
O O5 0.634699 0.295578 0.655151
O O6 0.750000 0.250000 0.000000
O O7 0.068206 0.875318 0.379790
O O8 0.000000 0.804331 0.500000
O O9 0.086879 0.848812 0.930542
O O10 0.416790 0.553048 0.023292
O O11 0.500000 0.084690 0.500000
O O12 0.412479 0.072289 0.705692
O O13 0.434815 0.000000 0.414784
O O14 0.377339 0.080068 0.127459
O O15 0.500000 0.500000 0.500000
O O16 0.500000 0.500000 0.000000
O O17 0.159253 0.500000 0.241552
#
# Coordination Sequence:
#
# PCOD9179895 Si02
#       7
#     8   8   8   8   8   4   8
#     4  10  21  36  55  81 108 140 183 221 274 326
#     4  10  21  38  59  81 105 138 179 233 285 329
#     4  10  19  35  56  78 101 135 182 228 268 327
#     4  10  21  33  50  75 108 144 181 224 259 309
#     4   9  17  30  48  73 102 139 186 223 254 308
#     4  12  22  32  48  72 108 154 185 214 261 302
#     4  10  19  31  52  78 108 145 177 218 267 323
#
# _framework density 19.193301999999999
#
# number of rings (size 3 to 8) (size 9 to 14) (size 15 to 20)
#    0.000    2.000    0.000    4.615    1.077    1.846 
#    0.000    0.000    0.000    5.538    0.000    0.000 
#    0.000    0.000    0.000    0.000    0.000    0.000 
#
# Total GULP energy -144812.784902 kJ/mol
# GULP energy per Si atom -5569.722496 kJ/mol
# Density = 1.914962 g / cm^3
# Si number density = 19.193302 Si / 1000 Ang^3
#
#
#
# Elastic Constant Matrix: (Units=GPa)
#
#
# Indices 1 2 3 4 5 6 
#
# 1 67.3322 15.9306 12.7728 0.0000 16.4395 0.0000
# 2 15.9306 37.1261 11.3085 0.0000 17.0939 0.0000
# 3 12.7728 11.3085 78.0460 0.0000 -6.6397 0.0000
# 4 0.0000 0.0000 0.0000 29.3694 0.0000 1.0171
# 5 16.4395 17.0939 -6.6397 0.0000 40.8729 0.0000
# 6 0.0000 0.0000 0.0000 1.0171 0.0000 10.1086
#
#
#
# Elastic Compliance Matrix: (Units=1/GPa)
#
#
# Indices 1 2 3 4 5 6 
#
# 1 0.017792 -0.004045 -0.002830 0.000000 -0.005924 0.000000
# 2 -0.004045 0.037417 -0.006036 0.000000 -0.015002 0.000000
# 3 -0.002830 -0.006036 0.014665 0.000000 0.006045 0.000000
# 4 0.000000 0.000000 0.000000 0.034168 0.000000 -0.003438
# 5 -0.005924 -0.015002 0.006045 0.000000 0.034105 0.000000
# 6 0.000000 0.000000 0.000000 -0.003438 0.000000 0.099272
#
#
# Mechanical properties :
#
#
# Convention : Reuss Voigt Hill
#
# Bulk Modulus (GPa) = 22.70006 29.16981 25.93493
# Shear Modulus (GPa) = 17.99056 25.56966 21.78011
#
# Velocity S-wave (km/s) = 3.06491 3.65392 3.37230
# Velocity P-wave (km/s) = 4.93738 5.74738 5.35771
#
# Compressibility (1/GPa) = 0.04405275
#
# Stress axis : x y z
#
# Youngs Moduli (GPa) = 56.20527 26.72601 68.19014
#
# Poissons Ratio (x) = 0.10810 0.19296
# Poissons Ratio (y) = 0.22734 0.41158
# Poissons Ratio (z) = 0.15904 0.16131
#
# Static dielectric constant tensor:
#      x y z
#    x 1.708190 0.000000 0.009260 
#    y 0.000000 1.618930 0.000000 
#    z 0.009260 0.000000 1.682450 
# 
# From -- ./inp_files/21960.got.cif
#   From: 2010.05.17/outbox.cif.g08.bks.cpg/sg12_11_cif.got.tgz:21960.got - 2010.06.03 13:09:07.
