data_PCOD9179490
_publ_section_title
;
Structure prediction by ZEFSAII (Michael W. Deem and Ramdas Pophale) SiO2 
 PCOD9179490
Probable space group: C 2/M
;
_chemical_formula_sum "Si O2"
_cell_formula_units_Z 64
_cell_length_a 25.019716
_cell_length_b 7.703258
_cell_length_c 22.144795
_cell_angle_alpha 90.000000
_cell_angle_beta 132.067784
_cell_angle_gamma 90.000000
_cell_volume 3168.390985
_symmetry_space_group_name_H-M "C 2/M"
_symmetry_group_IT_number 12
_symmetry_cell_setting 'monoclinic'
loop_
_space_group_symop_operation_xyz
x,y,z
-x,y,-z
-x,-y,-z
x,-y,z
1/2+x,1/2+y,z
1/2-x,1/2+y,-z
1/2-x,1/2-y,-z
1/2+x,1/2-y,z
loop_
_atom_site_type_symbol
_atom_site_label
_atom_site_fract_x
_atom_site_fract_y
_atom_site_fract_z
Si Si1 0.889227 0.797135 0.232443
Si Si2 0.200147 0.797113 0.276798
Si Si3 0.970047 0.209911 0.714273
Si Si4 0.692117 0.708573 0.405535
Si Si5 0.034373 0.292030 0.148673
Si Si6 0.102792 0.304676 0.017212
Si Si7 0.253636 0.201118 0.814102
Si Si8 0.667917 0.301253 0.946522
O O1 0.821239 0.721833 0.217656
O O2 0.865844 0.791076 0.144887
O O3 0.969939 0.722738 0.287314
O O4 0.895583 0.000000 0.256411
O O5 0.212586 0.727641 0.353896
O O6 0.114583 0.777955 0.200390
O O7 0.242202 0.707194 0.254610
O O8 0.218786 0.000000 0.289069
O O9 0.888674 0.271775 0.640946
O O10 0.985579 0.249664 0.796749
O O11 0.971664 0.000000 0.711177
O O12 0.686862 0.500000 0.396401
O O13 0.750000 0.750000 0.500000
O O14 0.036253 0.500000 0.144661
O O15 0.975950 0.225764 0.055633
O O16 0.092142 0.500000 0.034459
O O17 0.132524 0.313153 0.971193
O O18 0.170266 0.222492 0.104050
O O19 0.254587 0.000000 0.836489
O O20 0.661723 0.500000 0.962856
O O21 0.750000 0.250000 0.000000
#
# Coordination Sequence:
#
# PCOD9179490 Si02
#       8
#     8   8   8   8   8   8   8   8
#     4   9  17  30  50  72 101 139 175 210 256 300
#     4  10  22  39  54  74 103 134 169 212 256 308
#     4   9  17  32  52  79 109 135 164 209 259 303
#     4   9  19  35  59  84 106 125 154 202 254 311
#     4  10  19  31  50  74 101 136 175 222 264 301
#     4  10  20  32  46  71 103 135 181 226 263 298
#     4  10  20  35  51  70 101 143 182 215 251 299
#     4  11  19  29  46  68  98 138 181 227 265 297
#
# _framework density 20.199527
#
# number of rings (size 3 to 8) (size 9 to 14) (size 15 to 20)
#    0.000    2.250    2.500    1.875    0.000    4.000 
#    0.000    3.125    0.000    0.750    0.000    5.250 
#    0.000    0.000    0.000    0.000    0.000    0.000 
#
# Total GULP energy -178403.916296 kJ/mol
# GULP energy per Si atom -5575.122384 kJ/mol
# Density = 2.015355 g / cm^3
# Si number density = 20.199527 Si / 1000 Ang^3
#
#
#
# Elastic Constant Matrix: (Units=GPa)
#
#
# Indices 1 2 3 4 5 6 
#
# 1 107.8168 0.4616 63.2294 0.0000 -6.3063 0.0000
# 2 0.4616 43.2011 4.4144 0.0001 -1.4515 0.0001
# 3 63.2294 4.4144 108.5626 0.0000 11.4677 0.0000
# 4 0.0000 0.0001 0.0000 14.2067 0.0000 -3.9022
# 5 -6.3063 -1.4515 11.4677 0.0000 18.6089 0.0000
# 6 0.0000 0.0001 0.0000 -3.9022 0.0000 14.1911
#
#
#
# Elastic Compliance Matrix: (Units=1/GPa)
#
#
# Indices 1 2 3 4 5 6 
#
# 1 0.016392 0.001356 -0.010910 0.000000 0.012384 0.000000
# 2 0.001356 0.023471 -0.002124 0.000000 0.003599 0.000000
# 3 -0.010910 -0.002124 0.017178 0.000000 -0.014449 0.000000
# 4 0.000000 0.000000 0.000000 0.076140 0.000000 0.020936
# 5 0.012384 0.003599 -0.014449 0.000000 0.067120 0.000000
# 6 0.000000 0.000000 0.000000 0.020936 0.000000 0.076224
#
#
# Mechanical properties :
#
#
# Convention : Reuss Voigt Hill
#
# Bulk Modulus (GPa) = 29.68781 43.97680 36.83231
# Shear Modulus (GPa) = 16.07147 22.16634 19.11891
#
# Velocity S-wave (km/s) = 2.82376 3.31625 3.07987
# Velocity P-wave (km/s) = 5.03594 6.04002 5.56069
#
# Compressibility (1/GPa) = 0.03368386
#
# Stress axis : x y z
#
# Youngs Moduli (GPa) = 61.00546 42.60561 58.21252
#
# Poissons Ratio (x) = -0.05777 0.63512
# Poissons Ratio (y) = -0.08271 0.12366
# Poissons Ratio (z) = 0.66559 0.09050
#
# Static dielectric constant tensor:
#      x y z
#    x 1.755210 0.000000 0.048110 
#    y 0.000000 1.761800 0.000000 
#    z 0.048110 0.000000 1.704690 
# 
# From -- ./inp_files/324355.got.cif
#   From: 2010.05.17/outbox.cif.g08.bks.cpg/sg12_163_cif.got.tgz:324355.got - 2010.06.03 13:09:07.
