data_PCOD9179170
_publ_section_title
;
Structure prediction by ZEFSAII (Michael W. Deem and Ramdas Pophale) SiO2 
 PCOD9179170
Probable space group: C 2/M
;
_chemical_formula_sum "Si O2"
_cell_formula_units_Z 48
_cell_length_a 19.459841
_cell_length_b 17.820387
_cell_length_c 24.865689
_cell_angle_alpha 90.000000
_cell_angle_beta 161.955468
_cell_angle_gamma 90.000000
_cell_volume 2671.017730
_symmetry_space_group_name_H-M "C 2/M"
_symmetry_group_IT_number 12
_symmetry_cell_setting 'monoclinic'
loop_
_space_group_symop_operation_xyz
x,y,z
-x,y,-z
-x,-y,-z
x,-y,z
1/2+x,1/2+y,z
1/2-x,1/2+y,-z
1/2-x,1/2-y,-z
1/2+x,1/2-y,z
loop_
_atom_site_type_symbol
_atom_site_label
_atom_site_fract_x
_atom_site_fract_y
_atom_site_fract_z
Si Si1 0.964856 0.671533 0.031904
Si Si2 0.392322 0.412414 0.023403
Si Si3 0.743278 0.285760 0.297581
Si Si4 0.408727 0.800388 0.255507
Si Si5 0.678330 0.714333 0.369499
Si Si6 0.326884 0.412241 0.100927
O O1 0.180239 0.717431 0.211784
O O2 0.779302 0.736317 0.884180
O O3 0.871902 0.619147 0.010121
O O4 0.000000 0.633944 0.000000
O O5 0.434967 0.500000 0.046295
O O6 0.612015 0.360741 0.182556
O O7 0.302498 0.402946 0.018114
O O8 0.214630 0.377270 0.850244
O O9 0.646127 0.264341 0.283841
O O10 0.000000 0.298708 0.500000
O O11 0.572746 0.777385 0.328876
O O12 0.566546 0.799119 0.424592
O O13 0.540090 0.637885 0.275221
O O14 0.361080 0.500000 0.136613
#
# Coordination Sequence:
#
# PCOD9179170 Si02
#       6
#     8   8   8   8   8   8
#     4  10  19  31  49  71  95 125 159 195 235 276
#     4   9  18  32  49  70  97 127 156 189 233 281
#     4  10  19  31  49  69  94 124 159 195 233 277
#     4   9  17  30  49  71  95 119 156 198 234 275
#     4   9  17  30  49  72  93 121 156 196 235 274
#     4   9  18  32  49  70  96 126 158 191 232 281
#
# _framework density 17.970679000000001
#
# number of rings (size 3 to 8) (size 9 to 14) (size 15 to 20)
#    0.000    2.667    0.000    2.000    0.000    5.333 
#    0.000    0.000    0.000   17.500    0.000    0.000 
#    0.000    0.000    0.000    0.000    0.000    0.000 
#
# Total GULP energy -133745.697759 kJ/mol
# GULP energy per Si atom -5572.737407 kJ/mol
# Density = 1.792978 g / cm^3
# Si number density = 17.970679 Si / 1000 Ang^3
#
#
#
# Elastic Constant Matrix: (Units=GPa)
#
#
# Indices 1 2 3 4 5 6 
#
# 1 29.1769 3.9858 -3.2142 0.0088 0.4549 0.0006
# 2 3.9858 48.2606 11.0075 -0.0001 -3.3219 0.0024
# 3 -3.2142 11.0075 84.8985 0.0270 -6.1874 -0.0070
# 4 0.0088 -0.0001 0.0270 13.2893 -0.0057 -3.8849
# 5 0.4549 -3.3219 -6.1874 -0.0057 24.4354 -0.0073
# 6 0.0006 0.0024 -0.0070 -3.8849 -0.0073 18.3755
#
#
#
# Elastic Compliance Matrix: (Units=1/GPa)
#
#
# Indices 1 2 3 4 5 6 
#
# 1 0.034925 -0.003319 0.001704 -0.000029 -0.000670 -0.000006
# 2 -0.003319 0.021789 -0.002782 0.000009 0.002320 -0.000001
# 3 0.001704 -0.002782 0.012403 -0.000025 0.002731 0.000001
# 4 -0.000029 0.000009 -0.000025 0.080206 0.000019 0.016957
# 5 -0.000670 0.002320 0.002731 0.000019 0.041944 0.000021
# 6 -0.000006 -0.000001 0.000001 0.016957 0.000021 0.058005
#
#
# Mechanical properties :
#
#
# Convention : Reuss Voigt Hill
#
# Bulk Modulus (GPa) = 16.57737 20.65492 18.61614
# Shear Modulus (GPa) = 17.97438 21.25717 19.61577
#
# Velocity S-wave (km/s) = 3.16603 3.44303 3.30744
# Velocity P-wave (km/s) = 4.75497 5.22729 4.99672
#
# Compressibility (1/GPa) = 0.06032319
#
# Stress axis : x y z
#
# Youngs Moduli (GPa) = 28.63255 45.89449 80.62598
#
# Poissons Ratio (x) = 0.15233 -0.13737
# Poissons Ratio (y) = 0.09504 0.22428
# Poissons Ratio (z) = -0.04878 0.12766
#
# Static dielectric constant tensor:
#      x y z
#    x 1.675140 0.000000 0.012570 
#    y 0.000000 1.570960 -0.000040 
#    z 0.012570 -0.000040 1.608960 
# 
# From -- ./inp_files/75083.got.cif
#   From: 2010.05.17/outbox.cif.g08.bks.cpg/sg12_38_cif.got.tgz:75083.got - 2010.06.03 13:09:07.
