data_PCOD9179216
_publ_section_title
;
Structure prediction by ZEFSAII (Michael W. Deem and Ramdas Pophale) SiO2 
 PCOD9179216
Probable space group: C 2/M
;
_chemical_formula_sum "Si O2"
_cell_formula_units_Z 48
_cell_length_a 17.948944
_cell_length_b 9.843089
_cell_length_c 12.478312
_cell_angle_alpha 90.000000
_cell_angle_beta 97.271848
_cell_angle_gamma 90.000000
_cell_volume 2186.849492
_symmetry_space_group_name_H-M "C 2/M"
_symmetry_group_IT_number 12
_symmetry_cell_setting 'monoclinic'
loop_
_space_group_symop_operation_xyz
x,y,z
-x,y,-z
-x,-y,-z
x,-y,z
1/2+x,1/2+y,z
1/2-x,1/2+y,-z
1/2-x,1/2-y,-z
1/2+x,1/2-y,z
loop_
_atom_site_type_symbol
_atom_site_label
_atom_site_fract_x
_atom_site_fract_y
_atom_site_fract_z
Si Si1 0.449900 0.343999 0.597122
Si Si2 0.787541 0.350667 0.279516
Si Si3 0.824613 0.344348 0.647696
Si Si4 0.544722 0.844620 0.765495
Si Si5 0.193052 0.849729 0.048513
Si Si6 0.082724 0.351155 0.107456
O O1 0.500000 0.342865 0.500000
O O2 0.429922 0.500000 0.620056
O O3 0.376546 0.248569 0.581106
O O4 0.503184 0.273226 0.693820
O O5 0.792524 0.500000 0.333555
O O6 0.754283 0.231649 0.346590
O O7 0.867036 0.324314 0.235847
O O8 0.727398 0.362568 0.173234
O O9 0.816333 0.500000 0.611277
O O10 0.870497 0.349213 0.770250
O O11 0.503984 0.842869 0.873229
O O12 0.528588 0.000000 0.721792
O O13 0.114585 0.773267 0.046557
O O14 0.188659 0.000000 0.999005
O O15 0.250000 0.750000 0.000000
O O16 0.099179 0.500000 0.062383
#
# Coordination Sequence:
#
# PCOD9179216 Si02
#       6
#     8   8   8   8   8   8
#     4  10  20  33  50  73 100 129 162 200 241 287
#     4   9  18  33  52  74  99 127 161 201 244 288
#     4   9  17  30  50  73  96 127 165 200 237 286
#     4   9  18  33  53  75  98 126 161 201 244 289
#     4  10  19  31  49  71  96 127 161 198 240 285
#     4   8  15  29  48  69  93 122 158 196 235 285
#
# _framework density 21.949386000000001
#
# number of rings (size 3 to 8) (size 9 to 14) (size 15 to 20)
#    0.000    2.833    0.000    2.500    0.000    6.667 
#    0.000    1.667    0.000    5.000    0.000    0.000 
#    0.000    0.000    0.000    0.000    0.000    0.000 
#
# Total GULP energy -133871.149845 kJ/mol
# GULP energy per Si atom -5577.964577 kJ/mol
# Density = 2.189943 g / cm^3
# Si number density = 21.949386 Si / 1000 Ang^3
#
#
#
# Elastic Constant Matrix: (Units=GPa)
#
#
# Indices 1 2 3 4 5 6 
#
# 1 143.5667 95.8889 6.5444 0.0000 -29.6879 0.0000
# 2 95.8889 223.7956 36.3283 0.0000 -35.7402 0.0000
# 3 6.5444 36.3283 21.0736 0.0000 -4.4405 0.0000
# 4 0.0000 0.0000 0.0000 20.6384 0.0000 -10.1018
# 5 -29.6879 -35.7402 -4.4405 0.0000 28.2970 0.0000
# 6 0.0000 0.0000 0.0000 -10.1018 0.0000 20.3230
#
#
#
# Elastic Compliance Matrix: (Units=1/GPa)
#
#
# Indices 1 2 3 4 5 6 
#
# 1 0.011245 -0.004720 0.006075 0.000000 0.006790 0.000000
# 2 -0.004720 0.009537 -0.013942 0.000000 0.004906 0.000000
# 3 0.006075 -0.013942 0.069531 0.000000 -0.000324 0.000000
# 4 0.000000 0.000000 0.000000 0.064032 0.000000 0.031828
# 5 0.006790 0.004906 -0.000324 0.000000 0.048609 0.000000
# 6 0.000000 0.000000 0.000000 0.031828 0.000000 0.065026
#
#
# Mechanical properties :
#
#
# Convention : Reuss Voigt Hill
#
# Bulk Modulus (GPa) = 15.35139 73.99545 44.67342
# Shear Modulus (GPa) = 15.87973 30.49664 23.18819
#
# Velocity S-wave (km/s) = 2.69266 3.73152 3.25382
# Velocity P-wave (km/s) = 4.08367 7.23538 5.87482
#
# Compressibility (1/GPa) = 0.06514069
#
# Stress axis : x y z
#
# Youngs Moduli (GPa) = 88.92886 104.85100 14.38202
#
# Poissons Ratio (x) = 0.49489 -0.08737
# Poissons Ratio (y) = 0.41974 0.20051
# Poissons Ratio (z) = -0.54025 1.46179
#
# Static dielectric constant tensor:
#      x y z
#    x 1.810350 0.000000 0.010520 
#    y 0.000000 1.811730 0.000000 
#    z 0.010520 0.000000 1.877970 
# 
# From -- ./inp_files/221513.got.cif
#   From: 2010.05.17/outbox.cif.g08.bks.cpg/sg12_111_cif.got.tgz:221513.got - 2010.06.03 13:09:07.
