data_PCOD9179935
_publ_section_title
;
Structure prediction by ZEFSAII (Michael W. Deem and Ramdas Pophale) SiO2 
 PCOD9179935
Probable space group: C 2/M
;
_chemical_formula_sum "Si O2"
_cell_formula_units_Z 64
_cell_length_a 21.669078
_cell_length_b 24.693481
_cell_length_c 8.491495
_cell_angle_alpha 90.000000
_cell_angle_beta 51.885406
_cell_angle_gamma 90.000000
_cell_volume 3574.859852
_symmetry_space_group_name_H-M "C 2/M"
_symmetry_group_IT_number 12
_symmetry_cell_setting 'monoclinic'
loop_
_space_group_symop_operation_xyz
x,y,z
-x,y,-z
-x,-y,-z
x,-y,z
1/2+x,1/2+y,z
1/2-x,1/2+y,-z
1/2-x,1/2-y,-z
1/2+x,1/2-y,z
loop_
_atom_site_type_symbol
_atom_site_label
_atom_site_fract_x
_atom_site_fract_y
_atom_site_fract_z
Si Si1 0.525907 0.686128 0.138916
Si Si2 0.425991 0.104370 0.702502
Si Si3 0.323353 0.828089 0.621027
Si Si4 0.822895 0.155755 0.938698
Si Si5 0.061551 0.311358 0.043621
Si Si6 0.136068 0.206513 0.456156
Si Si7 0.719330 0.143278 0.649523
Si Si8 0.729972 0.062091 0.907003
O O1 0.597080 0.649974 0.089795
O O2 0.555004 0.748641 0.100376
O O3 0.448939 0.683490 0.368129
O O4 0.500000 0.675223 0.000000
O O5 0.500000 0.077492 0.500000
O O6 0.380891 0.139590 0.643217
O O7 0.545466 0.147241 0.210646
O O8 0.358915 0.067746 0.886985
O O9 0.360486 0.770440 0.518386
O O10 0.304010 0.861478 0.494694
O O11 0.243365 0.818855 0.844670
O O12 0.841486 0.193383 0.759005
O O13 0.785279 0.100845 0.926361
O O14 0.149130 0.324462 0.846537
O O15 0.000000 0.320820 0.000000
O O16 0.201536 0.177856 0.459892
O O17 0.730194 0.088700 0.732843
O O18 0.754434 0.000000 0.869468
#
# Coordination Sequence:
#
# PCOD9179935 Si02
#       8
#     8   8   8   8   8   8   8   8
#     4  11  20  31  50  79 113 145 176 211 254 311
#     4  10  19  31  52  80 108 137 173 217 261 313
#     4  11  19  32  52  79 111 142 172 207 256 315
#     4  10  21  35  53  77 107 141 180 217 257 313
#     4  10  19  32  49  76 114 152 178 202 248 312
#     4  11  20  31  50  77 112 146 173 205 255 317
#     4  10  20  34  53  75 104 140 181 221 259 311
#     4   9  21  40  58  73  97 138 182 228 275 313
#
# _framework density 17.902799999999999
#
# number of rings (size 3 to 8) (size 9 to 14) (size 15 to 20)
#    0.000    1.750    0.000    7.125    0.000    0.250 
#    0.000    2.500    0.000   19.125    0.000    0.000 
#    0.000    0.000    0.000    0.000    0.000    0.000 
#
# Total GULP energy -178718.960183 kJ/mol
# GULP energy per Si atom -5584.967506 kJ/mol
# Density = 1.786205 g / cm^3
# Si number density = 17.902800 Si / 1000 Ang^3
#
#
#
# Elastic Constant Matrix: (Units=GPa)
#
#
# Indices 1 2 3 4 5 6 
#
# 1 86.3547 31.0472 21.2189 0.0000 -1.3072 0.0000
# 2 31.0472 60.5879 3.6065 0.0000 7.0986 0.0000
# 3 21.2189 3.6065 83.0874 0.0000 -6.8408 0.0000
# 4 0.0000 0.0000 0.0000 4.9243 0.0000 -1.1365
# 5 -1.3072 7.0986 -6.8408 0.0000 37.2523 0.0000
# 6 0.0000 0.0000 0.0000 -1.1365 0.0000 9.2125
#
#
#
# Elastic Compliance Matrix: (Units=1/GPa)
#
#
# Indices 1 2 3 4 5 6 
#
# 1 0.015239 -0.007766 -0.003441 0.000000 0.001383 0.000000
# 2 -0.007766 0.020924 0.000735 0.000000 -0.004125 0.000000
# 3 -0.003441 0.000735 0.013058 0.000000 0.002137 0.000000
# 4 0.000000 0.000000 0.000000 0.209024 0.000000 0.025786
# 5 0.001383 -0.004125 0.002137 0.000000 0.028071 0.000000
# 6 0.000000 0.000000 0.000000 0.025786 0.000000 0.111730
#
#
# Mechanical properties :
#
#
# Convention : Reuss Voigt Hill
#
# Bulk Modulus (GPa) = 35.36272 37.97501 36.66887
# Shear Modulus (GPa) = 11.67095 21.88831 16.77963
#
# Velocity S-wave (km/s) = 2.55602 3.50039 3.06480
# Velocity P-wave (km/s) = 5.33914 6.13146 5.74897
#
# Compressibility (1/GPa) = 0.02827837
#
# Stress axis : x y z
#
# Youngs Moduli (GPa) = 65.62273 47.79219 76.57999
#
# Poissons Ratio (x) = 0.37115 0.26349
# Poissons Ratio (y) = 0.50962 -0.05632
# Poissons Ratio (z) = 0.22579 -0.03515
#
# Static dielectric constant tensor:
#      x y z
#    x 1.620760 0.000000 -0.002790 
#    y 0.000000 1.566430 0.000000 
#    z -0.002790 0.000000 1.643220 
# 
# From -- ./inp_files/90640.got.cif
#   From: 2010.05.17/outbox.cif.g08.bks.cpg/sg12_46_cif.got.tgz:90640.got - 2010.06.03 13:09:07.
