data_PCOD9179454
_publ_section_title
;
Structure prediction by ZEFSAII (Michael W. Deem and Ramdas Pophale) SiO2 
 PCOD9179454
Probable space group: C 2/M
;
_chemical_formula_sum "Si O2"
_cell_formula_units_Z 56
_cell_length_a 29.152038
_cell_length_b 9.001082
_cell_length_c 11.204772
_cell_angle_alpha 90.000000
_cell_angle_beta 79.298144
_cell_angle_gamma 90.000000
_cell_volume 2888.992540
_symmetry_space_group_name_H-M "C 2/M"
_symmetry_group_IT_number 12
_symmetry_cell_setting 'monoclinic'
loop_
_space_group_symop_operation_xyz
x,y,z
-x,y,-z
-x,-y,-z
x,-y,z
1/2+x,1/2+y,z
1/2-x,1/2+y,-z
1/2-x,1/2-y,-z
1/2+x,1/2-y,z
loop_
_atom_site_type_symbol
_atom_site_label
_atom_site_fract_x
_atom_site_fract_y
_atom_site_fract_z
Si Si1 0.727537 0.821519 0.391941
Si Si2 0.944381 0.177117 0.788248
Si Si3 0.113559 0.177448 0.949648
Si Si4 0.946389 0.177158 0.521338
Si Si5 0.470262 0.168634 0.137588
Si Si6 0.807541 0.322131 0.224569
Si Si7 0.136229 0.676481 0.560138
O O1 0.750000 0.750000 0.500000
O O2 0.756957 0.750887 0.270281
O O3 0.672872 0.786862 0.435871
O O4 0.733127 0.000000 0.391294
O O5 0.927314 0.209669 0.663558
O O6 0.993547 0.257562 0.789118
O O7 0.952946 0.000000 0.792631
O O8 0.907981 0.215915 0.910262
O O9 0.075172 0.236752 0.873418
O O10 0.162389 0.255845 0.897636
O O11 0.117804 0.000000 0.938524
O O12 0.912945 0.248433 0.440227
O O13 0.000000 0.228279 0.500000
O O14 0.946857 0.000000 0.502614
O O15 0.457389 0.000000 0.177064
O O16 0.500000 0.162928 0.000000
O O17 0.803749 0.500000 0.220030
O O18 0.838157 0.283444 0.328506
O O19 0.130275 0.500000 0.564193
#
# Coordination Sequence:
#
# PCOD9179454 Si02
#       7
#     8   8   8   8   8   8   8
#     4   9  17  32  53  78 107 138 171 210 261 314
#     4   9  19  35  50  69 100 136 176 216 256 306
#     4  10  19  31  50  73 101 137 170 210 264 312
#     4  10  22  37  53  75 102 137 181 220 251 299
#     4   9  17  29  46  69  96 129 168 209 254 303
#     4  10  20  33  52  82 112 133 167 216 263 316
#     4   9  20  36  53  76 106 137 169 210 258 308
#
# _framework density 19.383918999999999
#
# number of rings (size 3 to 8) (size 9 to 14) (size 15 to 20)
#    0.000    2.571    0.000    2.571    2.000    6.571 
#    0.000    0.000    0.000    0.857    0.000    0.000 
#    0.000    0.000    0.000    0.000    0.000    0.000 
#
# Total GULP energy -156193.904550 kJ/mol
# GULP energy per Si atom -5578.353734 kJ/mol
# Density = 1.933980 g / cm^3
# Si number density = 19.383919 Si / 1000 Ang^3
#
#
#
# Elastic Constant Matrix: (Units=GPa)
#
#
# Indices 1 2 3 4 5 6 
#
# 1 57.2772 16.4932 18.7745 0.0000 -20.5172 0.0000
# 2 16.4932 38.0096 24.0008 0.0000 -12.6675 0.0000
# 3 18.7745 24.0008 64.7921 0.0000 -23.3794 0.0000
# 4 0.0000 0.0000 0.0000 17.6945 0.0000 -6.6981
# 5 -20.5172 -12.6675 -23.3794 0.0000 35.7651 0.0000
# 6 0.0000 0.0000 0.0000 -6.6981 0.0000 22.9899
#
#
#
# Elastic Compliance Matrix: (Units=1/GPa)
#
#
# Indices 1 2 3 4 5 6 
#
# 1 0.023287 -0.006141 -0.000573 0.000000 0.010810 0.000000
# 2 -0.006141 0.036668 -0.010978 0.000000 0.002289 0.000000
# 3 -0.000573 -0.010978 0.023746 0.000000 0.011306 0.000000
# 4 0.000000 0.000000 0.000000 0.063520 0.000000 0.018507
# 5 0.010810 0.002289 0.011306 0.000000 0.042363 0.000000
# 6 0.000000 0.000000 0.000000 0.018507 0.000000 0.048889
#
#
# Mechanical properties :
#
#
# Convention : Reuss Voigt Hill
#
# Bulk Modulus (GPa) = 20.69564 30.95731 25.82647
# Shear Modulus (GPa) = 17.24367 22.01059 19.62713
#
# Velocity S-wave (km/s) = 2.98583 3.37339 3.18551
# Velocity P-wave (km/s) = 4.75256 5.58375 5.18484
#
# Compressibility (1/GPa) = 0.04831936
#
# Stress axis : x y z
#
# Youngs Moduli (GPa) = 42.94246 27.27160 42.11247
#
# Poissons Ratio (x) = 0.16746 0.02411
# Poissons Ratio (y) = 0.26369 0.46230
# Poissons Ratio (z) = 0.02459 0.29938
#
# Static dielectric constant tensor:
#      x y z
#    x 1.662680 0.000000 -0.040790 
#    y 0.000000 1.650270 0.000000 
#    z -0.040790 0.000000 1.744480 
# 
# From -- ./inp_files/186373.got.cif
#   From: 2010.05.17/outbox.cif.g08.bks.cpg/sg12_94_cif.got.tgz:186373.got - 2010.06.03 13:09:07.
