data_PCOD9179244
_publ_section_title
;
Structure prediction by ZEFSAII (Michael W. Deem and Ramdas Pophale) SiO2 
 PCOD9179244
Probable space group: C 2/M
;
_chemical_formula_sum "Si O2"
_cell_formula_units_Z 48
_cell_length_a 9.896260
_cell_length_b 14.731184
_cell_length_c 15.661317
_cell_angle_alpha 90.000000
_cell_angle_beta 51.438188
_cell_angle_gamma 90.000000
_cell_volume 1785.288080
_symmetry_space_group_name_H-M "C 2/M"
_symmetry_group_IT_number 12
_symmetry_cell_setting 'monoclinic'
loop_
_space_group_symop_operation_xyz
x,y,z
-x,y,-z
-x,-y,-z
x,-y,z
1/2+x,1/2+y,z
1/2-x,1/2+y,-z
1/2-x,1/2-y,-z
1/2+x,1/2-y,z
loop_
_atom_site_type_symbol
_atom_site_label
_atom_site_fract_x
_atom_site_fract_y
_atom_site_fract_z
Si Si1 0.154126 0.653250 0.782786
Si Si2 0.560665 0.683321 0.601791
Si Si3 0.790896 0.397722 0.048061
Si Si4 0.695065 0.607207 0.910273
Si Si5 0.366493 0.104099 0.393587
Si Si6 0.605476 0.356641 0.767572
O O1 0.362553 0.657024 0.690908
O O2 0.132323 0.634218 0.891876
O O3 0.093377 0.597854 0.723816
O O4 0.083141 0.751506 0.791878
O O5 0.563784 0.795242 0.599071
O O6 0.664548 0.632210 0.486853
O O7 0.657091 0.641917 0.648599
O O8 0.849110 0.500000 0.013759
O O9 0.582133 0.400397 0.146057
O O10 0.801537 0.354203 0.948721
O O11 0.685851 0.500000 0.927759
O O12 0.732291 0.615865 0.794781
O O13 0.500000 0.644998 0.000000
O O14 0.399166 0.000000 0.414735
#
# Coordination Sequence:
#
# PCOD9179244 Si02
#       6
#     8   8   8   8   8   8
#     4  10  19  31  49  72  97 123 155 197 239 282
#     4   9  20  34  48  72 101 122 157 204 239 282
#     4   9  17  30  48  70  95 123 159 198 231 273
#     4   8  14  26  44  66  94 125 156 192 232 275
#     4  10  20  35  54  71  93 128 162 195 240 289
#     4   9  17  29  46  68  96 124 151 189 237 277
#
# _framework density 26.886416000000001
#
# number of rings (size 3 to 8) (size 9 to 14) (size 15 to 20)
#    0.000    2.833    0.000    2.500    0.000    5.333 
#    0.000    1.667    0.000   13.000    0.000    0.000 
#    0.000   42.000    0.000    0.000    0.000    0.000 
#
# Total GULP energy -133769.026724 kJ/mol
# GULP energy per Si atom -5573.709447 kJ/mol
# Density = 2.682522 g / cm^3
# Si number density = 26.886416 Si / 1000 Ang^3
#
#
#
# Elastic Constant Matrix: (Units=GPa)
#
#
# Indices 1 2 3 4 5 6 
#
# 1 112.6329 11.1318 24.7848 0.0000 36.9718 -0.0001
# 2 11.1318 60.8709 16.0957 0.0000 25.9430 -0.0001
# 3 24.7848 16.0957 159.5211 0.0000 31.0999 0.0000
# 4 0.0000 0.0000 0.0000 43.7657 0.0000 -2.1172
# 5 36.9718 25.9430 31.0999 0.0000 43.5461 0.0001
# 6 -0.0001 -0.0001 0.0000 -2.1172 0.0001 29.9801
#
#
#
# Elastic Compliance Matrix: (Units=1/GPa)
#
#
# Indices 1 2 3 4 5 6 
#
# 1 0.012724 0.003063 0.000204 0.000000 -0.012774 0.000000
# 2 0.003063 0.022777 0.000440 0.000000 -0.016485 0.000000
# 3 0.000204 0.000440 0.007293 0.000000 -0.005644 0.000000
# 4 0.000000 0.000000 0.000000 0.022927 0.000000 0.001619
# 5 -0.012774 -0.016485 -0.005644 0.000000 0.047661 0.000000
# 6 0.000000 0.000000 0.000000 0.001619 0.000000 0.033470
#
#
# Mechanical properties :
#
#
# Convention : Reuss Voigt Hill
#
# Bulk Modulus (GPa) = 19.91700 48.56105 34.23903
# Shear Modulus (GPa) = 32.01560 42.19254 37.10407
#
# Velocity S-wave (km/s) = 3.45450 3.96572 3.71891
# Velocity P-wave (km/s) = 4.83067 6.25060 5.58594
#
# Compressibility (1/GPa) = 0.05020837
#
# Stress axis : x y z
#
# Youngs Moduli (GPa) = 78.59396 43.90312 137.11799
#
# Poissons Ratio (x) = -0.13448 -0.02802
# Poissons Ratio (y) = -0.24075 -0.06028
# Poissons Ratio (z) = -0.01606 -0.01930
#
# Static dielectric constant tensor:
#      x y z
#    x 2.250200 0.000000 0.078210 
#    y 0.000000 2.073800 0.000000 
#    z 0.078210 0.000000 2.280030 
# 
# From -- ./inp_files/204864.got.cif
#   From: 2010.05.17/outbox.cif.g08.bks.cpg/sg12_103_cif.got.tgz:204864.got - 2010.06.03 13:09:07.
