data_PCOD9179964
_publ_section_title
;
Structure prediction by ZEFSAII (Michael W. Deem and Ramdas Pophale) SiO2 
 PCOD9179964
Probable space group: C 2/M
;
_chemical_formula_sum "Si O2"
_cell_formula_units_Z 64
_cell_length_a 16.781202
_cell_length_b 15.054811
_cell_length_c 14.729660
_cell_angle_alpha 90.000000
_cell_angle_beta 126.610671
_cell_angle_gamma 90.000000
_cell_volume 2987.086716
_symmetry_space_group_name_H-M "C 2/M"
_symmetry_group_IT_number 12
_symmetry_cell_setting 'monoclinic'
loop_
_space_group_symop_operation_xyz
x,y,z
-x,y,-z
-x,-y,-z
x,-y,z
1/2+x,1/2+y,z
1/2-x,1/2+y,-z
1/2-x,1/2-y,-z
1/2+x,1/2-y,z
loop_
_atom_site_type_symbol
_atom_site_label
_atom_site_fract_x
_atom_site_fract_y
_atom_site_fract_z
Si Si1 0.396839 0.897008 0.534454
Si Si2 0.390344 0.270408 0.074072
Si Si3 0.762980 0.181670 0.148174
Si Si4 0.188451 0.665956 0.700524
Si Si5 0.175173 0.101802 0.464728
Si Si6 0.388480 0.711916 0.742736
Si Si7 0.581102 0.098712 0.784834
Si Si8 0.290400 0.900266 0.713120
O O1 0.385123 0.845524 0.433190
O O2 0.289631 0.890918 0.509123
O O3 0.483957 0.873224 0.661861
O O4 0.413268 0.000000 0.521718
O O5 0.325260 0.331242 0.098565
O O6 0.502380 0.303534 0.143232
O O7 0.397114 0.173796 0.127460
O O8 0.328306 0.246471 0.942598
O O9 0.827730 0.240665 0.260884
O O10 0.727344 0.104707 0.190543
O O11 0.298933 0.662337 0.734334
O O12 0.166135 0.598137 0.765785
O O13 0.117652 0.174175 0.364946
O O14 0.191395 0.113656 0.583709
O O15 0.141102 0.000000 0.424001
O O16 0.359810 0.815986 0.736405
O O17 0.568156 0.000000 0.814104
O O18 0.327026 0.000000 0.714626
#
# Coordination Sequence:
#
# PCOD9179964 Si02
#       8
#     8   8   8   8   8   8   8   8
#     4   9  16  28  49  79 113 140 166 212 274 335
#     4  10  21  38  56  75 104 146 191 229 273 328
#     4   9  21  39  54  73 103 145 190 229 270 322
#     4   9  18  31  50  76 106 138 172 211 266 322
#     4   9  18  33  54  83 118 152 186 226 278 339
#     4  10  20  35  57  82 113 149 184 229 281 336
#     4  10  19  31  52  82 111 137 172 223 279 333
#     4  10  20  35  57  86 117 146 180 227 283 340
#
# _framework density 21.425559
#
# number of rings (size 3 to 8) (size 9 to 14) (size 15 to 20)
#    0.000    2.500    0.000    1.875    0.000    7.500 
#    0.000    3.125    0.000    5.250    0.000   19.250 
#    0.000    0.000    0.000    0.000    0.000    0.000 
#
# Total GULP energy -178373.826179 kJ/mol
# GULP energy per Si atom -5574.182068 kJ/mol
# Density = 2.137679 g / cm^3
# Si number density = 21.425559 Si / 1000 Ang^3
#
#
#
# Elastic Constant Matrix: (Units=GPa)
#
#
# Indices 1 2 3 4 5 6 
#
# 1 62.1714 16.6567 22.2917 0.0000 6.5132 0.0000
# 2 16.6567 67.4283 31.0067 0.0000 -2.0055 0.0000
# 3 22.2917 31.0067 85.1236 0.0000 -3.9456 0.0000
# 4 0.0000 0.0000 0.0000 7.3062 0.0000 -2.6181
# 5 6.5132 -2.0055 -3.9456 0.0000 37.1186 0.0000
# 6 0.0000 0.0000 0.0000 -2.6181 0.0000 14.6405
#
#
#
# Elastic Compliance Matrix: (Units=1/GPa)
#
#
# Indices 1 2 3 4 5 6 
#
# 1 0.018706 -0.002884 -0.004027 0.000000 -0.003866 0.000000
# 2 -0.002884 0.018262 -0.005856 0.000000 0.000870 0.000000
# 3 -0.004027 -0.005856 0.015028 0.000000 0.001988 0.000000
# 4 0.000000 0.000000 0.000000 0.146242 0.000000 0.026152
# 5 -0.003866 0.000870 0.001988 0.000000 0.027877 0.000000
# 6 0.000000 0.000000 0.000000 0.026152 0.000000 0.072980
#
#
# Mechanical properties :
#
#
# Convention : Reuss Voigt Hill
#
# Bulk Modulus (GPa) = 37.79249 39.40371 38.59810
# Shear Modulus (GPa) = 14.99470 21.46426 18.22948
#
# Velocity S-wave (km/s) = 2.64834 3.16857 2.92006
# Velocity P-wave (km/s) = 5.19893 5.64068 5.42431
#
# Compressibility (1/GPa) = 0.02646028
#
# Stress axis : x y z
#
# Youngs Moduli (GPa) = 53.45786 54.75870 66.54398
#
# Poissons Ratio (x) = 0.15792 0.26800
# Poissons Ratio (y) = 0.15417 0.38971
# Poissons Ratio (z) = 0.21530 0.32069
#
# Static dielectric constant tensor:
#      x y z
#    x 1.885170 0.000000 -0.031600 
#    y 0.000000 1.811740 0.000000 
#    z -0.031600 0.000000 1.790230 
# 
# From -- ./inp_files/225747.got.cif
#   From: 2010.05.17/outbox.cif.g08.bks.cpg/sg12_113_cif.got.tgz:225747.got - 2010.06.03 13:09:07.
