data_PCOD9179074
_publ_section_title
;
Structure prediction by ZEFSAII (Michael W. Deem and Ramdas Pophale) SiO2 
 PCOD9179074
Probable space group: C 2/M
;
_chemical_formula_sum "Si O2"
_cell_formula_units_Z 64
_cell_length_a 14.600971
_cell_length_b 7.600694
_cell_length_c 29.294884
_cell_angle_alpha 90.000000
_cell_angle_beta 88.192943
_cell_angle_gamma 90.000000
_cell_volume 3249.456550
_symmetry_space_group_name_H-M "C 2/M"
_symmetry_group_IT_number 12
_symmetry_cell_setting 'monoclinic'
loop_
_space_group_symop_operation_xyz
x,y,z
-x,y,-z
-x,-y,-z
x,-y,z
1/2+x,1/2+y,z
1/2-x,1/2+y,-z
1/2-x,1/2-y,-z
1/2+x,1/2-y,z
loop_
_atom_site_type_symbol
_atom_site_label
_atom_site_fract_x
_atom_site_fract_y
_atom_site_fract_z
Si Si1 0.358991 0.288404 0.374900
Si Si2 0.661294 0.284149 0.122178
Si Si3 0.008778 0.788781 0.300700
Si Si4 0.997619 0.288905 0.551593
Si Si5 0.488895 0.712343 0.802750
Si Si6 0.152076 0.711420 0.374247
Si Si7 0.370545 0.208293 0.122490
Si Si8 0.475763 0.296034 0.951397
O O1 0.355582 0.500000 0.370681
O O2 0.424526 0.221627 0.333084
O O3 0.410609 0.248091 0.421274
O O4 0.255521 0.221015 0.374529
O O5 0.660439 0.500000 0.122078
O O6 0.598658 0.228389 0.166042
O O7 0.766257 0.226873 0.123276
O O8 0.607831 0.222624 0.077538
O O9 0.010259 0.721580 0.249030
O O10 0.100440 0.750406 0.327796
O O11 0.999709 0.000000 0.298469
O O12 0.987576 0.500000 0.549270
O O13 0.913558 0.221175 0.584031
O O14 0.000000 0.220444 0.500000
O O15 0.484875 0.500000 0.801549
O O16 0.578942 0.760732 0.830185
O O17 0.155801 0.500000 0.378715
O O18 0.435929 0.289526 0.082883
O O19 0.369029 0.000000 0.113841
O O20 0.451266 0.500000 0.960212
O O21 0.500000 0.215404 0.000000
#
# Coordination Sequence:
#
# PCOD9179074 Si02
#       8
#     8   8   8   8   8   8   8   8
#     4   9  18  32  48  69  96 123 153 192 238 280
#     4   8  16  31  48  67  94 124 152 187 231 274
#     4   9  18  32  50  70  92 121 157 193 227 273
#     4   9  18  32  48  67  92 123 159 195 232 280
#     4   9  18  34  51  67  93 127 158 188 227 278
#     4   9  18  32  48  67  95 125 151 190 240 281
#     4  10  19  31  48  71  97 122 152 194 236 270
#     4   9  18  34  53  70  93 128 162 189 227 281
#
# _framework density 19.695602000000001
#
# number of rings (size 3 to 8) (size 9 to 14) (size 15 to 20)
#    0.000    3.000    0.000    1.125    0.000    3.500 
#    0.000    5.000    0.000    0.000    0.000    0.000 
#    0.000    0.000    0.000    0.000    0.000    0.000 
#
# Total GULP energy -178452.763743 kJ/mol
# GULP energy per Si atom -5576.648867 kJ/mol
# Density = 1.965077 g / cm^3
# Si number density = 19.695602 Si / 1000 Ang^3
#
#
#
# Elastic Constant Matrix: (Units=GPa)
#
#
# Indices 1 2 3 4 5 6 
#
# 1 172.0009 -9.7451 91.9240 0.0000 26.8511 0.0000
# 2 -9.7451 39.2981 -7.7928 0.0000 -2.0320 0.0000
# 3 91.9240 -7.7928 178.6504 0.0000 15.9834 0.0000
# 4 0.0000 0.0000 0.0000 -70.0683 0.0000 73.0031
# 5 26.8511 -2.0320 15.9834 0.0000 9.4883 0.0000
# 6 0.0000 0.0000 0.0000 73.0031 0.0000 -43.7404
#
#
#
# Elastic Compliance Matrix: (Units=1/GPa)
#
#
# Indices 1 2 3 4 5 6 
#
# 1 0.012275 0.000840 -0.003753 0.000000 -0.028235 0.000000
# 2 0.000840 0.025873 0.000487 0.000000 0.002344 0.000000
# 3 -0.003753 0.000487 0.007760 0.000000 -0.002346 0.000000
# 4 0.000000 0.000000 0.000000 0.019314 0.000000 0.032236
# 5 -0.028235 0.002344 -0.002346 0.000000 0.189750 0.000000
# 6 0.000000 0.000000 0.000000 0.032236 0.000000 0.030940
#
#
# Mechanical properties :
#
#
# Convention : Reuss Voigt Hill
#
# Bulk Modulus (GPa) = 24.35824 59.85796 42.10810
# Shear Modulus (GPa) = 16.42303 0.17349 8.29826
#
# Velocity S-wave (km/s) = 2.89077 0.29711 2.05485
# Velocity P-wave (km/s) = 4.85142 5.52949 5.20151
#
# Compressibility (1/GPa) = 0.04105388
#
# Stress axis : x y z
#
# Youngs Moduli (GPa) = 81.46409 38.65103 128.86688
#
# Poissons Ratio (x) = -0.03246 0.48370
# Poissons Ratio (y) = -0.06841 -0.06272
# Poissons Ratio (z) = 0.30577 -0.01881
#
# Static dielectric constant tensor:
#      x y z
#    x 1.672410 0.000000 -0.009200 
#    y 0.000000 1.726380 0.000000 
#    z -0.009200 0.000000 1.679270 
# 
# From -- ./inp_files/374809.got.cif
#   From: 2010.05.17/outbox.cif.g08.bks.cpg/sg12_188_cif.got.tgz:374809.got - 2010.06.03 13:09:07.
