data_PCOD9179836
_publ_section_title
;
Structure prediction by ZEFSAII (Michael W. Deem and Ramdas Pophale) SiO2 
 PCOD9179836
Probable space group: C 2/M
;
_chemical_formula_sum "Si O2"
_cell_formula_units_Z 52
_cell_length_a 5.494338
_cell_length_b 24.898458
_cell_length_c 19.554333
_cell_angle_alpha 90.000000
_cell_angle_beta 50.761954
_cell_angle_gamma 90.000000
_cell_volume 2071.887000
_symmetry_space_group_name_H-M "C 2/M"
_symmetry_group_IT_number 12
_symmetry_cell_setting 'monoclinic'
loop_
_space_group_symop_operation_xyz
x,y,z
-x,y,-z
-x,-y,-z
x,-y,z
1/2+x,1/2+y,z
1/2-x,1/2+y,-z
1/2-x,1/2-y,-z
1/2+x,1/2-y,z
loop_
_atom_site_type_symbol
_atom_site_label
_atom_site_fract_x
_atom_site_fract_y
_atom_site_fract_z
Si Si1 0.211057 0.893200 0.308309
Si Si2 0.186121 0.269110 0.671087
Si Si3 0.656004 0.771604 0.870953
Si Si4 0.378127 0.116763 0.943023
Si Si5 0.124245 0.500000 0.056379
Si Si6 0.802029 0.436520 0.687801
Si Si7 0.245415 0.375609 0.502426
O O1 0.269083 0.830787 0.314601
O O2 0.537043 0.922587 0.268009
O O3 0.016450 0.905531 0.274874
O O4 0.953377 0.910220 0.412363
O O5 0.510381 0.238808 0.630157
O O6 0.924304 0.243906 0.768905
O O7 0.345815 0.736083 0.908543
O O8 0.536632 0.831738 0.881437
O O9 0.472673 0.057923 0.898595
O O10 0.500000 0.117966 0.000000
O O11 0.000000 0.121718 0.000000
O O12 0.500000 0.500000 0.000000
O O13 0.000000 0.500000 0.000000
O O14 0.758079 0.500000 0.689126
O O15 0.050837 0.412687 0.588541
O O16 0.500000 0.343316 0.500000
O O17 0.000000 0.344157 0.500000
#
# Coordination Sequence:
#
# PCOD9179836 Si02
#       7
#     8   8   8   8   4   8   8
#     4  10  19  32  52  76 104 140 182 223 271 329
#     4  10  21  38  57  76  97 142 195 233 274 321
#     4  10  21  35  53  82 108 145 188 229 279 314
#     4  10  19  32  53  83 121 149 176 221 267 333
#     4   8  16  30  48  76 112 150 176 200 256 320
#     4  10  19  31  51  81 112 140 172 220 283 346
#     4   8  16  27  44  69 105 134 166 212 268 329
#
# _framework density 25.097895000000001
#
# number of rings (size 3 to 8) (size 9 to 14) (size 15 to 20)
#    0.000    2.462    0.000    2.308    0.000    7.385 
#    0.000    0.000    0.000   24.923   48.000    0.000 
#    0.000    0.000    0.000    0.000    0.000    0.000 
#
# Total GULP energy -145077.319533 kJ/mol
# GULP energy per Si atom -5579.896905 kJ/mol
# Density = 2.504077 g / cm^3
# Si number density = 25.097895 Si / 1000 Ang^3
#
#
#
# Elastic Constant Matrix: (Units=GPa)
#
#
# Indices 1 2 3 4 5 6 
#
# 1 283.1955 40.3020 15.8783 0.0000 -45.1774 0.0000
# 2 40.3020 187.0436 15.8736 0.0000 -35.2205 0.0000
# 3 15.8783 15.8736 39.3642 0.0000 -6.7570 0.0000
# 4 0.0000 0.0000 0.0000 20.3558 0.0000 -12.2378
# 5 -45.1774 -35.2205 -6.7570 0.0000 21.8394 0.0000
# 6 0.0000 0.0000 0.0000 -12.2378 0.0000 40.4250
#
#
#
# Elastic Compliance Matrix: (Units=1/GPa)
#
#
# Indices 1 2 3 4 5 6 
#
# 1 0.005515 0.001396 -0.000468 0.000000 0.013515 0.000000
# 2 0.001396 0.008071 -0.001149 0.000000 0.015549 0.000000
# 3 -0.000468 -0.001149 0.027006 0.000000 0.005535 0.000000
# 4 0.000000 0.000000 0.000000 0.060056 0.000000 0.018181
# 5 0.013515 0.015549 0.005535 0.000000 0.100534 0.000000
# 6 0.000000 0.000000 0.000000 0.018181 0.000000 0.030241
#
#
# Mechanical properties :
#
#
# Convention : Reuss Voigt Hill
#
# Bulk Modulus (GPa) = 24.90593 72.63457 48.77025
# Shear Modulus (GPa) = 20.38766 45.69400 33.04083
#
# Velocity S-wave (km/s) = 2.85322 4.27151 3.63227
# Velocity P-wave (km/s) = 4.56065 7.30282 6.08813
#
# Compressibility (1/GPa) = 0.04015108
#
# Stress axis : x y z
#
# Youngs Moduli (GPa) = 181.33649 123.90276 37.02898
#
# Poissons Ratio (x) = -0.17301 0.01732
# Poissons Ratio (y) = -0.25320 0.04254
# Poissons Ratio (z) = 0.08480 0.14234
#
# Static dielectric constant tensor:
#      x y z
#    x 2.136600 0.000000 0.079240 
#    y 0.000000 1.909690 0.000000 
#    z 0.079240 0.000000 2.051430 
# 
# From -- ./inp_files/355095.got.cif
#   From: 2010.05.17/outbox.cif.g08.bks.cpg/sg12_178_cif.got.tgz:355095.got - 2010.06.03 13:09:07.
