data_PCOD9179014
_publ_section_title
;
Structure prediction by ZEFSAII (Michael W. Deem and Ramdas Pophale) SiO2 
 PCOD9179014
Probable space group: C 2/M
;
_chemical_formula_sum "Si O2"
_cell_formula_units_Z 48
_cell_length_a 29.059730
_cell_length_b 8.755393
_cell_length_c 12.399886
_cell_angle_alpha 90.000000
_cell_angle_beta 109.720481
_cell_angle_gamma 90.000000
_cell_volume 2969.860381
_symmetry_space_group_name_H-M "C 2/M"
_symmetry_group_IT_number 12
_symmetry_cell_setting 'monoclinic'
loop_
_space_group_symop_operation_xyz
x,y,z
-x,y,-z
-x,-y,-z
x,-y,z
1/2+x,1/2+y,z
1/2-x,1/2+y,-z
1/2-x,1/2-y,-z
1/2+x,1/2-y,z
loop_
_atom_site_type_symbol
_atom_site_label
_atom_site_fract_x
_atom_site_fract_y
_atom_site_fract_z
Si Si1 0.527354 0.682222 0.410017
Si Si2 0.835484 0.317537 0.756496
Si Si3 0.634120 0.817472 0.468167
Si Si4 0.732473 0.683230 0.600774
Si Si5 0.505363 0.182461 0.838327
Si Si6 0.574695 0.681708 0.061613
O O1 0.500000 0.715774 0.500000
O O2 0.527400 0.500000 0.392940
O O3 0.582827 0.742180 0.456540
O O4 0.500992 0.761982 0.288317
O O5 0.841085 0.500000 0.775589
O O6 0.853600 0.282955 0.648259
O O7 0.777776 0.279857 0.715418
O O8 0.870523 0.230241 0.865796
O O9 0.679097 0.753792 0.574540
O O10 0.631428 0.000000 0.475688
O O11 0.729152 0.500000 0.590893
O O12 0.750000 0.750000 0.500000
O O13 0.460119 0.249957 0.871891
O O14 0.503887 0.000000 0.843957
O O15 0.553509 0.246596 0.935234
O O16 0.569321 0.500000 0.055200
#
# Coordination Sequence:
#
# PCOD9179014 Si02
#       6
#     8   8   8   8   8   8
#     4  11  23  37  53  73  98 130 170 211 249 292
#     4   9  17  29  45  70 100 132 163 197 245 296
#     4  10  19  31  48  69  98 131 165 204 247 295
#     4   9  17  28  44  66  97 130 164 201 243 295
#     4  11  21  34  50  69  98 131 166 205 247 297
#     4  11  20  30  49  73 100 132 165 202 247 296
#
# _framework density 16.162375000000001
#
# number of rings (size 3 to 8) (size 9 to 14) (size 15 to 20)
#    0.000    1.833    1.667    6.500    0.000    4.667 
#    0.000    0.000    0.000    0.000    0.000    1.167 
#    0.000    0.000    0.000    0.000    0.000    0.000 
#
# Total GULP energy -133892.084655 kJ/mol
# GULP energy per Si atom -5578.836861 kJ/mol
# Density = 1.612559 g / cm^3
# Si number density = 16.162375 Si / 1000 Ang^3
#
#
#
# Elastic Constant Matrix: (Units=GPa)
#
#
# Indices 1 2 3 4 5 6 
#
# 1 89.6972 55.0455 64.9980 0.0000 28.8207 0.0000
# 2 55.0455 101.1031 62.4210 0.0000 15.1415 0.0000
# 3 64.9980 62.4210 95.8326 0.0000 26.9788 0.0000
# 4 0.0000 0.0000 0.0000 19.8005 0.0000 12.8650
# 5 28.8207 15.1415 26.9788 0.0000 29.7264 0.0000
# 6 0.0000 0.0000 0.0000 12.8650 0.0000 20.2593
#
#
#
# Elastic Compliance Matrix: (Units=1/GPa)
#
#
# Indices 1 2 3 4 5 6 
#
# 1 0.026727 -0.006158 -0.010349 0.000000 -0.013384 0.000000
# 2 -0.006158 0.018036 -0.008953 0.000000 0.004909 0.000000
# 3 -0.010349 -0.008953 0.025758 0.000000 -0.008784 0.000000
# 4 0.000000 0.000000 0.000000 0.085977 0.000000 -0.054597
# 5 -0.013384 0.004909 -0.008784 0.000000 0.052088 0.000000
# 6 0.000000 0.000000 0.000000 -0.054597 0.000000 0.084030
#
#
# Mechanical properties :
#
#
# Convention : Reuss Voigt Hill
#
# Bulk Modulus (GPa) = 51.01587 72.39577 61.70582
# Shear Modulus (GPa) = 14.28284 20.90181 17.59233
#
# Velocity S-wave (km/s) = 2.97595 3.60006 3.30278
# Velocity P-wave (km/s) = 6.59102 7.88484 7.26678
#
# Compressibility (1/GPa) = 0.01960174
#
# Stress axis : x y z
#
# Youngs Moduli (GPa) = 37.41527 55.44422 38.82218
#
# Poissons Ratio (x) = 0.34141 0.40176
# Poissons Ratio (y) = 0.23040 0.34759
# Poissons Ratio (z) = 0.38720 0.49642
#
# Static dielectric constant tensor:
#      x y z
#    x 1.534330 0.000000 0.039830 
#    y 0.000000 1.537100 0.000000 
#    z 0.039830 0.000000 1.535560 
# 
# From -- ./inp_files/179307.got.cif
#   From: 2010.05.17/outbox.cif.g08.bks.cpg/sg12_90_cif.got.tgz:179307.got - 2010.06.03 13:09:07.
