data_PCOD9179689
_publ_section_title
;
Structure prediction by ZEFSAII (Michael W. Deem and Ramdas Pophale) SiO2 
 PCOD9179689
Probable space group: C 2/M
;
_chemical_formula_sum "Si O2"
_cell_formula_units_Z 48
_cell_length_a 28.624093
_cell_length_b 8.955257
_cell_length_c 20.249867
_cell_angle_alpha 90.000000
_cell_angle_beta 34.158869
_cell_angle_gamma 90.000000
_cell_volume 2914.564019
_symmetry_space_group_name_H-M "C 2/M"
_symmetry_group_IT_number 12
_symmetry_cell_setting 'monoclinic'
loop_
_space_group_symop_operation_xyz
x,y,z
-x,y,-z
-x,-y,-z
x,-y,z
1/2+x,1/2+y,z
1/2-x,1/2+y,-z
1/2-x,1/2-y,-z
1/2+x,1/2-y,z
loop_
_atom_site_type_symbol
_atom_site_label
_atom_site_fract_x
_atom_site_fract_y
_atom_site_fract_z
Si Si1 0.661786 0.821337 0.460900
Si Si2 0.702563 0.679404 0.150827
Si Si3 0.798327 0.320878 0.381313
Si Si4 0.545478 0.178527 0.723017
Si Si5 0.404380 0.679765 0.595792
Si Si6 0.631298 0.678284 0.091601
O O1 0.750802 0.748089 0.374673
O O2 0.597533 0.782324 0.595617
O O3 0.626607 0.759709 0.433804
O O4 0.669752 0.000000 0.450856
O O5 0.712674 0.500000 0.138361
O O6 0.652549 0.720607 0.274942
O O7 0.650851 0.720140 0.145232
O O8 0.792355 0.754809 0.039276
O O9 0.789140 0.500000 0.392560
O O10 0.750000 0.250000 0.500000
O O11 0.894546 0.286189 0.284881
O O12 0.457552 0.258928 0.825607
O O13 0.532988 0.000000 0.736559
O O14 0.500000 0.717042 0.500000
O O15 0.399664 0.500000 0.592145
O O16 0.631780 0.500000 0.086527
#
# Coordination Sequence:
#
# PCOD9179689 Si02
#       6
#     8   8   8   8   8   8
#     4  10  20  32  48  73 103 133 163 200 246 291
#     4   9  19  34  49  69  99 131 161 196 241 289
#     4   9  17  30  48  71  99 130 163 200 244 291
#     4   9  18  31  48  72 100 128 159 197 243 290
#     4  10  20  34  52  73  99 132 166 198 238 292
#     4  10  19  31  51  74  95 125 164 204 241 282
#
# _framework density 16.469014999999999
#
# number of rings (size 3 to 8) (size 9 to 14) (size 15 to 20)
#    0.000    2.500    0.000    3.500    0.000    7.000 
#    0.000    0.000    0.000    1.000    0.000    7.000 
#    0.000    0.000    0.000    0.000    0.000    0.000 
#
# Total GULP energy -133810.462044 kJ/mol
# GULP energy per Si atom -5575.435919 kJ/mol
# Density = 1.643153 g / cm^3
# Si number density = 16.469015 Si / 1000 Ang^3
#
#
#
# Elastic Constant Matrix: (Units=GPa)
#
#
# Indices 1 2 3 4 5 6 
#
# 1 145.7140 57.0762 80.4664 -0.0030 -25.2048 0.0008
# 2 57.0762 41.8976 47.7391 -0.0138 -13.1674 0.0059
# 3 80.4664 47.7391 106.8800 -0.0114 -21.2131 0.0044
# 4 -0.0030 -0.0138 -0.0114 21.5892 0.0044 -1.7873
# 5 -25.2048 -13.1674 -21.2131 0.0044 30.7582 -0.0005
# 6 0.0008 0.0059 0.0044 -1.7873 -0.0005 31.1279
#
#
#
# Elastic Compliance Matrix: (Units=1/GPa)
#
#
# Indices 1 2 3 4 5 6 
#
# 1 0.016057 -0.015889 -0.004322 -0.000011 0.003375 0.000003
# 2 -0.015889 0.065570 -0.016613 0.000030 0.003593 -0.000008
# 3 -0.004322 -0.016613 0.020757 -0.000001 0.003662 0.000000
# 4 -0.000011 0.000030 -0.000001 0.046541 -0.000003 0.002672
# 5 0.003375 0.003593 0.003662 -0.000003 0.039341 -0.000001
# 6 0.000003 -0.000008 0.000000 0.002672 -0.000001 0.032279
#
#
# Mechanical properties :
#
#
# Convention : Reuss Voigt Hill
#
# Bulk Modulus (GPa) = 34.79686 73.89499 54.34592
# Shear Modulus (GPa) = 16.45975 23.97572 20.21773
#
# Velocity S-wave (km/s) = 3.16482 3.81964 3.50755
# Velocity P-wave (km/s) = 5.87616 8.02617 7.03380
#
# Compressibility (1/GPa) = 0.02873823
#
# Stress axis : x y z
#
# Youngs Moduli (GPa) = 62.27892 15.25077 48.17602
#
# Poissons Ratio (x) = 0.24231 0.20821
# Poissons Ratio (y) = 0.98952 0.80033
# Poissons Ratio (z) = 0.26916 0.25336
#
# Static dielectric constant tensor:
#      x y z
#    x 1.566170 0.000000 -0.004850 
#    y 0.000000 1.547300 0.000000 
#    z -0.004850 0.000000 1.534270 
# 
# From -- ./inp_files/248802.got.cif
#   From: 2010.05.17/outbox.cif.g08.bks.cpg/sg12_125_cif.got.tgz:248802.got - 2010.06.03 13:09:07.
