data_PCOD9179318
_publ_section_title
;
Structure prediction by ZEFSAII (Michael W. Deem and Ramdas Pophale) SiO2 
 PCOD9179318
Probable space group: C 2/M
;
_chemical_formula_sum "Si O2"
_cell_formula_units_Z 48
_cell_length_a 33.469089
_cell_length_b 8.717490
_cell_length_c 19.006084
_cell_angle_alpha 90.000000
_cell_angle_beta 150.010863
_cell_angle_gamma 90.000000
_cell_volume 2771.758254
_symmetry_space_group_name_H-M "C 2/M"
_symmetry_group_IT_number 12
_symmetry_cell_setting 'monoclinic'
loop_
_space_group_symop_operation_xyz
x,y,z
-x,y,-z
-x,-y,-z
x,-y,z
1/2+x,1/2+y,z
1/2-x,1/2+y,-z
1/2-x,1/2-y,-z
1/2+x,1/2-y,z
loop_
_atom_site_type_symbol
_atom_site_label
_atom_site_fract_x
_atom_site_fract_y
_atom_site_fract_z
Si Si1 0.668869 0.313556 0.100252
Si Si2 0.410122 0.676954 0.156191
Si Si3 0.422725 0.323292 0.676661
Si Si4 0.158892 0.316268 0.577513
Si Si5 0.491505 0.686511 0.568090
Si Si6 0.013787 0.683664 0.940429
O O1 0.663692 0.500000 0.091230
O O2 0.754314 0.269598 0.261640
O O3 0.653084 0.256916 0.995870
O O4 0.596604 0.251895 0.037432
O O5 0.386809 0.500000 0.132867
O O6 0.493648 0.678634 0.239860
O O7 0.435555 0.742929 0.270490
O O8 0.401126 0.500000 0.655122
O O9 0.359493 0.242599 0.529205
O O10 0.443946 0.242491 0.782120
O O11 0.153640 0.500000 0.570369
O O12 0.090045 0.248263 0.522566
O O13 0.500000 0.730879 0.500000
O O14 0.490152 0.500000 0.570280
O O15 0.017304 0.500000 0.941869
O O16 0.000000 0.729933 0.000000
#
# Coordination Sequence:
#
# PCOD9179318 Si02
#       6
#     8   8   8   8   8   8
#     4   9  18  32  50  71  96 130 167 202 243 292
#     4   7  12  26  46  65  87 119 159 196 231 279
#     4   9  17  31  51  71  94 128 165 197 238 295
#     4  10  19  31  49  73  99 126 163 209 249 286
#     4   9  17  30  49  71  95 128 169 207 245 294
#     4  10  20  33  51  76 102 126 158 202 244 284
#
# _framework density 17.317529
#
# number of rings (size 3 to 8) (size 9 to 14) (size 15 to 20)
#    0.000    3.000    0.000    3.500    0.000    3.000 
#    0.000    1.667    0.000    0.000    0.000    0.000 
#    0.000    0.000    0.000    0.000    0.000    0.000 
#
# Total GULP energy -133619.141714 kJ/mol
# GULP energy per Si atom -5567.464238 kJ/mol
# Density = 1.727811 g / cm^3
# Si number density = 17.317529 Si / 1000 Ang^3
#
#
#
# Elastic Constant Matrix: (Units=GPa)
#
#
# Indices 1 2 3 4 5 6 
#
# 1 98.2885 23.1617 73.3115 0.0000 -40.6170 0.0000
# 2 23.1617 26.8897 34.6516 0.0000 -10.9808 0.0000
# 3 73.3115 34.6516 177.7638 0.0000 -39.3194 0.0000
# 4 0.0000 0.0000 0.0000 17.3929 0.0000 0.7869
# 5 -40.6170 -10.9808 -39.3194 0.0000 31.0249 0.0000
# 6 0.0000 0.0000 0.0000 0.7869 0.0000 19.1684
#
#
#
# Elastic Compliance Matrix: (Units=1/GPa)
#
#
# Indices 1 2 3 4 5 6 
#
# 1 0.025009 -0.006680 -0.003186 0.000000 0.026339 0.000000
# 2 -0.006680 0.052694 -0.007400 0.000000 0.000526 0.000000
# 3 -0.003186 -0.007400 0.009560 0.000000 0.005326 0.000000
# 4 0.000000 0.000000 0.000000 0.057602 0.000000 -0.002365
# 5 0.026339 0.000526 0.005326 0.000000 0.073651 0.000000
# 6 0.000000 0.000000 0.000000 -0.002365 0.000000 0.052266
#
#
# Mechanical properties :
#
#
# Convention : Reuss Voigt Hill
#
# Bulk Modulus (GPa) = 18.96450 62.79906 40.88178
# Shear Modulus (GPa) = 15.48505 24.97171 20.22838
#
# Velocity S-wave (km/s) = 2.99353 3.80147 3.42144
# Velocity P-wave (km/s) = 4.78781 7.45723 6.26632
#
# Compressibility (1/GPa) = 0.05273010
#
# Stress axis : x y z
#
# Youngs Moduli (GPa) = 39.98531 18.97734 104.60415
#
# Poissons Ratio (x) = 0.12678 0.33325
# Poissons Ratio (y) = 0.26712 0.77412
# Poissons Ratio (z) = 0.12739 0.14044
#
# Static dielectric constant tensor:
#      x y z
#    x 1.575500 0.000000 -0.039340 
#    y 0.000000 1.585640 0.000000 
#    z -0.039340 0.000000 1.614460 
# 
# From -- ./inp_files/274596.got.cif
#   From: 2010.05.17/outbox.cif.g08.bks.cpg/sg12_138_cif.got.tgz:274596.got - 2010.06.03 13:09:07.
