data_PCOD9179647
_publ_section_title
;
Structure prediction by ZEFSAII (Michael W. Deem and Ramdas Pophale) SiO2 
 PCOD9179647
Probable space group: C 2/M
;
_chemical_formula_sum "Si O2"
_cell_formula_units_Z 40
_cell_length_a 19.809206
_cell_length_b 15.569451
_cell_length_c 8.469866
_cell_angle_alpha 90.000000
_cell_angle_beta 53.243239
_cell_angle_gamma 90.000000
_cell_volume 2092.901277
_symmetry_space_group_name_H-M "C 2/M"
_symmetry_group_IT_number 12
_symmetry_cell_setting 'monoclinic'
loop_
_space_group_symop_operation_xyz
x,y,z
-x,y,-z
-x,-y,-z
x,-y,z
1/2+x,1/2+y,z
1/2-x,1/2+y,-z
1/2-x,1/2-y,-z
1/2+x,1/2-y,z
loop_
_atom_site_type_symbol
_atom_site_label
_atom_site_fract_x
_atom_site_fract_y
_atom_site_fract_z
Si Si1 0.703798 0.796462 0.920739
Si Si2 0.685424 0.402021 0.468787
Si Si3 0.410520 0.899430 0.696563
Si Si4 0.646705 0.904306 0.561025
Si Si5 0.408368 0.733886 0.198810
O O1 0.771242 0.859847 0.744895
O O2 0.662457 0.738733 0.840528
O O3 0.750000 0.750000 0.000000
O O4 0.626037 0.848605 0.105737
O O5 0.657060 0.500000 0.482209
O O6 0.762258 0.404089 0.486617
O O7 0.617148 0.338116 0.638417
O O8 0.500000 0.870158 0.500000
O O9 0.348723 0.890784 0.632731
O O10 0.418136 0.000000 0.725813
O O11 0.595648 0.827306 0.712221
O O12 0.609124 0.000000 0.638145
O O13 0.500000 0.718131 0.000000
#
# Coordination Sequence:
#
# PCOD9179647 Si02
#       5
#     8   8   8   8   8
#     4  11  21  35  57  81 107 139 177 222 269 318
#     4  10  21  38  57  76 104 145 188 222 259 318
#     4  10  19  31  50  79 112 139 167 212 268 320
#     4   9  18  34  55  79 109 142 177 217 266 328
#     4  11  22  36  56  80 108 143 182 226 271 315
#
# _framework density 19.112224999999999
#
# number of rings (size 3 to 8) (size 9 to 14) (size 15 to 20)
#    0.000    1.800    0.000    6.600    0.000    1.600 
#    0.000    1.000    0.000    1.200    0.000    0.000 
#    0.000    0.000    0.000    0.000    0.000    0.000 
#
# Total GULP energy -111646.909734 kJ/mol
# GULP energy per Si atom -5582.345487 kJ/mol
# Density = 1.906872 g / cm^3
# Si number density = 19.112225 Si / 1000 Ang^3
#
#
#
# Elastic Constant Matrix: (Units=GPa)
#
#
# Indices 1 2 3 4 5 6 
#
# 1 31.8291 24.5029 0.6230 0.0000 11.7119 0.0000
# 2 24.5029 124.7536 87.4942 0.0000 -5.0625 0.0000
# 3 0.6230 87.4942 134.9511 0.0000 -12.3676 0.0000
# 4 0.0000 0.0000 0.0000 23.7534 0.0000 4.6680
# 5 11.7119 -5.0625 -12.3676 0.0000 30.5363 0.0000
# 6 0.0000 0.0000 0.0000 4.6680 0.0000 17.3854
#
#
#
# Elastic Compliance Matrix: (Units=1/GPa)
#
#
# Indices 1 2 3 4 5 6 
#
# 1 0.051647 -0.017474 0.009357 0.000000 -0.018916 0.000000
# 2 -0.017474 0.020677 -0.012874 0.000000 0.004916 0.000000
# 3 0.009357 -0.012874 0.015775 0.000000 0.000666 0.000000
# 4 0.000000 0.000000 0.000000 0.044444 0.000000 -0.011933
# 5 -0.018916 0.004916 0.000666 0.000000 0.041088 0.000000
# 6 0.000000 0.000000 0.000000 -0.011933 0.000000 0.060724
#
#
# Mechanical properties :
#
#
# Convention : Reuss Voigt Hill
#
# Bulk Modulus (GPa) = 21.68444 57.41937 39.55190
# Shear Modulus (GPa) = 17.14037 26.26259 21.70148
#
# Velocity S-wave (km/s) = 2.99796 3.71094 3.37334
# Velocity P-wave (km/s) = 4.83261 6.96203 5.99267
#
# Compressibility (1/GPa) = 0.04611601
#
# Stress axis : x y z
#
# Youngs Moduli (GPa) = 19.36215 48.36373 63.39209
#
# Poissons Ratio (x) = 0.84512 -0.59318
# Poissons Ratio (y) = 0.33834 0.81613
# Poissons Ratio (z) = -0.18118 0.62265
#
# Static dielectric constant tensor:
#      x y z
#    x 1.687940 0.000000 -0.000560 
#    y 0.000000 1.685540 0.000000 
#    z -0.000560 0.000000 1.645390 
# 
# From -- ./inp_files/58911.got.cif
#   From: 2010.05.17/outbox.cif.g08.bks.cpg/sg12_30_cif.got.tgz:58911.got - 2010.06.03 13:09:07.
