data_PCOD9179584
_publ_section_title
;
Structure prediction by ZEFSAII (Michael W. Deem and Ramdas Pophale) SiO2 
 PCOD9179584
Probable space group: C 2/M
;
_chemical_formula_sum "Si O2"
_cell_formula_units_Z 64
_cell_length_a 12.191966
_cell_length_b 15.983238
_cell_length_c 26.920462
_cell_angle_alpha 90.000000
_cell_angle_beta 137.968938
_cell_angle_gamma 90.000000
_cell_volume 3512.313395
_symmetry_space_group_name_H-M "C 2/M"
_symmetry_group_IT_number 12
_symmetry_cell_setting 'monoclinic'
loop_
_space_group_symop_operation_xyz
x,y,z
-x,y,-z
-x,-y,-z
x,-y,z
1/2+x,1/2+y,z
1/2-x,1/2+y,-z
1/2-x,1/2-y,-z
1/2+x,1/2-y,z
loop_
_atom_site_type_symbol
_atom_site_label
_atom_site_fract_x
_atom_site_fract_y
_atom_site_fract_z
Si Si1 0.190982 0.845270 0.077866
Si Si2 0.346711 0.400993 0.824297
Si Si3 0.685966 0.337002 0.899281
Si Si4 0.898315 0.102732 0.658740
Si Si5 0.371640 0.097346 0.503137
Si Si6 0.761870 0.097396 0.189989
Si Si7 0.597368 0.097010 0.940335
Si Si8 0.150308 0.398211 0.663636
O O1 0.202917 0.885630 0.135922
O O2 0.280537 0.756143 0.107839
O O3 0.279156 0.896723 0.064041
O O4 0.000000 0.835643 0.000000
O O5 0.380758 0.500000 0.828603
O O6 0.512644 0.351814 0.867220
O O7 0.208213 0.375391 0.737982
O O8 0.696390 0.395089 0.854311
O O9 0.824806 0.357111 0.986514
O O10 0.796171 0.132417 0.576295
O O11 0.792595 0.125327 0.672133
O O12 0.083934 0.133057 0.727956
O O13 0.900020 0.000000 0.658252
O O14 0.500000 0.097550 0.500000
O O15 0.476148 0.133657 0.583965
O O16 0.337721 0.000000 0.503545
O O17 0.579781 0.133647 0.134175
O O18 0.750795 0.000000 0.200524
O O19 0.575824 0.000000 0.947241
O O20 0.141379 0.500000 0.658813
#
# Coordination Sequence:
#
# PCOD9179584 Si02
#       8
#     8   8   8   8   8   8   8   8
#     4  12  26  39  55  74 107 140 179 223 269 314
#     4  11  22  37  59  81 106 142 181 218 262 315
#     4  12  23  36  56  76 104 136 177 221 268 315
#     4   8  12  21  39  70 106 136 161 208 269 310
#     4   7  10  17  35  65 105 135 156 200 267 312
#     4  10  19  31  50  76 106 135 173 218 264 317
#     4  11  23  38  56  75 101 139 182 219 264 318
#     4   8  13  24  43  72 104 133 167 212 258 307
#
# _framework density 18.221609000000001
#
# number of rings (size 3 to 8) (size 9 to 14) (size 15 to 20)
#    0.000    2.125    2.500    4.500    1.750    1.500 
#    0.000    0.000    0.000    0.000    0.000    1.750 
#    3.750    6.000    0.000    0.000    0.000    0.000 
#
# Total GULP energy -178373.685143 kJ/mol
# GULP energy per Si atom -5574.177661 kJ/mol
# Density = 1.818014 g / cm^3
# Si number density = 18.221609 Si / 1000 Ang^3
#
#
#
# Elastic Constant Matrix: (Units=GPa)
#
#
# Indices 1 2 3 4 5 6 
#
# 1 45.7040 -1.0966 34.1724 0.0000 8.9572 0.0000
# 2 -1.0966 20.8665 11.5834 0.0000 0.3814 0.0000
# 3 34.1724 11.5834 173.1421 0.0000 10.7179 0.0000
# 4 0.0000 0.0000 0.0000 -8.3596 0.0000 5.7003
# 5 8.9572 0.3814 10.7179 0.0000 19.9852 0.0000
# 6 0.0000 0.0000 0.0000 5.7003 0.0000 15.2569
#
#
#
# Elastic Compliance Matrix: (Units=1/GPa)
#
#
# Indices 1 2 3 4 5 6 
#
# 1 0.027773 0.004513 -0.005179 0.000000 -0.009756 0.000000
# 2 0.004513 0.050520 -0.004226 0.000000 -0.000721 0.000000
# 3 -0.005179 -0.004226 0.007170 0.000000 -0.001443 0.000000
# 4 0.000000 0.000000 0.000000 -0.095334 0.000000 0.035619
# 5 -0.009756 -0.000721 -0.001443 0.000000 0.055197 0.000000
# 6 0.000000 0.000000 0.000000 0.035619 0.000000 0.052236
#
#
# Mechanical properties :
#
#
# Convention : Reuss Voigt Hill
#
# Bulk Modulus (GPa) = 13.21386 36.55900 24.88643
# Shear Modulus (GPa) = 37.71518 18.38004 28.04761
#
# Velocity S-wave (km/s) = 4.55445 3.17944 3.92758
# Velocity P-wave (km/s) = 5.90972 5.79530 5.85279
#
# Compressibility (1/GPa) = 0.07567814
#
# Stress axis : x y z
#
# Youngs Moduli (GPa) = 36.00648 19.79411 139.47191
#
# Poissons Ratio (x) = -0.08933 0.72238
# Poissons Ratio (y) = -0.16250 0.58940
# Poissons Ratio (z) = 0.18649 0.08365
#
# Static dielectric constant tensor:
#      x y z
#    x 1.604370 0.000000 0.020590 
#    y 0.000000 1.643540 0.000000 
#    z 0.020590 0.000000 1.681730 
# 
# From -- ./inp_files/358448.got.cif
#   From: 2010.05.17/outbox.cif.g08.bks.cpg/sg12_180_cif.got.tgz:358448.got - 2010.06.03 13:09:07.
