data_PCOD9179400
_publ_section_title
;
Structure prediction by ZEFSAII (Michael W. Deem and Ramdas Pophale) SiO2 
 PCOD9179400
Probable space group: C 2/M
;
_chemical_formula_sum "Si O2"
_cell_formula_units_Z 48
_cell_length_a 23.563578
_cell_length_b 8.041931
_cell_length_c 26.732656
_cell_angle_alpha 90.000000
_cell_angle_beta 29.911464
_cell_angle_gamma 90.000000
_cell_volume 2526.092510
_symmetry_space_group_name_H-M "C 2/M"
_symmetry_group_IT_number 12
_symmetry_cell_setting 'monoclinic'
loop_
_space_group_symop_operation_xyz
x,y,z
-x,y,-z
-x,-y,-z
x,-y,z
1/2+x,1/2+y,z
1/2-x,1/2+y,-z
1/2-x,1/2-y,-z
1/2+x,1/2-y,z
loop_
_atom_site_type_symbol
_atom_site_label
_atom_site_fract_x
_atom_site_fract_y
_atom_site_fract_z
Si Si1 0.151541 0.812434 0.610878
Si Si2 0.170916 0.688969 0.702542
Si Si3 0.196810 0.801510 0.119653
Si Si4 0.429369 0.701108 0.504401
Si Si5 0.424293 0.202005 0.890675
Si Si6 0.030936 0.690997 0.321351
O O1 0.250000 0.750000 0.500000
O O2 0.149799 0.692011 0.659152
O O3 0.042410 0.805314 0.659357
O O4 0.170962 0.000000 0.614179
O O5 0.177326 0.500000 0.717155
O O6 0.298213 0.761985 0.610521
O O7 0.049346 0.763744 0.812344
O O8 0.113881 0.758457 0.135851
O O9 0.155912 0.720423 0.202902
O O10 0.197873 0.000000 0.124621
O O11 0.321749 0.746798 0.005547
O O12 0.500000 0.741624 0.500000
O O13 0.423727 0.500000 0.503319
O O14 0.495162 0.766883 0.405139
O O15 0.428643 0.000000 0.886173
O O16 0.999019 0.500000 0.336744
#
# Coordination Sequence:
#
# PCOD9179400 Si02
#       6
#     8   8   8   8   8   8
#     4  12  22  32  49  78 110 142 175 212 264 322
#     4  10  19  33  54  78 108 141 174 215 265 323
#     4  10  19  31  49  76 110 144 178 215 259 317
#     4  10  22  39  58  79 104 137 178 226 277 325
#     4   9  18  31  49  76 110 144 176 213 260 318
#     4  12  23  35  53  77 109 145 180 220 265 319
#
# _framework density 19.001678999999999
#
# number of rings (size 3 to 8) (size 9 to 14) (size 15 to 20)
#    0.000    1.500    3.333    3.500    0.000    1.000 
#    0.000    0.000    0.000    1.000    0.000    7.000 
#    0.000    0.000    0.000    0.000    0.000    0.000 
#
# Total GULP energy -133751.849867 kJ/mol
# GULP energy per Si atom -5572.993744 kJ/mol
# Density = 1.895843 g / cm^3
# Si number density = 19.001679 Si / 1000 Ang^3
#
#
#
# Elastic Constant Matrix: (Units=GPa)
#
#
# Indices 1 2 3 4 5 6 
#
# 1 72.2950 7.1279 56.9584 0.0001 -10.0633 -0.0001
# 2 7.1279 50.9237 10.8845 -0.0010 -2.6036 0.0004
# 3 56.9584 10.8845 175.8599 -0.0005 -14.0971 0.0001
# 4 0.0001 -0.0010 -0.0005 14.5339 0.0003 3.6032
# 5 -10.0633 -2.6036 -14.0971 0.0003 11.7466 0.0002
# 6 -0.0001 0.0004 0.0001 3.6032 0.0002 15.2096
#
#
#
# Elastic Compliance Matrix: (Units=1/GPa)
#
#
# Indices 1 2 3 4 5 6 
#
# 1 0.019664 -0.001065 -0.005501 -0.000001 0.010009 0.000000
# 2 -0.001065 0.020071 -0.000679 0.000002 0.002721 -0.000001
# 3 -0.005501 -0.000679 0.007878 0.000000 0.004591 0.000000
# 4 -0.000001 0.000002 0.000000 0.073098 -0.000001 -0.017317
# 5 0.010009 0.002721 0.004591 -0.000001 0.099819 -0.000001
# 6 0.000000 -0.000001 0.000000 -0.017317 -0.000001 0.069850
#
#
# Mechanical properties :
#
#
# Convention : Reuss Voigt Hill
#
# Bulk Modulus (GPa) = 30.19038 49.89113 40.04076
# Shear Modulus (GPa) = 15.82724 23.23854 19.53289
#
# Velocity S-wave (km/s) = 2.88920 3.50090 3.20965
# Velocity P-wave (km/s) = 5.20122 6.53107 5.90371
#
# Compressibility (1/GPa) = 0.03312314
#
# Stress axis : x y z
#
# Youngs Moduli (GPa) = 50.85375 49.82412 126.93531
#
# Poissons Ratio (x) = 0.05306 0.69823
# Poissons Ratio (y) = 0.05416 0.08621
# Poissons Ratio (z) = 0.27973 0.03384
#
# Static dielectric constant tensor:
#      x y z
#    x 1.580710 0.000000 -0.017870 
#    y 0.000000 1.656020 0.000000 
#    z -0.017870 0.000000 1.756980 
# 
# From -- ./inp_files/327150.got.cif
#   From: 2010.05.17/outbox.cif.g08.bks.cpg/sg12_164_cif.got.tgz:327150.got - 2010.06.03 13:09:07.
