data_PCOD9179091
_publ_section_title
;
Structure prediction by ZEFSAII (Michael W. Deem and Ramdas Pophale) SiO2 
 PCOD9179091
Probable space group: C 2/M
;
_chemical_formula_sum "Si O2"
_cell_formula_units_Z 64
_cell_length_a 20.798181
_cell_length_b 10.016922
_cell_length_c 17.176336
_cell_angle_alpha 90.000000
_cell_angle_beta 64.420957
_cell_angle_gamma 90.000000
_cell_volume 3227.692407
_symmetry_space_group_name_H-M "C 2/M"
_symmetry_group_IT_number 12
_symmetry_cell_setting 'monoclinic'
loop_
_space_group_symop_operation_xyz
x,y,z
-x,y,-z
-x,-y,-z
x,-y,z
1/2+x,1/2+y,z
1/2-x,1/2+y,-z
1/2-x,1/2-y,-z
1/2+x,1/2-y,z
loop_
_atom_site_type_symbol
_atom_site_label
_atom_site_fract_x
_atom_site_fract_y
_atom_site_fract_z
Si Si1 0.404353 0.349137 0.126208
Si Si2 0.985975 0.341031 0.599984
Si Si3 0.144603 0.845098 0.289221
Si Si4 0.858714 0.656791 0.429281
Si Si5 0.436488 0.652890 0.922545
Si Si6 0.317462 0.848540 0.968820
Si Si7 0.710572 0.852416 0.838474
Si Si8 0.725188 0.347226 0.410222
O O1 0.386281 0.500000 0.157829
O O2 0.479858 0.313926 0.125608
O O3 0.339422 0.252267 0.177827
O O4 0.418468 0.350149 0.024941
O O5 0.971187 0.500000 0.613847
O O6 0.921234 0.253032 0.666129
O O7 0.000000 0.313197 0.500000
O O8 0.058106 0.308628 0.610098
O O9 0.206630 0.811713 0.194925
O O10 0.192403 0.834719 0.342419
O O11 0.121891 0.000000 0.291160
O O12 0.855830 0.500000 0.451951
O O13 0.809837 0.674549 0.378184
O O14 0.817654 0.744249 0.514317
O O15 0.424089 0.500000 0.900947
O O16 0.387033 0.763688 0.908684
O O17 0.323087 0.866191 0.058876
O O18 0.309206 0.000000 0.940038
O O19 0.250000 0.750000 0.000000
O O20 0.709854 0.000000 0.802239
O O21 0.711383 0.500000 0.443718
#
# Coordination Sequence:
#
# PCOD9179091 Si02
#       8
#     8   8   8   8   8   8   8   8
#     4   8  14  26  46  70  93 117 148 186 230 279
#     4  10  19  31  48  72 100 131 166 208 250 288
#     4  10  20  33  50  72  98 130 168 205 249 299
#     4   9  17  30  47  69  97 124 157 201 247 287
#     4   8  14  26  45  70  95 117 145 187 233 277
#     4  10  19  31  49  71  95 126 163 201 244 291
#     4   9  19  33  48  69  97 129 159 197 246 293
#     4   9  17  29  48  71  93 123 159 199 243 290
#
# _framework density 19.828406999999999
#
# number of rings (size 3 to 8) (size 9 to 14) (size 15 to 20)
#    0.000    2.875    1.250    1.125    0.000    2.250 
#    0.000    2.500    2.750    0.000    0.000    0.000 
#    0.000    0.000    0.000    0.000    0.000    0.000 
#
# Total GULP energy -178162.020290 kJ/mol
# GULP energy per Si atom -5567.563134 kJ/mol
# Density = 1.978328 g / cm^3
# Si number density = 19.828407 Si / 1000 Ang^3
#
#
#
# Elastic Constant Matrix: (Units=GPa)
#
#
# Indices 1 2 3 4 5 6 
#
# 1 106.4696 75.1390 24.0722 0.0000 -41.6269 0.0000
# 2 75.1390 107.4963 33.7053 0.0000 -43.6245 0.0000
# 3 24.0722 33.7053 48.1228 0.0000 -28.9527 0.0000
# 4 0.0000 0.0000 0.0000 23.7564 0.0000 -16.5483
# 5 -41.6269 -43.6245 -28.9527 0.0000 38.6399 0.0000
# 6 0.0000 0.0000 0.0000 -16.5483 0.0000 28.4009
#
#
#
# Elastic Compliance Matrix: (Units=1/GPa)
#
#
# Indices 1 2 3 4 5 6 
#
# 1 0.021818 -0.010652 0.006287 0.000000 0.016189 0.000000
# 2 -0.010652 0.022381 -0.003731 0.000000 0.010998 0.000000
# 3 0.006287 -0.003731 0.039675 0.000000 0.032289 0.000000
# 4 0.000000 0.000000 0.000000 0.070850 0.000000 0.041282
# 5 0.016189 0.010998 0.032289 0.000000 0.079931 0.000000
# 6 0.000000 0.000000 0.000000 0.041282 0.000000 0.059264
#
#
# Mechanical properties :
#
#
# Convention : Reuss Voigt Hill
#
# Bulk Modulus (GPa) = 14.77487 58.65797 36.71642
# Shear Modulus (GPa) = 15.02985 26.77091 20.90038
#
# Velocity S-wave (km/s) = 2.75616 3.67840 3.25016
# Velocity P-wave (km/s) = 4.19477 6.90564 5.71331
#
# Compressibility (1/GPa) = 0.06768248
#
# Stress axis : x y z
#
# Youngs Moduli (GPa) = 45.83417 44.68089 25.20482
#
# Poissons Ratio (x) = 0.47593 -0.15846
# Poissons Ratio (y) = 0.48821 0.09404
# Poissons Ratio (z) = -0.28816 0.16670
#
# Static dielectric constant tensor:
#      x y z
#    x 1.742100 0.000000 0.024490 
#    y 0.000000 1.712890 0.000000 
#    z 0.024490 0.000000 1.738820 
# 
# From -- ./inp_files/345943.got.cif
#   From: 2010.05.17/outbox.cif.g08.bks.cpg/sg12_173_cif.got.tgz:345943.got - 2010.06.03 13:09:07.
