data_PCOD9179451
_publ_section_title
;
Structure prediction by ZEFSAII (Michael W. Deem and Ramdas Pophale) SiO2 
 PCOD9179451
Probable space group: C 2/M
;
_chemical_formula_sum "Si O2"
_cell_formula_units_Z 64
_cell_length_a 19.735290
_cell_length_b 22.804483
_cell_length_c 8.870434
_cell_angle_alpha 90.000000
_cell_angle_beta 65.870311
_cell_angle_gamma 90.000000
_cell_volume 3643.340568
_symmetry_space_group_name_H-M "C 2/M"
_symmetry_group_IT_number 12
_symmetry_cell_setting 'monoclinic'
loop_
_space_group_symop_operation_xyz
x,y,z
-x,y,-z
-x,-y,-z
x,-y,z
1/2+x,1/2+y,z
1/2-x,1/2+y,-z
1/2-x,1/2-y,-z
1/2+x,1/2-y,z
loop_
_atom_site_type_symbol
_atom_site_label
_atom_site_fract_x
_atom_site_fract_y
_atom_site_fract_z
Si Si1 0.224495 0.158475 0.956510
Si Si2 0.974032 0.249695 0.678925
Si Si3 0.474411 0.569822 0.185023
Si Si4 0.329503 0.430383 0.491359
Si Si5 0.148300 0.286591 0.986232
Si Si6 0.741456 0.840773 0.411826
Si Si7 0.597188 0.623641 0.277108
Si Si8 0.631733 0.757812 0.663904
O O1 0.291631 0.166655 0.012433
O O2 0.253282 0.140181 0.766648
O O3 0.188013 0.222972 0.967610
O O4 0.159846 0.120807 0.090429
O O5 0.921653 0.285686 0.838473
O O6 0.927643 0.191231 0.676608
O O7 0.000000 0.279147 0.500000
O O8 0.050682 0.234836 0.694100
O O9 0.484818 0.500000 0.170842
O O10 0.388905 0.580480 0.302542
O O11 0.524909 0.592932 0.274955
O O12 0.500000 0.595003 0.000000
O O13 0.318538 0.500000 0.517168
O O14 0.256805 0.394280 0.510807
O O15 0.368228 0.404450 0.605467
O O16 0.128060 0.289046 0.829809
O O17 0.667239 0.804105 0.514616
O O18 0.809330 0.795177 0.380462
#
# Coordination Sequence:
#
# PCOD9179451 Si02
#       8
#     8   8   8   8   8   8   8   8
#     4   9  18  31  48  68  94 130 163 203 251 298
#     4  11  20  29  45  69  98 129 161 197 242 296
#     4  10  20  32  45  63  89 122 163 208 246 281
#     4  11  22  35  50  70  99 136 176 213 249 291
#     4   9  18  31  45  68  99 127 161 201 249 304
#     4  10  19  33  51  71  97 128 167 208 253 300
#     4  11  20  31  48  67  95 130 169 205 242 289
#     4  10  19  31  50  72  97 130 163 204 254 303
#
# _framework density 17.566296999999999
#
# number of rings (size 3 to 8) (size 9 to 14) (size 15 to 20)
#    0.000    1.875    0.000    5.625    0.000    7.000 
#    0.000    0.625    0.000    0.000    0.000    0.000 
#    0.000   13.500    0.000    0.000    0.000    0.125 
#
# Total GULP energy -178568.925695 kJ/mol
# GULP energy per Si atom -5580.278928 kJ/mol
# Density = 1.752632 g / cm^3
# Si number density = 17.566297 Si / 1000 Ang^3
#
#
#
# Elastic Constant Matrix: (Units=GPa)
#
#
# Indices 1 2 3 4 5 6 
#
# 1 43.7960 11.1566 8.3685 0.0000 3.8120 0.0000
# 2 11.1566 40.9794 9.0435 0.0000 -1.5634 0.0000
# 3 8.3685 9.0435 85.0778 0.0000 2.7505 0.0000
# 4 0.0000 0.0000 0.0000 16.3077 0.0000 1.0111
# 5 3.8120 -1.5634 2.7505 0.0000 29.1876 0.0000
# 6 0.0000 0.0000 0.0000 1.0111 0.0000 20.5221
#
#
#
# Elastic Compliance Matrix: (Units=1/GPa)
#
#
# Indices 1 2 3 4 5 6 
#
# 1 0.025137 -0.006611 -0.001657 0.000000 -0.003481 0.000000
# 2 -0.006611 0.026801 -0.002280 0.000000 0.002514 0.000000
# 3 -0.001657 -0.002280 0.012193 0.000000 -0.001055 0.000000
# 4 0.000000 0.000000 0.000000 0.061509 0.000000 -0.003031
# 5 -0.003481 0.002514 -0.001055 0.000000 0.034950 0.000000
# 6 0.000000 0.000000 0.000000 -0.003031 0.000000 0.048877
#
#
# Mechanical properties :
#
#
# Convention : Reuss Voigt Hill
#
# Bulk Modulus (GPa) = 23.23640 25.22115 24.22878
# Shear Modulus (GPa) = 20.41583 22.62245 21.51914
#
# Velocity S-wave (km/s) = 3.41283 3.59253 3.50383
# Velocity P-wave (km/s) = 5.36530 5.62114 5.49471
#
# Compressibility (1/GPa) = 0.04303592
#
# Stress axis : x y z
#
# Youngs Moduli (GPa) = 39.78239 37.31164 82.01150
#
# Poissons Ratio (x) = 0.24665 0.13592
# Poissons Ratio (y) = 0.26298 0.18698
# Poissons Ratio (z) = 0.06593 0.08507
#
# Static dielectric constant tensor:
#      x y z
#    x 1.596180 0.000000 0.010010 
#    y 0.000000 1.586940 0.000000 
#    z 0.010010 0.000000 1.645620 
# 
# From -- ./inp_files/90386.got.cif
#   From: 2010.05.17/outbox.cif.g08.bks.cpg/sg12_46_cif.got.tgz:90386.got - 2010.06.03 13:09:07.
