data_PCOD9179799
_publ_section_title
;
Structure prediction by ZEFSAII (Michael W. Deem and Ramdas Pophale) SiO2 
 PCOD9179799
Probable space group: C 2/M
;
_chemical_formula_sum "Si O2"
_cell_formula_units_Z 56
_cell_length_a 19.284654
_cell_length_b 8.898911
_cell_length_c 21.315485
_cell_angle_alpha 90.000000
_cell_angle_beta 57.103896
_cell_angle_gamma 90.000000
_cell_volume 3071.466207
_symmetry_space_group_name_H-M "C 2/M"
_symmetry_group_IT_number 12
_symmetry_cell_setting 'monoclinic'
loop_
_space_group_symop_operation_xyz
x,y,z
-x,y,-z
-x,-y,-z
x,-y,z
1/2+x,1/2+y,z
1/2-x,1/2+y,-z
1/2-x,1/2-y,-z
1/2+x,1/2-y,z
loop_
_atom_site_type_symbol
_atom_site_label
_atom_site_fract_x
_atom_site_fract_y
_atom_site_fract_z
Si Si1 0.717564 0.675890 0.708559
Si Si2 0.488801 0.820756 0.310760
Si Si3 0.656221 0.676800 0.264915
Si Si4 0.029765 0.820139 0.818067
Si Si5 0.259379 0.175582 0.895927
Si Si6 0.317422 0.677738 0.421671
Si Si7 0.619901 0.823911 0.042460
O O1 0.735200 0.500000 0.712756
O O2 0.787390 0.777575 0.704278
O O3 0.626731 0.710546 0.781296
O O4 0.709630 0.695030 0.637724
O O5 0.569929 0.764638 0.306396
O O6 0.491341 0.750523 0.239449
O O7 0.405609 0.759252 0.383381
O O8 0.487521 0.000000 0.306587
O O9 0.640971 0.500000 0.269667
O O10 0.706137 0.730840 0.178946
O O11 0.967712 0.750335 0.898893
O O12 0.019124 0.000000 0.819657
O O13 0.324726 0.188280 0.921189
O O14 0.252830 0.000000 0.882365
O O15 0.172821 0.238904 0.963840
O O16 0.326552 0.500000 0.429177
O O17 0.250000 0.750000 0.500000
O O18 0.611543 0.000000 0.031901
#
# Coordination Sequence:
#
# PCOD9179799 Si02
#       7
#     8   8   8   8   8   8   8
#     4   9  21  39  58  82 115 151 184 223 279 336
#     4  11  21  35  58  85 114 150 189 230 274 329
#     4  12  23  36  56  83 115 149 189 236 281 332
#     4  10  19  34  56  81 110 146 190 238 282 334
#     4  10  20  33  51  76 110 149 186 235 288 334
#     4  10  21  40  65  92 119 148 183 226 273 329
#     4  10  19  31  51  79 109 145 189 238 285 332
#
# _framework density 18.232334999999999
#
# number of rings (size 3 to 8) (size 9 to 14) (size 15 to 20)
#    0.000    1.714    1.429    5.143    0.000    4.571 
#    0.000    1.429    0.000    8.571    0.000    0.000 
#    0.000    0.000    0.000    0.000    0.000    0.000 
#
# Total GULP energy -156455.296059 kJ/mol
# GULP energy per Si atom -5587.689145 kJ/mol
# Density = 1.819084 g / cm^3
# Si number density = 18.232335 Si / 1000 Ang^3
#
#
#
# Elastic Constant Matrix: (Units=GPa)
#
#
# Indices 1 2 3 4 5 6 
#
# 1 73.1990 46.9206 27.3736 0.0000 -20.9737 0.0002
# 2 46.9206 102.5211 27.3793 0.0000 -12.1787 0.0005
# 3 27.3736 27.3793 84.4198 0.0000 -33.5351 0.0000
# 4 0.0000 0.0000 0.0000 34.0690 0.0000 -4.3350
# 5 -20.9737 -12.1787 -33.5351 0.0000 22.8755 0.0000
# 6 0.0002 0.0005 0.0000 -4.3350 0.0000 29.5393
#
#
#
# Elastic Compliance Matrix: (Units=1/GPa)
#
#
# Indices 1 2 3 4 5 6 
#
# 1 0.025470 -0.009992 0.005136 0.000000 0.025563 0.000000
# 2 -0.009992 0.014619 -0.004906 0.000000 -0.008570 0.000000
# 3 0.005136 -0.004906 0.030179 0.000000 0.046340 0.000000
# 4 0.000000 0.000000 0.000000 0.029911 0.000000 0.004389
# 5 0.025563 -0.008570 0.046340 0.000000 0.130524 0.000000
# 6 0.000000 0.000000 0.000000 0.004389 0.000000 0.034497
#
#
# Mechanical properties :
#
#
# Convention : Reuss Voigt Hill
#
# Bulk Modulus (GPa) = 19.70589 51.49854 35.60222
# Shear Modulus (GPa) = 16.57617 27.86116 22.21867
#
# Velocity S-wave (km/s) = 3.01850 3.91336 3.49469
# Velocity P-wave (km/s) = 4.79376 6.98041 5.98775
#
# Compressibility (1/GPa) = 0.05074625
#
# Stress axis : x y z
#
# Youngs Moduli (GPa) = 39.26215 68.40359 33.13531
#
# Poissons Ratio (x) = 0.68348 -0.17020
# Poissons Ratio (y) = 0.39230 0.16255
# Poissons Ratio (z) = -0.20167 0.33556
#
# Static dielectric constant tensor:
#      x y z
#    x 1.625080 0.000000 -0.001100 
#    y 0.000000 1.603240 0.000000 
#    z -0.001100 0.000000 1.607280 
# 
# From -- ./inp_files/313731.got.cif
#   From: 2010.05.17/outbox.cif.g08.bks.cpg/sg12_157_cif.got.tgz:313731.got - 2010.06.03 13:09:07.
