data_PCOD9179418
_publ_section_title
;
Structure prediction by ZEFSAII (Michael W. Deem and Ramdas Pophale) SiO2 
 PCOD9179418
Probable space group: C 2/M
;
_chemical_formula_sum "Si O2"
_cell_formula_units_Z 40
_cell_length_a 18.202515
_cell_length_b 24.331783
_cell_length_c 8.872797
_cell_angle_alpha 90.000000
_cell_angle_beta 23.989250
_cell_angle_gamma 90.000000
_cell_volume 1597.703241
_symmetry_space_group_name_H-M "C 2/M"
_symmetry_group_IT_number 12
_symmetry_cell_setting 'monoclinic'
loop_
_space_group_symop_operation_xyz
x,y,z
-x,y,-z
-x,-y,-z
x,-y,z
1/2+x,1/2+y,z
1/2-x,1/2+y,-z
1/2-x,1/2-y,-z
1/2+x,1/2-y,z
loop_
_atom_site_type_symbol
_atom_site_label
_atom_site_fract_x
_atom_site_fract_y
_atom_site_fract_z
Si Si1 0.552666 0.230105 0.229852
Si Si2 0.614217 0.668638 0.529831
Si Si3 0.690991 0.936914 0.331119
Si Si4 0.327091 0.842335 0.422607
Si Si5 0.754892 0.436778 0.119531
O O1 0.500000 0.219342 0.500000
O O2 0.559806 0.295057 0.180253
O O3 0.415766 0.202548 0.366298
O O4 0.739791 0.200250 0.848113
O O5 0.682744 0.677190 0.571176
O O6 0.639974 0.606034 0.431385
O O7 0.756236 0.891983 0.326010
O O8 0.470897 0.930877 0.743978
O O9 0.759046 0.927144 0.033724
O O10 0.731438 0.000000 0.295259
O O11 0.500000 0.862873 0.000000
O O12 0.705019 0.500000 0.243970
#
# Coordination Sequence:
#
# PCOD9179418 Si02
#       5
#     8   8   8   8   8
#     4  11  22  37  54  77 107 149 185 219 264 321
#     4  11  22  36  55  81 113 142 178 225 270 318
#     4   9  16  28  49  76 110 140 172 221 276 317
#     4  10  19  31  49  77 113 141 171 222 269 320
#     4   9  17  31  53  79 108 140 177 224 271 317
#
# _framework density 25.035938999999999
#
# number of rings (size 3 to 8) (size 9 to 14) (size 15 to 20)
#    0.000    2.000    4.000    3.600    0.000    1.200 
#    0.000    0.000    0.000    0.600    0.000    2.800 
#    0.000   13.600    0.000    0.000    0.000    0.000 
#
# Total GULP energy -112097.272147 kJ/mol
# GULP energy per Si atom -5604.863607 kJ/mol
# Density = 2.497896 g / cm^3
# Si number density = 25.035939 Si / 1000 Ang^3
#
#
#
# Elastic Constant Matrix: (Units=GPa)
#
#
# Indices 1 2 3 4 5 6 
#
# 1 103.8577 49.0402 23.1617 -0.0342 27.7540 0.0090
# 2 49.0402 126.8016 22.8615 0.0012 20.9131 -0.0022
# 3 23.1617 22.8615 69.0820 -0.0117 -1.1964 0.0069
# 4 -0.0342 0.0012 -0.0117 15.7880 0.0132 4.6144
# 5 27.7540 20.9131 -1.1964 0.0132 34.3069 -0.0080
# 6 0.0090 -0.0022 0.0069 4.6144 -0.0080 34.7003
#
#
#
# Elastic Compliance Matrix: (Units=1/GPa)
#
#
# Indices 1 2 3 4 5 6 
#
# 1 0.014794 -0.003333 -0.004032 0.000041 -0.010078 -0.000011
# 2 -0.003333 0.010185 -0.002316 -0.000007 -0.003594 0.000002
# 3 -0.004032 -0.002316 0.016685 0.000000 0.005255 -0.000001
# 4 0.000041 -0.000007 0.000000 0.065901 -0.000056 -0.008763
# 5 -0.010078 -0.003594 0.005255 -0.000056 0.039675 0.000018
# 6 -0.000011 0.000002 -0.000001 -0.008763 0.000018 0.029984
#
#
# Mechanical properties :
#
#
# Convention : Reuss Voigt Hill
#
# Bulk Modulus (GPa) = 44.83452 54.42979 49.63215
# Shear Modulus (GPa) = 24.50750 30.60423 27.55586
#
# Velocity S-wave (km/s) = 3.13212 3.50009 3.32121
# Velocity P-wave (km/s) = 5.57020 6.17431 5.88002
#
# Compressibility (1/GPa) = 0.02230424
#
# Stress axis : x y z
#
# Youngs Moduli (GPa) = 67.59293 98.17972 59.93535
#
# Poissons Ratio (x) = 0.32721 0.24165
# Poissons Ratio (y) = 0.22527 0.13878
# Poissons Ratio (z) = 0.27253 0.22734
#
# Static dielectric constant tensor:
#      x y z
#    x 1.960960 0.000010 -0.067340 
#    y 0.000010 1.956490 0.000000 
#    z -0.067340 0.000000 2.069200 
# 
# From -- ./inp_files/39308.got.cif
#   From: 2010.05.17/outbox.cif.g08.bks.cpg/sg12_20_cif.got.tgz:39308.got - 2010.06.03 13:09:07.
