data_PCOD9179913
_publ_section_title
;
Structure prediction by ZEFSAII (Michael W. Deem and Ramdas Pophale) SiO2 
 PCOD9179913
Probable space group: C 2/M
;
_chemical_formula_sum "Si O2"
_cell_formula_units_Z 64
_cell_length_a 10.185704
_cell_length_b 19.076413
_cell_length_c 14.693949
_cell_angle_alpha 90.000000
_cell_angle_beta 103.301946
_cell_angle_gamma 90.000000
_cell_volume 2778.532497
_symmetry_space_group_name_H-M "C 2/M"
_symmetry_group_IT_number 12
_symmetry_cell_setting 'monoclinic'
loop_
_space_group_symop_operation_xyz
x,y,z
-x,y,-z
-x,-y,-z
x,-y,z
1/2+x,1/2+y,z
1/2-x,1/2+y,-z
1/2-x,1/2-y,-z
1/2+x,1/2-y,z
loop_
_atom_site_type_symbol
_atom_site_label
_atom_site_fract_x
_atom_site_fract_y
_atom_site_fract_z
Si Si1 0.512581 0.381202 0.720209
Si Si2 0.221231 0.583293 0.886443
Si Si3 0.280258 0.880199 0.322179
Si Si4 0.572314 0.119293 0.385683
Si Si5 0.329472 0.584407 0.089045
Si Si6 0.861506 0.901367 0.434413
Si Si7 0.426771 0.746168 0.384444
Si Si8 0.584964 0.083680 0.179991
O O1 0.363724 0.404606 0.665525
O O2 0.543318 0.395320 0.829462
O O3 0.620036 0.418056 0.670083
O O4 0.531761 0.299787 0.697124
O O5 0.245937 0.500000 0.879489
O O6 0.232702 0.614744 0.788464
O O7 0.063504 0.592446 0.886667
O O8 0.313165 0.610216 0.983495
O O9 0.423146 0.914406 0.375100
O O10 0.304214 0.799101 0.349403
O O11 0.709969 0.084398 0.442262
O O12 0.548178 0.198041 0.419382
O O13 0.587832 0.121498 0.278430
O O14 0.326654 0.500000 0.083522
O O15 0.200848 0.606570 0.129390
O O16 0.000000 0.927467 0.500000
O O17 0.877156 0.816374 0.441560
O O18 0.599011 0.000000 0.200333
#
# Coordination Sequence:
#
# PCOD9179913 Si02
#       8
#     8   8   8   8   8   8   8   8
#     4  10  20  34  52  74 108 137 168 215 264 306
#     4   9  18  31  52  80 107 137 177 219 248 295
#     4   9  19  34  51  74 108 141 168 206 258 315
#     4   9  17  33  52  75 103 137 169 209 257 314
#     4  10  19  31  52  79 106 137 178 219 257 295
#     4  10  20  34  55  79 104 128 172 221 258 306
#     4   8  19  33  54  72 104 135 171 207 261 304
#     4   9  15  29  53  77 104 137 175 214 253 299
#
# _framework density 23.033740999999999
#
# number of rings (size 3 to 8) (size 9 to 14) (size 15 to 20)
#    1.500    1.250    1.250    1.125    0.000    3.000 
#    0.000    2.500    0.000    1.500    0.000    0.000 
#    0.000    6.000    0.000    0.000    0.000    0.000 
#
# Total GULP energy -178172.125938 kJ/mol
# GULP energy per Si atom -5567.878936 kJ/mol
# Density = 2.298132 g / cm^3
# Si number density = 23.033741 Si / 1000 Ang^3
#
#
#
# Elastic Constant Matrix: (Units=GPa)
#
#
# Indices 1 2 3 4 5 6 
#
# 1 139.1067 12.7772 25.0244 0.0000 18.7549 0.0000
# 2 12.7772 63.0812 15.7123 0.0000 1.1264 0.0000
# 3 25.0244 15.7123 102.3899 0.0000 17.2399 0.0000
# 4 0.0000 0.0000 0.0000 23.5021 0.0000 0.3429
# 5 18.7549 1.1264 17.2399 0.0000 31.2786 0.0000
# 6 0.0000 0.0000 0.0000 0.3429 0.0000 13.5346
#
#
#
# Elastic Compliance Matrix: (Units=1/GPa)
#
#
# Indices 1 2 3 4 5 6 
#
# 1 0.008066 -0.001293 -0.001065 0.000000 -0.004203 0.000000
# 2 -0.001293 0.016712 -0.002511 0.000000 0.001557 0.000000
# 3 -0.001065 -0.002511 0.011342 0.000000 -0.005522 0.000000
# 4 0.000000 0.000000 0.000000 0.042565 0.000000 -0.001078
# 5 -0.004203 0.001557 -0.005522 0.000000 0.037478 0.000000
# 6 0.000000 0.000000 0.000000 -0.001078 0.000000 0.073912
#
#
# Mechanical properties :
#
#
# Convention : Reuss Voigt Hill
#
# Bulk Modulus (GPa) = 37.90559 45.73396 41.81977
# Shear Modulus (GPa) = 23.96843 30.40064 27.18454
#
# Velocity S-wave (km/s) = 3.22930 3.63689 3.43914
# Velocity P-wave (km/s) = 5.51333 6.12652 5.82799
#
# Compressibility (1/GPa) = 0.02638134
#
# Stress axis : x y z
#
# Youngs Moduli (GPa) = 123.98087 59.83685 88.16766
#
# Poissons Ratio (x) = 0.07739 0.09392
# Poissons Ratio (y) = 0.16035 0.22136
# Poissons Ratio (z) = 0.13207 0.15023
#
# Static dielectric constant tensor:
#      x y z
#    x 1.915300 0.000000 0.034020 
#    y 0.000000 1.842180 0.000000 
#    z 0.034020 0.000000 1.908480 
# 
# From -- ./inp_files/208851.got.cif
#   From: 2010.05.17/outbox.cif.g08.bks.cpg/sg12_105_cif.got.tgz:208851.got - 2010.06.03 13:09:07.
