data_PCOD9179694
_publ_section_title
;
Structure prediction by ZEFSAII (Michael W. Deem and Ramdas Pophale) SiO2 
 PCOD9179694
Probable space group: C 2/M
;
_chemical_formula_sum "Si O2"
_cell_formula_units_Z 50
_cell_length_a 10.498148
_cell_length_b 14.541359
_cell_length_c 16.913821
_cell_angle_alpha 90.000000
_cell_angle_beta 57.692494
_cell_angle_gamma 90.000000
_cell_volume 2182.301266
_symmetry_space_group_name_H-M "C 2/M"
_symmetry_group_IT_number 12
_symmetry_cell_setting 'monoclinic'
loop_
_space_group_symop_operation_xyz
x,y,z
-x,y,-z
-x,-y,-z
x,-y,z
1/2+x,1/2+y,z
1/2-x,1/2+y,-z
1/2-x,1/2-y,-z
1/2+x,1/2-y,z
loop_
_atom_site_type_symbol
_atom_site_label
_atom_site_fract_x
_atom_site_fract_y
_atom_site_fract_z
Si Si1 0.424008 0.135496 0.442083
Si Si2 0.500000 0.500000 0.000000
Si Si3 0.431668 0.861363 0.107912
Si Si4 0.913566 0.144047 0.764194
Si Si5 0.422649 0.640197 0.445573
Si Si6 0.072416 0.858458 0.867090
Si Si7 0.413108 0.133198 0.776111
O O1 0.500000 0.107348 0.500000
O O2 0.425061 0.247572 0.441826
O O3 0.249189 0.109322 0.501298
O O4 0.503393 0.105236 0.333416
O O5 0.452688 0.418398 0.953793
O O6 0.256154 0.887761 0.165847
O O7 0.440228 0.749273 0.110438
O O8 0.508985 0.891219 0.165765
O O9 0.500000 0.888203 0.000000
O O10 0.906921 0.255648 0.770884
O O11 0.975549 0.111144 0.660830
O O12 0.037884 0.121941 0.787980
O O13 0.500000 0.611032 0.500000
O O14 0.238077 0.895463 0.834017
#
# Coordination Sequence:
#
# PCOD9179694 Si02
#       7
#     8   2   8   8   8   8   8
#     4   9  15  24  41  66 102 135 156 185 241 300
#     4  12  24  36  52  70  92 140 174 216 250 292
#     4  10  19  31  51  75 102 132 165 207 252 296
#     4   9  18  30  48  75 103 131 165 202 246 299
#     4   9  15  24  41  68 103 131 153 187 240 303
#     4  10  21  34  51  70 100 129 176 207 249 295
#     4   9  18  30  48  75 102 131 166 204 246 298
#
# _framework density 22.911593
#
# number of rings (size 3 to 8) (size 9 to 14) (size 15 to 20)
#    0.000    2.560    0.800    1.920    2.240    9.600 
#    0.000    0.000    0.000    1.920    0.000    5.600 
#    0.000    0.000    0.000    0.000    0.000    0.000 
#
# Total GULP energy -139334.208095 kJ/mol
# GULP energy per Si atom -5573.368324 kJ/mol
# Density = 2.285945 g / cm^3
# Si number density = 22.911593 Si / 1000 Ang^3
#
#
#
# Elastic Constant Matrix: (Units=GPa)
#
#
# Indices 1 2 3 4 5 6 
#
# 1 179.3419 3.2235 99.8659 0.0000 0.5321 0.0000
# 2 3.2235 103.3726 -0.5782 0.0000 3.6924 0.0000
# 3 99.8659 -0.5782 214.2918 0.0000 10.2425 0.0000
# 4 0.0000 0.0000 0.0000 -39.0157 0.0000 -11.1121
# 5 0.5321 3.6924 10.2425 0.0000 41.6583 0.0000
# 6 0.0000 0.0000 0.0000 -11.1121 0.0000 -25.6188
#
#
#
# Elastic Compliance Matrix: (Units=1/GPa)
#
#
# Indices 1 2 3 4 5 6 
#
# 1 0.007563 -0.000285 -0.003564 0.000000 0.000805 0.000000
# 2 -0.000285 0.009716 0.000202 0.000000 -0.000907 0.000000
# 3 -0.003564 0.000202 0.006402 0.000000 -0.001546 0.000000
# 4 0.000000 0.000000 0.000000 -0.029243 0.000000 0.012684
# 5 0.000805 -0.000907 -0.001546 0.000000 0.024455 0.000000
# 6 0.000000 0.000000 0.000000 0.012684 0.000000 -0.044536
#
#
# Mechanical properties :
#
#
# Convention : Reuss Voigt Hill
#
# Bulk Modulus (GPa) = 61.01751 78.00316 69.51034
# Shear Modulus (GPa) = -387.98484 21.70444 -183.14020
#
# Velocity S-wave (km/s) = -13.02719 3.08118 -8.95025
# Velocity P-wave (km/s) = 14.12754 6.83940 8.74099
#
# Compressibility (1/GPa) = 0.01638874
#
# Stress axis : x y z
#
# Youngs Moduli (GPa) = 132.21884 102.92137 156.20424
#
# Poissons Ratio (x) = 0.02928 0.55670
# Poissons Ratio (y) = 0.03762 -0.03158
# Poissons Ratio (z) = 0.47122 -0.02081
#
# Static dielectric constant tensor:
#      x y z
#    x 1.867100 0.000000 0.030090 
#    y 0.000000 1.842990 0.000000 
#    z 0.030090 0.000000 1.936670 
# 
# From -- ./inp_files/256941.got.cif
#   From: 2010.05.17/outbox.cif.g08.bks.cpg/sg12_129_cif.got.tgz:256941.got - 2010.06.03 13:09:07.
