data_PCOD9179818
_publ_section_title
;
Structure prediction by ZEFSAII (Michael W. Deem and Ramdas Pophale) SiO2 
 PCOD9179818
Probable space group: C 2/M
;
_chemical_formula_sum "Si O2"
_cell_formula_units_Z 64
_cell_length_a 23.044622
_cell_length_b 13.416480
_cell_length_c 22.235804
_cell_angle_alpha 90.000000
_cell_angle_beta 149.086839
_cell_angle_gamma 90.000000
_cell_volume 3531.856017
_symmetry_space_group_name_H-M "C 2/M"
_symmetry_group_IT_number 12
_symmetry_cell_setting 'monoclinic'
loop_
_space_group_symop_operation_xyz
x,y,z
-x,y,-z
-x,-y,-z
x,-y,z
1/2+x,1/2+y,z
1/2-x,1/2+y,-z
1/2-x,1/2-y,-z
1/2+x,1/2-y,z
loop_
_atom_site_type_symbol
_atom_site_label
_atom_site_fract_x
_atom_site_fract_y
_atom_site_fract_z
Si Si1 0.455037 0.754945 0.208603
Si Si2 0.371907 0.245463 0.000232
Si Si3 0.571329 0.381683 0.402908
Si Si4 0.548157 0.754548 0.607014
Si Si5 0.924382 0.387079 0.853724
Si Si6 0.178862 0.616964 0.814000
Si Si7 0.832544 0.385775 0.640515
Si Si8 0.748875 0.112990 0.192209
O O1 0.491580 0.656680 0.277823
O O2 0.372008 0.822547 0.174715
O O3 0.571896 0.814990 0.301547
O O4 0.397466 0.739753 0.092913
O O5 0.306245 0.341912 0.917228
O O6 0.285978 0.157748 0.903285
O O7 0.487594 0.203006 0.074746
O O8 0.556979 0.500000 0.402303
O O9 0.537785 0.309849 0.428489
O O10 0.704076 0.365061 0.507691
O O11 0.500000 0.782069 0.500000
O O12 0.597738 0.847838 0.687745
O O13 0.653488 0.680097 0.693647
O O14 0.976995 0.500000 0.897556
O O15 0.844415 0.380622 0.723818
O O16 0.854762 0.382161 0.853151
O O17 0.176817 0.500000 0.821431
O O18 0.859227 0.500000 0.647141
O O19 0.785794 0.000000 0.219299
#
# Coordination Sequence:
#
# PCOD9179818 Si02
#       8
#     8   8   8   8   8   8   8   8
#     4  10  20  35  52  74 102 138 177 213 251 295
#     4  10  20  33  50  74 102 133 172 215 256 295
#     4  10  20  33  51  79 110 136 165 205 255 306
#     4  10  21  36  55  79 106 133 163 204 255 308
#     4   9  17  30  51  79 107 134 165 204 254 309
#     4  10  22  38  54  72  97 133 177 218 253 295
#     4   9  17  30  51  77 105 137 171 208 250 298
#     4  10  19  31  51  80 110 137 165 202 252 309
#
# _framework density 18.120784
#
# number of rings (size 3 to 8) (size 9 to 14) (size 15 to 20)
#    0.000    2.250    0.000    3.000    0.000    5.250 
#    0.000    0.625    0.000    6.000    0.000   10.500 
#    0.000    0.000    0.000    0.000    0.000    0.000 
#
# Total GULP energy -178388.714396 kJ/mol
# GULP energy per Si atom -5574.647325 kJ/mol
# Density = 1.807954 g / cm^3
# Si number density = 18.120784 Si / 1000 Ang^3
#
#
#
# Elastic Constant Matrix: (Units=GPa)
#
#
# Indices 1 2 3 4 5 6 
#
# 1 35.3513 -3.8971 6.5171 0.0000 2.0538 0.0000
# 2 -3.8971 55.7687 9.9494 0.0000 16.6378 0.0000
# 3 6.5171 9.9494 66.5648 0.0000 4.5882 0.0000
# 4 0.0000 0.0000 0.0000 17.9491 0.0000 3.7934
# 5 2.0538 16.6378 4.5882 0.0000 26.3681 0.0000
# 6 0.0000 0.0000 0.0000 3.7934 0.0000 15.7644
#
#
#
# Elastic Compliance Matrix: (Units=1/GPa)
#
#
# Indices 1 2 3 4 5 6 
#
# 1 0.029547 0.003886 -0.003184 0.000000 -0.004199 0.000000
# 2 0.003886 0.022976 -0.002828 0.000000 -0.014308 0.000000
# 3 -0.003184 -0.002828 0.015807 0.000000 -0.000718 0.000000
# 4 0.000000 0.000000 0.000000 0.058698 0.000000 -0.014125
# 5 -0.004199 -0.014308 -0.000718 0.000000 0.047405 0.000000
# 6 0.000000 0.000000 0.000000 -0.014125 0.000000 0.066833
#
#
# Mechanical properties :
#
#
# Convention : Reuss Voigt Hill
#
# Bulk Modulus (GPa) = 15.60656 20.31374 17.96015
# Shear Modulus (GPa) = 18.73512 21.69066 20.21289
#
# Velocity S-wave (km/s) = 3.21892 3.46353 3.34346
# Velocity P-wave (km/s) = 4.73777 5.21816 4.98376
#
# Compressibility (1/GPa) = 0.06407562
#
# Stress axis : x y z
#
# Youngs Moduli (GPa) = 33.84457 43.52387 63.26329
#
# Poissons Ratio (x) = -0.16911 0.20144
# Poissons Ratio (y) = -0.13150 0.17893
# Poissons Ratio (z) = 0.10777 0.12310
#
# Static dielectric constant tensor:
#      x y z
#    x 1.634710 0.000000 0.013720 
#    y 0.000000 1.592060 0.000000 
#    z 0.013720 0.000000 1.651660 
# 
# From -- ./inp_files/349402.got.cif
#   From: 2010.05.17/outbox.cif.g08.bks.cpg/sg12_175_cif.got.tgz:349402.got - 2010.06.03 13:09:07.
