data_PCOD9179117
_publ_section_title
;
Structure prediction by ZEFSAII (Michael W. Deem and Ramdas Pophale) SiO2 
 PCOD9179117
Probable space group: C 2/M
;
_chemical_formula_sum "Si O2"
_cell_formula_units_Z 64
_cell_length_a 25.780942
_cell_length_b 8.811750
_cell_length_c 18.017980
_cell_angle_alpha 90.000000
_cell_angle_beta 77.522614
_cell_angle_gamma 90.000000
_cell_volume 3996.561755
_symmetry_space_group_name_H-M "C 2/M"
_symmetry_group_IT_number 12
_symmetry_cell_setting 'monoclinic'
loop_
_space_group_symop_operation_xyz
x,y,z
-x,y,-z
-x,-y,-z
x,-y,z
1/2+x,1/2+y,z
1/2-x,1/2+y,-z
1/2-x,1/2-y,-z
1/2+x,1/2-y,z
loop_
_atom_site_type_symbol
_atom_site_label
_atom_site_fract_x
_atom_site_fract_y
_atom_site_fract_z
Si Si1 0.280563 0.681517 0.165693
Si Si2 0.207701 0.682394 0.676675
Si Si3 0.819128 0.317784 0.592624
Si Si4 0.693675 0.818061 0.991391
Si Si5 0.376018 0.182443 0.420972
Si Si6 0.399482 0.318623 0.688462
Si Si7 0.841979 0.318490 0.840587
Si Si8 0.010387 0.182625 0.581897
O O1 0.284757 0.500000 0.165298
O O2 0.295874 0.750774 0.239742
O O3 0.218178 0.718462 0.168660
O O4 0.314744 0.748433 0.087026
O O5 0.210144 0.500000 0.679275
O O6 0.261922 0.744229 0.623712
O O7 0.158509 0.727726 0.639666
O O8 0.814432 0.500000 0.597983
O O9 0.844096 0.274262 0.505601
O O10 0.858784 0.260551 0.644274
O O11 0.655318 0.781749 0.072564
O O12 0.697623 0.000000 0.985271
O O13 0.750000 0.750000 0.000000
O O14 0.434568 0.250768 0.406370
O O15 0.380122 0.000000 0.419936
O O16 0.394208 0.500000 0.682548
O O17 0.382904 0.267124 0.775541
O O18 0.459131 0.275315 0.646486
O O19 0.848295 0.500000 0.830170
O O20 0.000000 0.232359 0.500000
O O21 0.014415 0.000000 0.580098
#
# Coordination Sequence:
#
# PCOD9179117 Si02
#       8
#     8   8   8   8   8   8   8   8
#     4  10  19  31  48  73 103 135 170 203 249 304
#     4  11  22  35  51  74 103 135 174 211 251 305
#     4  11  21  34  51  73 102 134 171 210 255 304
#     4   9  17  29  46  69 100 136 169 203 248 299
#     4  10  23  38  53  74  98 133 176 216 257 303
#     4  11  21  32  51  76 101 134 172 210 255 301
#     4   9  18  31  47  71 103 133 168 206 246 301
#     4  10  21  37  54  74  99 130 172 217 259 303
#
# _framework density 16.013764999999999
#
# number of rings (size 3 to 8) (size 9 to 14) (size 15 to 20)
#    0.000    1.875    2.500    3.000    0.000    5.250 
#    0.000    0.000    0.000    0.000    0.000    0.875 
#    0.000    7.000    0.000    0.000    0.000    0.000 
#
# Total GULP energy -178563.047938 kJ/mol
# GULP energy per Si atom -5580.095248 kJ/mol
# Density = 1.597732 g / cm^3
# Si number density = 16.013765 Si / 1000 Ang^3
#
#
#
# Elastic Constant Matrix: (Units=GPa)
#
#
# Indices 1 2 3 4 5 6 
#
# 1 108.9825 36.6225 72.5848 0.0000 1.0086 0.0000
# 2 36.6225 42.1331 46.4531 0.0000 -6.5520 0.0000
# 3 72.5848 46.4531 128.5305 0.0000 -20.6337 0.0000
# 4 0.0000 0.0000 0.0000 28.6820 0.0000 -2.8291
# 5 1.0086 -6.5520 -20.6337 0.0000 15.4534 0.0000
# 6 0.0000 0.0000 0.0000 -2.8291 0.0000 24.7260
#
#
#
# Elastic Compliance Matrix: (Units=1/GPa)
#
#
# Indices 1 2 3 4 5 6 
#
# 1 0.019509 -0.007290 -0.011561 0.000000 -0.019801 0.000000
# 2 -0.007290 0.042286 -0.010452 0.000000 0.004448 0.000000
# 3 -0.011561 -0.010452 0.022270 0.000000 0.026059 0.000000
# 4 0.000000 0.000000 0.000000 0.035263 0.000000 0.004035
# 5 -0.019801 0.004448 0.026059 0.000000 0.102683 0.000000
# 6 0.000000 0.000000 0.000000 0.004035 0.000000 0.040905
#
#
# Mechanical properties :
#
#
# Convention : Reuss Voigt Hill
#
# Bulk Modulus (GPa) = 39.27899 65.66300 52.47100
# Shear Modulus (GPa) = 15.15115 22.03799 18.59457
#
# Velocity S-wave (km/s) = 3.07926 3.71373 3.41128
# Velocity P-wave (km/s) = 6.10115 7.71247 6.95364
#
# Compressibility (1/GPa) = 0.02545890
#
# Stress axis : x y z
#
# Youngs Moduli (GPa) = 51.25916 23.64846 44.90327
#
# Poissons Ratio (x) = 0.17239 0.51914
# Poissons Ratio (y) = 0.37366 0.46933
# Poissons Ratio (z) = 0.59262 0.24718
#
# Static dielectric constant tensor:
#      x y z
#    x 1.502200 0.000000 -0.006400 
#    y 0.000000 1.536180 0.000000 
#    z -0.006400 0.000000 1.565750 
# 
# From -- ./inp_files/287619.got.cif
#   From: 2010.05.17/outbox.cif.g08.bks.cpg/sg12_144_cif.got.tgz:287619.got - 2010.06.03 13:09:07.
