data_PCOD9179474
_publ_section_title
;
Structure prediction by ZEFSAII (Michael W. Deem and Ramdas Pophale) SiO2 
 PCOD9179474
Probable space group: C 2/M
;
_chemical_formula_sum "Si O2"
_cell_formula_units_Z 40
_cell_length_a 12.402634
_cell_length_b 12.612604
_cell_length_c 19.768415
_cell_angle_alpha 90.000000
_cell_angle_beta 140.499130
_cell_angle_gamma 90.000000
_cell_volume 1967.021301
_symmetry_space_group_name_H-M "C 2/M"
_symmetry_group_IT_number 12
_symmetry_cell_setting 'monoclinic'
loop_
_space_group_symop_operation_xyz
x,y,z
-x,y,-z
-x,-y,-z
x,-y,z
1/2+x,1/2+y,z
1/2-x,1/2+y,-z
1/2-x,1/2-y,-z
1/2+x,1/2-y,z
loop_
_atom_site_type_symbol
_atom_site_label
_atom_site_fract_x
_atom_site_fract_y
_atom_site_fract_z
Si Si1 0.925780 0.883556 0.675470
Si Si2 0.802228 0.205506 0.291200
Si Si3 0.559065 0.120170 0.430979
Si Si4 0.826832 0.880367 0.875793
Si Si5 0.468650 0.161656 0.742610
O O1 0.069956 0.868176 0.688768
O O2 0.743561 0.866429 0.552275
O O3 0.962277 0.789234 0.744138
O O4 0.930013 0.000000 0.707422
O O5 0.704018 0.284617 0.191739
O O6 0.678468 0.134953 0.276647
O O7 0.925886 0.290235 0.388898
O O8 0.572748 0.132220 0.355647
O O9 0.500927 0.000000 0.417598
O O10 0.660503 0.876162 0.843843
O O11 0.827365 0.000000 0.845781
O O12 0.000000 0.866211 0.000000
#
# Coordination Sequence:
#
# PCOD9179474 Si02
#       5
#     8   8   8   8   8
#     4   9  19  32  46  68 102 137 163 192 232 280
#     4  10  19  31  50  73  98 124 159 202 242 281
#     4   9  18  33  48  68 100 135 168 196 228 274
#     4   9  19  37  56  72  93 122 157 199 246 294
#     4  10  19  31  50  73  98 124 159 202 242 281
#
# _framework density 20.335317
#
# number of rings (size 3 to 8) (size 9 to 14) (size 15 to 20)
#    0.000    3.000    0.000    4.800    0.000    7.200 
#    0.000    4.000    0.000    9.600    0.000    0.000 
#    0.000    0.000    0.000    0.000    0.000    0.000 
#
# Total GULP energy -111503.724927 kJ/mol
# GULP energy per Si atom -5575.186246 kJ/mol
# Density = 2.028903 g / cm^3
# Si number density = 20.335317 Si / 1000 Ang^3
#
#
#
# Elastic Constant Matrix: (Units=GPa)
#
#
# Indices 1 2 3 4 5 6 
#
# 1 94.1508 -15.9964 25.6811 0.0000 23.2283 0.0000
# 2 -15.9964 94.2566 28.0602 0.0000 -2.1337 0.0000
# 3 25.6811 28.0602 100.2762 0.0002 16.4872 0.0002
# 4 0.0000 0.0000 0.0002 -37.9528 0.0000 -80.8149
# 5 23.2283 -2.1337 16.4872 0.0000 19.1099 0.0000
# 6 0.0000 0.0000 0.0002 -80.8149 0.0000 -119.4277
#
#
#
# Elastic Compliance Matrix: (Units=1/GPa)
#
#
# Indices 1 2 3 4 5 6 
#
# 1 0.015943 0.002929 -0.002063 0.000000 -0.017272 0.000000
# 2 0.002929 0.012496 -0.004534 0.000000 0.001747 0.000000
# 3 -0.002063 -0.004534 0.013332 0.000000 -0.009501 0.000000
# 4 0.000000 0.000000 0.000000 0.059761 0.000000 -0.040439
# 5 -0.017272 0.001747 -0.009501 0.000000 0.081715 0.000000
# 6 0.000000 0.000000 0.000000 -0.040439 0.000000 0.018991
#
#
# Mechanical properties :
#
#
# Convention : Reuss Voigt Hill
#
# Bulk Modulus (GPa) = 29.04101 40.46373 34.75237
# Shear Modulus (GPa) = 22.61918 -10.92488 5.84715
#
# Velocity S-wave (km/s) = 3.33875 -2.32035 1.69753
# Velocity P-wave (km/s) = 5.40140 3.57250 4.57918
#
# Compressibility (1/GPa) = 0.03443406
#
# Stress axis : x y z
#
# Youngs Moduli (GPa) = 62.72465 80.02771 75.00989
#
# Poissons Ratio (x) = -0.23438 0.15472
# Poissons Ratio (y) = -0.18370 0.34009
# Poissons Ratio (z) = 0.12938 0.36284
#
# Static dielectric constant tensor:
#      x y z
#    x 1.796640 0.000000 0.018130 
#    y 0.000000 1.753350 0.000000 
#    z 0.018130 0.000000 1.696400 
# 
# From -- ./inp_files/360612.got.cif
#   From: 2010.05.17/outbox.cif.g08.bks.cpg/sg12_181_cif.got.tgz:360612.got - 2010.06.03 13:09:07.
