data_PCOD9179409
_publ_section_title
;
Structure prediction by ZEFSAII (Michael W. Deem and Ramdas Pophale) SiO2 
 PCOD9179409
Probable space group: C 2/M
;
_chemical_formula_sum "Si O2"
_cell_formula_units_Z 40
_cell_length_a 21.135454
_cell_length_b 18.006785
_cell_length_c 9.523577
_cell_angle_alpha 90.000000
_cell_angle_beta 26.832406
_cell_angle_gamma 90.000000
_cell_volume 1636.034245
_symmetry_space_group_name_H-M "C 2/M"
_symmetry_group_IT_number 12
_symmetry_cell_setting 'monoclinic'
loop_
_space_group_symop_operation_xyz
x,y,z
-x,y,-z
-x,-y,-z
x,-y,z
1/2+x,1/2+y,z
1/2-x,1/2+y,-z
1/2-x,1/2-y,-z
1/2+x,1/2-y,z
loop_
_atom_site_type_symbol
_atom_site_label
_atom_site_fract_x
_atom_site_fract_y
_atom_site_fract_z
Si Si1 0.990068 0.153048 0.215183
Si Si2 0.068763 0.676651 0.687229
Si Si3 0.617929 0.083612 0.142188
Si Si4 0.293792 0.673680 0.988566
Si Si5 0.274126 0.587436 0.459493
O O1 0.965358 0.237889 0.216849
O O2 0.846729 0.110346 0.462532
O O3 0.054000 0.163145 0.243728
O O4 0.106523 0.110139 0.891684
O O5 0.189284 0.673170 0.328794
O O6 0.140440 0.635186 0.676350
O O7 0.939917 0.636452 0.865139
O O8 0.500000 0.085053 0.500000
O O9 0.753738 0.110886 0.956593
O O10 0.628129 0.000000 0.069195
O O11 0.250000 0.750000 0.000000
O O12 0.246034 0.500000 0.507303
#
# Coordination Sequence:
#
# PCOD9179409 Si02
#       5
#     8   8   8   8   8
#     4  10  19  32  53  78 108 137 175 224 272 312
#     4  10  19  32  54  80 106 136 177 224 271 313
#     4   9  17  29  48  74 102 130 169 216 264 306
#     4  10  19  31  49  77 108 141 175 218 259 323
#     4  10  21  36  55  83 108 137 185 232 272 317
#
# _framework density 24.449366999999999
#
# number of rings (size 3 to 8) (size 9 to 14) (size 15 to 20)
#    0.000    2.200    2.000    2.400    0.000    5.600 
#    0.000    0.000    0.000    2.400    0.000   22.400 
#    0.000    0.000    0.000    0.000    0.000    0.000 
#
# Total GULP energy -111911.283904 kJ/mol
# GULP energy per Si atom -5595.564195 kJ/mol
# Density = 2.439372 g / cm^3
# Si number density = 24.449367 Si / 1000 Ang^3
#
#
#
# Elastic Constant Matrix: (Units=GPa)
#
#
# Indices 1 2 3 4 5 6 
#
# 1 172.8765 27.8575 45.7636 0.0000 -23.8807 0.0000
# 2 27.8575 130.6106 6.9177 0.0000 -21.5448 -0.0001
# 3 45.7636 6.9177 93.1017 0.0002 -20.4220 0.0001
# 4 0.0000 0.0000 0.0002 53.8699 -0.0001 -3.4660
# 5 -23.8807 -21.5448 -20.4220 -0.0001 57.9781 0.0001
# 6 0.0000 -0.0001 0.0001 -3.4660 0.0001 35.2361
#
#
#
# Elastic Compliance Matrix: (Units=1/GPa)
#
#
# Indices 1 2 3 4 5 6 
#
# 1 0.006956 -0.001094 -0.003033 0.000000 0.001390 0.000000
# 2 -0.001094 0.008329 0.000541 0.000000 0.002835 0.000000
# 3 -0.003033 0.000541 0.012963 0.000000 0.003518 0.000000
# 4 0.000000 0.000000 0.000000 0.018681 0.000000 0.001838
# 5 0.001390 0.002835 0.003518 0.000000 0.020113 0.000000
# 6 0.000000 0.000000 0.000000 0.001838 0.000000 0.028561
#
#
# Mechanical properties :
#
#
# Convention : Reuss Voigt Hill
#
# Bulk Modulus (GPa) = 47.44792 61.96295 54.70543
# Shear Modulus (GPa) = 45.53761 50.48683 48.01222
#
# Velocity S-wave (km/s) = 4.32038 4.54911 4.43622
# Velocity P-wave (km/s) = 6.65855 7.27948 6.97593
#
# Compressibility (1/GPa) = 0.02107574
#
# Stress axis : x y z
#
# Youngs Moduli (GPa) = 143.76959 120.06845 77.14186
#
# Poissons Ratio (x) = 0.13130 0.23395
# Poissons Ratio (y) = 0.15722 -0.04170
# Poissons Ratio (z) = 0.43602 -0.06490
#
# Static dielectric constant tensor:
#      x y z
#    x 1.994320 0.000000 0.112930 
#    y 0.000000 1.857440 0.000000 
#    z 0.112930 0.000000 2.135930 
# 
# From -- ./inp_files/144203.got.cif
#   From: 2010.05.17/outbox.cif.g08.bks.cpg/sg12_73_cif.got.tgz:144203.got - 2010.06.03 13:09:07.
