data_PCOD9179245
_publ_section_title
;
Structure prediction by ZEFSAII (Michael W. Deem and Ramdas Pophale) SiO2 
 PCOD9179245
Probable space group: C 2/M
;
_chemical_formula_sum "Si O2"
_cell_formula_units_Z 48
_cell_length_a 16.018921
_cell_length_b 7.455264
_cell_length_c 20.644758
_cell_angle_alpha 90.000000
_cell_angle_beta 135.053837
_cell_angle_gamma 90.000000
_cell_volume 1741.737186
_symmetry_space_group_name_H-M "C 2/M"
_symmetry_group_IT_number 12
_symmetry_cell_setting 'monoclinic'
loop_
_space_group_symop_operation_xyz
x,y,z
-x,y,-z
-x,-y,-z
x,-y,z
1/2+x,1/2+y,z
1/2-x,1/2+y,-z
1/2-x,1/2-y,-z
1/2+x,1/2-y,z
loop_
_atom_site_type_symbol
_atom_site_label
_atom_site_fract_x
_atom_site_fract_y
_atom_site_fract_z
Si Si1 0.717893 0.288328 0.056177
Si Si2 0.201162 0.705794 0.768845
Si Si3 0.565138 0.786053 0.277001
Si Si4 0.659379 0.784111 0.605371
Si Si5 0.887972 0.715061 0.559346
Si Si6 0.035011 0.288172 0.120834
O O1 0.727348 0.500000 0.069285
O O2 0.797734 0.211886 0.158444
O O3 0.750000 0.250000 0.000000
O O4 0.580576 0.236253 0.985680
O O5 0.158757 0.500000 0.748525
O O6 0.147703 0.784004 0.672815
O O7 0.343038 0.700120 0.833325
O O8 0.703453 0.751684 0.337314
O O9 0.544696 0.717895 0.339081
O O10 0.505114 0.722482 0.177693
O O11 0.546186 0.000000 0.269273
O O12 0.592496 0.719262 0.503545
O O13 0.642422 0.000000 0.599172
O O14 0.901737 0.500000 0.564242
O O15 0.750000 0.750000 0.500000
O O16 0.060156 0.500000 0.137897
#
# Coordination Sequence:
#
# PCOD9179245 Si02
#       6
#     8   8   8   8   8   8
#     4  11  23  37  51  67  90 119 153 194 237 279
#     4   9  18  32  49  70  95 122 152 189 231 271
#     4   8  14  23  36  59  90 119 145 176 214 254
#     4   8  13  22  38  60  86 116 147 177 214 261
#     4   8  12  19  33  55  85 117 144 172 209 254
#     4  10  19  31  49  72  97 124 154 187 223 268
#
# _framework density 27.558695
#
# number of rings (size 3 to 8) (size 9 to 14) (size 15 to 20)
#    0.000    3.000    0.000    1.500    0.000    4.000 
#    0.000    0.000    0.000    0.000    0.000    1.167 
#    0.000    9.333    0.000    0.000    0.000    0.000 
#
# Total GULP energy -134151.400787 kJ/mol
# GULP energy per Si atom -5589.641699 kJ/mol
# Density = 2.749597 g / cm^3
# Si number density = 27.558695 Si / 1000 Ang^3
#
#
#
# Elastic Constant Matrix: (Units=GPa)
#
#
# Indices 1 2 3 4 5 6 
#
# 1 146.0146 7.9649 67.6079 0.0000 -34.3884 0.0000
# 2 7.9649 101.4508 5.9281 0.0000 -3.0731 0.0000
# 3 67.6079 5.9281 273.4559 0.0000 -29.2261 0.0000
# 4 0.0000 0.0000 0.0000 -0.3768 0.0000 -9.4443
# 5 -34.3884 -3.0731 -29.2261 0.0000 73.2876 0.0000
# 6 0.0000 0.0000 0.0000 -9.4443 0.0000 -1.1736
#
#
#
# Elastic Compliance Matrix: (Units=1/GPa)
#
#
# Indices 1 2 3 4 5 6 
#
# 1 0.008440 -0.000463 -0.001729 0.000000 0.003251 0.000000
# 2 -0.000463 0.009903 -0.000083 0.000000 0.000165 0.000000
# 3 -0.001729 -0.000083 0.004177 0.000000 0.000851 0.000000
# 4 0.000000 0.000000 0.000000 0.013224 0.000000 -0.106411
# 5 0.003251 0.000165 0.000851 0.000000 0.015517 0.000000
# 6 0.000000 0.000000 0.000000 -0.106411 0.000000 0.004245
#
#
# Mechanical properties :
#
#
# Convention : Reuss Voigt Hill
#
# Bulk Modulus (GPa) = 55.64551 75.99144 65.81847
# Shear Modulus (GPa) = 75.70471 43.64212 59.67342
#
# Velocity S-wave (km/s) = 5.24690 3.98377 4.65835
# Velocity P-wave (km/s) = 7.54600 6.98533 7.27107
#
# Compressibility (1/GPa) = 0.01797090
#
# Stress axis : x y z
#
# Youngs Moduli (GPa) = 118.47924 100.97770 239.39759
#
# Poissons Ratio (x) = 0.04676 0.41397
# Poissons Ratio (y) = 0.05487 0.01976
# Poissons Ratio (z) = 0.20487 0.00834
#
# Static dielectric constant tensor:
#      x y z
#    x 2.222600 0.000000 -0.050410 
#    y 0.000000 1.418300 0.000000 
#    z -0.050410 0.000000 2.190780 
# 
# From -- ./inp_files/280519.got.cif
#   From: 2010.05.17/outbox.cif.g08.bks.cpg/sg12_141_cif.got.tgz:280519.got - 2010.06.03 13:09:07.
