data_PCOD9179213
_publ_section_title
;
Structure prediction by ZEFSAII (Michael W. Deem and Ramdas Pophale) SiO2 
 PCOD9179213
Probable space group: C 2/M
;
_chemical_formula_sum "Si O2"
_cell_formula_units_Z 64
_cell_length_a 19.142822
_cell_length_b 7.550892
_cell_length_c 22.646669
_cell_angle_alpha 90.000000
_cell_angle_beta 103.010417
_cell_angle_gamma 90.000000
_cell_volume 3189.438617
_symmetry_space_group_name_H-M "C 2/M"
_symmetry_group_IT_number 12
_symmetry_cell_setting 'monoclinic'
loop_
_space_group_symop_operation_xyz
x,y,z
-x,y,-z
-x,-y,-z
x,-y,z
1/2+x,1/2+y,z
1/2-x,1/2+y,-z
1/2-x,1/2-y,-z
1/2+x,1/2-y,z
loop_
_atom_site_type_symbol
_atom_site_label
_atom_site_fract_x
_atom_site_fract_y
_atom_site_fract_z
Si Si1 0.976025 0.205997 0.057710
Si Si2 0.628628 0.782030 0.682013
Si Si3 0.813598 0.711707 0.057094
Si Si4 0.653436 0.785626 0.432230
Si Si5 0.817454 0.710087 0.433862
Si Si6 0.827797 0.298926 0.187322
Si Si7 0.011008 0.210461 0.812300
Si Si8 0.533057 0.212882 0.319391
O O1 0.890048 0.216826 0.049206
O O2 0.007983 0.276326 0.125712
O O3 0.997983 0.000000 0.059918
O O4 0.000000 0.286912 0.000000
O O5 0.655914 0.720202 0.623776
O O6 0.675325 0.720652 0.747486
O O7 0.546258 0.726801 0.676281
O O8 0.630186 0.000000 0.683883
O O9 0.822163 0.500000 0.063620
O O10 0.798006 0.780919 0.120745
O O11 0.750000 0.750000 0.000000
O O12 0.732653 0.737418 0.425300
O O13 0.647019 0.720970 0.498738
O O14 0.593449 0.720802 0.375509
O O15 0.649658 0.000000 0.433109
O O16 0.831703 0.500000 0.435287
O O17 0.800269 0.500000 0.185943
O O18 0.913686 0.300001 0.191120
O O19 0.957823 0.239626 0.747745
O O20 0.025165 0.000000 0.818978
O O21 0.533047 0.000000 0.322672
#
# Coordination Sequence:
#
# PCOD9179213 Si02
#       8
#     8   8   8   8   8   8   8   8
#     4   9  18  33  51  70  94 123 155 194 238 279
#     4   8  14  27  48  70  87 109 147 189 224 259
#     4  10  19  31  49  71  96 126 158 192 231 278
#     4   9  18  31  46  65  90 121 150 178 220 268
#     4   9  17  30  48  67  88 116 150 185 220 264
#     4   8  15  29  47  66  90 120 150 183 228 274
#     4   9  16  27  46  70  92 116 149 186 225 271
#     4   9  17  30  47  66  91 119 148 184 223 265
#
# _framework density 20.066227000000001
#
# number of rings (size 3 to 8) (size 9 to 14) (size 15 to 20)
#    0.000    3.125    0.000    1.500    0.000    2.250 
#    0.000    6.250    0.000    6.000    0.000    7.000 
#    0.000    0.000    0.000    0.000    0.000    0.000 
#
# Total GULP energy -178214.075842 kJ/mol
# GULP energy per Si atom -5569.189870 kJ/mol
# Density = 2.002056 g / cm^3
# Si number density = 20.066227 Si / 1000 Ang^3
#
#
#
# Elastic Constant Matrix: (Units=GPa)
#
#
# Indices 1 2 3 4 5 6 
#
# 1 34.9751 -9.3424 76.9632 0.0000 0.7116 0.0000
# 2 -9.3424 51.4570 -2.1634 0.0000 -3.7878 0.0000
# 3 76.9632 -2.1634 264.1955 0.0000 -1.6505 0.0000
# 4 0.0000 0.0000 0.0000 11.5381 0.0000 1.9694
# 5 0.7116 -3.7878 -1.6505 0.0000 37.4314 0.0000
# 6 0.0000 0.0000 0.0000 1.9694 0.0000 15.0487
#
#
#
# Elastic Compliance Matrix: (Units=1/GPa)
#
#
# Indices 1 2 3 4 5 6 
#
# 1 0.090325 0.015200 -0.026197 0.000000 -0.001334 0.000000
# 2 0.015200 0.022145 -0.004235 0.000000 0.001765 0.000000
# 3 -0.026197 -0.004235 0.011385 0.000000 0.000571 0.000000
# 4 0.000000 0.000000 0.000000 0.088650 0.000000 -0.011601
# 5 -0.001334 0.001765 0.000571 0.000000 0.026945 0.000000
# 6 0.000000 0.000000 0.000000 -0.011601 0.000000 0.067969
#
#
# Mechanical properties :
#
#
# Convention : Reuss Voigt Hill
#
# Bulk Modulus (GPa) = 10.70771 53.50472 32.10622
# Shear Modulus (GPa) = 13.54960 31.81497 22.68229
#
# Velocity S-wave (km/s) = 2.60137 3.98615 3.36575
# Velocity P-wave (km/s) = 3.79085 6.92155 5.58025
#
# Compressibility (1/GPa) = 0.09339066
#
# Stress axis : x y z
#
# Youngs Moduli (GPa) = 11.07110 45.15659 87.83208
#
# Poissons Ratio (x) = -0.68636 2.30091
# Poissons Ratio (y) = -0.16828 0.37201
# Poissons Ratio (z) = 0.29003 0.19126
#
# Static dielectric constant tensor:
#      x y z
#    x 1.646750 0.000000 -0.006150 
#    y 0.000000 1.786110 0.000000 
#    z -0.006150 0.000000 1.790970 
# 
# From -- ./inp_files/319202.got.cif
#   From: 2010.05.17/outbox.cif.g08.bks.cpg/sg12_160_cif.got.tgz:319202.got - 2010.06.03 13:09:07.
