data_PCOD9179498
_publ_section_title
;
Structure prediction by ZEFSAII (Michael W. Deem and Ramdas Pophale) SiO2 
 PCOD9179498
Probable space group: C 2/M
;
_chemical_formula_sum "Si O2"
_cell_formula_units_Z 64
_cell_length_a 18.783153
_cell_length_b 7.424231
_cell_length_c 21.589071
_cell_angle_alpha 90.000000
_cell_angle_beta 89.995232
_cell_angle_gamma 90.000000
_cell_volume 3010.606018
_symmetry_space_group_name_H-M "C 2/M"
_symmetry_group_IT_number 12
_symmetry_cell_setting 'monoclinic'
loop_
_space_group_symop_operation_xyz
x,y,z
-x,y,-z
-x,-y,-z
x,-y,z
1/2+x,1/2+y,z
1/2-x,1/2+y,-z
1/2-x,1/2-y,-z
1/2+x,1/2-y,z
loop_
_atom_site_type_symbol
_atom_site_label
_atom_site_fract_x
_atom_site_fract_y
_atom_site_fract_z
Si Si1 0.038787 0.285139 0.682906
Si Si2 0.043796 0.280641 0.196737
Si Si3 0.710050 0.780458 0.197366
Si Si4 0.792949 0.715417 0.562823
Si Si5 0.705992 0.785326 0.061457
Si Si6 0.956249 0.279466 0.560610
Si Si7 0.206415 0.783826 0.682198
Si Si8 0.456423 0.220022 0.940666
O O1 0.028246 0.500000 0.683577
O O2 0.122770 0.253685 0.678530
O O3 0.004450 0.216103 0.746739
O O4 0.996639 0.218764 0.622598
O O5 0.042844 0.500000 0.196837
O O6 0.126855 0.229830 0.205093
O O7 0.018877 0.224609 0.128066
O O8 0.758154 0.716678 0.254091
O O9 0.711944 0.000000 0.198627
O O10 0.733695 0.720569 0.128483
O O11 0.797792 0.500000 0.569774
O O12 0.750000 0.750000 0.500000
O O13 0.874252 0.781115 0.559516
O O14 0.749289 0.784456 0.622222
O O15 0.701653 0.000000 0.067405
O O16 0.750000 0.750000 0.000000
O O17 0.625274 0.720698 0.053710
O O18 0.955985 0.500000 0.560456
O O19 0.000000 0.223253 0.500000
O O20 0.213909 0.000000 0.682387
O O21 0.457919 0.000000 0.941472
O O22 0.500000 0.282319 0.000000
#
# Coordination Sequence:
#
# PCOD9179498 Si02
#       8
#     8   8   8   8   8   8   8   8
#     4  10  19  31  50  74  96 119 154 200 239 272
#     4   8  14  26  45  66  86 115 157 195 225 266
#     4   8  15  30  49  67  91 127 165 194 229 284
#     4  10  20  34  53  75  98 127 161 196 236 281
#     4   9  17  29  47  69  94 125 158 195 238 284
#     4   9  17  30  49  71  94 121 153 189 228 271
#     4  10  20  33  49  70  98 129 158 189 232 290
#     4   8  14  25  42  65  91 117 148 189 234 274
#
# _framework density 21.258178999999998
#
# number of rings (size 3 to 8) (size 9 to 14) (size 15 to 20)
#    0.000    3.000    0.000    3.000    0.000    5.500 
#    0.000    2.500    0.000    7.875    0.000    0.000 
#    0.000    0.000    0.000    0.000    0.000    0.000 
#
# Total GULP energy -178612.683065 kJ/mol
# GULP energy per Si atom -5581.646346 kJ/mol
# Density = 2.120979 g / cm^3
# Si number density = 21.258179 Si / 1000 Ang^3
#
#
#
# Elastic Constant Matrix: (Units=GPa)
#
#
# Indices 1 2 3 4 5 6 
#
# 1 166.3989 0.0881 151.3786 0.0000 0.4485 0.0000
# 2 0.0881 65.8350 7.1261 0.0000 -0.0220 0.0000
# 3 151.3786 7.1261 272.1812 0.0000 0.2247 0.0000
# 4 0.0000 0.0000 0.0000 3.5400 0.0000 -5.1592
# 5 0.4485 -0.0220 0.2247 0.0000 47.2028 0.0000
# 6 0.0000 0.0000 0.0000 -5.1592 0.0000 12.4702
#
#
#
# Elastic Compliance Matrix: (Units=1/GPa)
#
#
# Indices 1 2 3 4 5 6 
#
# 1 0.012199 0.000720 -0.006803 0.000000 -0.000083 0.000000
# 2 0.000720 0.015275 -0.000800 0.000000 0.000004 0.000000
# 3 -0.006803 -0.000800 0.007479 0.000000 0.000029 0.000000
# 4 0.000000 0.000000 0.000000 0.711441 0.000000 0.294337
# 5 -0.000083 0.000004 0.000029 0.000000 0.021186 0.000000
# 6 0.000000 0.000000 0.000000 0.294337 0.000000 0.201964
#
#
# Mechanical properties :
#
#
# Convention : Reuss Voigt Hill
#
# Bulk Modulus (GPa) = 47.20257 91.28896 69.24577
# Shear Modulus (GPa) = 5.04861 35.69743 20.37302
#
# Velocity S-wave (km/s) = 1.54274 4.10229 3.09910
# Velocity P-wave (km/s) = 5.04242 8.09164 6.74168
#
# Compressibility (1/GPa) = 0.02118529
#
# Stress axis : x y z
#
# Youngs Moduli (GPa) = 81.97591 65.46574 133.71220
#
# Poissons Ratio (x) = -0.04714 0.90969
# Poissons Ratio (y) = -0.05903 0.10702
# Poissons Ratio (z) = 0.55771 0.05240
#
# Static dielectric constant tensor:
#      x y z
#    x 1.716720 0.000000 -0.010130 
#    y 0.000000 1.832660 0.000000 
#    z -0.010130 0.000000 1.768420 
# 
# From -- ./inp_files/276550.got.cif
#   From: 2010.05.17/outbox.cif.g08.bks.cpg/sg12_139_cif.got.tgz:276550.got - 2010.06.03 13:09:07.
