data_PCOD9179592
_publ_section_title
;
Structure prediction by ZEFSAII (Michael W. Deem and Ramdas Pophale) SiO2 
 PCOD9179592
Probable space group: C 2/M
;
_chemical_formula_sum "Si O2"
_cell_formula_units_Z 56
_cell_length_a 27.653389
_cell_length_b 8.879368
_cell_length_c 12.117622
_cell_angle_alpha 90.000000
_cell_angle_beta 77.542378
_cell_angle_gamma 90.000000
_cell_volume 2905.363127
_symmetry_space_group_name_H-M "C 2/M"
_symmetry_group_IT_number 12
_symmetry_cell_setting 'monoclinic'
loop_
_space_group_symop_operation_xyz
x,y,z
-x,y,-z
-x,-y,-z
x,-y,z
1/2+x,1/2+y,z
1/2-x,1/2+y,-z
1/2-x,1/2-y,-z
1/2+x,1/2-y,z
loop_
_atom_site_type_symbol
_atom_site_label
_atom_site_fract_x
_atom_site_fract_y
_atom_site_fract_z
Si Si1 0.316156 0.323061 0.202292
Si Si2 0.470525 0.168557 0.114408
Si Si3 0.385503 0.680778 0.784506
Si Si4 0.730592 0.320800 0.125155
Si Si5 0.379480 0.165871 0.001336
Si Si6 0.094074 0.181017 0.682702
Si Si7 0.942555 0.183373 0.534933
O O1 0.307081 0.500000 0.218409
O O2 0.265221 0.234827 0.209003
O O3 0.354597 0.274848 0.280267
O O4 0.343184 0.288665 0.071971
O O5 0.454765 0.258837 0.229559
O O6 0.491454 0.000000 0.126435
O O7 0.500000 0.246445 0.000000
O O8 0.418529 0.147285 0.078731
O O9 0.391052 0.500000 0.794370
O O10 0.326679 0.716383 0.819429
O O11 0.405554 0.769879 0.880351
O O12 0.413721 0.728002 0.659968
O O13 0.734214 0.500000 0.113154
O O14 0.750000 0.250000 0.000000
O O15 0.356781 0.000000 0.991640
O O16 0.087752 0.229517 0.559412
O O17 0.092965 0.000000 0.689213
O O18 0.000000 0.233277 0.500000
O O19 0.943531 0.000000 0.534454
#
# Coordination Sequence:
#
# PCOD9179592 Si02
#       7
#     8   8   8   8   8   8   8
#     4  10  19  33  53  79 111 143 177 222 275 327
#     4   9  19  33  49  73 107 142 175 219 278 333
#     4  10  21  35  54  80 110 141 181 229 274 323
#     4  11  21  33  53  82 115 148 181 224 275 331
#     4  10  19  31  50  76 108 144 178 218 270 329
#     4   9  19  35  55  79 105 138 184 231 271 319
#     4   9  19  37  59  81 107 143 185 231 279 324
#
# _framework density 19.274698999999998
#
# number of rings (size 3 to 8) (size 9 to 14) (size 15 to 20)
#    0.000    2.286    1.429    1.286    2.000    2.000 
#    0.000    1.429    0.000    0.857    0.000    0.000 
#    0.000    0.000    0.000    0.000    0.000    0.000 
#
# Total GULP energy -155867.963237 kJ/mol
# GULP energy per Si atom -5566.712973 kJ/mol
# Density = 1.923083 g / cm^3
# Si number density = 19.274699 Si / 1000 Ang^3
#
#
#
# Elastic Constant Matrix: (Units=GPa)
#
#
# Indices 1 2 3 4 5 6 
#
# 1 58.1902 16.1483 30.3613 0.0000 2.5549 0.0000
# 2 16.1483 29.8349 18.1869 0.0000 1.6072 0.0000
# 3 30.3613 18.1869 118.2587 0.0000 5.2338 0.0000
# 4 0.0000 0.0000 0.0000 -3.7106 0.0000 -9.1565
# 5 2.5549 1.6072 5.2338 0.0000 29.5211 0.0000
# 6 0.0000 0.0000 0.0000 -9.1565 0.0000 19.5672
#
#
#
# Elastic Compliance Matrix: (Units=1/GPa)
#
#
# Indices 1 2 3 4 5 6 
#
# 1 0.021980 -0.009312 -0.004182 0.000000 -0.000654 0.000000
# 2 -0.009312 0.040960 -0.003876 0.000000 -0.000737 0.000000
# 3 -0.004182 -0.003876 0.010180 0.000000 -0.001232 0.000000
# 4 0.000000 0.000000 0.000000 -0.125073 0.000000 -0.058528
# 5 -0.000654 -0.000737 -0.001232 0.000000 0.034189 0.000000
# 6 0.000000 0.000000 0.000000 -0.058528 0.000000 0.023718
#
#
# Mechanical properties :
#
#
# Convention : Reuss Voigt Hill
#
# Bulk Modulus (GPa) = 26.05492 37.29743 31.67618
# Shear Modulus (GPa) = 93.47704 18.51470 55.99587
#
# Velocity S-wave (km/s) = 6.97155 3.10267 5.39579
# Velocity P-wave (km/s) = 8.85158 5.67696 7.43567
#
# Compressibility (1/GPa) = 0.03838046
#
# Stress axis : x y z
#
# Youngs Moduli (GPa) = 45.49597 24.41378 98.22905
#
# Poissons Ratio (x) = 0.22735 0.41079
# Poissons Ratio (y) = 0.42367 0.38072
# Poissons Ratio (z) = 0.19026 0.09462
#
# Static dielectric constant tensor:
#      x y z
#    x 1.767620 0.000000 0.006980 
#    y 0.000000 1.698440 0.000000 
#    z 0.006980 0.000000 1.660570 
# 
# From -- ./inp_files/186405.got.cif
#   From: 2010.05.17/outbox.cif.g08.bks.cpg/sg12_94_cif.got.tgz:186405.got - 2010.06.03 13:09:07.
