data_PCOD9179162
_publ_section_title
;
Structure prediction by ZEFSAII (Michael W. Deem and Ramdas Pophale) SiO2 
 PCOD9179162
Probable space group: C 2/M
;
_chemical_formula_sum "Si O2"
_cell_formula_units_Z 56
_cell_length_a 26.333004
_cell_length_b 7.540858
_cell_length_c 17.065629
_cell_angle_alpha 90.000000
_cell_angle_beta 124.959711
_cell_angle_gamma 90.000000
_cell_volume 2777.292750
_symmetry_space_group_name_H-M "C 2/M"
_symmetry_group_IT_number 12
_symmetry_cell_setting 'monoclinic'
loop_
_space_group_symop_operation_xyz
x,y,z
-x,y,-z
-x,-y,-z
x,-y,z
1/2+x,1/2+y,z
1/2-x,1/2+y,-z
1/2-x,1/2-y,-z
1/2+x,1/2-y,z
loop_
_atom_site_type_symbol
_atom_site_label
_atom_site_fract_x
_atom_site_fract_y
_atom_site_fract_z
Si Si1 0.900192 0.216900 0.901741
Si Si2 0.625772 0.291800 0.688353
Si Si3 0.719242 0.289579 0.555321
Si Si4 0.415787 0.283679 0.516731
Si Si5 0.469615 0.716961 0.275198
Si Si6 0.505240 0.716250 0.878591
Si Si7 0.762761 0.797512 0.762520
O O1 0.829766 0.282674 0.840575
O O2 0.940447 0.271628 0.861420
O O3 0.898247 0.000000 0.898091
O O4 0.940183 0.267627 0.013112
O O5 0.611626 0.500000 0.674605
O O6 0.593348 0.219338 0.580567
O O7 0.594223 0.224459 0.739804
O O8 0.699481 0.276505 0.743287
O O9 0.720052 0.500000 0.569431
O O10 0.750000 0.250000 0.500000
O O11 0.647534 0.232793 0.495100
O O12 0.753640 0.208539 0.660558
O O13 0.418230 0.500000 0.516478
O O14 0.475773 0.227378 0.617348
O O15 0.470453 0.500000 0.271437
O O16 0.482480 0.778755 0.198472
O O17 0.504434 0.500000 0.876867
O O18 0.764484 0.000000 0.790471
#
# Coordination Sequence:
#
# PCOD9179162 Si02
#       7
#     8   8   8   8   8   8   8
#     4   8  15  27  43  66  96 122 150 199 250 285
#     4   9  17  30  45  68  97 123 156 197 239 285
#     4  10  20  32  47  71 102 128 157 196 233 280
#     4   8  15  26  42  65  93 122 153 192 233 273
#     4   9  15  24  45  69  90 119 158 202 242 280
#     4   8  14  25  42  68  95 116 151 205 251 280
#     4  10  19  31  49  68  93 131 162 189 237 290
#
# _framework density 20.163519999999998
#
# number of rings (size 3 to 8) (size 9 to 14) (size 15 to 20)
#    0.000    3.143    0.000    3.000    2.000    1.714 
#    0.000    0.714    0.000    7.714    0.000    9.000 
#    0.000    0.000    0.000    0.000    0.000    0.000 
#
# Total GULP energy -156106.812200 kJ/mol
# GULP energy per Si atom -5575.243293 kJ/mol
# Density = 2.011763 g / cm^3
# Si number density = 20.163520 Si / 1000 Ang^3
#
#
#
# Elastic Constant Matrix: (Units=GPa)
#
#
# Indices 1 2 3 4 5 6 
#
# 1 164.7279 2.4278 101.2199 0.0000 -13.1583 0.0000
# 2 2.4278 43.6730 0.4212 0.0000 -4.4966 0.0000
# 3 101.2199 0.4212 95.8285 0.0000 4.6249 0.0000
# 4 0.0000 0.0000 0.0000 3.8719 0.0000 5.7973
# 5 -13.1583 -4.4966 4.6249 0.0000 30.6418 0.0000
# 6 0.0000 0.0000 0.0000 5.7973 0.0000 10.7577
#
#
#
# Elastic Compliance Matrix: (Units=1/GPa)
#
#
# Indices 1 2 3 4 5 6 
#
# 1 0.021232 0.000344 -0.023038 0.000000 0.012645 0.000000
# 2 0.000344 0.023261 -0.000642 -0.000001 0.003658 0.000001
# 3 -0.023038 -0.000642 0.035513 0.000000 -0.015347 0.000000
# 4 0.000000 -0.000001 0.000000 1.337287 0.000000 -0.720658
# 5 0.012645 0.003658 -0.015347 0.000000 0.040919 0.000000
# 6 0.000000 0.000001 0.000000 -0.720658 0.000000 0.481316
#
#
# Mechanical properties :
#
#
# Convention : Reuss Voigt Hill
#
# Bulk Modulus (GPa) = 29.99979 56.92967 43.46473
# Shear Modulus (GPa) = 2.50337 22.39834 12.45085
#
# Velocity S-wave (km/s) = 1.11545 3.33653 2.48764
# Velocity P-wave (km/s) = 4.07057 6.56800 5.46389
#
# Compressibility (1/GPa) = 0.03333357
#
# Stress axis : x y z
#
# Youngs Moduli (GPa) = 47.09925 42.99013 28.15869
#
# Poissons Ratio (x) = -0.01478 0.64872
# Poissons Ratio (y) = -0.01619 0.01808
# Poissons Ratio (z) = 1.08508 0.02760
#
# Static dielectric constant tensor:
#      x y z
#    x 1.732150 0.000000 -0.000160 
#    y 0.000000 1.793780 0.000000 
#    z -0.000160 0.000000 1.687140 
# 
# From -- ./inp_files/287908.got.cif
#   From: 2010.05.17/outbox.cif.g08.bks.cpg/sg12_144_cif.got.tgz:287908.got - 2010.06.03 13:09:07.
