data_PCOD9179959
_publ_section_title
;
Structure prediction by ZEFSAII (Michael W. Deem and Ramdas Pophale) SiO2 
 PCOD9179959
Probable space group: C 2/M
;
_chemical_formula_sum "Si O2"
_cell_formula_units_Z 64
_cell_length_a 22.612501
_cell_length_b 7.529024
_cell_length_c 22.421851
_cell_angle_alpha 90.000000
_cell_angle_beta 131.302347
_cell_angle_gamma 90.000000
_cell_volume 2867.713553
_symmetry_space_group_name_H-M "C 2/M"
_symmetry_group_IT_number 12
_symmetry_cell_setting 'monoclinic'
loop_
_space_group_symop_operation_xyz
x,y,z
-x,y,-z
-x,-y,-z
x,-y,z
1/2+x,1/2+y,z
1/2-x,1/2+y,-z
1/2-x,1/2-y,-z
1/2+x,1/2-y,z
loop_
_atom_site_type_symbol
_atom_site_label
_atom_site_fract_x
_atom_site_fract_y
_atom_site_fract_z
Si Si1 0.470400 0.794898 0.670252
Si Si2 0.087289 0.704956 0.054144
Si Si3 0.737755 0.787049 0.665309
Si Si4 0.678276 0.213938 0.498337
Si Si5 0.137912 0.795277 0.828801
Si Si6 0.750736 0.786681 0.198463
Si Si7 0.087390 0.215409 0.237844
Si Si8 0.419333 0.715604 0.082007
O O1 0.405662 0.718912 0.581882
O O2 0.554620 0.707500 0.738286
O O3 0.427809 0.783311 0.705840
O O4 0.486206 0.000000 0.665637
O O5 0.079183 0.500000 0.067937
O O6 0.161197 0.785574 0.138274
O O7 0.111536 0.712400 0.000710
O O8 0.000000 0.787722 0.000000
O O9 0.697403 0.721347 0.577813
O O10 0.706417 0.746618 0.710245
O O11 0.827702 0.720229 0.725266
O O12 0.739778 0.000000 0.661441
O O13 0.750000 0.250000 0.500000
O O14 0.671899 0.000000 0.495824
O O15 0.201730 0.715068 0.826760
O O16 0.122376 0.720643 0.884758
O O17 0.159882 0.000000 0.853582
O O18 0.745613 0.000000 0.188617
O O19 0.011535 0.267627 0.148960
O O20 0.087513 0.000000 0.240161
O O21 0.415745 0.500000 0.078288
#
# Coordination Sequence:
#
# PCOD9179959 Si02
#       8
#     8   8   8   8   8   8   8   8
#     4  10  19  31  52  82 109 136 176 223 267 315
#     4  10  21  36  54  80 113 140 167 216 278 325
#     4  10  20  34  53  78 109 143 179 219 269 320
#     4  10  20  33  52  82 115 142 174 218 269 323
#     4   9  20  39  57  74 104 145 186 226 267 315
#     4  10  22  39  56  75 104 145 187 223 266 324
#     4   9  17  31  51  76 110 146 174 211 266 323
#     4   9  18  32  53  79 103 136 181 221 260 312
#
# _framework density 22.317433000000001
#
# number of rings (size 3 to 8) (size 9 to 14) (size 15 to 20)
#    0.000    2.375    1.250    1.875    0.000    5.250 
#    0.000    0.625    0.000    3.750    0.000    0.000 
#    0.000    0.000    0.000    0.000    0.000    0.000 
#
# Total GULP energy -178597.505437 kJ/mol
# GULP energy per Si atom -5581.172045 kJ/mol
# Density = 2.226664 g / cm^3
# Si number density = 22.317433 Si / 1000 Ang^3
#
#
#
# Elastic Constant Matrix: (Units=GPa)
#
#
# Indices 1 2 3 4 5 6 
#
# 1 76.7371 -7.0638 28.0388 0.0000 -8.3655 0.0000
# 2 -7.0638 60.8254 -6.7101 0.0001 -1.5082 0.0000
# 3 28.0388 -6.7101 128.4918 0.0000 -19.5112 0.0000
# 4 0.0000 0.0001 0.0000 16.5121 0.0000 -8.4835
# 5 -8.3655 -1.5082 -19.5112 0.0000 19.4156 0.0000
# 6 0.0000 0.0000 0.0000 -8.4835 0.0000 10.6561
#
#
#
# Elastic Compliance Matrix: (Units=1/GPa)
#
#
# Indices 1 2 3 4 5 6 
#
# 1 0.014504 0.001504 -0.002501 0.000000 0.003852 0.000000
# 2 0.001504 0.016799 0.000998 0.000000 0.002956 0.000000
# 3 -0.002501 0.000998 0.009710 0.000000 0.008758 0.000000
# 4 0.000000 0.000000 0.000000 0.102477 0.000000 0.081583
# 5 0.003852 0.002956 0.008758 0.000000 0.062196 0.000000
# 6 0.000000 0.000000 0.000000 0.081583 0.000000 0.158793
#
#
# Mechanical properties :
#
#
# Convention : Reuss Voigt Hill
#
# Bulk Modulus (GPa) = 24.38211 32.73155 28.55683
# Shear Modulus (GPa) = 13.22231 26.10271 19.66251
#
# Velocity S-wave (km/s) = 2.43670 3.42367 2.97145
# Velocity P-wave (km/s) = 4.34345 5.50698 4.95946
#
# Compressibility (1/GPa) = 0.04101368
#
# Stress axis : x y z
#
# Youngs Moduli (GPa) = 68.94697 59.52895 102.98182
#
# Poissons Ratio (x) = -0.08953 0.25760
# Poissons Ratio (y) = -0.10369 -0.10277
# Poissons Ratio (z) = 0.17247 -0.05940
#
# Static dielectric constant tensor:
#      x y z
#    x 1.836840 0.000000 0.004210 
#    y 0.000000 1.660720 0.000000 
#    z 0.004210 0.000000 1.837820 
# 
# From -- ./inp_files/324336.got.cif
#   From: 2010.05.17/outbox.cif.g08.bks.cpg/sg12_163_cif.got.tgz:324336.got - 2010.06.03 13:09:07.
