data_PCOD9179610
_publ_section_title
;
Structure prediction by ZEFSAII (Michael W. Deem and Ramdas Pophale) SiO2 
 PCOD9179610
Probable space group: C 2/M
;
_chemical_formula_sum "Si O2"
_cell_formula_units_Z 64
_cell_length_a 19.075956
_cell_length_b 8.767351
_cell_length_c 21.149175
_cell_angle_alpha 90.000000
_cell_angle_beta 85.826143
_cell_angle_gamma 90.000000
_cell_volume 3527.725356
_symmetry_space_group_name_H-M "C 2/M"
_symmetry_group_IT_number 12
_symmetry_cell_setting 'monoclinic'
loop_
_space_group_symop_operation_xyz
x,y,z
-x,y,-z
-x,-y,-z
x,-y,z
1/2+x,1/2+y,z
1/2-x,1/2+y,-z
1/2-x,1/2-y,-z
1/2+x,1/2-y,z
loop_
_atom_site_type_symbol
_atom_site_label
_atom_site_fract_x
_atom_site_fract_y
_atom_site_fract_z
Si Si1 0.449517 0.823033 0.065195
Si Si2 0.149113 0.680409 0.459447
Si Si3 0.969379 0.817622 0.610240
Si Si4 0.624242 0.684761 0.262867
Si Si5 0.754480 0.182494 0.657083
Si Si6 0.634257 0.680869 0.595369
Si Si7 0.073744 0.184128 0.129578
Si Si8 0.828141 0.817398 0.995880
O O1 0.497166 0.747504 0.116167
O O2 0.377071 0.742660 0.049957
O O3 0.436554 0.000000 0.079740
O O4 0.500000 0.812977 0.000000
O O5 0.159976 0.500000 0.454408
O O6 0.199063 0.765918 0.406295
O O7 0.159744 0.737984 0.529646
O O8 0.070979 0.727436 0.441854
O O9 0.051733 0.787643 0.607670
O O10 0.931851 0.776573 0.678843
O O11 0.958972 0.000000 0.600146
O O12 0.625950 0.500000 0.259691
O O13 0.700265 0.732572 0.284863
O O14 0.601274 0.739586 0.195652
O O15 0.679458 0.258200 0.650910
O O16 0.748541 0.000000 0.657843
O O17 0.644210 0.500000 0.588037
O O18 0.069447 0.000000 0.130426
O O19 0.129434 0.226126 0.070988
O O20 0.824563 0.000000 0.998810
O O21 0.750000 0.750000 0.000000
#
# Coordination Sequence:
#
# PCOD9179610 Si02
#       8
#     8   8   8   8   8   8   8   8
#     4   9  17  30  49  74 103 132 164 202 241 283
#     4  11  21  33  51  74  99 127 163 205 249 299
#     4   9  19  35  53  72  98 130 161 200 250 299
#     4   8  16  34  56  73  93 128 169 204 243 294
#     4  10  20  35  53  72  98 131 165 202 247 297
#     4  11  21  33  50  73 100 128 161 202 250 300
#     4   9  17  32  55  77  98 130 170 205 242 292
#     4  10  19  31  50  77 108 138 166 202 247 291
#
# _framework density 18.142002999999999
#
# number of rings (size 3 to 8) (size 9 to 14) (size 15 to 20)
#    0.000    2.375    0.000    4.125    0.000    4.500 
#    0.000    4.375    0.000    3.000    0.000    0.000 
#    0.000    0.000    0.000    0.000    0.000    0.000 
#
# Total GULP energy -178525.109926 kJ/mol
# GULP energy per Si atom -5578.909685 kJ/mol
# Density = 1.810071 g / cm^3
# Si number density = 18.142003 Si / 1000 Ang^3
#
#
#
# Elastic Constant Matrix: (Units=GPa)
#
#
# Indices 1 2 3 4 5 6 
#
# 1 119.8066 33.6624 39.1717 0.0000 34.3356 0.0000
# 2 33.6624 33.7163 14.8114 0.0000 10.0919 0.0000
# 3 39.1717 14.8114 86.3367 0.0000 36.8442 0.0000
# 4 0.0000 0.0000 0.0000 15.1590 0.0000 8.3251
# 5 34.3356 10.0919 36.8442 0.0000 29.4279 0.0000
# 6 0.0000 0.0000 0.0000 8.3251 0.0000 31.9620
#
#
#
# Elastic Compliance Matrix: (Units=1/GPa)
#
#
# Indices 1 2 3 4 5 6 
#
# 1 0.015826 -0.011603 0.002130 0.000000 -0.017154 0.000000
# 2 -0.011603 0.041687 -0.003358 0.000000 0.003446 0.000000
# 3 0.002130 -0.003358 0.025255 0.000000 -0.032954 0.000000
# 4 0.000000 0.000000 0.000000 0.076979 0.000000 -0.020051
# 5 -0.017154 0.003446 -0.032954 0.000000 0.094074 0.000000
# 6 0.000000 0.000000 0.000000 -0.020051 0.000000 0.036510
#
#
# Mechanical properties :
#
#
# Convention : Reuss Voigt Hill
#
# Bulk Modulus (GPa) = 17.51046 46.12785 31.81915
# Shear Modulus (GPa) = 14.92417 25.45738 20.19078
#
# Velocity S-wave (km/s) = 2.87127 3.75003 3.33968
# Velocity P-wave (km/s) = 4.54588 6.65068 5.69634
#
# Compressibility (1/GPa) = 0.05710874
#
# Stress axis : x y z
#
# Youngs Moduli (GPa) = 63.18519 23.98833 39.59598
#
# Poissons Ratio (x) = 0.27832 -0.08436
# Poissons Ratio (y) = 0.73311 0.13296
# Poissons Ratio (z) = -0.13461 0.08055
#
# Static dielectric constant tensor:
#      x y z
#    x 1.644210 0.000000 0.013700 
#    y 0.000000 1.608740 0.000000 
#    z 0.013700 0.000000 1.618790 
# 
# From -- ./inp_files/314090.got.cif
#   From: 2010.05.17/outbox.cif.g08.bks.cpg/sg12_158_cif.got.tgz:314090.got - 2010.06.03 13:09:07.
