data_PCOD9179076
_publ_section_title
;
Structure prediction by ZEFSAII (Michael W. Deem and Ramdas Pophale) SiO2 
 PCOD9179076
Probable space group: C 2/M
;
_chemical_formula_sum "Si O2"
_cell_formula_units_Z 56
_cell_length_a 16.932987
_cell_length_b 14.412015
_cell_length_c 18.766001
_cell_angle_alpha 90.000000
_cell_angle_beta 132.310862
_cell_angle_gamma 90.000000
_cell_volume 3386.649451
_symmetry_space_group_name_H-M "C 2/M"
_symmetry_group_IT_number 12
_symmetry_cell_setting 'monoclinic'
loop_
_space_group_symop_operation_xyz
x,y,z
-x,y,-z
-x,-y,-z
x,-y,z
1/2+x,1/2+y,z
1/2-x,1/2+y,-z
1/2-x,1/2-y,-z
1/2+x,1/2-y,z
loop_
_atom_site_type_symbol
_atom_site_label
_atom_site_fract_x
_atom_site_fract_y
_atom_site_fract_z
Si Si1 0.227089 0.604467 0.514808
Si Si2 0.233040 0.891236 0.861347
Si Si3 0.618176 0.109328 0.917136
Si Si4 0.981422 0.605390 0.408666
Si Si5 0.927576 0.272485 0.248397
Si Si6 0.125973 0.607907 0.192643
Si Si7 0.823622 0.729143 0.643983
O O1 0.270441 0.500000 0.539126
O O2 0.239872 0.661485 0.449157
O O3 0.273631 0.669191 0.605327
O O4 0.100162 0.597885 0.448556
O O5 0.134060 0.824295 0.786811
O O6 0.319970 0.880547 0.851066
O O7 0.203105 0.000000 0.845215
O O8 0.290534 0.866971 0.970740
O O9 0.619275 0.167296 0.845371
O O10 0.501784 0.122164 0.883165
O O11 0.626703 0.000000 0.905316
O O12 0.936764 0.500000 0.385795
O O13 0.918069 0.671617 0.316821
O O14 0.000000 0.640846 0.500000
O O15 0.053440 0.262348 0.307333
O O16 0.143708 0.500000 0.226228
O O17 0.174779 0.679467 0.279001
#
# Coordination Sequence:
#
# PCOD9179076 Si02
#       7
#     8   8   8   8   8   8   8
#     4   9  17  30  47  66  90 120 158 195 229 271
#     4  10  20  31  47  72 100 128 155 191 237 283
#     4   9  17  32  52  72  93 121 161 200 236 276
#     4   9  18  31  48  70  92 117 152 197 240 271
#     4  10  19  31  48  71  97 125 154 192 235 284
#     4   9  17  30  49  70  94 121 156 197 235 274
#     4   9  18  30  47  69  90 125 159 190 230 279
#
# _framework density 16.535516999999999
#
# number of rings (size 3 to 8) (size 9 to 14) (size 15 to 20)
#    0.000    2.714    0.000    1.714    2.000    5.714 
#    0.000    0.000    0.000    0.429    0.000    0.000 
#    0.000   11.429    0.000    0.000    0.000    0.000 
#
# Total GULP energy -155964.115495 kJ/mol
# GULP energy per Si atom -5570.146982 kJ/mol
# Density = 1.649788 g / cm^3
# Si number density = 16.535517 Si / 1000 Ang^3
#
#
#
# Elastic Constant Matrix: (Units=GPa)
#
#
# Indices 1 2 3 4 5 6 
#
# 1 30.1318 22.3291 19.2279 0.0000 -12.5775 0.0000
# 2 22.3291 106.2627 67.5069 0.0000 -7.9898 0.0000
# 3 19.2279 67.5069 95.1904 0.0000 -15.1883 0.0000
# 4 0.0000 0.0000 0.0000 14.0380 0.0000 0.0832
# 5 -12.5775 -7.9898 -15.1883 0.0000 16.9140 0.0000
# 6 0.0000 0.0000 0.0000 0.0832 0.0000 19.4841
#
#
#
# Elastic Compliance Matrix: (Units=1/GPa)
#
#
# Indices 1 2 3 4 5 6 
#
# 1 0.055264 -0.010048 0.002057 0.000000 0.038196 0.000000
# 2 -0.010048 0.019111 -0.013161 0.000000 -0.010262 0.000000
# 3 0.002057 -0.013161 0.021799 0.000000 0.014887 0.000000
# 4 0.000000 0.000000 0.000000 0.071237 0.000000 -0.000304
# 5 0.038196 -0.010262 0.014887 0.000000 0.096046 0.000000
# 6 0.000000 0.000000 0.000000 -0.000304 0.000000 0.051325
#
#
# Mechanical properties :
#
#
# Convention : Reuss Voigt Hill
#
# Bulk Modulus (GPa) = 18.56299 49.96808 34.26554
# Shear Modulus (GPa) = 13.33181 18.25532 15.79356
#
# Velocity S-wave (km/s) = 2.84254 3.32626 3.09387
# Velocity P-wave (km/s) = 4.69296 6.71091 5.79052
#
# Compressibility (1/GPa) = 0.05387064
#
# Stress axis : x y z
#
# Youngs Moduli (GPa) = 18.09489 52.32468 45.87418
#
# Poissons Ratio (x) = 0.52573 -0.09436
# Poissons Ratio (y) = 0.18181 0.60376
# Poissons Ratio (z) = -0.03722 0.68866
#
# Static dielectric constant tensor:
#      x y z
#    x 1.555570 0.000000 -0.011430 
#    y 0.000000 1.560050 0.000000 
#    z -0.011430 0.000000 1.556800 
# 
# From -- ./inp_files/155954.got.cif
#   From: 2010.05.17/outbox.cif.g08.bks.cpg/sg12_78_cif.got.tgz:155954.got - 2010.06.03 13:09:07.
