data_PCOD9179891
_publ_section_title
;
Structure prediction by ZEFSAII (Michael W. Deem and Ramdas Pophale) SiO2 
 PCOD9179891
Probable space group: C 2/M
;
_chemical_formula_sum "Si O2"
_cell_formula_units_Z 48
_cell_length_a 20.093669
_cell_length_b 7.895535
_cell_length_c 15.735219
_cell_angle_alpha 90.000000
_cell_angle_beta 101.889264
_cell_angle_gamma 90.000000
_cell_volume 2442.843009
_symmetry_space_group_name_H-M "C 2/M"
_symmetry_group_IT_number 12
_symmetry_cell_setting 'monoclinic'
loop_
_space_group_symop_operation_xyz
x,y,z
-x,y,-z
-x,-y,-z
x,-y,z
1/2+x,1/2+y,z
1/2-x,1/2+y,-z
1/2-x,1/2-y,-z
1/2+x,1/2-y,z
loop_
_atom_site_type_symbol
_atom_site_label
_atom_site_fract_x
_atom_site_fract_y
_atom_site_fract_z
Si Si1 0.306433 0.695216 0.768951
Si Si2 0.449970 0.707702 0.747833
Si Si3 0.313426 0.194012 0.958663
Si Si4 0.972409 0.205063 0.401933
Si Si5 0.920544 0.802252 0.118787
Si Si6 0.343750 0.201427 0.268782
O O1 0.303978 0.500000 0.739367
O O2 0.374329 0.771059 0.746054
O O3 0.231704 0.768263 0.731931
O O4 0.315857 0.700775 0.873047
O O5 0.450011 0.500000 0.750759
O O6 0.479152 0.757354 0.663679
O O7 0.505225 0.761912 0.833180
O O8 0.125234 0.215775 0.808052
O O9 0.303131 0.000000 0.931253
O O10 0.250000 0.250000 0.000000
O O11 0.381146 0.212685 0.032553
O O12 0.897412 0.267404 0.357633
O O13 0.000000 0.262985 0.500000
O O14 0.970628 0.000000 0.401840
O O15 0.925624 0.000000 0.098022
O O16 0.339167 0.000000 0.250210
#
# Coordination Sequence:
#
# PCOD9179891 Si02
#       6
#     8   8   8   8   8   8
#     4  10  20  35  53  75 106 142 178 216 264 314
#     4   8  17  34  55  77 103 139 178 215 260 316
#     4  12  23  34  51  76 106 140 182 224 262 306
#     4   9  18  35  59  81 102 135 178 218 259 317
#     4  10  19  34  55  76 103 141 184 222 256 306
#     4  10  19  31  52  78 105 137 174 218 265 313
#
# _framework density 19.649236999999999
#
# number of rings (size 3 to 8) (size 9 to 14) (size 15 to 20)
#    0.000    2.167    1.667    3.500    0.000    1.667 
#    0.000    8.333    0.000    0.000    0.000    0.000 
#    0.000    0.000    0.000    0.000    0.000    0.000 
#
# Total GULP energy -133957.445633 kJ/mol
# GULP energy per Si atom -5581.560235 kJ/mol
# Density = 1.960451 g / cm^3
# Si number density = 19.649237 Si / 1000 Ang^3
#
#
#
# Elastic Constant Matrix: (Units=GPa)
#
#
# Indices 1 2 3 4 5 6 
#
# 1 166.7028 -6.3639 51.4052 0.0000 21.8473 0.0000
# 2 -6.3639 32.1984 -13.1740 0.0000 0.1352 0.0000
# 3 51.4052 -13.1740 96.4312 0.0000 22.5796 0.0000
# 4 0.0000 0.0000 0.0000 19.0947 0.0000 4.9651
# 5 21.8473 0.1352 22.5796 0.0000 21.7151 0.0000
# 6 0.0000 0.0000 0.0000 4.9651 0.0000 16.6400
#
#
#
# Elastic Compliance Matrix: (Units=1/GPa)
#
#
# Indices 1 2 3 4 5 6 
#
# 1 0.007497 0.000318 -0.002890 0.000000 -0.004540 0.000000
# 2 0.000318 0.033607 0.006008 0.000000 -0.006777 0.000000
# 3 -0.002890 0.006008 0.015941 0.000000 -0.013705 0.000000
# 4 0.000000 0.000000 0.000000 0.056776 0.000000 -0.016941
# 5 -0.004540 -0.006777 -0.013705 0.000000 0.064911 0.000000
# 6 0.000000 0.000000 0.000000 -0.016941 0.000000 0.065151
#
#
# Mechanical properties :
#
#
# Convention : Reuss Voigt Hill
#
# Bulk Modulus (GPa) = 15.64494 39.89632 27.77063
# Shear Modulus (GPa) = 19.35621 29.05428 24.20525
#
# Velocity S-wave (km/s) = 3.14201 3.84949 3.51360
# Velocity P-wave (km/s) = 4.59809 6.33296 5.53393
#
# Compressibility (1/GPa) = 0.06391842
#
# Stress axis : x y z
#
# Youngs Moduli (GPa) = 133.38730 29.75552 62.73290
#
# Poissons Ratio (x) = -0.00947 0.18130
# Poissons Ratio (y) = -0.04247 -0.37693
# Poissons Ratio (z) = 0.38549 -0.17879
#
# Static dielectric constant tensor:
#      x y z
#    x 1.713180 0.000000 0.016110 
#    y 0.000000 1.721090 0.000000 
#    z 0.016110 0.000000 1.669570 
# 
# From -- ./inp_files/230428.got.cif
#   From: 2010.05.17/outbox.cif.g08.bks.cpg/sg12_116_cif.got.tgz:230428.got - 2010.06.03 13:09:07.
