data_PCOD9179574
_publ_section_title
;
Structure prediction by ZEFSAII (Michael W. Deem and Ramdas Pophale) SiO2 
 PCOD9179574
Probable space group: C 2/M
;
_chemical_formula_sum "Si O2"
_cell_formula_units_Z 64
_cell_length_a 30.717839
_cell_length_b 18.385609
_cell_length_c 21.823598
_cell_angle_alpha 90.000000
_cell_angle_beta 161.362115
_cell_angle_gamma 90.000000
_cell_volume 3938.969986
_symmetry_space_group_name_H-M "C 2/M"
_symmetry_group_IT_number 12
_symmetry_cell_setting 'monoclinic'
loop_
_space_group_symop_operation_xyz
x,y,z
-x,y,-z
-x,-y,-z
x,-y,z
1/2+x,1/2+y,z
1/2-x,1/2+y,-z
1/2-x,1/2-y,-z
1/2+x,1/2-y,z
loop_
_atom_site_type_symbol
_atom_site_label
_atom_site_fract_x
_atom_site_fract_y
_atom_site_fract_z
Si Si1 0.519253 0.582981 0.298480
Si Si2 0.333996 0.304326 0.415204
Si Si3 0.469809 0.083827 0.202695
Si Si4 0.949386 0.806646 0.766773
Si Si5 0.790573 0.304308 0.464189
Si Si6 0.733959 0.129652 0.966631
Si Si7 0.621270 0.258651 0.746982
Si Si8 0.316567 0.808039 0.905201
O O1 0.565632 0.500000 0.357588
O O2 0.610260 0.630946 0.466915
O O3 0.523336 0.623043 0.238380
O O4 0.363187 0.586410 0.113830
O O5 0.279656 0.239684 0.386243
O O6 0.465033 0.273050 0.553869
O O7 0.226814 0.329186 0.221075
O O8 0.608682 0.126817 0.403689
O O9 0.373264 0.088115 0.133934
O O10 0.491890 0.000000 0.215223
O O11 0.393439 0.128982 0.046575
O O12 0.867438 0.752064 0.612227
O O13 0.853275 0.821741 0.696455
O O14 0.084242 0.761883 0.963637
O O15 0.661339 0.176030 0.816497
O O16 0.798725 0.189889 0.098341
O O17 0.682470 0.284289 0.764380
#
# Coordination Sequence:
#
# PCOD9179574 Si02
#       8
#     8   8   8   8   8   8   8   8
#     4  10  19  31  50  76 104 132 162 199 245 296
#     4  10  19  31  50  76 104 132 162 199 245 296
#     4  10  19  31  50  76 104 132 162 199 245 296
#     4   9  18  33  51  70  93 127 174 215 240 275
#     4   9  18  33  51  70  93 127 174 215 240 275
#     4   9  15  28  49  72  98 128 167 207 238 278
#     4   9  15  28  49  72  98 128 167 207 238 278
#     4  10  19  31  50  76 104 132 162 199 245 296
#
# _framework density 16.247902
#
# number of rings (size 3 to 8) (size 9 to 14) (size 15 to 20)
#    0.000    2.500    2.500    0.750    0.000    1.500 
#    0.000    0.000    0.000    5.250    0.000   10.500 
#    0.000    0.000    0.000    0.000    0.000    0.000 
#
# Total GULP energy -178183.391764 kJ/mol
# GULP energy per Si atom -5568.230993 kJ/mol
# Density = 1.621092 g / cm^3
# Si number density = 16.247902 Si / 1000 Ang^3
#
#
#
# Elastic Constant Matrix: (Units=GPa)
#
#
# Indices 1 2 3 4 5 6 
#
# 1 86.7333 52.7163 30.9637 0.0000 26.1321 0.0000
# 2 52.7163 110.8313 34.8871 -0.0002 -3.7018 -0.0002
# 3 30.9637 34.8871 13.6116 -0.0002 9.1656 -0.0002
# 4 0.0000 -0.0002 -0.0002 7.4138 -0.0003 -3.3669
# 5 26.1321 -3.7018 9.1656 -0.0003 19.1485 -0.0002
# 6 0.0000 -0.0002 -0.0002 -3.3669 -0.0002 5.8313
#
#
#
# Elastic Compliance Matrix: (Units=1/GPa)
#
#
# Indices 1 2 3 4 5 6 
#
# 1 0.047694 -0.020884 -0.012427 -0.000006 -0.063178 -0.000006
# 2 -0.020884 -0.018967 0.117161 0.000004 -0.031247 0.000005
# 3 -0.012427 0.117161 -0.332342 -0.000002 0.198688 -0.000003
# 4 -0.000006 0.000004 -0.000002 0.182822 0.000013 0.105558
# 5 -0.063178 -0.031247 0.198688 0.000013 0.037298 0.000015
# 6 -0.000006 0.000005 -0.000003 0.105558 0.000015 0.232435
#
#
# Mechanical properties :
#
#
# Convention : Reuss Voigt Hill
#
# Bulk Modulus (GPa) = -7.35749 49.81227 21.22739
# Shear Modulus (GPa) = -78.04586 12.65264 -32.69661
#
# Velocity S-wave (km/s) = -6.93821 2.79359 -4.49080
# Velocity P-wave (km/s) = 8.28994 6.41325 3.71438
#
# Compressibility (1/GPa) = -0.13591591
#
# Stress axis : x y z
#
# Youngs Moduli (GPa) = 20.96690 -52.72249 -3.00894
#
# Poissons Ratio (x) = -1.10105 -0.03739
# Poissons Ratio (y) = 0.43787 0.35253
# Poissons Ratio (z) = 0.26057 6.17702
#
# Static dielectric constant tensor:
#      x y z
#    x 1.557420 0.000000 0.007410 
#    y 0.000000 1.529320 0.000000 
#    z 0.007410 0.000000 1.546950 
# 
# From -- ./inp_files/330505.got.cif
#   From: 2010.05.17/outbox.cif.g08.bks.cpg/sg12_166_cif.got.tgz:330505.got - 2010.06.03 13:09:07.
