data_PCOD9179443
_publ_section_title
;
Structure prediction by ZEFSAII (Michael W. Deem and Ramdas Pophale) SiO2 
 PCOD9179443
Probable space group: C 2/M
;
_chemical_formula_sum "Si O2"
_cell_formula_units_Z 48
_cell_length_a 30.970650
_cell_length_b 8.818655
_cell_length_c 12.235411
_cell_angle_alpha 90.000000
_cell_angle_beta 62.364051
_cell_angle_gamma 90.000000
_cell_volume 2960.480279
_symmetry_space_group_name_H-M "C 2/M"
_symmetry_group_IT_number 12
_symmetry_cell_setting 'monoclinic'
loop_
_space_group_symop_operation_xyz
x,y,z
-x,y,-z
-x,-y,-z
x,-y,z
1/2+x,1/2+y,z
1/2-x,1/2+y,-z
1/2-x,1/2-y,-z
1/2+x,1/2-y,z
loop_
_atom_site_type_symbol
_atom_site_label
_atom_site_fract_x
_atom_site_fract_y
_atom_site_fract_z
Si Si1 0.488856 0.825187 0.143509
Si Si2 0.615020 0.182960 0.802877
Si Si3 0.754681 0.179623 0.818827
Si Si4 0.219380 0.181078 0.635178
Si Si5 0.412785 0.679843 0.928268
Si Si6 0.827710 0.320187 0.898813
O O1 0.432397 0.778113 0.214777
O O2 0.530523 0.725276 0.149464
O O3 0.493933 0.000000 0.173228
O O4 0.500000 0.822579 0.000000
O O5 0.664891 0.250916 0.699994
O O6 0.617711 0.000000 0.807144
O O7 0.605384 0.247458 0.935737
O O8 0.743590 0.267138 0.720790
O O9 0.802051 0.241243 0.826042
O O10 0.758431 0.000000 0.793707
O O11 0.709488 0.203440 0.955509
O O12 0.250000 0.250000 0.500000
O O13 0.217712 0.000000 0.630453
O O14 0.407149 0.500000 0.940400
O O15 0.378783 0.748594 0.874240
O O16 0.831948 0.500000 0.876425
#
# Coordination Sequence:
#
# PCOD9179443 Si02
#       6
#     8   8   8   8   8   8
#     4   8  16  29  45  65  95 131 164 200 247 300
#     4  10  19  33  49  68  97 132 168 208 252 297
#     4  10  20  34  51  72 100 131 168 209 251 299
#     4  12  24  37  54  74 100 134 173 211 251 296
#     4  11  19  27  45  73 103 133 166 202 247 301
#     4  10  19  31  50  72 102 136 166 203 251 303
#
# _framework density 16.213585999999999
#
# number of rings (size 3 to 8) (size 9 to 14) (size 15 to 20)
#    0.000    1.833    1.667    5.500    0.000    5.000 
#    0.000    0.000    0.000    0.000    0.000    1.167 
#    0.000    9.333    0.000    0.000    0.000    0.000 
#
# Total GULP energy -133932.891041 kJ/mol
# GULP energy per Si atom -5580.537127 kJ/mol
# Density = 1.617668 g / cm^3
# Si number density = 16.213586 Si / 1000 Ang^3
#
#
#
# Elastic Constant Matrix: (Units=GPa)
#
#
# Indices 1 2 3 4 5 6 
#
# 1 156.1817 68.0685 40.7001 0.0000 -8.9364 0.0000
# 2 68.0685 102.0792 34.0037 0.0000 -1.1027 0.0000
# 3 40.7001 34.0037 50.3269 0.0000 -10.1312 0.0000
# 4 0.0000 0.0000 0.0000 19.9814 0.0000 1.2490
# 5 -8.9364 -1.1027 -10.1312 0.0000 12.2527 0.0000
# 6 0.0000 0.0000 0.0000 1.2490 0.0000 32.5157
#
#
#
# Elastic Compliance Matrix: (Units=1/GPa)
#
#
# Indices 1 2 3 4 5 6 
#
# 1 0.009894 -0.005345 -0.003640 0.000000 0.003725 0.000000
# 2 -0.005345 0.016067 -0.008430 0.000000 -0.009422 0.000000
# 3 -0.003640 -0.008430 0.033379 0.000000 0.024185 0.000000
# 4 0.000000 0.000000 0.000000 0.050167 0.000000 -0.001927
# 5 0.003725 -0.009422 0.024185 0.000000 0.103481 0.000000
# 6 0.000000 0.000000 0.000000 -0.001927 0.000000 0.030828
#
#
# Mechanical properties :
#
#
# Convention : Reuss Voigt Hill
#
# Bulk Modulus (GPa) = 40.80120 66.01471 53.40796
# Shear Modulus (GPa) = 17.43283 24.00433 20.71858
#
# Velocity S-wave (km/s) = 3.28258 3.85191 3.57858
# Velocity P-wave (km/s) = 6.29179 7.78377 7.07720
#
# Compressibility (1/GPa) = 0.02450908
#
# Stress axis : x y z
#
# Youngs Moduli (GPa) = 101.07225 62.24116 29.95928
#
# Poissons Ratio (x) = 0.33265 0.10906
# Poissons Ratio (y) = 0.54019 0.25256
# Poissons Ratio (z) = 0.36794 0.52470
#
# Static dielectric constant tensor:
#      x y z
#    x 1.567840 0.000000 -0.010950 
#    y 0.000000 1.534570 0.000000 
#    z -0.010950 0.000000 1.510560 
# 
# From -- ./inp_files/185730.got.cif
#   From: 2010.05.17/outbox.cif.g08.bks.cpg/sg12_93_cif.got.tgz:185730.got - 2010.06.03 13:09:07.
