data_PCOD9179152
_publ_section_title
;
Structure prediction by ZEFSAII (Michael W. Deem and Ramdas Pophale) SiO2 
 PCOD9179152
Probable space group: C 2/M
;
_chemical_formula_sum "Si O2"
_cell_formula_units_Z 64
_cell_length_a 31.111282
_cell_length_b 7.750468
_cell_length_c 17.392777
_cell_angle_alpha 90.000000
_cell_angle_beta 140.145670
_cell_angle_gamma 90.000000
_cell_volume 2687.589714
_symmetry_space_group_name_H-M "C 2/M"
_symmetry_group_IT_number 12
_symmetry_cell_setting 'monoclinic'
loop_
_space_group_symop_operation_xyz
x,y,z
-x,y,-z
-x,-y,-z
x,-y,z
1/2+x,1/2+y,z
1/2-x,1/2+y,-z
1/2-x,1/2-y,-z
1/2+x,1/2-y,z
loop_
_atom_site_type_symbol
_atom_site_label
_atom_site_fract_x
_atom_site_fract_y
_atom_site_fract_z
Si Si1 0.079176 0.286935 0.408774
Si Si2 0.786614 0.296072 0.709549
Si Si3 0.925925 0.701805 0.193293
Si Si4 0.882208 0.806249 0.975180
Si Si5 0.340640 0.804441 0.625228
Si Si6 0.810757 0.291485 0.140648
Si Si7 0.169773 0.700508 0.662520
Si Si8 0.028623 0.198114 0.116808
O O1 0.081513 0.500000 0.406469
O O2 0.133683 0.222638 0.419625
O O3 0.105345 0.230095 0.528290
O O4 0.002265 0.229790 0.290484
O O5 0.775541 0.500000 0.687760
O O6 0.795255 0.229998 0.633186
O O7 0.728296 0.213568 0.679755
O O8 0.850451 0.269071 0.853874
O O9 0.936013 0.500000 0.222111
O O10 0.878800 0.715958 0.052660
O O11 0.880384 0.774217 0.199110
O O12 0.962142 0.813750 0.075237
O O13 0.854721 0.000000 0.945037
O O14 0.412762 0.805984 0.766949
O O15 0.318495 0.000000 0.580925
O O16 0.812654 0.500000 0.144961
O O17 0.806603 0.226922 0.223122
O O18 0.750000 0.250000 0.000000
O O19 0.155084 0.500000 0.656050
O O20 0.053080 0.000000 0.135866
O O21 0.000000 0.274984 0.000000
#
# Coordination Sequence:
#
# PCOD9179152 Si02
#       8
#     8   8   8   8   8   8   8   8
#     4   9  19  37  60  84 113 149 189 235 281 334
#     4  11  23  36  54  82 114 152 197 240 283 334
#     4  10  20  36  60  88 116 148 188 233 285 340
#     4  11  21  33  53  83 117 150 187 231 283 340
#     4  10  20  34  54  80 112 150 192 233 279 332
#     4  10  22  39  62  90 115 144 183 231 285 341
#     4  10  22  41  61  82 112 150 191 235 286 338
#     4  10  19  31  48  76 113 148 185 231 281 332
#
# _framework density 23.813158999999999
#
# number of rings (size 3 to 8) (size 9 to 14) (size 15 to 20)
#    0.000    1.875    2.500    1.500    0.000    5.250 
#    0.000    3.750    0.000    0.000    0.000    2.625 
#    0.000    0.000    0.000    0.000    0.000    0.000 
#
# Total GULP energy -178473.102727 kJ/mol
# GULP energy per Si atom -5577.284460 kJ/mol
# Density = 2.375896 g / cm^3
# Si number density = 23.813159 Si / 1000 Ang^3
#
#
#
# Elastic Constant Matrix: (Units=GPa)
#
#
# Indices 1 2 3 4 5 6 
#
# 1 138.0208 -1.7045 66.8460 0.0000 -28.3785 0.0000
# 2 -1.7045 44.8285 16.0961 0.0000 -1.2116 0.0000
# 3 66.8460 16.0961 141.4784 0.0000 -34.1426 0.0000
# 4 0.0000 0.0000 0.0000 19.6700 0.0000 -0.1724
# 5 -28.3785 -1.2116 -34.1426 0.0000 37.1902 0.0000
# 6 0.0000 0.0000 0.0000 -0.1724 0.0000 10.0416
#
#
#
# Elastic Compliance Matrix: (Units=1/GPa)
#
#
# Indices 1 2 3 4 5 6 
#
# 1 0.010031 0.001919 -0.003976 0.000000 0.004066 0.000000
# 2 0.001919 0.023759 -0.003943 0.000000 -0.001382 0.000000
# 3 -0.003976 -0.003943 0.011089 0.000000 0.007018 0.000000
# 4 0.000000 0.000000 0.000000 0.050847 0.000000 0.000873
# 5 0.004066 -0.001382 0.007018 0.000000 0.036389 0.000000
# 6 0.000000 0.000000 0.000000 0.000873 0.000000 0.099600
#
#
# Mechanical properties :
#
#
# Convention : Reuss Voigt Hill
#
# Bulk Modulus (GPa) = 30.41584 54.08920 42.25252
# Shear Modulus (GPa) = 19.63285 29.58637 24.60961
#
# Velocity S-wave (km/s) = 2.87445 3.52865 3.21821
# Velocity P-wave (km/s) = 4.88027 6.27416 5.62059
#
# Compressibility (1/GPa) = 0.03287761
#
# Stress axis : x y z
#
# Youngs Moduli (GPa) = 99.69182 42.08986 90.17756
#
# Poissons Ratio (x) = -0.08077 0.35859
# Poissons Ratio (y) = -0.19132 0.35559
# Poissons Ratio (z) = 0.39642 0.16597
#
# Static dielectric constant tensor:
#      x y z
#    x 1.982160 0.000000 -0.002240 
#    y 0.000000 1.952490 0.000000 
#    z -0.002240 0.000000 1.937510 
# 
# From -- ./inp_files/295837.got.cif
#   From: 2010.05.17/outbox.cif.g08.bks.cpg/sg12_148_cif.got.tgz:295837.got - 2010.06.03 13:09:07.
