data_PCOD9179785
_publ_section_title
;
Structure prediction by ZEFSAII (Michael W. Deem and Ramdas Pophale) SiO2 
 PCOD9179785
Probable space group: C 2/M
;
_chemical_formula_sum "Si O2"
_cell_formula_units_Z 56
_cell_length_a 19.931353
_cell_length_b 10.130387
_cell_length_c 26.804357
_cell_angle_alpha 90.000000
_cell_angle_beta 151.414983
_cell_angle_gamma 90.000000
_cell_volume 2589.499826
_symmetry_space_group_name_H-M "C 2/M"
_symmetry_group_IT_number 12
_symmetry_cell_setting 'monoclinic'
loop_
_space_group_symop_operation_xyz
x,y,z
-x,y,-z
-x,-y,-z
x,-y,z
1/2+x,1/2+y,z
1/2-x,1/2+y,-z
1/2-x,1/2-y,-z
1/2+x,1/2-y,z
loop_
_atom_site_type_symbol
_atom_site_label
_atom_site_fract_x
_atom_site_fract_y
_atom_site_fract_z
Si Si1 0.639394 0.342226 0.661585
Si Si2 0.558102 0.722704 0.335219
Si Si3 0.660835 0.350596 0.511847
Si Si4 0.098898 0.140645 0.859169
Si Si5 0.075653 0.651202 0.193536
Si Si6 0.291515 0.153690 0.200637
Si Si7 0.869115 0.652383 0.975891
O O1 0.645916 0.500000 0.680158
O O2 0.475542 0.314220 0.544778
O O3 0.757771 0.326257 0.696861
O O4 0.683945 0.240251 0.733804
O O5 0.602460 0.658439 0.416520
O O6 0.699054 0.765830 0.399090
O O7 0.470607 0.633613 0.240843
O O8 0.445154 0.837306 0.274132
O O9 0.700149 0.500000 0.549328
O O10 0.012934 0.250821 0.831141
O O11 0.260346 0.165765 0.951331
O O12 0.087188 0.000000 0.878065
O O13 0.046749 0.500000 0.188655
O O14 0.020133 0.666868 0.100151
O O15 0.179478 0.236325 0.094436
O O16 0.254611 0.000000 0.184040
O O17 0.856277 0.500000 0.948591
#
# Coordination Sequence:
#
# PCOD9179785 Si02
#       7
#     8   8   8   8   8   8   8
#     4   9  19  35  52  72 101 136 169 203 248 298
#     4   9  18  31  50  77 105 129 158 201 256 300
#     4   9  16  30  53  76  98 127 164 203 244 296
#     4  10  20  34  53  76 102 132 165 205 252 298
#     4  10  21  36  53  72  98 135 174 208 244 292
#     4  10  19  31  51  79 105 129 163 208 252 295
#     4   9  19  35  53  74 100 131 166 206 254 300
#
# _framework density 21.625798
#
# number of rings (size 3 to 8) (size 9 to 14) (size 15 to 20)
#    0.000    2.571    0.000    1.714    0.000    8.000 
#    0.000    4.286    0.000    3.429    0.000    0.000 
#    0.000    0.000    0.000    0.000    0.000    0.000 
#
# Total GULP energy -156147.889034 kJ/mol
# GULP energy per Si atom -5576.710323 kJ/mol
# Density = 2.157658 g / cm^3
# Si number density = 21.625798 Si / 1000 Ang^3
#
#
#
# Elastic Constant Matrix: (Units=GPa)
#
#
# Indices 1 2 3 4 5 6 
#
# 1 60.4654 37.0211 17.3644 0.0000 24.4081 0.0001
# 2 37.0211 94.7985 15.5788 -0.0001 7.8641 0.0000
# 3 17.3644 15.5788 95.8789 -0.0003 15.9433 -0.0003
# 4 0.0000 -0.0001 -0.0003 5.9144 -0.0001 4.3280
# 5 24.4081 7.8641 15.9433 -0.0001 38.4170 -0.0001
# 6 0.0001 0.0000 -0.0003 4.3280 -0.0001 18.5185
#
#
#
# Elastic Compliance Matrix: (Units=1/GPa)
#
#
# Indices 1 2 3 4 5 6 
#
# 1 0.029543 -0.010019 -0.001012 -0.000001 -0.016299 0.000000
# 2 -0.010019 0.014328 -0.001165 0.000000 0.003916 0.000000
# 3 -0.001012 -0.001165 0.011446 0.000001 -0.003868 0.000000
# 4 -0.000001 0.000000 0.000001 0.203962 0.000001 -0.047668
# 5 -0.016299 0.003916 -0.003868 0.000001 0.037189 0.000000
# 6 0.000000 0.000000 0.000000 -0.047668 0.000000 0.065140
#
#
# Mechanical properties :
#
#
# Convention : Reuss Voigt Hill
#
# Bulk Modulus (GPa) = 32.33654 43.45238 37.89446
# Shear Modulus (GPa) = 12.61648 24.64855 18.63251
#
# Velocity S-wave (km/s) = 2.41799 3.37972 2.93847
# Velocity P-wave (km/s) = 4.77292 5.94697 5.39200
#
# Compressibility (1/GPa) = 0.03092477
#
# Stress axis : x y z
#
# Youngs Moduli (GPa) = 33.84949 69.79444 87.36932
#
# Poissons Ratio (x) = 0.69925 0.08844
# Poissons Ratio (y) = 0.33913 0.10176
# Poissons Ratio (z) = 0.03426 0.08129
#
# Static dielectric constant tensor:
#      x y z
#    x 1.838830 0.000000 -0.007370 
#    y 0.000000 1.765190 0.000000 
#    z -0.007370 0.000000 1.794640 
# 
# From -- ./inp_files/380745.got.cif
#   From: 2010.05.17/outbox.cif.g08.bks.cpg/sg12_191_cif.got.tgz:380745.got - 2010.06.03 13:09:07.
