data_PCOD9179659
_publ_section_title
;
Structure prediction by ZEFSAII (Michael W. Deem and Ramdas Pophale) SiO2 
 PCOD9179659
Probable space group: C 2/M
;
_chemical_formula_sum "Si O2"
_cell_formula_units_Z 56
_cell_length_a 25.555340
_cell_length_b 8.808574
_cell_length_c 15.250314
_cell_angle_alpha 90.000000
_cell_angle_beta 120.811481
_cell_angle_gamma 90.000000
_cell_volume 2948.404433
_symmetry_space_group_name_H-M "C 2/M"
_symmetry_group_IT_number 12
_symmetry_cell_setting 'monoclinic'
loop_
_space_group_symop_operation_xyz
x,y,z
-x,y,-z
-x,-y,-z
x,-y,z
1/2+x,1/2+y,z
1/2-x,1/2+y,-z
1/2-x,1/2-y,-z
1/2+x,1/2-y,z
loop_
_atom_site_type_symbol
_atom_site_label
_atom_site_fract_x
_atom_site_fract_y
_atom_site_fract_z
Si Si1 0.486774 0.820415 0.091556
Si Si2 0.365369 0.171650 0.917714
Si Si3 0.577995 0.317013 0.310001
Si Si4 0.764699 0.831190 0.102510
Si Si5 0.188975 0.815576 0.677975
Si Si6 0.811628 0.179914 0.705870
Si Si7 0.442889 0.685092 0.510360
O O1 0.530032 0.735548 0.195645
O O2 0.493605 0.000000 0.113735
O O3 0.500000 0.790407 0.000000
O O4 0.415279 0.779783 0.031655
O O5 0.300571 0.158837 0.906877
O O6 0.354849 0.279739 0.826221
O O7 0.382588 0.000000 0.901360
O O8 0.579438 0.500000 0.311839
O O9 0.646703 0.268264 0.340585
O O10 0.557053 0.264707 0.388152
O O11 0.804812 0.761017 0.215421
O O12 0.788558 0.000000 0.103795
O O13 0.750000 0.750000 0.000000
O O14 0.246578 0.757322 0.670352
O O15 0.123199 0.772299 0.584726
O O16 0.193418 0.000000 0.683532
O O17 0.802047 0.000000 0.692216
O O18 0.500000 0.736650 0.500000
O O19 0.444946 0.500000 0.512161
#
# Coordination Sequence:
#
# PCOD9179659 Si02
#       7
#     8   8   8   8   8   8   8
#     4  10  19  32  53  78 107 145 180 209 258 325
#     4   9  18  33  50  72 104 142 178 211 252 315
#     4  10  21  34  53  83 112 139 179 228 274 317
#     4   9  18  31  49  74 102 132 172 217 259 308
#     4   9  19  36  57  77 102 141 183 219 261 320
#     4  10  19  31  50  80 112 135 166 218 276 320
#     4   9  19  38  60  79 104 142 186 228 266 318
#
# _framework density 18.993323
#
# number of rings (size 3 to 8) (size 9 to 14) (size 15 to 20)
#    0.000    2.571    1.429    1.286    0.000    5.429 
#    0.000    2.143    0.000    1.714    0.000    0.000 
#    0.000    0.000    0.000    0.000    0.000    0.000 
#
# Total GULP energy -155893.050243 kJ/mol
# GULP energy per Si atom -5567.608937 kJ/mol
# Density = 1.895009 g / cm^3
# Si number density = 18.993323 Si / 1000 Ang^3
#
#
#
# Elastic Constant Matrix: (Units=GPa)
#
#
# Indices 1 2 3 4 5 6 
#
# 1 105.8368 18.9491 76.7440 0.0000 -0.4832 0.0000
# 2 18.9491 12.5455 15.4826 0.0000 -3.7519 0.0000
# 3 76.7440 15.4826 128.1187 0.0000 1.7070 0.0000
# 4 0.0000 0.0000 0.0000 17.4750 0.0000 2.0645
# 5 -0.4832 -3.7519 1.7070 0.0000 34.8961 0.0000
# 6 0.0000 0.0000 0.0000 2.0645 0.0000 17.7048
#
#
#
# Elastic Compliance Matrix: (Units=1/GPa)
#
#
# Indices 1 2 3 4 5 6 
#
# 1 0.019620 -0.018236 -0.009533 0.000000 -0.001223 0.000000
# 2 -0.018236 0.114748 -0.003106 0.000000 0.012237 0.000000
# 3 -0.009533 -0.003106 0.013906 0.000000 -0.001146 0.000000
# 4 0.000000 0.000000 0.000000 0.058024 0.000000 -0.006766
# 5 -0.001223 0.012237 -0.001146 0.000000 0.030011 0.000000
# 6 0.000000 0.000000 0.000000 -0.006766 0.000000 0.057271
#
#
# Mechanical properties :
#
#
# Convention : Reuss Voigt Hill
#
# Bulk Modulus (GPa) = 11.55749 52.09471 31.82610
# Shear Modulus (GPa) = 13.01501 23.03685 18.02593
#
# Velocity S-wave (km/s) = 2.62055 3.48644 3.08403
# Velocity P-wave (km/s) = 3.90572 6.61018 5.42905
#
# Compressibility (1/GPa) = 0.08652396
#
# Stress axis : x y z
#
# Youngs Moduli (GPa) = 50.96801 8.71476 71.91159
#
# Poissons Ratio (x) = 0.15892 0.68550
# Poissons Ratio (y) = 0.92947 0.22337
# Poissons Ratio (z) = 0.48585 0.02707
#
# Static dielectric constant tensor:
#      x y z
#    x 1.715750 0.000000 0.007940 
#    y 0.000000 1.691310 0.000000 
#    z 0.007940 0.000000 1.690420 
# 
# From -- ./inp_files/238865.got.cif
#   From: 2010.05.17/outbox.cif.g08.bks.cpg/sg12_120_cif.got.tgz:238865.got - 2010.06.03 13:09:07.
