data_PCOD9179233
_publ_section_title
;
Structure prediction by ZEFSAII (Michael W. Deem and Ramdas Pophale) SiO2 
 PCOD9179233
Probable space group: C 2/M
;
_chemical_formula_sum "Si O2"
_cell_formula_units_Z 56
_cell_length_a 29.160089
_cell_length_b 9.121365
_cell_length_c 19.364491
_cell_angle_alpha 90.000000
_cell_angle_beta 39.927855
_cell_angle_gamma 90.000000
_cell_volume 3305.747807
_symmetry_space_group_name_H-M "C 2/M"
_symmetry_group_IT_number 12
_symmetry_cell_setting 'monoclinic'
loop_
_space_group_symop_operation_xyz
x,y,z
-x,y,-z
-x,-y,-z
x,-y,z
1/2+x,1/2+y,z
1/2-x,1/2+y,-z
1/2-x,1/2-y,-z
1/2+x,1/2-y,z
loop_
_atom_site_type_symbol
_atom_site_label
_atom_site_fract_x
_atom_site_fract_y
_atom_site_fract_z
Si Si1 0.067534 0.835802 0.370435
Si Si2 0.158940 0.674056 0.374484
Si Si3 0.528139 0.826377 0.623563
Si Si4 0.038094 0.326335 0.159119
Si Si5 0.554535 0.325421 0.998775
Si Si6 0.202594 0.674906 0.995716
Si Si7 0.793434 0.675440 0.168901
O O1 0.120758 0.728431 0.348351
O O2 0.000000 0.847332 0.500000
O O3 0.034182 0.765787 0.340996
O O4 0.097357 0.000000 0.325969
O O5 0.169544 0.500000 0.361590
O O6 0.103528 0.710723 0.500331
O O7 0.233319 0.758718 0.288016
O O8 0.520071 0.802814 0.714144
O O9 0.515901 0.000000 0.624103
O O10 0.040054 0.500000 0.139314
O O11 0.025493 0.232941 0.105470
O O12 0.117554 0.291006 0.096979
O O13 0.565877 0.500000 0.988535
O O14 0.629918 0.243867 0.902483
O O15 0.500000 0.292795 0.000000
O O16 0.210298 0.500000 0.994447
O O17 0.223125 0.713847 0.892720
O O18 0.250000 0.750000 0.000000
O O19 0.795823 0.500000 0.170349
#
# Coordination Sequence:
#
# PCOD9179233 Si02
#       7
#     8   8   8   8   8   8   8
#     4   9  17  28  42  64  96 137 183 221 250 288
#     4  10  19  31  49  72 103 142 179 218 259 300
#     4   9  18  32  49  72 103 140 181 218 255 303
#     4   9  19  35  53  76 104 136 175 214 257 311
#     4  10  21  38  60  84 105 127 163 212 265 320
#     4   9  19  32  46  68  99 134 171 212 254 300
#     4  10  21  36  53  77 105 135 175 215 258 313
#
# _framework density 16.940192
#
# number of rings (size 3 to 8) (size 9 to 14) (size 15 to 20)
#    0.000    2.571    0.000    2.571    2.000    6.857 
#    0.000    0.000    0.000    0.857    0.000    0.000 
#    0.000    0.000    0.000    0.000    0.000    0.000 
#
# Total GULP energy -156102.331348 kJ/mol
# GULP energy per Si atom -5575.083262 kJ/mol
# Density = 1.690163 g / cm^3
# Si number density = 16.940192 Si / 1000 Ang^3
#
#
#
# Elastic Constant Matrix: (Units=GPa)
#
#
# Indices 1 2 3 4 5 6 
#
# 1 99.2321 55.2544 48.0988 -0.0005 5.2517 0.0022
# 2 55.2544 64.6985 52.4632 0.0049 3.4239 0.0014
# 3 48.0988 52.4632 111.5512 0.0056 0.2635 -0.0037
# 4 -0.0005 0.0049 0.0056 25.3494 0.0005 0.8578
# 5 5.2517 3.4239 0.2635 0.0005 12.4142 -0.0029
# 6 0.0022 0.0014 -0.0037 0.8578 -0.0029 23.7399
#
#
#
# Elastic Compliance Matrix: (Units=1/GPa)
#
#
# Indices 1 2 3 4 5 6 
#
# 1 0.019458 -0.015541 -0.001072 0.000004 -0.003922 -0.000002
# 2 -0.015541 0.037957 -0.011142 -0.000005 -0.003658 -0.000003
# 3 -0.001072 -0.011142 0.014659 -0.000001 0.003215 0.000003
# 4 0.000004 -0.000005 -0.000001 0.039497 -0.000002 -0.001427
# 5 -0.003922 -0.003658 0.003215 -0.000002 0.083153 0.000011
# 6 -0.000002 -0.000003 0.000003 -0.001427 0.000011 0.042175
#
#
# Mechanical properties :
#
#
# Convention : Reuss Voigt Hill
#
# Bulk Modulus (GPa) = 60.36774 65.23493 62.80134
# Shear Modulus (GPa) = 16.78251 20.27841 18.53046
#
# Velocity S-wave (km/s) = 3.15094 3.46361 3.31097
# Velocity P-wave (km/s) = 6.99650 7.38837 7.19511
#
# Compressibility (1/GPa) = 0.01656514
#
# Stress axis : x y z
#
# Youngs Moduli (GPa) = 51.39275 26.34548 68.21762
#
# Poissons Ratio (x) = 0.40944 0.07310
# Poissons Ratio (y) = 0.79870 0.76006
# Poissons Ratio (z) = 0.05507 0.29354
#
# Static dielectric constant tensor:
#      x y z
#    x 1.542380 0.000000 -0.008030 
#    y 0.000000 1.570610 0.000000 
#    z -0.008030 0.000000 1.611520 
# 
# From -- ./inp_files/295094.got.cif
#   From: 2010.05.17/outbox.cif.g08.bks.cpg/sg12_148_cif.got.tgz:295094.got - 2010.06.03 13:09:07.
