data_PCOD9179150
_publ_section_title
;
Structure prediction by ZEFSAII (Michael W. Deem and Ramdas Pophale) SiO2 
 PCOD9179150
Probable space group: C 2/M
;
_chemical_formula_sum "Si O2"
_cell_formula_units_Z 64
_cell_length_a 22.963999
_cell_length_b 25.691699
_cell_length_c 5.313547
_cell_angle_alpha 90.000000
_cell_angle_beta 104.051648
_cell_angle_gamma 90.000000
_cell_volume 3041.103449
_symmetry_space_group_name_H-M "C 2/M"
_symmetry_group_IT_number 12
_symmetry_cell_setting 'monoclinic'
loop_
_space_group_symop_operation_xyz
x,y,z
-x,y,-z
-x,-y,-z
x,-y,z
1/2+x,1/2+y,z
1/2-x,1/2+y,-z
1/2-x,1/2-y,-z
1/2+x,1/2-y,z
loop_
_atom_site_type_symbol
_atom_site_label
_atom_site_fract_x
_atom_site_fract_y
_atom_site_fract_z
Si Si1 0.415703 0.757572 0.990067
Si Si2 0.821525 0.131059 0.536488
Si Si3 0.714869 0.273219 0.227116
Si Si4 0.582223 0.874915 0.943523
Si Si5 0.779189 0.349074 0.962139
Si Si6 0.064300 0.809987 0.488755
Si Si7 0.236857 0.558554 0.676741
Si Si8 0.594598 0.061543 0.444621
O O1 0.344876 0.761465 0.853751
O O2 0.440641 0.725084 0.773522
O O3 0.441749 0.815652 0.063138
O O4 0.418770 0.727287 0.259017
O O5 0.818808 0.170767 0.767392
O O6 0.885812 0.144868 0.488720
O O7 0.794484 0.074484 0.568045
O O8 0.767840 0.153237 0.310235
O O9 0.750000 0.250000 0.500000
O O10 0.767120 0.295104 0.097762
O O11 0.653479 0.863819 0.031174
O O12 0.574714 0.906762 0.674403
O O13 0.567611 0.910041 0.171334
O O14 0.760781 0.399170 0.104661
O O15 0.000000 0.832073 0.500000
O O16 0.242165 0.500000 0.772314
O O17 0.168337 0.563882 0.498690
O O18 0.579520 0.000000 0.444642
#
# Coordination Sequence:
#
# PCOD9179150 Si02
#       8
#     8   8   8   8   8   8   8   8
#     4  11  23  37  57  84 112 145 187 231 282 341
#     4  10  19  34  51  76 103 145 193 232 275 339
#     4  10  21  30  49  77 117 150 178 224 273 340
#     4  11  21  32  53  80 115 150 187 225 261 329
#     4  10  19  31  48  76 111 151 189 221 270 332
#     4  11  24  42  60  80 109 146 189 243 296 343
#     4   9  19  32  48  74 109 150 194 231 268 321
#     4  10  20  34  50  76 118 162 190 216 260 319
#
# _framework density 21.044993999999999
#
# number of rings (size 3 to 8) (size 9 to 14) (size 15 to 20)
#    0.000    1.750    2.500    2.250    7.000    2.000 
#    0.000    0.000    0.000    0.375    0.000    0.875 
#    0.000   35.000    0.000    0.000    0.000    0.000 
#
# Total GULP energy -178171.503926 kJ/mol
# GULP energy per Si atom -5567.859498 kJ/mol
# Density = 2.099709 g / cm^3
# Si number density = 21.044994 Si / 1000 Ang^3
#
#
#
# Elastic Constant Matrix: (Units=GPa)
#
#
# Indices 1 2 3 4 5 6 
#
# 1 93.7807 -4.7818 -5.0187 0.0000 -13.2358 0.0000
# 2 -4.7818 107.5050 21.3288 0.0000 -4.8982 0.0000
# 3 -5.0187 21.3288 57.4381 0.0000 -6.3773 0.0000
# 4 0.0000 0.0000 0.0000 21.8696 0.0000 -8.2140
# 5 -13.2358 -4.8982 -6.3773 0.0000 24.8423 0.0000
# 6 0.0000 0.0000 0.0000 -8.2140 0.0000 -0.8553
#
#
#
# Elastic Compliance Matrix: (Units=1/GPa)
#
#
# Indices 1 2 3 4 5 6 
#
# 1 0.011728 0.000515 0.001584 0.000000 0.006757 0.000000
# 2 0.000515 0.010091 -0.003552 0.000000 0.001352 0.000000
# 3 0.001584 -0.003552 0.019437 0.000000 0.005133 0.000000
# 4 0.000000 0.000000 0.000000 0.009925 0.000000 -0.095317
# 5 0.006757 0.001352 0.005133 0.000000 0.045438 0.000000
# 6 0.000000 0.000000 0.000000 -0.095317 0.000000 -0.253781
#
#
# Mechanical properties :
#
#
# Convention : Reuss Voigt Hill
#
# Bulk Modulus (GPa) = 26.07563 31.30893 28.69228
# Shear Modulus (GPa) = -35.34283 25.65103 -4.84590
#
# Velocity S-wave (km/s) = -4.10249 3.49501 -1.51909
# Velocity P-wave (km/s) = 3.16595 5.58536 3.25369
#
# Compressibility (1/GPa) = 0.03834998
#
# Stress axis : x y z
#
# Youngs Moduli (GPa) = 85.26757 99.09675 51.44741
#
# Poissons Ratio (x) = -0.05107 -0.08147
# Poissons Ratio (y) = -0.04394 0.18274
# Poissons Ratio (z) = -0.13503 0.35199
#
# Static dielectric constant tensor:
#      x y z
#    x 1.781770 0.000000 0.020000 
#    y 0.000000 1.774870 0.000000 
#    z 0.020000 0.000000 1.732330 
# 
# From -- ./inp_files/26098.got.cif
#   From: 2010.05.17/outbox.cif.g08.bks.cpg/sg12_14_cif.got.tgz:26098.got - 2010.06.03 13:09:07.
