data_PCOD9179428
_publ_section_title
;
Structure prediction by ZEFSAII (Michael W. Deem and Ramdas Pophale) SiO2 
 PCOD9179428
Probable space group: C 2/M
;
_chemical_formula_sum "Si O2"
_cell_formula_units_Z 56
_cell_length_a 22.242562
_cell_length_b 7.966497
_cell_length_c 16.844566
_cell_angle_alpha 90.000000
_cell_angle_beta 121.577347
_cell_angle_gamma 90.000000
_cell_volume 2542.833953
_symmetry_space_group_name_H-M "C 2/M"
_symmetry_group_IT_number 12
_symmetry_cell_setting 'monoclinic'
loop_
_space_group_symop_operation_xyz
x,y,z
-x,y,-z
-x,-y,-z
x,-y,z
1/2+x,1/2+y,z
1/2-x,1/2+y,-z
1/2-x,1/2-y,-z
1/2+x,1/2-y,z
loop_
_atom_site_type_symbol
_atom_site_label
_atom_site_fract_x
_atom_site_fract_y
_atom_site_fract_z
Si Si1 0.783384 0.303085 0.606052
Si Si2 0.294392 0.296654 0.290827
Si Si3 0.668042 0.298129 0.941772
Si Si4 0.340230 0.699809 0.889670
Si Si5 0.581880 0.293982 0.727660
Si Si6 0.055150 0.805396 0.290147
Si Si7 0.970014 0.693849 0.896574
O O1 0.774244 0.500000 0.607116
O O2 0.750000 0.250000 0.500000
O O3 0.739921 0.229553 0.651240
O O4 0.867041 0.269439 0.661605
O O5 0.294756 0.500000 0.292296
O O6 0.240595 0.240546 0.184679
O O7 0.372778 0.243360 0.317930
O O8 0.664166 0.500000 0.938454
O O9 0.626164 0.237551 0.836002
O O10 0.750000 0.250000 0.000000
O O11 0.639065 0.242274 0.007602
O O12 0.351491 0.500000 0.889965
O O13 0.386488 0.795043 0.856828
O O14 0.580067 0.500000 0.727587
O O15 0.501535 0.236198 0.685868
O O16 0.018828 0.787059 0.178193
O O17 0.065909 0.000000 0.315081
O O18 0.991458 0.500000 0.903952
O O19 0.000000 0.766983 0.000000
#
# Coordination Sequence:
#
# PCOD9179428 Si02
#       7
#     8   8   8   8   8   8   8
#     4  11  24  43  69  96 121 155 202 254 316 379
#     4  10  20  38  63  86 116 156 200 245 296 363
#     4  10  19  31  49  78 117 162 209 249 292 349
#     4  11  21  32  52  83 116 155 206 255 301 350
#     4   9  19  36  58  85 121 164 203 247 302 359
#     4  11  22  39  64  92 125 159 200 257 314 369
#     4  11  23  37  54  80 119 167 212 252 301 360
#
# _framework density 22.022673999999999
#
# number of rings (size 3 to 8) (size 9 to 14) (size 15 to 20)
#    0.000    1.571    2.857    2.571    0.000    3.429 
#    0.000    3.571    0.000    4.286    0.000    0.000 
#    0.000    0.000    0.000    0.000    0.000    0.000 
#
# Total GULP energy -156350.306098 kJ/mol
# GULP energy per Si atom -5583.939504 kJ/mol
# Density = 2.197255 g / cm^3
# Si number density = 22.022674 Si / 1000 Ang^3
#
#
#
# Elastic Constant Matrix: (Units=GPa)
#
#
# Indices 1 2 3 4 5 6 
#
# 1 174.2784 13.7152 49.0587 0.0000 -11.4536 0.0000
# 2 13.7152 33.2273 3.2110 0.0000 -3.5931 0.0000
# 3 49.0587 3.2110 84.0077 0.0000 -6.2487 0.0000
# 4 0.0000 0.0000 0.0000 24.3709 0.0000 4.9941
# 5 -11.4536 -3.5931 -6.2487 0.0000 19.6694 0.0000
# 6 0.0000 0.0000 0.0000 4.9941 0.0000 17.2319
#
#
#
# Elastic Compliance Matrix: (Units=1/GPa)
#
#
# Indices 1 2 3 4 5 6 
#
# 1 0.007190 -0.002316 -0.003923 0.000000 0.002517 0.000000
# 2 -0.002316 0.031498 0.000488 0.000000 0.004560 0.000000
# 3 -0.003923 0.000488 0.014352 0.000000 0.002364 0.000000
# 4 0.000000 0.000000 0.000000 0.043623 0.000000 -0.012643
# 5 0.002517 0.004560 0.002364 0.000000 0.053890 0.000000
# 6 0.000000 0.000000 0.000000 -0.012643 0.000000 0.061696
#
#
# Mechanical properties :
#
#
# Convention : Reuss Voigt Hill
#
# Bulk Modulus (GPa) = 24.07509 47.05370 35.56439
# Shear Modulus (GPa) = 21.04394 27.28965 24.16679
#
# Velocity S-wave (km/s) = 3.09456 3.52399 3.31624
# Velocity P-wave (km/s) = 4.87074 6.16201 5.55403
#
# Compressibility (1/GPa) = 0.04153671
#
# Stress axis : x y z
#
# Youngs Moduli (GPa) = 139.08199 31.74816 69.67753
#
# Poissons Ratio (x) = 0.07354 0.27335
# Poissons Ratio (y) = 0.32218 -0.03400
# Poissons Ratio (z) = 0.54562 -0.01549
#
# Static dielectric constant tensor:
#      x y z
#    x 1.836060 0.000000 0.043420 
#    y 0.000000 1.773150 0.000000 
#    z 0.043420 0.000000 1.779500 
# 
# From -- ./inp_files/281752.got.cif
#   From: 2010.05.17/outbox.cif.g08.bks.cpg/sg12_141_cif.got.tgz:281752.got - 2010.06.03 13:09:07.
