data_PCOD9179924
_publ_section_title
;
Structure prediction by ZEFSAII (Michael W. Deem and Ramdas Pophale) SiO2 
 PCOD9179924
Probable space group: C 2/M
;
_chemical_formula_sum "Si O2"
_cell_formula_units_Z 50
_cell_length_a 14.604301
_cell_length_b 15.123895
_cell_length_c 9.935908
_cell_angle_alpha 90.000000
_cell_angle_beta 94.016658
_cell_angle_gamma 90.000000
_cell_volume 2189.192404
_symmetry_space_group_name_H-M "C 2/M"
_symmetry_group_IT_number 12
_symmetry_cell_setting 'monoclinic'
loop_
_space_group_symop_operation_xyz
x,y,z
-x,y,-z
-x,-y,-z
x,-y,z
1/2+x,1/2+y,z
1/2-x,1/2+y,-z
1/2-x,1/2-y,-z
1/2+x,1/2-y,z
loop_
_atom_site_type_symbol
_atom_site_label
_atom_site_fract_x
_atom_site_fract_y
_atom_site_fract_z
Si Si1 0.046856 0.364510 0.142581
Si Si2 0.855328 0.401046 0.237197
Si Si3 0.655951 0.707702 0.725188
Si Si4 0.450632 0.333412 0.806442
Si Si5 0.890515 0.897783 0.528536
Si Si6 0.500000 0.500000 0.000000
Si Si7 0.732085 0.905520 0.071530
O O1 0.071717 0.260399 0.128565
O O2 0.144609 0.409176 0.161240
O O3 0.966521 0.388349 0.237740
O O4 0.000000 0.394439 0.000000
O O5 0.835824 0.500000 0.286595
O O6 0.826190 0.310118 0.303545
O O7 0.808043 0.395750 0.083056
O O8 0.551265 0.688703 0.758129
O O9 0.667524 0.649674 0.593061
O O10 0.709218 0.672874 0.861613
O O11 0.385768 0.352494 0.673168
O O12 0.456859 0.420321 0.898132
O O13 0.000000 0.894893 0.500000
O O14 0.865503 0.000000 0.534992
O O15 0.784635 0.000000 0.082777
#
# Coordination Sequence:
#
# PCOD9179924 Si02
#       7
#     8   8   8   8   8   2   8
#     4   9  17  32  51  73 103 136 177 218 262 308
#     4   9  18  33  51  74 104 139 177 222 266 312
#     4  10  20  33  53  78 107 138 177 221 264 316
#     4  10  20  33  52  79 110 139 175 215 262 313
#     4   9  17  31  51  74 105 143 176 208 253 320
#     4  12  20  32  54  84 110 140 174 216 266 320
#     4  10  19  31  52  80 104 139 175 223 267 310
#
# _framework density 22.839472000000001
#
# number of rings (size 3 to 8) (size 9 to 14) (size 15 to 20)
#    0.000    2.400    1.600    1.440    2.240    1.920 
#    0.000    0.800    0.000   12.960    0.000    0.000 
#    0.000    0.000    0.000    0.000    0.000    0.160 
#
# Total GULP energy -139199.518781 kJ/mol
# GULP energy per Si atom -5567.980751 kJ/mol
# Density = 2.278749 g / cm^3
# Si number density = 22.839472 Si / 1000 Ang^3
#
#
#
# Elastic Constant Matrix: (Units=GPa)
#
#
# Indices 1 2 3 4 5 6 
#
# 1 32.6656 15.6316 4.5040 0.0000 4.7555 0.0000
# 2 15.6316 189.8410 26.1960 0.0000 13.4260 0.0000
# 3 4.5040 26.1960 48.1600 0.0000 5.4759 0.0000
# 4 0.0000 0.0000 0.0000 18.5599 0.0000 4.8763
# 5 4.7555 13.4260 5.4759 0.0000 8.9659 0.0000
# 6 0.0000 0.0000 0.0000 4.8763 0.0000 12.2190
#
#
#
# Elastic Compliance Matrix: (Units=1/GPa)
#
#
# Indices 1 2 3 4 5 6 
#
# 1 0.033664 -0.001630 -0.000547 0.000000 -0.015081 0.000000
# 2 -0.001630 0.006232 -0.002445 0.000000 -0.006975 0.000000
# 3 -0.000547 -0.002445 0.023315 0.000000 -0.010289 0.000000
# 4 0.000000 0.000000 0.000000 0.060191 0.000000 -0.024020
# 5 -0.015081 -0.006975 -0.010289 0.000000 0.136261 0.000000
# 6 0.000000 0.000000 0.000000 -0.024020 0.000000 0.091426
#
#
# Mechanical properties :
#
#
# Convention : Reuss Voigt Hill
#
# Bulk Modulus (GPa) = 18.52938 40.36998 29.44968
# Shear Modulus (GPa) = 13.21628 22.90462 18.06045
#
# Velocity S-wave (km/s) = 2.40814 3.17022 2.81509
# Velocity P-wave (km/s) = 3.98280 5.57802 4.84649
#
# Compressibility (1/GPa) = 0.05396834
#
# Stress axis : x y z
#
# Youngs Moduli (GPa) = 29.70523 160.45213 42.89122
#
# Poissons Ratio (x) = 0.26152 0.02347
# Poissons Ratio (y) = 0.04842 0.10485
# Poissons Ratio (z) = 0.01625 0.39223
#
# Static dielectric constant tensor:
#      x y z
#    x 1.960340 0.000000 -0.030550 
#    y 0.000000 1.883960 0.000000 
#    z -0.030550 0.000000 1.798840 
# 
# From -- ./inp_files/156238.got.cif
#   From: 2010.05.17/outbox.cif.g08.bks.cpg/sg12_79_cif.got.tgz:156238.got - 2010.06.03 13:09:07.
