data_PCOD9179963
_publ_section_title
;
Structure prediction by ZEFSAII (Michael W. Deem and Ramdas Pophale) SiO2 
 PCOD9179963
Probable space group: C 2/M
;
_chemical_formula_sum "Si O2"
_cell_formula_units_Z 56
_cell_length_a 24.546889
_cell_length_b 15.255186
_cell_length_c 12.227917
_cell_angle_alpha 90.000000
_cell_angle_beta 145.797724
_cell_angle_gamma 90.000000
_cell_volume 2573.905362
_symmetry_space_group_name_H-M "C 2/M"
_symmetry_group_IT_number 12
_symmetry_cell_setting 'monoclinic'
loop_
_space_group_symop_operation_xyz
x,y,z
-x,y,-z
-x,-y,-z
x,-y,z
1/2+x,1/2+y,z
1/2-x,1/2+y,-z
1/2-x,1/2-y,-z
1/2+x,1/2-y,z
loop_
_atom_site_type_symbol
_atom_site_label
_atom_site_fract_x
_atom_site_fract_y
_atom_site_fract_z
Si Si1 0.008719 0.394284 0.387715
Si Si2 0.709173 0.097673 0.654425
Si Si3 0.304006 0.634506 0.022667
Si Si4 0.805909 0.893489 0.433784
Si Si5 0.613648 0.606761 0.195547
Si Si6 0.015830 0.899355 0.410049
Si Si7 0.692727 0.163758 0.045752
O O1 0.018411 0.500000 0.407126
O O2 0.000000 0.363925 0.500000
O O3 0.103515 0.358724 0.480369
O O4 0.911931 0.370649 0.162402
O O5 0.729559 0.090774 0.817266
O O6 0.807848 0.135708 0.765883
O O7 0.699679 0.000000 0.589475
O O8 0.302931 0.735561 0.984331
O O9 0.411628 0.600601 0.181666
O O10 0.271452 0.620041 0.093568
O O11 0.831049 0.869743 0.599903
O O12 0.720176 0.854634 0.216783
O O13 0.901401 0.862428 0.527231
O O14 0.796791 0.000000 0.416787
O O15 0.606787 0.500000 0.178383
O O16 0.500000 0.636923 0.000000
O O17 0.000000 0.853568 0.500000
O O18 0.045288 0.000000 0.479173
#
# Coordination Sequence:
#
# PCOD9179963 Si02
#       7
#     8   8   8   8   8   8   8
#     4  10  20  35  56  80 108 148 191 230 270 321
#     4  10  20  36  59  82 106 143 193 234 271 325
#     4  11  22  34  52  80 115 150 182 224 280 336
#     4  10  20  36  58  83 112 143 179 232 285 332
#     4   9  18  35  60  87 112 141 183 235 287 335
#     4  10  19  31  52  82 110 138 177 228 285 336
#     4  11  23  35  51  80 117 151 185 222 279 335
#
# _framework density 21.756820999999999
#
# number of rings (size 3 to 8) (size 9 to 14) (size 15 to 20)
#    0.000    1.857    2.857    1.714    0.000    5.143 
#    0.000    1.429    0.000    5.143    0.000    0.000 
#    0.000    0.000    0.000    0.000    0.000    0.143 
#
# Total GULP energy -156108.336454 kJ/mol
# GULP energy per Si atom -5575.297731 kJ/mol
# Density = 2.170730 g / cm^3
# Si number density = 21.756821 Si / 1000 Ang^3
#
#
#
# Elastic Constant Matrix: (Units=GPa)
#
#
# Indices 1 2 3 4 5 6 
#
# 1 101.7811 10.9786 47.1151 0.0000 8.7475 0.0000
# 2 10.9786 50.2801 6.8286 0.0000 0.1353 0.0000
# 3 47.1151 6.8286 146.4212 0.0000 11.8726 0.0000
# 4 0.0000 0.0000 0.0000 56.4659 0.0000 1.7321
# 5 8.7475 0.1353 11.8726 0.0000 44.6279 0.0000
# 6 0.0000 0.0000 0.0000 1.7321 0.0000 6.0743
#
#
#
# Elastic Compliance Matrix: (Units=1/GPa)
#
#
# Indices 1 2 3 4 5 6 
#
# 1 0.011834 -0.002091 -0.003600 0.000000 -0.001355 0.000000
# 2 -0.002091 0.020387 -0.000313 0.000000 0.000431 0.000000
# 3 -0.003600 -0.000313 0.008121 0.000000 -0.001454 0.000000
# 4 0.000000 0.000000 0.000000 0.017866 0.000000 -0.005094
# 5 -0.001355 0.000431 -0.001454 0.000000 0.023059 0.000000
# 6 0.000000 0.000000 0.000000 -0.005094 0.000000 0.166081
#
#
# Mechanical properties :
#
#
# Convention : Reuss Voigt Hill
#
# Bulk Modulus (GPa) = 35.29588 47.59187 41.44388
# Shear Modulus (GPa) = 18.60122 37.00430 27.80276
#
# Velocity S-wave (km/s) = 2.92714 4.12857 3.57863
# Velocity P-wave (km/s) = 5.26140 6.68197 6.01378
#
# Compressibility (1/GPa) = 0.02833192
#
# Stress axis : x y z
#
# Youngs Moduli (GPa) = 84.50434 49.05201 123.14360
#
# Poissons Ratio (x) = 0.10258 0.44337
# Poissons Ratio (y) = 0.17672 0.03852
# Poissons Ratio (z) = 0.30425 0.01534
#
# Static dielectric constant tensor:
#      x y z
#    x 1.837530 0.000000 -0.001120 
#    y 0.000000 1.859460 0.000000 
#    z -0.001120 0.000000 1.811460 
# 
# From -- ./inp_files/177955.got.cif
#   From: 2010.05.17/outbox.cif.g08.bks.cpg/sg12_89_cif.got.tgz:177955.got - 2010.06.03 13:09:07.
