data_PCOD9179521
_publ_section_title
;
Structure prediction by ZEFSAII (Michael W. Deem and Ramdas Pophale) SiO2 
 PCOD9179521
Probable space group: C 2/M
;
_chemical_formula_sum "Si O2"
_cell_formula_units_Z 56
_cell_length_a 19.844154
_cell_length_b 8.714133
_cell_length_c 19.281291
_cell_angle_alpha 90.000000
_cell_angle_beta 75.443904
_cell_angle_gamma 90.000000
_cell_volume 3227.188156
_symmetry_space_group_name_H-M "C 2/M"
_symmetry_group_IT_number 12
_symmetry_cell_setting 'monoclinic'
loop_
_space_group_symop_operation_xyz
x,y,z
-x,y,-z
-x,-y,-z
x,-y,z
1/2+x,1/2+y,z
1/2-x,1/2+y,-z
1/2-x,1/2-y,-z
1/2+x,1/2-y,z
loop_
_atom_site_type_symbol
_atom_site_label
_atom_site_fract_x
_atom_site_fract_y
_atom_site_fract_z
Si Si1 0.209716 0.683409 0.347790
Si Si2 0.175023 0.815849 0.496578
Si Si3 0.535885 0.816015 0.062815
Si Si4 0.133224 0.813627 0.653861
Si Si5 0.993556 0.814475 0.217393
Si Si6 0.814131 0.815999 0.940707
Si Si7 0.350586 0.684224 0.777309
O O1 0.208791 0.500000 0.352791
O O2 0.163830 0.750553 0.422900
O O3 0.290220 0.734787 0.339069
O O4 0.181983 0.737598 0.281143
O O5 0.250000 0.750000 0.500000
O O6 0.126370 0.771232 0.574277
O O7 0.177827 0.000000 0.492561
O O8 0.494113 0.755505 0.140500
O O9 0.613110 0.747052 0.048815
O O10 0.539989 0.000000 0.064635
O O11 0.500000 0.771035 0.000000
O O12 0.070647 0.761026 0.718849
O O13 0.132778 0.000000 0.656057
O O14 0.068036 0.775822 0.232686
O O15 0.991191 0.000000 0.211986
O O16 0.812855 0.773439 0.859342
O O17 0.814663 0.000000 0.944401
O O18 0.750000 0.750000 0.000000
O O19 0.346191 0.500000 0.770443
#
# Coordination Sequence:
#
# PCOD9179521 Si02
#       7
#     8   8   8   8   8   8   8
#     4  10  19  31  50  75 101 131 168 208 249 298
#     4   9  16  29  49  72 100 131 164 206 254 300
#     4  10  21  36  53  76 106 137 171 212 256 305
#     4   8  16  31  51  74  96 124 166 209 247 293
#     4   9  18  35  55  73  97 130 170 211 252 303
#     4  10  21  37  57  79 104 136 173 213 258 308
#     4   9  19  34  51  72  99 131 164 202 250 300
#
# _framework density 17.352568000000002
#
# number of rings (size 3 to 8) (size 9 to 14) (size 15 to 20)
#    0.000    2.714    0.000    3.429    0.000    5.143 
#    0.000    7.857    0.000    4.286    0.000    0.000 
#    0.000    0.000    0.000    0.000    0.000    0.000 
#
# Total GULP energy -156060.028769 kJ/mol
# GULP energy per Si atom -5573.572456 kJ/mol
# Density = 1.731307 g / cm^3
# Si number density = 17.352568 Si / 1000 Ang^3
#
#
#
# Elastic Constant Matrix: (Units=GPa)
#
#
# Indices 1 2 3 4 5 6 
#
# 1 70.0866 30.3832 102.6515 0.0000 -7.7580 0.0000
# 2 30.3832 40.3547 56.1224 0.0000 3.1327 0.0000
# 3 102.6515 56.1224 207.1306 0.0000 -5.4121 0.0000
# 4 0.0000 0.0000 0.0000 33.9282 0.0000 3.8641
# 5 -7.7580 3.1327 -5.4121 0.0000 34.4243 0.0000
# 6 0.0000 0.0000 0.0000 3.8641 0.0000 22.7187
#
#
#
# Elastic Compliance Matrix: (Units=1/GPa)
#
#
# Indices 1 2 3 4 5 6 
#
# 1 0.055458 -0.007348 -0.025253 0.000000 0.009197 0.000000
# 2 -0.007348 0.041738 -0.007842 0.000000 -0.006687 0.000000
# 3 -0.025253 -0.007842 0.019418 0.000000 -0.001925 0.000000
# 4 0.000000 0.000000 0.000000 0.030056 0.000000 -0.005112
# 5 0.009197 -0.006687 -0.001925 0.000000 0.031428 0.000000
# 6 0.000000 0.000000 0.000000 -0.005112 0.000000 0.044886
#
#
# Mechanical properties :
#
#
# Convention : Reuss Voigt Hill
#
# Bulk Modulus (GPa) = 27.99013 77.32068 52.65541
# Shear Modulus (GPa) = 15.83380 26.77522 21.30451
#
# Velocity S-wave (km/s) = 3.02400 3.93238 3.50772
# Velocity P-wave (km/s) = 5.32523 8.07920 6.84221
#
# Compressibility (1/GPa) = 0.03572688
#
# Stress axis : x y z
#
# Youngs Moduli (GPa) = 18.03153 23.95897 51.49989
#
# Poissons Ratio (x) = 0.17606 1.30053
# Poissons Ratio (y) = 0.13250 0.40386
# Poissons Ratio (z) = 0.45535 0.18788
#
# Static dielectric constant tensor:
#      x y z
#    x 1.578020 0.000000 -0.003320 
#    y 0.000000 1.584580 0.000000 
#    z -0.003320 0.000000 1.606720 
# 
# From -- ./inp_files/280207.got.cif
#   From: 2010.05.17/outbox.cif.g08.bks.cpg/sg12_141_cif.got.tgz:280207.got - 2010.06.03 13:09:07.
