data_PCOD9179599
_publ_section_title
;
Structure prediction by ZEFSAII (Michael W. Deem and Ramdas Pophale) SiO2 
 PCOD9179599
Probable space group: C 2/M
;
_chemical_formula_sum "Si O2"
_cell_formula_units_Z 64
_cell_length_a 22.173967
_cell_length_b 14.141916
_cell_length_c 11.060132
_cell_angle_alpha 90.000000
_cell_angle_beta 101.294409
_cell_angle_gamma 90.000000
_cell_volume 3401.095348
_symmetry_space_group_name_H-M "C 2/M"
_symmetry_group_IT_number 12
_symmetry_cell_setting 'monoclinic'
loop_
_space_group_symop_operation_xyz
x,y,z
-x,y,-z
-x,-y,-z
x,-y,z
1/2+x,1/2+y,z
1/2-x,1/2+y,-z
1/2-x,1/2-y,-z
1/2+x,1/2-y,z
loop_
_atom_site_type_symbol
_atom_site_label
_atom_site_fract_x
_atom_site_fract_y
_atom_site_fract_z
Si Si1 0.148213 0.391916 0.819971
Si Si2 0.296844 0.614045 0.259350
Si Si3 0.584862 0.706783 0.806047
Si Si4 0.662446 0.385328 0.461242
Si Si5 0.660799 0.891403 0.114188
Si Si6 0.101073 0.797200 0.091121
Si Si7 0.780073 0.114105 0.770061
Si Si8 0.462614 0.386906 0.703154
O O1 0.133068 0.500000 0.782132
O O2 0.094999 0.316389 0.778173
O O3 0.210460 0.362464 0.775982
O O4 0.163036 0.388960 0.969126
O O5 0.301942 0.500000 0.256622
O O6 0.350680 0.656610 0.198965
O O7 0.309893 0.646689 0.401508
O O8 0.227815 0.636260 0.190597
O O9 0.528719 0.659884 0.713584
O O10 0.574565 0.697603 0.946178
O O11 0.664063 0.500000 0.462516
O O12 0.700349 0.355780 0.357299
O O13 0.591237 0.358766 0.411487
O O14 0.611019 0.812654 0.130956
O O15 0.647316 0.000000 0.145207
O O16 0.169763 0.841342 0.120815
O O17 0.063336 0.853755 0.176612
O O18 0.785618 0.000000 0.780132
O O19 0.468609 0.500000 0.703360
#
# Coordination Sequence:
#
# PCOD9179599 Si02
#       8
#     8   8   8   8   8   8   8   8
#     4   9  18  33  51  72  99 129 162 201 244 291
#     4  10  19  31  50  77 105 130 159 197 244 295
#     4  11  21  31  48  74 100 130 165 201 244 290
#     4   8  17  33  50  71 100 132 164 198 236 285
#     4   9  18  32  50  73 101 130 159 197 246 294
#     4  10  19  32  49  72 101 128 162 204 242 288
#     4   9  16  29  50  71  96 130 161 196 245 291
#     4  10  21  36  52  71  98 132 167 201 239 285
#
# _framework density 18.817467000000001
#
# number of rings (size 3 to 8) (size 9 to 14) (size 15 to 20)
#    0.000    2.500    0.000    3.375    0.000    6.000 
#    0.000    8.125    0.000    3.000    0.000    1.750 
#    0.000    0.000    0.000    0.000    0.000    0.000 
#
# Total GULP energy -178550.010203 kJ/mol
# GULP energy per Si atom -5579.687819 kJ/mol
# Density = 1.877464 g / cm^3
# Si number density = 18.817467 Si / 1000 Ang^3
#
#
#
# Elastic Constant Matrix: (Units=GPa)
#
#
# Indices 1 2 3 4 5 6 
#
# 1 38.7960 32.3565 15.2769 0.0000 14.3933 0.0000
# 2 32.3565 65.3331 22.0247 0.0000 14.8629 0.0000
# 3 15.2769 22.0247 39.8338 0.0000 9.2945 0.0000
# 4 0.0000 0.0000 0.0000 13.5238 0.0000 7.5122
# 5 14.3933 14.8629 9.2945 0.0000 12.7904 0.0000
# 6 0.0000 0.0000 0.0000 7.5122 0.0000 29.1980
#
#
#
# Elastic Compliance Matrix: (Units=1/GPa)
#
#
# Indices 1 2 3 4 5 6 
#
# 1 0.057240 -0.018103 -0.002193 0.000000 -0.041782 0.000000
# 2 -0.018103 0.028323 -0.006974 0.000000 -0.007472 0.000000
# 3 -0.002193 -0.006974 0.032916 0.000000 -0.013347 0.000000
# 4 0.000000 0.000000 0.000000 0.086273 0.000000 -0.022197
# 5 -0.041782 -0.007472 -0.013347 0.000000 0.143585 0.000000
# 6 0.000000 0.000000 0.000000 -0.022197 0.000000 0.039960
#
#
# Mechanical properties :
#
#
# Convention : Reuss Voigt Hill
#
# Bulk Modulus (GPa) = 15.64044 31.47546 23.55795
# Shear Modulus (GPa) = 10.77239 16.05608 13.41424
#
# Velocity S-wave (km/s) = 2.39523 2.92422 2.67284
# Velocity P-wave (km/s) = 3.99740 5.30702 4.69807
#
# Compressibility (1/GPa) = 0.06393684
#
# Stress axis : x y z
#
# Youngs Moduli (GPa) = 17.47044 35.30723 30.38064
#
# Poissons Ratio (x) = 0.63918 0.06664
# Poissons Ratio (y) = 0.31628 0.21186
# Poissons Ratio (z) = 0.03832 0.24622
#
# Static dielectric constant tensor:
#      x y z
#    x 1.652220 0.000000 -0.004320 
#    y 0.000000 1.680600 0.000000 
#    z -0.004320 0.000000 1.643750 
# 
# From -- ./inp_files/167312.got.cif
#   From: 2010.05.17/outbox.cif.g08.bks.cpg/sg12_84_cif.got.tgz:167312.got - 2010.06.03 13:09:07.
