data_PCOD9179615
_publ_section_title
;
Structure prediction by ZEFSAII (Michael W. Deem and Ramdas Pophale) SiO2 
 PCOD9179615
Probable space group: C 2/M
;
_chemical_formula_sum "Si O2"
_cell_formula_units_Z 56
_cell_length_a 28.149052
_cell_length_b 7.763477
_cell_length_c 18.990382
_cell_angle_alpha 90.000000
_cell_angle_beta 148.458856
_cell_angle_gamma 90.000000
_cell_volume 2170.937678
_symmetry_space_group_name_H-M "C 2/M"
_symmetry_group_IT_number 12
_symmetry_cell_setting 'monoclinic'
loop_
_space_group_symop_operation_xyz
x,y,z
-x,y,-z
-x,-y,-z
x,-y,z
1/2+x,1/2+y,z
1/2-x,1/2+y,-z
1/2-x,1/2-y,-z
1/2+x,1/2-y,z
loop_
_atom_site_type_symbol
_atom_site_label
_atom_site_fract_x
_atom_site_fract_y
_atom_site_fract_z
Si Si1 0.369690 0.795016 0.398930
Si Si2 0.211314 0.196873 0.851316
Si Si3 0.534040 0.198317 0.695860
Si Si4 0.561128 0.304197 0.285254
Si Si5 0.619901 0.797455 0.006091
Si Si6 0.772469 0.793246 0.424307
Si Si7 0.603195 0.211240 0.137003
O O1 0.331614 0.704073 0.281783
O O2 0.474385 0.757086 0.551672
O O3 0.318027 0.745565 0.405961
O O4 0.361928 0.000000 0.376957
O O5 0.139268 0.286666 0.810624
O O6 0.217147 0.000000 0.882927
O O7 0.311794 0.274683 0.966182
O O8 0.494484 0.303887 0.710818
O O9 0.513569 0.000000 0.688493
O O10 0.572539 0.500000 0.276671
O O11 0.487470 0.216915 0.142142
O O12 0.658649 0.223450 0.429365
O O13 0.640081 0.000000 0.032277
O O14 0.643277 0.729178 0.112657
O O15 0.668931 0.732159 0.283105
O O16 0.771944 0.000000 0.432454
O O17 0.602698 0.000000 0.137831
O O18 0.500000 0.269158 0.000000
#
# Coordination Sequence:
#
# PCOD9179615 Si02
#       7
#     8   8   8   8   8   8   8
#     4  10  19  31  50  77 109 144 182 226 276 322
#     4  11  21  33  51  76 108 146 188 231 273 318
#     4  10  21  35  51  76 109 146 188 230 270 319
#     4  10  21  36  56  79 110 150 186 224 270 321
#     4  10  21  37  56  80 110 144 182 226 273 326
#     4   9  17  34  57  82 109 141 184 225 267 322
#     4   9  17  34  62  89 109 136 179 226 271 325
#
# _framework density 25.795304999999999
#
# number of rings (size 3 to 8) (size 9 to 14) (size 15 to 20)
#    0.000    2.143    1.429    2.143    0.000    5.714 
#    0.000    0.714    0.000    1.714    0.000    0.000 
#    0.000    0.000    0.000    0.000    0.000    0.000 
#
# Total GULP energy -156534.525615 kJ/mol
# GULP energy per Si atom -5590.518772 kJ/mol
# Density = 2.573659 g / cm^3
# Si number density = 25.795305 Si / 1000 Ang^3
#
#
#
# Elastic Constant Matrix: (Units=GPa)
#
#
# Indices 1 2 3 4 5 6 
#
# 1 71.0733 4.1856 40.4755 0.0000 2.9819 0.0000
# 2 4.1856 56.5802 5.3971 0.0000 3.2295 0.0000
# 3 40.4755 5.3971 190.0357 0.0000 14.0985 0.0000
# 4 0.0000 0.0000 0.0000 24.0515 0.0000 -0.4487
# 5 2.9819 3.2295 14.0985 0.0000 52.6077 0.0000
# 6 0.0000 0.0000 0.0000 -0.4487 0.0000 13.8518
#
#
#
# Elastic Compliance Matrix: (Units=1/GPa)
#
#
# Indices 1 2 3 4 5 6 
#
# 1 0.016054 -0.000867 -0.003399 0.000000 0.000054 0.000000
# 2 -0.000867 0.017818 -0.000249 0.000000 -0.000978 0.000000
# 3 -0.003399 -0.000249 0.006099 0.000000 -0.001427 0.000000
# 4 0.000000 0.000000 0.000000 0.041603 0.000000 0.001348
# 5 0.000054 -0.000978 -0.001427 0.000000 0.019448 0.000000
# 6 0.000000 0.000000 0.000000 0.001348 0.000000 0.072236
#
#
# Mechanical properties :
#
#
# Convention : Reuss Voigt Hill
#
# Bulk Modulus (GPa) = 32.31799 46.42285 39.37042
# Shear Modulus (GPa) = 25.96047 35.94426 30.95237
#
# Velocity S-wave (km/s) = 3.17583 3.73693 3.46775
# Velocity P-wave (km/s) = 5.09938 6.05436 5.59727
#
# Compressibility (1/GPa) = 0.03094252
#
# Stress axis : x y z
#
# Youngs Moduli (GPa) = 62.28849 56.12397 163.96191
#
# Poissons Ratio (x) = 0.04863 0.55727
# Poissons Ratio (y) = 0.05397 0.04081
# Poissons Ratio (z) = 0.21171 0.01397
#
# Static dielectric constant tensor:
#      x y z
#    x 2.076330 0.000000 0.033050 
#    y 0.000000 1.903010 0.000000 
#    z 0.033050 0.000000 2.078760 
# 
# From -- ./inp_files/320233.got.cif
#   From: 2010.05.17/outbox.cif.g08.bks.cpg/sg12_161_cif.got.tgz:320233.got - 2010.06.03 13:09:07.
