data_PCOD9179283
_publ_section_title
;
Structure prediction by ZEFSAII (Michael W. Deem and Ramdas Pophale) SiO2 
 PCOD9179283
Probable space group: C 2/M
;
_chemical_formula_sum "Si O2"
_cell_formula_units_Z 56
_cell_length_a 8.567136
_cell_length_b 19.956128
_cell_length_c 25.109802
_cell_angle_alpha 90.000000
_cell_angle_beta 46.970937
_cell_angle_gamma 90.000000
_cell_volume 3138.175029
_symmetry_space_group_name_H-M "C 2/M"
_symmetry_group_IT_number 12
_symmetry_cell_setting 'monoclinic'
loop_
_space_group_symop_operation_xyz
x,y,z
-x,y,-z
-x,-y,-z
x,-y,z
1/2+x,1/2+y,z
1/2-x,1/2+y,-z
1/2-x,1/2-y,-z
1/2+x,1/2-y,z
loop_
_atom_site_type_symbol
_atom_site_label
_atom_site_fract_x
_atom_site_fract_y
_atom_site_fract_z
Si Si1 0.068842 0.076818 0.870503
Si Si2 0.149129 0.175376 0.582134
Si Si3 0.522339 0.175377 0.582133
Si Si4 0.402540 0.922867 0.704660
Si Si5 0.810723 0.825688 0.999999
Si Si6 0.550855 0.923182 0.129496
Si Si7 0.278822 0.577134 0.704661
O O1 0.186606 0.093180 0.787673
O O2 0.256830 0.076162 0.871586
O O3 0.900377 0.131332 0.929439
O O4 0.986187 0.000000 0.887620
O O5 0.333310 0.177235 0.583346
O O6 0.262970 0.155146 0.500000
O O7 0.059845 0.250000 0.595078
O O8 0.966452 0.125758 0.643950
O O9 0.457753 0.125759 0.643950
O O10 0.593720 0.919250 0.703141
O O11 0.386325 0.000000 0.690365
O O12 0.750000 0.750000 0.000000
O O13 0.618140 0.868669 0.070557
O O14 0.000000 0.823827 0.000000
O O15 0.337299 0.906818 0.212325
O O16 0.536663 0.000000 0.112380
O O17 0.352213 0.500000 0.690369
#
# Coordination Sequence:
#
# PCOD9179283 Si02
#       7
#     8   8   8   8   8   8   8
#     4   8  15  30  52  74  95 126 168 205 237 282
#     4  10  21  36  53  73  99 132 169 207 248 297
#     4  10  21  36  53  73  99 132 169 207 248 297
#     4   9  18  33  53  77 103 130 164 206 250 297
#     4  10  19  31  49  73 101 130 162 202 244 286
#     4   8  15  30  52  74  95 126 168 205 237 282
#     4   9  18  33  53  77 103 130 164 206 250 297
#
# _framework density 17.844766
#
# number of rings (size 3 to 8) (size 9 to 14) (size 15 to 20)
#    0.000    2.857    0.000    3.000    0.000    5.714 
#    0.000    7.143    0.000    3.429    0.000    0.000 
#    0.000    0.000    0.000    0.000    0.000    0.000 
#
# Total GULP energy -156116.222073 kJ/mol
# GULP energy per Si atom -5575.579360 kJ/mol
# Density = 1.780415 g / cm^3
# Si number density = 17.844766 Si / 1000 Ang^3
#
#
#
# Elastic Constant Matrix: (Units=GPa)
#
#
# Indices 1 2 3 4 5 6 
#
# 1 11.8412 30.7127 34.7035 0.0051 -4.0381 -0.0002
# 2 30.7127 153.0421 148.2456 0.0066 -8.0680 -0.0005
# 3 34.7035 148.2456 187.7409 0.0282 -8.0373 -0.0022
# 4 0.0051 0.0066 0.0282 105.8989 -0.0110 -5.1004
# 5 -4.0381 -8.0680 -8.0373 -0.0110 18.2557 0.0008
# 6 -0.0002 -0.0005 -0.0022 -5.1004 0.0008 31.4721
#
#
#
# Elastic Compliance Matrix: (Units=1/GPa)
#
#
# Indices 1 2 3 4 5 6 
#
# 1 0.208314 -0.017823 -0.023236 0.000000 0.027971 -0.000001
# 2 -0.017823 0.029444 -0.019943 0.000004 0.000290 0.000000
# 3 -0.023236 -0.019943 0.025248 -0.000005 -0.002838 0.000001
# 4 0.000000 0.000004 -0.000005 0.009517 0.000006 0.001542
# 5 0.027971 0.000290 -0.002838 0.000006 0.059844 -0.000001
# 6 -0.000001 0.000000 0.000001 0.001542 -0.000001 0.032024
#
#
# Mechanical properties :
#
#
# Convention : Reuss Voigt Hill
#
# Bulk Modulus (GPa) = 7.09206 86.66088 46.87647
# Shear Modulus (GPa) = 9.37394 40.38948 24.88171
#
# Velocity S-wave (km/s) = 2.29444 4.76266 3.73814
# Velocity P-wave (km/s) = 3.31696 8.88330 6.70505
#
# Compressibility (1/GPa) = 0.14100278
#
# Stress axis : x y z
#
# Youngs Moduli (GPa) = 4.80045 33.96267 39.60772
#
# Poissons Ratio (x) = 0.60531 0.92031
# Poissons Ratio (y) = 0.08556 0.78990
# Poissons Ratio (z) = 0.11154 0.67732
#
# Static dielectric constant tensor:
#      x y z
#    x 1.616340 0.000000 0.000020 
#    y 0.000000 1.575580 0.000000 
#    z 0.000020 0.000000 1.615990 
# 
# From -- ./inp_files/333331.got.cif
#   From: 2010.05.17/outbox.cif.g08.bks.cpg/sg12_167_cif.got.tgz:333331.got - 2010.06.03 13:09:07.
