data_PCOD9179742
_publ_section_title
;
Structure prediction by ZEFSAII (Michael W. Deem and Ramdas Pophale) SiO2 
 PCOD9179742
Probable space group: C 2/M
;
_chemical_formula_sum "Si O2"
_cell_formula_units_Z 56
_cell_length_a 15.938824
_cell_length_b 16.197369
_cell_length_c 12.472734
_cell_angle_alpha 90.000000
_cell_angle_beta 62.305289
_cell_angle_gamma 90.000000
_cell_volume 2851.148567
_symmetry_space_group_name_H-M "C 2/M"
_symmetry_group_IT_number 12
_symmetry_cell_setting 'monoclinic'
loop_
_space_group_symop_operation_xyz
x,y,z
-x,y,-z
-x,-y,-z
x,-y,z
1/2+x,1/2+y,z
1/2-x,1/2+y,-z
1/2-x,1/2-y,-z
1/2+x,1/2-y,z
loop_
_atom_site_type_symbol
_atom_site_label
_atom_site_fract_x
_atom_site_fract_y
_atom_site_fract_z
Si Si1 0.118262 0.906401 0.672995
Si Si2 0.449860 0.824036 0.802696
Si Si3 0.790380 0.901541 0.615767
Si Si4 0.220686 0.666143 0.935525
Si Si5 0.916628 0.841347 0.736224
Si Si6 0.856712 0.500000 0.099748
Si Si7 0.143640 0.263760 0.777235
Si Si8 0.006445 0.500000 0.190173
O O1 0.168671 0.896682 0.528290
O O2 0.149035 0.828225 0.726580
O O3 0.005866 0.894391 0.719061
O O4 0.136399 0.000000 0.702566
O O5 0.447834 0.754674 0.712791
O O6 0.533909 0.794164 0.834009
O O7 0.478153 0.916536 0.754283
O O8 0.347999 0.831255 0.922186
O O9 0.869960 0.873438 0.654917
O O10 0.706413 0.833098 0.677321
O O11 0.771455 0.000000 0.644167
O O12 0.333652 0.662529 0.875992
O O13 0.200168 0.582517 0.882929
O O14 0.184621 0.734820 0.873249
O O15 0.910802 0.500000 0.179106
O O16 0.923852 0.500000 0.954603
#
# Coordination Sequence:
#
# PCOD9179742 Si02
#       8
#     8   8   8   8   8   4   8   4
#     4  10  21  38  54  76 105 135 170 218 264 306
#     4  10  19  32  48  79 110 142 164 213 256 304
#     4  10  21  36  58  80 101 126 172 229 267 298
#     4  10  19  31  51  77 112 134 172 209 256 297
#     4  10  21  31  52  77 103 140 174 204 256 310
#     4   9  16  26  48  78  95 134 166 218 253 286
#     4  10  20  31  56  83 102 133 173 212 259 318
#     4   9  16  28  48  70 105 132 174 206 257 292
#
# _framework density 19.641207999999999
#
# number of rings (size 3 to 8) (size 9 to 14) (size 15 to 20)
#    0.000    2.143    1.429    2.143    6.000    1.143 
#    0.000    0.000    6.286    7.714    0.000    2.000 
#    0.000    0.000    0.000    0.000    0.000    0.000 
#
# Total GULP energy -155981.007576 kJ/mol
# GULP energy per Si atom -5570.750271 kJ/mol
# Density = 1.959650 g / cm^3
# Si number density = 19.641208 Si / 1000 Ang^3
#
#
#
# Elastic Constant Matrix: (Units=GPa)
#
#
# Indices 1 2 3 4 5 6 
#
# 1 38.8713 22.1709 10.5369 0.0000 -14.3602 0.0000
# 2 22.1709 171.7064 26.5393 0.0000 6.5245 0.0000
# 3 10.5369 26.5393 23.8062 0.0000 -5.9509 0.0000
# 4 0.0000 0.0000 0.0000 27.5590 0.0000 3.2559
# 5 -14.3602 6.5245 -5.9509 0.0000 21.1380 0.0000
# 6 0.0000 0.0000 0.0000 3.2559 0.0000 27.2073
#
#
#
# Elastic Compliance Matrix: (Units=1/GPa)
#
#
# Indices 1 2 3 4 5 6 
#
# 1 0.040479 -0.005550 -0.004763 0.000000 0.027872 0.000000
# 2 -0.005550 0.008262 -0.008965 0.000000 -0.008844 0.000000
# 3 -0.004763 -0.008965 0.058078 0.000000 0.015882 0.000000
# 4 0.000000 0.000000 0.000000 0.036806 0.000000 -0.004405
# 5 0.027872 -0.008844 0.015882 0.000000 0.073444 0.000000
# 6 0.000000 0.000000 0.000000 -0.004405 0.000000 0.037282
#
#
# Mechanical properties :
#
#
# Convention : Reuss Voigt Hill
#
# Bulk Modulus (GPa) = 14.64888 39.20869 26.92878
# Shear Modulus (GPa) = 15.83977 26.85665 21.34821
#
# Velocity S-wave (km/s) = 2.84290 3.70180 3.30041
# Velocity P-wave (km/s) = 4.27206 6.18683 5.31636
#
# Compressibility (1/GPa) = 0.06826461
#
# Stress axis : x y z
#
# Youngs Moduli (GPa) = 24.70424 121.03264 17.21812
#
# Poissons Ratio (x) = 0.67169 0.08200
# Poissons Ratio (y) = 0.13710 0.15437
# Poissons Ratio (z) = 0.11765 1.08509
#
# Static dielectric constant tensor:
#      x y z
#    x 1.720150 0.000000 -0.052080 
#    y 0.000000 1.737930 0.000000 
#    z -0.052080 0.000000 1.723230 
# 
# From -- ./inp_files/224698.got.cif
#   From: 2010.05.17/outbox.cif.g08.bks.cpg/sg12_113_cif.got.tgz:224698.got - 2010.06.03 13:09:07.
