data_PCOD9179003
_publ_section_title
;
Structure prediction by ZEFSAII (Michael W. Deem and Ramdas Pophale) SiO2 
 PCOD9179003
Probable space group: C 2/M
;
_chemical_formula_sum "Si O2"
_cell_formula_units_Z 56
_cell_length_a 30.633667
_cell_length_b 7.769721
_cell_length_c 20.065760
_cell_angle_alpha 90.000000
_cell_angle_beta 143.548313
_cell_angle_gamma 90.000000
_cell_volume 2837.607257
_symmetry_space_group_name_H-M "C 2/M"
_symmetry_group_IT_number 12
_symmetry_cell_setting 'monoclinic'
loop_
_space_group_symop_operation_xyz
x,y,z
-x,y,-z
-x,-y,-z
x,-y,z
1/2+x,1/2+y,z
1/2-x,1/2+y,-z
1/2-x,1/2-y,-z
1/2+x,1/2-y,z
loop_
_atom_site_type_symbol
_atom_site_label
_atom_site_fract_x
_atom_site_fract_y
_atom_site_fract_z
Si Si1 0.000230 0.291447 0.713352
Si Si2 0.526710 0.794613 0.462209
Si Si3 0.034960 0.298382 0.895796
Si Si4 0.873307 0.798709 0.737832
Si Si5 0.307663 0.293251 0.373137
Si Si6 0.333440 0.296785 0.548635
Si Si7 0.346176 0.702331 0.851171
O O1 0.998069 0.500000 0.707439
O O2 0.013378 0.228482 0.654301
O O3 0.919329 0.226864 0.634663
O O4 0.049831 0.242077 0.837593
O O5 0.500000 0.722200 0.500000
O O6 0.613287 0.764708 0.556315
O O7 0.514504 0.000000 0.449249
O O8 0.016540 0.500000 0.871074
O O9 0.960434 0.210308 0.829857
O O10 0.102047 0.274236 0.028021
O O11 0.830247 0.723420 0.620130
O O12 0.862107 0.720613 0.797143
O O13 0.853177 0.000000 0.716016
O O14 0.307789 0.500000 0.376028
O O15 0.295961 0.226125 0.435288
O O16 0.240299 0.231362 0.245793
O O17 0.318064 0.500000 0.533795
O O18 0.362396 0.500000 0.868486
#
# Coordination Sequence:
#
# PCOD9179003 Si02
#       7
#     8   8   8   8   8   8   8
#     4   8  15  28  47  72  97 121 151 188 231 276
#     4   9  17  32  56  81 101 121 147 183 231 290
#     4  10  19  31  48  69  95 127 164 203 236 271
#     4   9  18  32  48  67  92 125 166 206 240 275
#     4  10  20  33  49  71  99 127 156 193 238 286
#     4   8  15  29  47  66  91 123 157 194 236 280
#     4  11  22  33  46  65  94 132 168 202 238 277
#
# _framework density 19.734936000000001
#
# number of rings (size 3 to 8) (size 9 to 14) (size 15 to 20)
#    0.000    2.714    0.000    1.714    0.000    4.857 
#    0.000    0.000    0.000    0.857    0.000    0.000 
#    0.000    0.000    0.000    0.000    0.000    0.000 
#
# Total GULP energy -156060.051771 kJ/mol
# GULP energy per Si atom -5573.573278 kJ/mol
# Density = 1.969002 g / cm^3
# Si number density = 19.734936 Si / 1000 Ang^3
#
#
#
# Elastic Constant Matrix: (Units=GPa)
#
#
# Indices 1 2 3 4 5 6 
#
# 1 106.3219 2.7689 54.0345 0.0000 -34.5284 0.0000
# 2 2.7689 35.1508 -2.6846 0.0000 -10.7305 0.0000
# 3 54.0345 -2.6846 150.7637 0.0000 -27.3093 0.0000
# 4 0.0000 0.0000 0.0000 5.9755 0.0000 7.0628
# 5 -34.5284 -10.7305 -27.3093 0.0000 26.1178 0.0000
# 6 0.0000 0.0000 0.0000 7.0628 0.0000 13.6405
#
#
#
# Elastic Compliance Matrix: (Units=1/GPa)
#
#
# Indices 1 2 3 4 5 6 
#
# 1 0.018172 0.005844 -0.002001 0.000000 0.024333 0.000000
# 2 0.005844 0.036172 0.003258 0.000000 0.025994 0.000000
# 3 -0.002001 0.003258 0.008847 0.000000 0.007943 0.000000
# 4 0.000000 0.000000 0.000000 0.431305 0.000000 -0.223321
# 5 0.024333 0.025994 0.007943 0.000000 0.089442 0.000000
# 6 0.000000 0.000000 0.000000 -0.223321 0.000000 0.188942
#
#
# Mechanical properties :
#
#
# Convention : Reuss Voigt Hill
#
# Bulk Modulus (GPa) = 12.92109 44.49711 28.70910
# Shear Modulus (GPa) = 6.37366 25.02128 15.69747
#
# Velocity S-wave (km/s) = 1.79907 3.56458 2.82337
# Velocity P-wave (km/s) = 3.29804 6.28792 5.02071
#
# Compressibility (1/GPa) = 0.07739288
#
# Stress axis : x y z
#
# Youngs Moduli (GPa) = 55.02823 27.64534 113.03128
#
# Poissons Ratio (x) = -0.16155 0.22623
# Poissons Ratio (y) = -0.32157 -0.36828
# Poissons Ratio (z) = 0.11014 -0.09007
#
# Static dielectric constant tensor:
#      x y z
#    x 1.718360 0.000000 -0.055510 
#    y 0.000000 1.725790 0.000000 
#    z -0.055510 0.000000 1.737040 
# 
# From -- ./inp_files/281011.got.cif
#   From: 2010.05.17/outbox.cif.g08.bks.cpg/sg12_141_cif.got.tgz:281011.got - 2010.06.03 13:09:07.
