data_PCOD9179348
_publ_section_title
;
Structure prediction by ZEFSAII (Michael W. Deem and Ramdas Pophale) SiO2 
 PCOD9179348
Probable space group: C 2/M
;
_chemical_formula_sum "Si O2"
_cell_formula_units_Z 56
_cell_length_a 26.175375
_cell_length_b 15.170641
_cell_length_c 9.602783
_cell_angle_alpha 90.000000
_cell_angle_beta 51.499433
_cell_angle_gamma 90.000000
_cell_volume 2984.247990
_symmetry_space_group_name_H-M "C 2/M"
_symmetry_group_IT_number 12
_symmetry_cell_setting 'monoclinic'
loop_
_space_group_symop_operation_xyz
x,y,z
-x,y,-z
-x,-y,-z
x,-y,z
1/2+x,1/2+y,z
1/2-x,1/2+y,-z
1/2-x,1/2-y,-z
1/2+x,1/2-y,z
loop_
_atom_site_type_symbol
_atom_site_label
_atom_site_fract_x
_atom_site_fract_y
_atom_site_fract_z
Si Si1 0.512278 0.600025 0.815339
Si Si2 0.695075 0.400320 0.769744
Si Si3 0.431534 0.603879 0.694444
Si Si4 0.333652 0.903057 0.373461
Si Si5 0.292016 0.338645 0.935223
Si Si6 0.739846 0.596906 0.294814
Si Si7 0.635520 0.709691 0.627241
O O1 0.533648 0.500000 0.746174
O O2 0.449403 0.615848 0.826731
O O3 0.569977 0.666110 0.682706
O O4 0.500000 0.605945 0.000000
O O5 0.667627 0.500000 0.807046
O O6 0.766106 0.401401 0.575702
O O7 0.652917 0.332915 0.748593
O O8 0.705986 0.374832 0.911250
O O9 0.500000 0.621035 0.500000
O O10 0.414884 0.500000 0.699045
O O11 0.369044 0.662289 0.763386
O O12 0.308734 0.895307 0.256127
O O13 0.370203 0.814365 0.352270
O O14 0.364038 0.000000 0.342244
O O15 0.259026 0.398049 0.872334
O O16 0.250000 0.250000 0.000000
O O17 0.712897 0.500000 0.382851
O O18 0.694793 0.675261 0.430104
#
# Coordination Sequence:
#
# PCOD9179348 Si02
#       7
#     8   8   8   8   8   8   8
#     4  10  20  32  49  74 101 131 169 214 266 323
#     4  10  19  31  49  75 107 138 173 223 272 313
#     4  10  21  36  52  74 108 144 177 220 275 329
#     4   9  19  33  49  73 103 136 176 221 267 317
#     4  12  22  33  51  78 111 147 183 219 264 323
#     4  10  19  31  49  74 105 139 175 218 268 321
#     4  11  18  32  53  73 100 138 179 216 265 328
#
# _framework density 18.765196
#
# number of rings (size 3 to 8) (size 9 to 14) (size 15 to 20)
#    0.000    1.714    0.000    8.571    0.000    2.286 
#    0.000    0.000    0.000    0.429    0.000    3.000 
#    0.000    9.143    0.000    0.000    0.000    0.000 
#
# Total GULP energy -156247.889175 kJ/mol
# GULP energy per Si atom -5580.281756 kJ/mol
# Density = 1.872249 g / cm^3
# Si number density = 18.765196 Si / 1000 Ang^3
#
#
#
# Elastic Constant Matrix: (Units=GPa)
#
#
# Indices 1 2 3 4 5 6 
#
# 1 61.8576 40.1799 21.2394 0.0000 2.9057 0.0000
# 2 40.1799 136.3190 8.6858 0.0000 -10.4146 0.0000
# 3 21.2394 8.6858 55.3284 0.0000 16.9339 0.0000
# 4 0.0000 0.0000 0.0000 21.7786 0.0000 -1.6182
# 5 2.9057 -10.4146 16.9339 0.0000 35.7650 0.0000
# 6 0.0000 0.0000 0.0000 -1.6182 0.0000 25.6921
#
#
#
# Elastic Compliance Matrix: (Units=1/GPa)
#
#
# Indices 1 2 3 4 5 6 
#
# 1 0.022912 -0.006254 -0.007820 0.000000 0.000020 0.000000
# 2 -0.006254 0.009437 -0.000090 0.000000 0.003299 0.000000
# 3 -0.007820 -0.000090 0.024446 0.000000 -0.010966 0.000000
# 4 0.000000 0.000000 0.000000 0.046133 0.000000 0.002906
# 5 0.000020 0.003299 -0.010966 0.000000 0.034111 0.000000
# 6 0.000000 0.000000 0.000000 0.002906 0.000000 0.039106
#
#
# Mechanical properties :
#
#
# Convention : Reuss Voigt Hill
#
# Bulk Modulus (GPa) = 35.12807 43.74613 39.43710
# Shear Modulus (GPa) = 23.36865 28.87380 26.12122
#
# Velocity S-wave (km/s) = 3.53274 3.92687 3.73500
# Velocity P-wave (km/s) = 5.94985 6.62747 6.29778
#
# Compressibility (1/GPa) = 0.02846726
#
# Stress axis : x y z
#
# Youngs Moduli (GPa) = 43.64465 105.96856 40.90607
#
# Poissons Ratio (x) = 0.66268 0.31988
# Poissons Ratio (y) = 0.27294 0.00370
# Poissons Ratio (z) = 0.34130 0.00959
#
# Static dielectric constant tensor:
#      x y z
#    x 1.650180 0.000000 0.022110 
#    y 0.000000 1.686740 0.000000 
#    z 0.022110 0.000000 1.722860 
# 
# From -- ./inp_files/96767.got.cif
#   From: 2010.05.17/outbox.cif.g08.bks.cpg/sg12_49_cif.got.tgz:96767.got - 2010.06.03 13:09:07.
