data_PCOD9179328
_publ_section_title
;
Structure prediction by ZEFSAII (Michael W. Deem and Ramdas Pophale) SiO2 
 PCOD9179328
Probable space group: C 2/M
;
_chemical_formula_sum "Si O2"
_cell_formula_units_Z 64
_cell_length_a 14.276699
_cell_length_b 9.390946
_cell_length_c 24.241155
_cell_angle_alpha 90.000000
_cell_angle_beta 118.987085
_cell_angle_gamma 90.000000
_cell_volume 2842.915575
_symmetry_space_group_name_H-M "C 2/M"
_symmetry_group_IT_number 12
_symmetry_cell_setting 'monoclinic'
loop_
_space_group_symop_operation_xyz
x,y,z
-x,y,-z
-x,-y,-z
x,-y,z
1/2+x,1/2+y,z
1/2-x,1/2+y,-z
1/2-x,1/2-y,-z
1/2+x,1/2-y,z
loop_
_atom_site_type_symbol
_atom_site_label
_atom_site_fract_x
_atom_site_fract_y
_atom_site_fract_z
Si Si1 0.265039 0.661473 0.829812
Si Si2 0.473229 0.839099 0.191865
Si Si3 0.186697 0.339140 0.690039
Si Si4 0.663488 0.836497 0.050425
Si Si5 0.908657 0.836056 0.072761
Si Si6 0.206778 0.660426 0.436748
Si Si7 0.904031 0.161092 0.681766
Si Si8 0.424209 0.660379 0.429729
O O1 0.307400 0.500000 0.834217
O O2 0.151800 0.648561 0.829035
O O3 0.233194 0.721842 0.760665
O O4 0.334687 0.756956 0.890485
O O5 0.479218 0.744758 0.138565
O O6 0.525061 0.754504 0.257076
O O7 0.516384 0.000000 0.198077
O O8 0.147272 0.500000 0.690988
O O9 0.289141 0.350416 0.679411
O O10 0.098831 0.249825 0.631770
O O11 0.786521 0.838213 0.062300
O O12 0.629610 0.000000 0.045717
O O13 0.597785 0.750587 0.985773
O O14 0.939896 0.000000 0.073505
O O15 0.172038 0.500000 0.441575
O O16 0.250000 0.750000 0.500000
O O17 0.118355 0.752602 0.380165
O O18 0.307999 0.647595 0.424829
O O19 0.944724 0.000000 0.685367
O O20 0.500000 0.722165 0.500000
O O21 0.464545 0.500000 0.428923
#
# Coordination Sequence:
#
# PCOD9179328 Si02
#       8
#     8   8   8   8   8   8   8   8
#     4   9  18  32  49  72 100 128 162 203 245 289
#     4  10  19  31  49  74 102 129 162 205 247 289
#     4   9  19  35  53  72  96 130 167 199 236 287
#     4   9  16  26  43  69  98 128 162 200 245 292
#     4   9  16  27  44  67  97 131 164 200 244 291
#     4  10  20  35  54  75 100 129 162 200 242 289
#     4  10  20  35  53  72  98 132 167 200 239 290
#     4   9  19  35  53  74  99 127 160 199 243 288
#
# _framework density 22.5121
#
# number of rings (size 3 to 8) (size 9 to 14) (size 15 to 20)
#    0.000    2.625    0.000    1.875    0.000    6.250 
#    0.000    2.500    0.000    0.750    0.000    5.250 
#    0.000    0.000    0.000    0.000    0.000    0.000 
#
# Total GULP energy -178801.455052 kJ/mol
# GULP energy per Si atom -5587.545470 kJ/mol
# Density = 2.246086 g / cm^3
# Si number density = 22.512100 Si / 1000 Ang^3
#
#
#
# Elastic Constant Matrix: (Units=GPa)
#
#
# Indices 1 2 3 4 5 6 
#
# 1 48.7492 -2.1947 -3.7306 0.0000 1.0817 0.0000
# 2 -2.1947 203.3263 138.0123 0.0000 1.7879 0.0000
# 3 -3.7306 138.0123 243.5578 0.0000 -2.5104 0.0000
# 4 0.0000 0.0000 0.0000 36.1911 0.0000 -0.9171
# 5 1.0817 1.7879 -2.5104 0.0000 30.1251 0.0000
# 6 0.0000 0.0000 0.0000 -0.9171 0.0000 2.5631
#
#
#
# Elastic Compliance Matrix: (Units=1/GPa)
#
#
# Indices 1 2 3 4 5 6 
#
# 1 0.020553 0.000032 0.000290 0.000000 -0.000716 0.000000
# 2 0.000032 0.008014 -0.004550 0.000000 -0.000856 0.000000
# 3 0.000290 -0.004550 0.006697 0.000000 0.000818 0.000000
# 4 0.000000 0.000000 0.000000 0.027884 0.000000 0.009978
# 5 -0.000716 -0.000856 0.000818 0.000000 0.033340 0.000000
# 6 0.000000 0.000000 0.000000 0.009978 0.000000 0.393724
#
#
# Mechanical properties :
#
#
# Convention : Reuss Voigt Hill
#
# Bulk Modulus (GPa) = 37.30426 84.42302 60.86364
# Shear Modulus (GPa) = 9.85020 38.01228 23.93124
#
# Velocity S-wave (km/s) = 2.09404 4.11363 3.26396
# Velocity P-wave (km/s) = 4.73850 7.75533 6.42645
#
# Compressibility (1/GPa) = 0.02680659
#
# Stress axis : x y z
#
# Youngs Moduli (GPa) = 48.65564 124.77831 149.32733
#
# Poissons Ratio (x) = -0.00395 -0.04323
# Poissons Ratio (y) = -0.00154 0.67938
# Poissons Ratio (z) = -0.01409 0.56769
#
# Static dielectric constant tensor:
#      x y z
#    x 1.895280 0.000000 0.011020 
#    y 0.000000 1.817330 0.000000 
#    z 0.011020 0.000000 1.802630 
# 
# From -- ./inp_files/346256.got.cif
#   From: 2010.05.17/outbox.cif.g08.bks.cpg/sg12_174_cif.got.tgz:346256.got - 2010.06.03 13:09:07.
