data_PCOD9179579
_publ_section_title
;
Structure prediction by ZEFSAII (Michael W. Deem and Ramdas Pophale) SiO2 
 PCOD9179579
Probable space group: C 2/M
;
_chemical_formula_sum "Si O2"
_cell_formula_units_Z 40
_cell_length_a 28.293871
_cell_length_b 8.951476
_cell_length_c 20.072897
_cell_angle_alpha 90.000000
_cell_angle_beta 27.281129
_cell_angle_gamma 90.000000
_cell_volume 2330.240824
_symmetry_space_group_name_H-M "C 2/M"
_symmetry_group_IT_number 12
_symmetry_cell_setting 'monoclinic'
loop_
_space_group_symop_operation_xyz
x,y,z
-x,y,-z
-x,-y,-z
x,-y,z
1/2+x,1/2+y,z
1/2-x,1/2+y,-z
1/2-x,1/2-y,-z
1/2+x,1/2-y,z
loop_
_atom_site_type_symbol
_atom_site_label
_atom_site_fract_x
_atom_site_fract_y
_atom_site_fract_z
Si Si1 0.670887 0.321182 0.547991
Si Si2 0.749781 0.679105 0.829826
Si Si3 0.063776 0.321131 0.303862
Si Si4 0.433261 0.320020 0.842504
Si Si5 0.341071 0.678858 0.589630
O O1 0.678694 0.500000 0.542772
O O2 0.750000 0.250000 0.500000
O O3 0.551418 0.280739 0.711635
O O4 0.690445 0.278826 0.446315
O O5 0.749533 0.500000 0.819851
O O6 0.847762 0.715695 0.753889
O O7 0.764787 0.760521 0.741177
O O8 0.647329 0.719676 0.999128
O O9 0.053375 0.500000 0.314193
O O10 0.092753 0.258256 0.194796
O O11 0.954094 0.249314 0.459924
O O12 0.428616 0.500000 0.838270
O O13 0.349379 0.500000 0.582075
#
# Coordination Sequence:
#
# PCOD9179579 Si02
#       5
#     8   8   8   8   8
#     4   9  19  36  56  74  93 124 166 209 253 301
#     4  10  20  33  50  75 107 137 166 204 246 291
#     4  10  19  31  50  76 104 137 174 204 237 289
#     4   9  19  35  52  74 104 134 167 206 248 296
#     4  10  21  35  51  74 103 134 169 206 247 297
#
# _framework density 17.165607999999999
#
# number of rings (size 3 to 8) (size 9 to 14) (size 15 to 20)
#    0.000    2.400    0.000    3.600    0.000    8.800 
#    0.000    1.000    0.000    6.000    0.000    0.000 
#    0.000    0.000    0.000    0.000    0.000    0.000 
#
# Total GULP energy -111618.850416 kJ/mol
# GULP energy per Si atom -5580.942521 kJ/mol
# Density = 1.712654 g / cm^3
# Si number density = 17.165608 Si / 1000 Ang^3
#
#
#
# Elastic Constant Matrix: (Units=GPa)
#
#
# Indices 1 2 3 4 5 6 
#
# 1 121.3280 41.3510 66.0608 -0.0003 4.7865 0.0001
# 2 41.3510 28.4221 35.4949 0.0014 6.6744 -0.0009
# 3 66.0608 35.4949 112.7903 0.0011 32.1390 0.0000
# 4 -0.0003 0.0014 0.0011 30.2404 -0.0005 6.0286
# 5 4.7865 6.6744 32.1390 -0.0005 16.2472 0.0000
# 6 0.0001 -0.0009 0.0000 6.0286 0.0000 29.6216
#
#
#
# Elastic Compliance Matrix: (Units=1/GPa)
#
#
# Indices 1 2 3 4 5 6 
#
# 1 0.023415 -0.020662 -0.017566 0.000003 0.036337 -0.000001
# 2 -0.020662 0.082406 -0.013566 -0.000004 -0.000930 0.000003
# 3 -0.017566 -0.013566 0.046662 -0.000003 -0.081556 0.000000
# 4 0.000003 -0.000004 -0.000003 0.034467 0.000007 -0.007015
# 5 0.036337 -0.000930 -0.081556 0.000007 0.212553 -0.000001
# 6 -0.000001 0.000003 0.000000 -0.007015 -0.000001 0.035187
#
#
# Mechanical properties :
#
#
# Convention : Reuss Voigt Hill
#
# Bulk Modulus (GPa) = 20.45214 60.92820 40.69017
# Shear Modulus (GPa) = 9.01589 23.19741 16.10665
#
# Velocity S-wave (km/s) = 2.29428 3.68011 3.06651
# Velocity P-wave (km/s) = 4.35416 7.32318 6.02444
#
# Compressibility (1/GPa) = 0.04889464
#
# Stress axis : x y z
#
# Youngs Moduli (GPa) = 42.70777 12.13506 21.43060
#
# Poissons Ratio (x) = 0.25074 0.37644
# Poissons Ratio (y) = 0.88244 0.29073
# Poissons Ratio (z) = 0.75019 0.16463
#
# Static dielectric constant tensor:
#      x y z
#    x 1.553970 0.000000 0.007310 
#    y 0.000000 1.574870 0.000000 
#    z 0.007310 0.000000 1.585240 
# 
# From -- ./inp_files/151931.got.cif
#   From: 2010.05.17/outbox.cif.g08.bks.cpg/sg12_76_cif.got.tgz:151931.got - 2010.06.03 13:09:07.
