data_PCOD9179315
_publ_section_title
;
Structure prediction by ZEFSAII (Michael W. Deem and Ramdas Pophale) SiO2 
 PCOD9179315
Probable space group: C 2/M
;
_chemical_formula_sum "Si O2"
_cell_formula_units_Z 40
_cell_length_a 26.071891
_cell_length_b 8.912715
_cell_length_c 12.560396
_cell_angle_alpha 90.000000
_cell_angle_beta 122.438771
_cell_angle_gamma 90.000000
_cell_volume 2463.260801
_symmetry_space_group_name_H-M "C 2/M"
_symmetry_group_IT_number 12
_symmetry_cell_setting 'monoclinic'
loop_
_space_group_symop_operation_xyz
x,y,z
-x,y,-z
-x,-y,-z
x,-y,z
1/2+x,1/2+y,z
1/2-x,1/2+y,-z
1/2-x,1/2-y,-z
1/2+x,1/2-y,z
loop_
_atom_site_type_symbol
_atom_site_label
_atom_site_fract_x
_atom_site_fract_y
_atom_site_fract_z
Si Si1 0.214046 0.320735 0.614591
Si Si2 0.664811 0.822397 0.320331
Si Si3 0.466470 0.679560 0.853653
Si Si4 0.492031 0.818596 0.317272
Si Si5 0.097364 0.682078 0.602285
O O1 0.223574 0.500000 0.635657
O O2 0.278396 0.238587 0.684114
O O3 0.182874 0.295802 0.464240
O O4 0.164856 0.268064 0.646763
O O5 0.602091 0.741229 0.224821
O O6 0.657610 0.000000 0.298411
O O7 0.465437 0.500000 0.845331
O O8 0.500642 0.746088 0.789065
O O9 0.500000 0.723174 0.000000
O O10 0.432904 0.772436 0.319951
O O11 0.550018 0.776910 0.455756
O O12 0.492333 0.000000 0.307922
O O13 0.098440 0.500000 0.603492
#
# Coordination Sequence:
#
# PCOD9179315 Si02
#       5
#     8   8   8   8   8
#     4   9  16  29  49  74 104 131 153 192 248 298
#     4  10  19  31  49  73  98 129 167 202 240 290
#     4  11  23  36  49  68  99 135 168 206 248 287
#     4   9  16  30  51  74  98 127 165 200 237 294
#     4   8  14  27  50  76 102 128 154 194 247 297
#
# _framework density 16.238637000000001
#
# number of rings (size 3 to 8) (size 9 to 14) (size 15 to 20)
#    0.000    2.600    2.000    2.400    0.000    2.400 
#    0.000    3.000    0.000    1.200    0.000    0.000 
#    0.000    0.000    0.000    0.000    0.000    0.000 
#
# Total GULP energy -111467.467833 kJ/mol
# GULP energy per Si atom -5573.373392 kJ/mol
# Density = 1.620168 g / cm^3
# Si number density = 16.238637 Si / 1000 Ang^3
#
#
#
# Elastic Constant Matrix: (Units=GPa)
#
#
# Indices 1 2 3 4 5 6 
#
# 1 175.1993 41.2591 57.6534 0.0000 -14.0150 0.0000
# 2 41.2591 29.8551 37.5140 0.0000 -2.3773 0.0000
# 3 57.6534 37.5140 74.8191 0.0000 -13.7118 0.0000
# 4 0.0000 0.0000 0.0000 19.8213 0.0000 1.3990
# 5 -14.0150 -2.3773 -13.7118 0.0000 16.8800 0.0000
# 6 0.0000 0.0000 0.0000 1.3990 0.0000 24.0152
#
#
#
# Elastic Compliance Matrix: (Units=1/GPa)
#
#
# Indices 1 2 3 4 5 6 
#
# 1 0.008991 -0.012530 0.000469 0.000000 0.006081 0.000000
# 2 -0.012530 0.121223 -0.058632 0.000000 -0.040958 0.000000
# 3 0.000469 -0.058632 0.048124 0.000000 0.031224 0.000000
# 4 0.000000 0.000000 0.000000 0.050659 0.000000 -0.002951
# 5 0.006081 -0.040958 0.031224 0.000000 0.083886 0.000000
# 6 0.000000 0.000000 0.000000 -0.002951 0.000000 0.041812
#
#
# Mechanical properties :
#
#
# Convention : Reuss Voigt Hill
#
# Bulk Modulus (GPa) = 27.06192 61.41406 44.23799
# Shear Modulus (GPa) = 9.83482 21.70643 15.77062
#
# Velocity S-wave (km/s) = 2.46365 3.66008 3.11976
# Velocity P-wave (km/s) = 4.97937 7.46749 6.34655
#
# Compressibility (1/GPa) = 0.03695229
#
# Stress axis : x y z
#
# Youngs Moduli (GPa) = 111.22595 8.24928 20.77962
#
# Poissons Ratio (x) = 0.10336 -0.00975
# Poissons Ratio (y) = 1.39367 1.21834
# Poissons Ratio (z) = -0.05217 0.48367
#
# Static dielectric constant tensor:
#      x y z
#    x 1.571090 0.000000 -0.006050 
#    y 0.000000 1.541630 0.000000 
#    z -0.006050 0.000000 1.510940 
# 
# From -- ./inp_files/162360.got.cif
#   From: 2010.05.17/outbox.cif.g08.bks.cpg/sg12_82_cif.got.tgz:162360.got - 2010.06.03 13:09:07.
