data_PCOD9179126
_publ_section_title
;
Structure prediction by ZEFSAII (Michael W. Deem and Ramdas Pophale) SiO2 
 PCOD9179126
Probable space group: C 2/M
;
_chemical_formula_sum "Si O2"
_cell_formula_units_Z 56
_cell_length_a 27.586603
_cell_length_b 8.903594
_cell_length_c 13.942209
_cell_angle_alpha 90.000000
_cell_angle_beta 60.851049
_cell_angle_gamma 90.000000
_cell_volume 2990.795161
_symmetry_space_group_name_H-M "C 2/M"
_symmetry_group_IT_number 12
_symmetry_cell_setting 'monoclinic'
loop_
_space_group_symop_operation_xyz
x,y,z
-x,y,-z
-x,-y,-z
x,-y,z
1/2+x,1/2+y,z
1/2-x,1/2+y,-z
1/2-x,1/2-y,-z
1/2+x,1/2-y,z
loop_
_atom_site_type_symbol
_atom_site_label
_atom_site_fract_x
_atom_site_fract_y
_atom_site_fract_z
Si Si1 0.112634 0.179787 0.620545
Si Si2 0.189775 0.177496 0.953524
Si Si3 0.172536 0.320404 0.378582
Si Si4 0.719849 0.319556 0.621054
Si Si5 0.189086 0.822917 0.171437
Si Si6 0.413329 0.179629 0.037741
Si Si7 0.022032 0.679249 0.826259
O O1 0.136310 0.249515 0.499242
O O2 0.156266 0.225530 0.663861
O O3 0.052861 0.238736 0.710165
O O4 0.112950 0.000000 0.612333
O O5 0.168239 0.203700 0.083195
O O6 0.200419 0.000000 0.930875
O O7 0.247438 0.265114 0.890199
O O8 0.143518 0.233820 0.924720
O O9 0.168288 0.500000 0.387422
O O10 0.237752 0.277211 0.335243
O O11 0.158206 0.261293 0.287162
O O12 0.720683 0.500000 0.616643
O O13 0.750000 0.250000 0.500000
O O14 0.187911 0.000000 0.191069
O O15 0.443109 0.210893 0.110066
O O16 0.403787 0.000000 0.041781
O O17 0.458894 0.220901 0.912646
O O18 0.023886 0.500000 0.809397
#
# Coordination Sequence:
#
# PCOD9179126 Si02
#       7
#     8   8   8   8   8   8   8
#     4  10  19  31  48  73 105 139 173 211 256 307
#     4  10  21  36  55  78 105 135 173 217 260 307
#     4  10  19  32  50  73 103 138 174 213 255 306
#     4   8  16  28  41  63  95 129 165 200 239 289
#     4  10  21  36  53  77 106 138 174 212 258 310
#     4   9  19  36  56  77 104 137 174 215 260 307
#     4   9  19  35  53  77 106 138 175 212 255 310
#
# _framework density 18.724118000000001
#
# number of rings (size 3 to 8) (size 9 to 14) (size 15 to 20)
#    0.000    2.571    0.000    2.571    2.000    4.000 
#    0.000    1.429    0.000    0.857    0.000    6.000 
#    0.000    0.000    0.000    0.000    0.000    0.000 
#
# Total GULP energy -156079.147648 kJ/mol
# GULP energy per Si atom -5574.255273 kJ/mol
# Density = 1.868150 g / cm^3
# Si number density = 18.724118 Si / 1000 Ang^3
#
#
#
# Elastic Constant Matrix: (Units=GPa)
#
#
# Indices 1 2 3 4 5 6 
#
# 1 23.4870 5.6842 -7.1759 0.0000 0.0511 0.0000
# 2 5.6842 26.2464 26.6580 0.0000 3.9399 0.0000
# 3 -7.1759 26.6580 84.2227 0.0000 -0.8755 0.0000
# 4 0.0000 0.0000 0.0000 28.9105 0.0000 3.4223
# 5 0.0511 3.9399 -0.8755 0.0000 24.8835 0.0000
# 6 0.0000 0.0000 0.0000 3.4223 0.0000 16.9876
#
#
#
# Elastic Compliance Matrix: (Units=1/GPa)
#
#
# Indices 1 2 3 4 5 6 
#
# 1 0.052166 -0.024291 0.012176 0.000000 0.004167 0.000000
# 2 -0.024291 0.069811 -0.024289 0.000000 -0.011858 0.000000
# 3 0.012176 -0.024289 0.020646 0.000000 0.004547 0.000000
# 4 0.000000 0.000000 0.000000 0.035435 0.000000 -0.007139
# 5 0.004167 -0.011858 0.004547 0.000000 0.042216 0.000000
# 6 0.000000 0.000000 0.000000 -0.007139 0.000000 0.060304
#
#
# Mechanical properties :
#
#
# Convention : Reuss Voigt Hill
#
# Bulk Modulus (GPa) = 14.32323 20.47652 17.39988
# Shear Modulus (GPa) = 13.27463 21.40899 17.34181
#
# Velocity S-wave (km/s) = 2.66552 3.38508 3.04661
# Velocity P-wave (km/s) = 4.13999 5.12230 4.65712
#
# Compressibility (1/GPa) = 0.06981666
#
# Stress axis : x y z
#
# Youngs Moduli (GPa) = 19.16939 14.32432 48.43551
#
# Poissons Ratio (x) = 0.34795 -0.58977
# Poissons Ratio (y) = 0.46564 1.17647
# Poissons Ratio (z) = -0.23341 0.34793
#
# Static dielectric constant tensor:
#      x y z
#    x 1.659980 0.000000 0.011810 
#    y 0.000000 1.618560 0.000000 
#    z 0.011810 0.000000 1.665580 
# 
# From -- ./inp_files/243635.got.cif
#   From: 2010.05.17/outbox.cif.g08.bks.cpg/sg12_122_cif.got.tgz:243635.got - 2010.06.03 13:09:07.
