data_PCOD9179553
_publ_section_title
;
Structure prediction by ZEFSAII (Michael W. Deem and Ramdas Pophale) SiO2 
 PCOD9179553
Probable space group: C 2/M
;
_chemical_formula_sum "Si O2"
_cell_formula_units_Z 40
_cell_length_a 6.721797
_cell_length_b 27.258273
_cell_length_c 11.553926
_cell_angle_alpha 90.000000
_cell_angle_beta 121.144533
_cell_angle_gamma 90.000000
_cell_volume 1811.835464
_symmetry_space_group_name_H-M "C 2/M"
_symmetry_group_IT_number 12
_symmetry_cell_setting 'monoclinic'
loop_
_space_group_symop_operation_xyz
x,y,z
-x,y,-z
-x,-y,-z
x,-y,z
1/2+x,1/2+y,z
1/2-x,1/2+y,-z
1/2-x,1/2-y,-z
1/2+x,1/2-y,z
loop_
_atom_site_type_symbol
_atom_site_label
_atom_site_fract_x
_atom_site_fract_y
_atom_site_fract_z
Si Si1 0.000000 0.910050 0.500000
Si Si2 0.910720 0.339294 0.263147
Si Si3 0.559874 0.677227 0.674153
Si Si4 0.000000 0.268269 0.500000
Si Si5 0.995495 0.446910 0.637479
Si Si6 0.749818 0.192018 0.023321
O O1 0.050066 0.872448 0.409362
O O2 0.774261 0.941595 0.407726
O O3 0.173855 0.325712 0.296807
O O4 0.889702 0.307130 0.373485
O O5 0.893291 0.396862 0.284286
O O6 0.745242 0.328830 0.104327
O O7 0.443153 0.725398 0.581749
O O8 0.584044 0.680340 0.818779
O O9 0.089242 0.500000 0.704518
O O10 0.000000 0.446386 0.500000
O O11 0.500000 0.177250 0.000000
O O12 0.750000 0.250000 0.000000
#
# Coordination Sequence:
#
# PCOD9179553 Si02
#       6
#     4   8   8   4   8   8
#     4   9  19  36  57  80 105 140 175 229 272 316
#     4  10  19  31  50  75 108 141 175 220 264 316
#     4   9  19  31  49  76 108 138 177 214 259 327
#     4  11  16  28  48  74 108 136 176 207 266 314
#     4  10  20  36  57  82 106 136 181 230 273 315
#     4  10  19  34  48  72 109 144 175 211 260 320
#
# _framework density 22.077059999999999
#
# number of rings (size 3 to 8) (size 9 to 14) (size 15 to 20)
#    0.000    2.200    3.000    0.900    0.000    0.000 
#    3.600    0.000    0.000   16.200    0.000    2.800 
#    0.000    0.000    0.000    0.000    0.000    0.000 
#
# Total GULP energy -111579.689671 kJ/mol
# GULP energy per Si atom -5578.984484 kJ/mol
# Density = 2.202681 g / cm^3
# Si number density = 22.077060 Si / 1000 Ang^3
#
#
#
# Elastic Constant Matrix: (Units=GPa)
#
#
# Indices 1 2 3 4 5 6 
#
# 1 70.0906 20.4954 43.1763 0.0000 -24.2402 0.0000
# 2 20.4954 199.2672 88.3021 0.0000 -18.8974 0.0000
# 3 43.1763 88.3021 215.0323 0.0000 -22.9051 0.0000
# 4 0.0000 0.0000 0.0000 18.3545 0.0000 11.2618
# 5 -24.2402 -18.8974 -22.9051 0.0000 41.8731 0.0000
# 6 0.0000 0.0000 0.0000 11.2618 0.0000 9.4681
#
#
#
# Elastic Compliance Matrix: (Units=1/GPa)
#
#
# Indices 1 2 3 4 5 6 
#
# 1 0.019374 0.000237 -0.002953 0.000000 0.009707 0.000000
# 2 0.000237 0.006225 -0.002432 0.000000 0.001616 0.000000
# 3 -0.002953 -0.002432 0.006311 0.000000 0.000645 0.000000
# 4 0.000000 0.000000 0.000000 0.201643 0.000000 -0.239843
# 5 0.009707 0.001616 0.000645 0.000000 0.030583 0.000000
# 6 0.000000 0.000000 0.000000 -0.239843 0.000000 0.390897
#
#
# Mechanical properties :
#
#
# Convention : Reuss Voigt Hill
#
# Bulk Modulus (GPa) = 46.26792 87.59308 66.93050
# Shear Modulus (GPa) = 7.43456 36.10023 21.76740
#
# Velocity S-wave (km/s) = 1.83708 4.04814 3.14343
# Velocity P-wave (km/s) = 5.05003 7.84934 6.59981
#
# Compressibility (1/GPa) = 0.02161325
#
# Stress axis : x y z
#
# Youngs Moduli (GPa) = 51.61441 160.64710 158.46166
#
# Poissons Ratio (x) = -0.03800 0.46799
# Poissons Ratio (y) = -0.01221 0.38531
# Poissons Ratio (z) = 0.15244 0.39062
#
# Static dielectric constant tensor:
#      x y z
#    x 2.118900 0.000000 0.024360 
#    y 0.000000 1.754910 0.000000 
#    z 0.024360 0.000000 1.807380 
# 
# From -- ./inp_files/122205.got.cif
#   From: 2010.05.17/outbox.cif.g08.bks.cpg/sg12_62_cif.got.tgz:122205.got - 2010.06.03 13:09:07.
