data_PCOD9179423
_publ_section_title
;
Structure prediction by ZEFSAII (Michael W. Deem and Ramdas Pophale) SiO2 
 PCOD9179423
Probable space group: C 2/M
;
_chemical_formula_sum "Si O2"
_cell_formula_units_Z 64
_cell_length_a 25.775735
_cell_length_b 9.027612
_cell_length_c 29.705206
_cell_angle_alpha 90.000000
_cell_angle_beta 24.923873
_cell_angle_gamma 90.000000
_cell_volume 2912.897282
_symmetry_space_group_name_H-M "C 2/M"
_symmetry_group_IT_number 12
_symmetry_cell_setting 'monoclinic'
loop_
_space_group_symop_operation_xyz
x,y,z
-x,y,-z
-x,-y,-z
x,-y,z
1/2+x,1/2+y,z
1/2-x,1/2+y,-z
1/2-x,1/2-y,-z
1/2+x,1/2-y,z
loop_
_atom_site_type_symbol
_atom_site_label
_atom_site_fract_x
_atom_site_fract_y
_atom_site_fract_z
Si Si1 0.758351 0.821133 0.944022
Si Si2 0.793284 0.330411 0.350165
Si Si3 0.609195 0.835237 0.440590
Si Si4 0.588869 0.332778 0.590460
Si Si5 0.681141 0.822307 0.827521
Si Si6 0.427785 0.822214 0.986961
Si Si7 0.413861 0.163874 0.670391
Si Si8 0.484465 0.823327 0.269326
O O1 0.650878 0.770658 0.993937
O O2 0.889407 0.763334 0.823295
O O3 0.755139 0.000000 0.949310
O O4 0.750000 0.750000 0.000000
O O5 0.811666 0.500000 0.321767
O O6 0.734136 0.244076 0.355295
O O7 0.693900 0.329797 0.469487
O O8 0.918202 0.275954 0.275020
O O9 0.500000 0.751709 0.500000
O O10 0.536605 0.854730 0.544558
O O11 0.628829 0.000000 0.405445
O O12 0.584002 0.500000 0.611916
O O13 0.458248 0.286045 0.670928
O O14 0.603044 0.217986 0.619912
O O15 0.640271 0.795125 0.911763
O O16 0.804830 0.728542 0.725734
O O17 0.700721 0.000000 0.806825
O O18 0.568351 0.772842 0.884565
O O19 0.435070 0.000000 0.977163
O O20 0.382148 0.000000 0.713802
O O21 0.502818 0.000000 0.253219
#
# Coordination Sequence:
#
# PCOD9179423 Si02
#       8
#     8   8   8   8   8   8   8   8
#     4  11  23  41  60  80 110 152 196 238 281 335
#     4   9  20  36  55  82 114 144 181 228 273 328
#     4   9  19  36  54  72 104 146 182 220 268 321
#     4  10  19  33  55  83 115 149 184 220 269 334
#     4   9  16  32  57  83 105 133 174 223 279 337
#     4   8  17  34  57  79 104 136 175 224 278 331
#     4  10  19  31  49  78 111 141 175 220 272 324
#     4  11  22  37  57  84 114 144 182 231 281 330
#
# _framework density 21.971252
#
# number of rings (size 3 to 8) (size 9 to 14) (size 15 to 20)
#    0.000    2.375    0.000    3.375    0.000    3.250 
#    2.250    3.125    0.000    0.000    0.000    0.000 
#    0.000    0.000    0.000    0.000    0.000    0.000 
#
# Total GULP energy -178446.424980 kJ/mol
# GULP energy per Si atom -5576.450781 kJ/mol
# Density = 2.192124 g / cm^3
# Si number density = 21.971252 Si / 1000 Ang^3
#
#
#
# Elastic Constant Matrix: (Units=GPa)
#
#
# Indices 1 2 3 4 5 6 
#
# 1 130.5412 26.8779 14.8627 -0.0043 -37.8910 0.0040
# 2 26.8779 52.7903 12.8768 -0.0161 -13.3814 0.0205
# 3 14.8627 12.8768 54.2442 -0.0014 -12.9294 0.0031
# 4 -0.0043 -0.0161 -0.0014 10.9475 0.0027 -3.6072
# 5 -37.8910 -13.3814 -12.9294 0.0027 40.7786 -0.0044
# 6 0.0040 0.0205 0.0031 -3.6072 -0.0044 29.1935
#
#
#
# Elastic Compliance Matrix: (Units=1/GPa)
#
#
# Indices 1 2 3 4 5 6 
#
# 1 0.010986 -0.003268 -0.000062 -0.000002 0.009117 0.000002
# 2 -0.003268 0.022288 -0.003652 0.000027 0.003120 -0.000011
# 3 -0.000062 -0.003652 0.020575 -0.000004 0.005268 0.000001
# 4 -0.000002 0.000027 -0.000004 0.095222 0.000000 0.011766
# 5 0.009117 0.003120 0.005268 0.000000 0.035688 0.000001
# 6 0.000002 -0.000011 0.000001 0.011766 0.000001 0.035708
#
#
# Mechanical properties :
#
#
# Convention : Reuss Voigt Hill
#
# Bulk Modulus (GPa) = 25.07100 38.53448 31.80274
# Shear Modulus (GPa) = 20.18367 28.38114 24.28240
#
# Velocity S-wave (km/s) = 3.03420 3.59798 3.32805
# Velocity P-wave (km/s) = 4.86936 5.90231 5.41054
#
# Compressibility (1/GPa) = 0.03988672
#
# Stress axis : x y z
#
# Youngs Moduli (GPa) = 91.02128 44.86677 48.60367
#
# Poissons Ratio (x) = 0.14661 0.00299
# Poissons Ratio (y) = 0.29744 0.17750
# Poissons Ratio (z) = 0.00560 0.16385
#
# Static dielectric constant tensor:
#      x y z
#    x 1.877760 0.000000 0.044880 
#    y 0.000000 1.774360 0.000000 
#    z 0.044880 0.000000 1.896020 
# 
# From -- ./inp_files/382371.got.cif
#   From: 2010.05.17/outbox.cif.g08.bks.cpg/sg12_192_cif.got.tgz:382371.got - 2010.06.03 13:09:07.
