data_PCOD9179571
_publ_section_title
;
Structure prediction by ZEFSAII (Michael W. Deem and Ramdas Pophale) SiO2 
 PCOD9179571
Probable space group: C 2/M
;
_chemical_formula_sum "Si O2"
_cell_formula_units_Z 64
_cell_length_a 31.398420
_cell_length_b 7.363254
_cell_length_c 23.146923
_cell_angle_alpha 90.000000
_cell_angle_beta 148.291724
_cell_angle_gamma 90.000000
_cell_volume 2812.688828
_symmetry_space_group_name_H-M "C 2/M"
_symmetry_group_IT_number 12
_symmetry_cell_setting 'monoclinic'
loop_
_space_group_symop_operation_xyz
x,y,z
-x,y,-z
-x,-y,-z
x,-y,z
1/2+x,1/2+y,z
1/2-x,1/2+y,-z
1/2-x,1/2-y,-z
1/2+x,1/2-y,z
loop_
_atom_site_type_symbol
_atom_site_label
_atom_site_fract_x
_atom_site_fract_y
_atom_site_fract_z
Si Si1 0.886185 0.279612 0.099066
Si Si2 0.257887 0.778301 0.757559
Si Si3 0.940046 0.211000 0.291100
Si Si4 0.122562 0.778116 0.512127
Si Si5 0.583410 0.779410 0.127973
Si Si6 0.334513 0.284813 0.565934
Si Si7 0.470786 0.206101 0.812358
Si Si8 0.772367 0.222037 0.146569
O O1 0.888783 0.500000 0.102552
O O2 0.918821 0.219736 0.198706
O O3 0.947408 0.213740 0.119634
O O4 0.795485 0.222384 0.978209
O O5 0.178958 0.722093 0.630149
O O6 0.338107 0.716078 0.816303
O O7 0.253447 0.722350 0.818984
O O8 0.259191 0.000000 0.759408
O O9 0.861951 0.287620 0.233754
O O10 0.029572 0.286063 0.406032
O O11 0.944874 0.000000 0.313666
O O12 0.161879 0.723151 0.496200
O O13 0.121694 0.000000 0.511293
O O14 0.572729 0.714973 0.181543
O O15 0.590972 0.000000 0.137556
O O16 0.500000 0.733428 0.000000
O O17 0.348827 0.500000 0.582149
O O18 0.250000 0.250000 0.500000
O O19 0.406574 0.202348 0.686573
O O20 0.493138 0.000000 0.855132
O O21 0.773527 0.000000 0.146747
#
# Coordination Sequence:
#
# PCOD9179571 Si02
#       8
#     8   8   8   8   8   8   8   8
#     4  10  19  32  50  76 106 132 168 213 256 304
#     4   9  16  28  45  69 101 131 163 209 261 303
#     4  10  19  33  51  74 103 134 170 209 258 309
#     4   9  18  31  48  71 102 134 166 208 254 307
#     4   9  16  27  46  72 102 134 168 210 260 309
#     4  11  21  34  51  74 103 134 171 208 251 304
#     4  10  19  31  50  76 103 133 170 209 256 307
#     4   9  18  30  48  74 102 132 168 215 261 304
#
# _framework density 22.754028999999999
#
# number of rings (size 3 to 8) (size 9 to 14) (size 15 to 20)
#    0.000    2.375    1.250    2.250    0.000    5.500 
#    0.000    2.500    0.000    0.375    0.000   13.125 
#    0.000    0.000    0.000    0.000    0.000    0.000 
#
# Total GULP energy -178823.044148 kJ/mol
# GULP energy per Si atom -5588.220130 kJ/mol
# Density = 2.270224 g / cm^3
# Si number density = 22.754029 Si / 1000 Ang^3
#
#
#
# Elastic Constant Matrix: (Units=GPa)
#
#
# Indices 1 2 3 4 5 6 
#
# 1 101.0624 -5.9951 32.7306 0.0000 19.8388 0.0000
# 2 -5.9951 82.6386 -7.7039 0.0001 4.5304 0.0000
# 3 32.7306 -7.7039 127.9023 0.0000 17.2192 0.0000
# 4 0.0000 0.0001 0.0000 22.5683 0.0000 3.7423
# 5 19.8388 4.5304 17.2192 0.0000 44.7137 0.0000
# 6 0.0000 0.0000 0.0000 3.7423 0.0000 9.4422
#
#
#
# Elastic Compliance Matrix: (Units=1/GPa)
#
#
# Indices 1 2 3 4 5 6 
#
# 1 0.011545 0.000858 -0.002322 0.000000 -0.004315 0.000000
# 2 0.000858 0.012342 0.000784 0.000000 -0.001933 0.000000
# 3 -0.002322 0.000784 0.008787 0.000000 -0.002433 0.000000
# 4 0.000000 0.000000 0.000000 0.047427 0.000000 -0.018797
# 5 -0.004315 -0.001933 -0.002433 0.000000 0.025412 0.000000
# 6 0.000000 0.000000 0.000000 -0.018797 0.000000 0.113358
#
#
# Mechanical properties :
#
#
# Convention : Reuss Voigt Hill
#
# Bulk Modulus (GPa) = 31.93412 38.85184 35.39298
# Shear Modulus (GPa) = 21.67609 34.84961 28.26285
#
# Velocity S-wave (km/s) = 3.08981 3.91779 3.52817
# Velocity P-wave (km/s) = 5.17631 6.13002 5.67324
#
# Compressibility (1/GPa) = 0.03131447
#
# Stress axis : x y z
#
# Youngs Moduli (GPa) = 86.61951 81.02298 113.79871
#
# Poissons Ratio (x) = -0.06949 0.26421
# Poissons Ratio (y) = -0.07429 -0.08924
# Poissons Ratio (z) = 0.20111 -0.06354
#
# Static dielectric constant tensor:
#      x y z
#    x 1.819500 0.000000 0.018120 
#    y 0.000000 1.917640 0.000000 
#    z 0.018120 0.000000 1.786300 
# 
# From -- ./inp_files/353527.got.cif
#   From: 2010.05.17/outbox.cif.g08.bks.cpg/sg12_177_cif.got.tgz:353527.got - 2010.06.03 13:09:07.
