data_PCOD9179359
_publ_section_title
;
Structure prediction by ZEFSAII (Michael W. Deem and Ramdas Pophale) SiO2 
 PCOD9179359
Probable space group: C 2/M
;
_chemical_formula_sum "Si O2"
_cell_formula_units_Z 40
_cell_length_a 18.305714
_cell_length_b 8.873448
_cell_length_c 11.631156
_cell_angle_alpha 90.000000
_cell_angle_beta 108.597179
_cell_angle_gamma 90.000000
_cell_volume 1790.652803
_symmetry_space_group_name_H-M "C 2/M"
_symmetry_group_IT_number 12
_symmetry_cell_setting 'monoclinic'
loop_
_space_group_symop_operation_xyz
x,y,z
-x,y,-z
-x,-y,-z
x,-y,z
1/2+x,1/2+y,z
1/2-x,1/2+y,-z
1/2-x,1/2-y,-z
1/2+x,1/2-y,z
loop_
_atom_site_type_symbol
_atom_site_label
_atom_site_fract_x
_atom_site_fract_y
_atom_site_fract_z
Si Si1 0.256684 0.678346 0.184607
Si Si2 0.630313 0.678326 0.952760
Si Si3 0.974476 0.329575 0.836166
Si Si4 0.557879 0.171248 0.436227
Si Si5 0.668784 0.676294 0.328670
O O1 0.241460 0.500000 0.179780
O O2 0.338276 0.700360 0.162255
O O3 0.240739 0.745143 0.302496
O O4 0.196603 0.758639 0.068458
O O5 0.619658 0.500000 0.964838
O O6 0.551493 0.767891 0.931032
O O7 0.952871 0.500000 0.860785
O O8 0.989926 0.338781 0.706517
O O9 0.902433 0.215766 0.794718
O O10 0.500000 0.241504 0.500000
O O11 0.635152 0.254452 0.430282
O O12 0.577460 0.000000 0.482659
O O13 0.680323 0.500000 0.344881
#
# Coordination Sequence:
#
# PCOD9179359 Si02
#       5
#     8   8   8   8   8
#     4  10  20  34  50  69  98 134 165 195 239 290
#     4  10  20  33  50  72  98 129 164 202 239 282
#     4   9  18  32  50  73  98 128 161 197 242 289
#     4   8  16  32  52  73  97 126 158 195 244 293
#     4  10  19  31  49  75 100 125 162 204 239 279
#
# _framework density 22.338221999999998
#
# number of rings (size 3 to 8) (size 9 to 14) (size 15 to 20)
#    1.200    1.400    0.000    3.000    0.000    3.600 
#    0.000    4.000    0.000    1.200    0.000    0.000 
#    0.000    0.000    0.000    0.000    0.000    0.000 
#
# Total GULP energy -111441.907255 kJ/mol
# GULP energy per Si atom -5572.095363 kJ/mol
# Density = 2.228738 g / cm^3
# Si number density = 22.338222 Si / 1000 Ang^3
#
#
#
# Elastic Constant Matrix: (Units=GPa)
#
#
# Indices 1 2 3 4 5 6 
#
# 1 83.1060 40.9922 28.7577 0.0000 -36.5353 0.0000
# 2 40.9922 101.3686 1.8250 0.0000 -24.0766 0.0000
# 3 28.7577 1.8250 55.2188 0.0000 -28.0627 0.0000
# 4 0.0000 0.0000 0.0000 14.8598 0.0000 -8.7188
# 5 -36.5353 -24.0766 -28.0627 0.0000 60.9557 0.0000
# 6 0.0000 0.0000 0.0000 -8.7188 0.0000 22.7692
#
#
#
# Elastic Compliance Matrix: (Units=1/GPa)
#
#
# Indices 1 2 3 4 5 6 
#
# 1 0.020677 -0.006715 -0.007305 0.000000 0.006378 0.000000
# 2 -0.006715 0.013313 0.004809 0.000000 0.003448 0.000000
# 3 -0.007305 0.004809 0.026755 0.000000 0.009839 0.000000
# 4 0.000000 0.000000 0.000000 0.086797 0.000000 0.033236
# 5 0.006378 0.003448 0.009839 0.000000 0.026119 0.000000
# 6 0.000000 0.000000 0.000000 0.033236 0.000000 0.056646
#
#
# Mechanical properties :
#
#
# Convention : Reuss Voigt Hill
#
# Bulk Modulus (GPa) = 23.62796 42.53813 33.08305
# Shear Modulus (GPa) = 19.02328 30.92484 24.97406
#
# Velocity S-wave (km/s) = 2.92139 3.72478 3.34727
# Velocity P-wave (km/s) = 4.68825 6.13047 5.45722
#
# Compressibility (1/GPa) = 0.04232274
#
# Stress axis : x y z
#
# Youngs Moduli (GPa) = 48.36374 75.11591 37.37556
#
# Poissons Ratio (x) = 0.50441 0.27304
# Poissons Ratio (y) = 0.32477 -0.17975
# Poissons Ratio (z) = 0.35331 -0.36125
#
# Static dielectric constant tensor:
#      x y z
#    x 1.851770 0.000000 -0.047060 
#    y 0.000000 1.758520 0.000000 
#    z -0.047060 0.000000 1.934270 
# 
# From -- ./inp_files/228909.got.cif
#   From: 2010.05.17/outbox.cif.g08.bks.cpg/sg12_115_cif.got.tgz:228909.got - 2010.06.03 13:09:07.
