data_PCOD9179427
_publ_section_title
;
Structure prediction by ZEFSAII (Michael W. Deem and Ramdas Pophale) SiO2 
 PCOD9179427
Probable space group: C 2/M
;
_chemical_formula_sum "Si O2"
_cell_formula_units_Z 64
_cell_length_a 25.410274
_cell_length_b 8.554337
_cell_length_c 32.242833
_cell_angle_alpha 90.000000
_cell_angle_beta 151.850800
_cell_angle_gamma 90.000000
_cell_volume 3306.423459
_symmetry_space_group_name_H-M "C 2/M"
_symmetry_group_IT_number 12
_symmetry_cell_setting 'monoclinic'
loop_
_space_group_symop_operation_xyz
x,y,z
-x,y,-z
-x,-y,-z
x,-y,z
1/2+x,1/2+y,z
1/2-x,1/2+y,-z
1/2-x,1/2-y,-z
1/2+x,1/2-y,z
loop_
_atom_site_type_symbol
_atom_site_label
_atom_site_fract_x
_atom_site_fract_y
_atom_site_fract_z
Si Si1 0.130406 0.325983 0.582207
Si Si2 0.264845 0.680407 0.269627
Si Si3 0.875194 0.687639 0.188855
Si Si4 0.326570 0.182809 0.484889
Si Si5 0.192365 0.312336 0.001647
Si Si6 0.434464 0.808583 0.818723
Si Si7 0.440615 0.312697 0.323538
Si Si8 0.396678 0.812287 0.698460
O O1 0.176792 0.500000 0.624508
O O2 0.178535 0.196419 0.645983
O O3 0.146736 0.296125 0.545341
O O4 0.000000 0.331746 0.500000
O O5 0.249341 0.500000 0.246833
O O6 0.142945 0.746747 0.196802
O O7 0.353528 0.748217 0.298395
O O8 0.871755 0.500000 0.188463
O O9 0.764464 0.750310 0.090027
O O10 0.894988 0.757234 0.247834
O O11 0.982683 0.732019 0.235612
O O12 0.432495 0.254856 0.581809
O O13 0.202299 0.253036 0.400169
O O14 0.321659 0.000000 0.491523
O O15 0.194941 0.500000 0.002753
O O16 0.250000 0.250000 0.000000
O O17 0.063088 0.262876 0.912795
O O18 0.391458 0.757124 0.743009
O O19 0.429941 0.000000 0.815406
O O20 0.443263 0.500000 0.327955
O O21 0.389636 0.000000 0.694439
#
# Coordination Sequence:
#
# PCOD9179427 Si02
#       8
#     8   8   8   8   8   8   8   8
#     4  10  19  31  49  78 116 151 189 234 287 340
#     4  10  20  35  58  84 114 152 197 240 286 339
#     4  11  24  43  63  85 116 156 196 242 297 352
#     4  11  22  35  55  86 121 158 195 239 293 345
#     4  11  21  38  65  94 122 151 190 241 296 353
#     4   9  18  35  59  90 121 148 184 240 297 343
#     4  11  24  40  59  84 114 159 206 241 282 345
#     4  10  20  37  60  86 117 152 193 240 291 346
#
# _framework density 19.356262999999998
#
# number of rings (size 3 to 8) (size 9 to 14) (size 15 to 20)
#    0.000    1.625    3.750    1.500    0.000    2.750 
#    0.000    1.875    0.000    3.750    0.000    0.000 
#    0.000    0.000    0.000    0.000    0.000    0.000 
#
# Total GULP energy -178505.344198 kJ/mol
# GULP energy per Si atom -5578.292006 kJ/mol
# Density = 1.931221 g / cm^3
# Si number density = 19.356263 Si / 1000 Ang^3
#
#
#
# Elastic Constant Matrix: (Units=GPa)
#
#
# Indices 1 2 3 4 5 6 
#
# 1 47.3024 15.4058 42.6944 0.0000 3.9534 -0.0002
# 2 15.4058 22.3950 27.7769 0.0000 -3.1777 -0.0012
# 3 42.6944 27.7769 157.3834 0.0000 9.1985 -0.0001
# 4 0.0000 0.0000 0.0000 29.5610 0.0000 -3.1511
# 5 3.9534 -3.1777 9.1985 0.0000 26.8766 0.0000
# 6 -0.0002 -0.0012 -0.0001 -3.1511 0.0000 17.3160
#
#
#
# Elastic Compliance Matrix: (Units=1/GPa)
#
#
# Indices 1 2 3 4 5 6 
#
# 1 0.031590 -0.015467 -0.005573 0.000000 -0.004568 -0.000001
# 2 -0.015467 0.067751 -0.008533 0.000001 0.013206 0.000005
# 3 -0.005573 -0.008533 0.009574 0.000000 -0.003466 -0.000001
# 4 0.000000 0.000001 0.000000 0.034498 0.000000 0.006278
# 5 -0.004568 0.013206 -0.003466 0.000000 0.040627 0.000001
# 6 -0.000001 0.000005 -0.000001 0.006278 0.000001 0.058892
#
#
# Mechanical properties :
#
#
# Convention : Reuss Voigt Hill
#
# Bulk Modulus (GPa) = 20.09313 44.31500 32.20406
# Shear Modulus (GPa) = 15.69030 24.16428 19.92729
#
# Velocity S-wave (km/s) = 2.85020 3.53710 3.21206
# Velocity P-wave (km/s) = 4.60812 6.29488 5.51635
#
# Compressibility (1/GPa) = 0.04976826
#
# Stress axis : x y z
#
# Youngs Moduli (GPa) = 31.65587 14.75990 104.44597
#
# Poissons Ratio (x) = 0.22830 0.58205
# Poissons Ratio (y) = 0.48963 0.89129
# Poissons Ratio (z) = 0.17641 0.12595
#
# Static dielectric constant tensor:
#      x y z
#    x 1.702860 0.000000 0.036840 
#    y 0.000000 1.694560 0.000000 
#    z 0.036840 0.000000 1.672590 
# 
# From -- ./inp_files/382436.got.cif
#   From: 2010.05.17/outbox.cif.g08.bks.cpg/sg12_192_cif.got.tgz:382436.got - 2010.06.03 13:09:07.
