data_PCOD9179122
_publ_section_title
;
Structure prediction by ZEFSAII (Michael W. Deem and Ramdas Pophale) SiO2 
 PCOD9179122
Probable space group: C 2/M
;
_chemical_formula_sum "Si O2"
_cell_formula_units_Z 64
_cell_length_a 32.584696
_cell_length_b 8.326856
_cell_length_c 24.074620
_cell_angle_alpha 90.000000
_cell_angle_beta 148.152482
_cell_angle_gamma 90.000000
_cell_volume 3446.741615
_symmetry_space_group_name_H-M "C 2/M"
_symmetry_group_IT_number 12
_symmetry_cell_setting 'monoclinic'
loop_
_space_group_symop_operation_xyz
x,y,z
-x,y,-z
-x,-y,-z
x,-y,z
1/2+x,1/2+y,z
1/2-x,1/2+y,-z
1/2-x,1/2-y,-z
1/2+x,1/2-y,z
loop_
_atom_site_type_symbol
_atom_site_label
_atom_site_fract_x
_atom_site_fract_y
_atom_site_fract_z
Si Si1 0.338424 0.307770 0.602681
Si Si2 0.755963 0.807886 0.917033
Si Si3 0.050185 0.806613 0.367105
Si Si4 0.767272 0.307943 0.805268
Si Si5 0.167761 0.808621 0.280734
Si Si6 0.873445 0.805432 0.145506
Si Si7 0.328478 0.189553 0.410498
Si Si8 0.917574 0.684978 0.919678
O O1 0.336501 0.500000 0.594754
O O2 0.250000 0.250000 0.500000
O O3 0.395285 0.243977 0.620515
O O4 0.363776 0.272283 0.694675
O O5 0.750000 0.739248 0.848360
O O6 0.683196 0.754944 0.871018
O O7 0.757355 0.000000 0.914852
O O8 0.832761 0.755843 0.040460
O O9 0.093171 0.763205 0.474041
O O10 0.961707 0.749704 0.257041
O O11 0.048110 0.000000 0.361228
O O12 0.769836 0.500000 0.803293
O O13 0.705965 0.249144 0.688053
O O14 0.853922 0.243739 0.888719
O O15 0.259669 0.779766 0.376614
O O16 0.127133 0.696578 0.189673
O O17 0.155604 0.000000 0.255174
O O18 0.873090 0.000000 0.146016
O O19 0.339145 0.000000 0.418391
O O20 0.932249 0.500000 0.953559
O O21 0.000000 0.764337 0.000000
#
# Coordination Sequence:
#
# PCOD9179122 Si02
#       8
#     8   8   8   8   8   8   8   8
#     4  10  19  31  48  73 104 139 178 216 255 305
#     4  10  20  37  61  85 108 137 178 224 272 324
#     4  10  20  34  54  79 110 146 183 221 269 327
#     4  10  20  35  57  80 106 144 182 219 268 324
#     4   9  18  31  47  70 101 138 178 216 258 306
#     4   9  20  38  58  82 111 143 175 218 274 329
#     4  10  19  33  52  77 109 142 180 224 265 313
#     4   9  19  34  50  72 103 138 177 218 259 307
#
# _framework density 18.568261
#
# number of rings (size 3 to 8) (size 9 to 14) (size 15 to 20)
#    0.000    2.375    1.250    1.125    0.000    3.750 
#    0.000    1.875    0.000    3.750    0.000    0.000 
#    0.000    0.000    0.000    0.000    0.000    0.000 
#
# Total GULP energy -178263.958536 kJ/mol
# GULP energy per Si atom -5570.748704 kJ/mol
# Density = 1.852600 g / cm^3
# Si number density = 18.568261 Si / 1000 Ang^3
#
#
#
# Elastic Constant Matrix: (Units=GPa)
#
#
# Indices 1 2 3 4 5 6 
#
# 1 109.1640 14.1953 65.9198 0.0000 -12.4776 0.0000
# 2 14.1953 10.5178 20.1438 0.0000 0.1391 0.0000
# 3 65.9198 20.1438 123.9881 0.0000 11.7126 0.0000
# 4 0.0000 0.0000 0.0000 21.3629 0.0000 -3.7162
# 5 -12.4776 0.1391 11.7126 0.0000 22.6404 0.0000
# 6 0.0000 0.0000 0.0000 -3.7162 0.0000 18.7144
#
#
#
# Elastic Compliance Matrix: (Units=1/GPa)
#
#
# Indices 1 2 3 4 5 6 
#
# 1 0.017442 -0.004799 -0.009888 0.000000 0.014758 0.000000
# 2 -0.004799 0.142153 -0.021250 0.000000 0.007475 0.000000
# 3 -0.009888 -0.021250 0.018165 0.000000 -0.014716 0.000000
# 4 0.000000 0.000000 0.000000 0.048485 0.000000 0.009628
# 5 0.014758 0.007475 -0.014716 0.000000 0.059869 0.000000
# 6 0.000000 0.000000 0.000000 0.009628 0.000000 0.055347
#
#
# Mechanical properties :
#
#
# Convention : Reuss Voigt Hill
#
# Bulk Modulus (GPa) = 9.44402 49.35419 29.39911
# Shear Modulus (GPa) = 11.14507 22.10427 16.62467
#
# Velocity S-wave (km/s) = 2.45260 3.45401 2.99545
# Velocity P-wave (km/s) = 3.62181 6.52261 5.27551
#
# Compressibility (1/GPa) = 0.10588708
#
# Stress axis : x y z
#
# Youngs Moduli (GPa) = 57.33216 7.03469 55.05160
#
# Poissons Ratio (x) = 0.03376 0.54434
# Poissons Ratio (y) = 0.27512 1.16983
# Poissons Ratio (z) = 0.56689 0.14949
#
# Static dielectric constant tensor:
#      x y z
#    x 1.642700 0.000000 0.012580 
#    y 0.000000 1.646580 0.000000 
#    z 0.012580 0.000000 1.671160 
# 
# From -- ./inp_files/353531.got.cif
#   From: 2010.05.17/outbox.cif.g08.bks.cpg/sg12_177_cif.got.tgz:353531.got - 2010.06.03 13:09:07.
