data_PCOD9179956
_publ_section_title
;
Structure prediction by ZEFSAII (Michael W. Deem and Ramdas Pophale) SiO2 
 PCOD9179956
Probable space group: C 2/M
;
_chemical_formula_sum "Si O2"
_cell_formula_units_Z 64
_cell_length_a 21.485989
_cell_length_b 9.101667
_cell_length_c 16.955162
_cell_angle_alpha 90.000000
_cell_angle_beta 87.001054
_cell_angle_gamma 90.000000
_cell_volume 3311.182055
_symmetry_space_group_name_H-M "C 2/M"
_symmetry_group_IT_number 12
_symmetry_cell_setting 'monoclinic'
loop_
_space_group_symop_operation_xyz
x,y,z
-x,y,-z
-x,-y,-z
x,-y,z
1/2+x,1/2+y,z
1/2-x,1/2+y,-z
1/2-x,1/2-y,-z
1/2+x,1/2-y,z
loop_
_atom_site_type_symbol
_atom_site_label
_atom_site_fract_x
_atom_site_fract_y
_atom_site_fract_z
Si Si1 0.390937 0.669558 0.267271
Si Si2 0.732935 0.330711 0.834009
Si Si3 0.838683 0.670422 0.028289
Si Si4 0.310693 0.826634 0.592454
Si Si5 0.462371 0.829986 0.129240
Si Si6 0.176063 0.326087 0.590188
Si Si7 0.587624 0.672249 0.106537
Si Si8 0.346162 0.327660 0.739761
O O1 0.409759 0.500000 0.276043
O O2 0.327929 0.670790 0.218362
O O3 0.440719 0.759635 0.213160
O O4 0.372805 0.745780 0.350291
O O5 0.752923 0.500000 0.841456
O O6 0.711585 0.261048 0.918220
O O7 0.784853 0.235186 0.787126
O O8 0.820669 0.500000 0.021618
O O9 0.902477 0.676372 0.076055
O O10 0.858947 0.743417 0.945231
O O11 0.244175 0.744046 0.600942
O O12 0.336085 0.806227 0.502252
O O13 0.353057 0.760429 0.658357
O O14 0.300279 0.000000 0.606070
O O15 0.520604 0.739930 0.092650
O O16 0.480331 0.000000 0.136657
O O17 0.177964 0.500000 0.607213
O O18 0.590350 0.500000 0.086733
O O19 0.600144 0.690137 0.198858
O O20 0.338310 0.500000 0.723725
#
# Coordination Sequence:
#
# PCOD9179956 Si02
#       8
#     8   8   8   8   8   8   8   8
#     4  10  19  32  54  83 112 141 177 221 269 319
#     4  10  20  34  54  80 109 142 179 219 268 322
#     4  10  21  37  58  82 107 137 177 225 275 322
#     4  10  20  33  51  79 111 145 180 217 263 317
#     4  10  21  37  58  82 107 138 179 226 274 319
#     4  10  19  31  52  81 113 143 176 218 265 316
#     4  11  24  39  55  78 106 142 185 224 271 323
#     4  11  23  37  54  76 109 148 182 221 267 322
#
# _framework density 19.328444999999999
#
# number of rings (size 3 to 8) (size 9 to 14) (size 15 to 20)
#    0.000    1.750    1.250    3.375    0.000    8.000 
#    0.000    0.000    0.000    0.750    0.000    5.250 
#    0.000    0.000    0.000    0.000    0.000    0.000 
#
# Total GULP energy -178871.976137 kJ/mol
# GULP energy per Si atom -5589.749254 kJ/mol
# Density = 1.928445 g / cm^3
# Si number density = 19.328445 Si / 1000 Ang^3
#
#
#
# Elastic Constant Matrix: (Units=GPa)
#
#
# Indices 1 2 3 4 5 6 
#
# 1 25.5712 4.6850 2.9453 0.0000 -1.4489 0.0000
# 2 4.6850 107.4321 55.9440 0.0000 7.5003 0.0000
# 3 2.9453 55.9440 108.4538 0.0000 -6.1773 0.0000
# 4 0.0000 0.0000 0.0000 34.5725 0.0000 -3.6988
# 5 -1.4489 7.5003 -6.1773 0.0000 16.9416 0.0000
# 6 0.0000 0.0000 0.0000 -3.6988 0.0000 18.4476
#
#
#
# Elastic Compliance Matrix: (Units=1/GPa)
#
#
# Indices 1 2 3 4 5 6 
#
# 1 0.039730 -0.002212 0.000318 0.000000 0.004493 0.000000
# 2 -0.002212 0.014072 -0.007725 0.000000 -0.009236 0.000000
# 3 0.000318 -0.007725 0.013677 0.000000 0.008434 0.000000
# 4 0.000000 0.000000 0.000000 0.029559 0.000000 0.005927
# 5 0.004493 -0.009236 0.008434 0.000000 0.066575 0.000000
# 6 0.000000 0.000000 0.000000 0.005927 0.000000 0.055396
#
#
# Mechanical properties :
#
#
# Convention : Reuss Voigt Hill
#
# Bulk Modulus (GPa) = 20.72912 40.95619 30.84265
# Shear Modulus (GPa) = 19.65983 25.85120 22.75551
#
# Velocity S-wave (km/s) = 3.19273 3.66111 3.43491
# Velocity P-wave (km/s) = 4.93349 6.25358 5.63234
#
# Compressibility (1/GPa) = 0.04824132
#
# Stress axis : x y z
#
# Youngs Moduli (GPa) = 25.17006 71.06289 73.11563
#
# Poissons Ratio (x) = 0.15718 -0.02324
# Poissons Ratio (y) = 0.05567 0.56480
# Poissons Ratio (z) = -0.00800 0.54895
#
# Static dielectric constant tensor:
#      x y z
#    x 1.663120 0.000000 0.030440 
#    y 0.000000 1.646730 0.000000 
#    z 0.030440 0.000000 1.692180 
# 
# From -- ./inp_files/238665.got.cif
#   From: 2010.05.17/outbox.cif.g08.bks.cpg/sg12_120_cif.got.tgz:238665.got - 2010.06.03 13:09:07.
