data_PCOD9179339
_publ_section_title
;
Structure prediction by ZEFSAII (Michael W. Deem and Ramdas Pophale) SiO2 
 PCOD9179339
Probable space group: C 2/M
;
_chemical_formula_sum "Si O2"
_cell_formula_units_Z 40
_cell_length_a 9.280414
_cell_length_b 30.730393
_cell_length_c 14.591265
_cell_angle_alpha 90.000000
_cell_angle_beta 156.892872
_cell_angle_gamma 90.000000
_cell_volume 1633.106299
_symmetry_space_group_name_H-M "C 2/M"
_symmetry_group_IT_number 12
_symmetry_cell_setting 'monoclinic'
loop_
_space_group_symop_operation_xyz
x,y,z
-x,y,-z
-x,-y,-z
x,-y,z
1/2+x,1/2+y,z
1/2-x,1/2+y,-z
1/2-x,1/2-y,-z
1/2+x,1/2-y,z
loop_
_atom_site_type_symbol
_atom_site_label
_atom_site_fract_x
_atom_site_fract_y
_atom_site_fract_z
Si Si1 0.367821 0.692455 0.658574
Si Si2 0.676733 0.599649 0.388803
Si Si3 0.873140 0.378458 0.164496
Si Si4 0.707166 0.951640 0.243753
Si Si5 0.088015 0.284200 0.295265
O O1 0.537866 0.644642 0.759189
O O2 0.176016 0.704944 0.451137
O O3 0.587108 0.736094 0.814908
O O4 0.000000 0.685727 0.500000
O O5 0.154586 0.612632 0.412536
O O6 0.411699 0.561003 0.268127
O O7 0.000000 0.591053 0.500000
O O8 0.941639 0.413211 0.124517
O O9 0.897864 0.327942 0.147812
O O10 0.500000 0.385380 0.000000
O O11 0.000000 0.953685 0.500000
O O12 0.543990 0.000000 0.143236
O O13 0.500000 0.280483 0.500000
#
# Coordination Sequence:
#
# PCOD9179339 Si02
#       5
#     8   8   8   8   8
#     4   8  14  24  44  68  89 117 160 198 230 275
#     4   9  17  32  54  74  96 129 168 206 244 294
#     4  10  19  31  49  74 103 131 163 208 254 291
#     4   9  18  33  53  75  98 130 172 209 243 294
#     4   9  15  26  46  67  89 125 167 196 228 286
#
# _framework density 24.493200000000002
#
# number of rings (size 3 to 8) (size 9 to 14) (size 15 to 20)
#    0.000    3.000    0.000    3.000    0.000    0.800 
#    0.000    1.000    0.000   60.000    0.000    0.000 
#    0.000    0.000    0.000    0.000    0.000    0.000 
#
# Total GULP energy -111450.407317 kJ/mol
# GULP energy per Si atom -5572.520366 kJ/mol
# Density = 2.443745 g / cm^3
# Si number density = 24.493200 Si / 1000 Ang^3
#
#
#
# Elastic Constant Matrix: (Units=GPa)
#
#
# Indices 1 2 3 4 5 6 
#
# 1 134.6959 71.2720 15.2080 0.0000 16.1576 0.0000
# 2 71.2720 246.0192 41.1970 0.0000 17.6555 0.0000
# 3 15.2080 41.1970 34.1939 0.0006 2.4722 0.0001
# 4 0.0000 0.0000 0.0006 99.9129 0.0002 7.0511
# 5 16.1576 17.6555 2.4722 0.0002 46.6629 0.0000
# 6 0.0000 0.0000 0.0001 7.0511 0.0000 32.3426
#
#
#
# Elastic Compliance Matrix: (Units=1/GPa)
#
#
# Indices 1 2 3 4 5 6 
#
# 1 0.009014 -0.002266 -0.001120 0.000000 -0.002205 0.000000
# 2 -0.002266 0.005785 -0.005883 0.000000 -0.001093 0.000000
# 3 -0.001120 -0.005883 0.036783 0.000000 0.000665 0.000000
# 4 0.000000 0.000000 0.000000 0.010165 0.000000 -0.002216
# 5 -0.002205 -0.001093 0.000665 0.000000 0.022572 0.000000
# 6 0.000000 0.000000 0.000000 -0.002216 0.000000 0.031402
#
#
# Mechanical properties :
#
#
# Convention : Reuss Voigt Hill
#
# Bulk Modulus (GPa) = 30.26228 74.47367 52.36798
# Shear Modulus (GPa) = 34.41837 54.93246 44.67541
#
# Velocity S-wave (km/s) = 3.75270 4.74092 4.27546
# Velocity P-wave (km/s) = 5.58204 7.77434 6.76755
#
# Compressibility (1/GPa) = 0.03304443
#
# Stress axis : x y z
#
# Youngs Moduli (GPa) = 110.94077 172.87491 27.18681
#
# Poissons Ratio (x) = 0.39166 0.03045
# Poissons Ratio (y) = 0.25134 0.15993
# Poissons Ratio (z) = 0.12426 1.01696
#
# Static dielectric constant tensor:
#      x y z
#    x 1.941860 0.000000 -0.117150 
#    y 0.000000 2.036820 0.000000 
#    z -0.117150 0.000000 2.127410 
# 
# From -- ./inp_files/260068.got.cif
#   From: 2010.05.17/outbox.cif.g08.bks.cpg/sg12_131_cif.got.tgz:260068.got - 2010.06.03 13:09:07.
