data_PCOD9179085
_publ_section_title
;
Structure prediction by ZEFSAII (Michael W. Deem and Ramdas Pophale) SiO2 
 PCOD9179085
Probable space group: C 2/M
;
_chemical_formula_sum "Si O2"
_cell_formula_units_Z 56
_cell_length_a 28.188710
_cell_length_b 8.755319
_cell_length_c 18.833698
_cell_angle_alpha 90.000000
_cell_angle_beta 131.922819
_cell_angle_gamma 90.000000
_cell_volume 3458.456196
_symmetry_space_group_name_H-M "C 2/M"
_symmetry_group_IT_number 12
_symmetry_cell_setting 'monoclinic'
loop_
_space_group_symop_operation_xyz
x,y,z
-x,y,-z
-x,-y,-z
x,-y,z
1/2+x,1/2+y,z
1/2-x,1/2+y,-z
1/2-x,1/2-y,-z
1/2+x,1/2-y,z
loop_
_atom_site_type_symbol
_atom_site_label
_atom_site_fract_x
_atom_site_fract_y
_atom_site_fract_z
Si Si1 0.071300 0.175288 0.604792
Si Si2 0.995543 0.684230 0.168077
Si Si3 0.571300 0.175288 0.037808
Si Si4 0.623418 0.318891 0.225353
Si Si5 0.376582 0.181109 0.478517
Si Si6 0.504457 0.684231 0.676992
Si Si7 0.750000 0.182528 0.420814
O O1 0.112478 0.277479 0.593282
O O2 0.000000 0.173952 0.500000
O O3 0.058512 0.225019 0.672748
O O4 0.094568 0.000000 0.626385
O O5 0.000272 0.500000 0.173901
O O6 0.062631 0.751339 0.207034
O O7 0.982349 0.749999 0.232349
O O8 0.941488 0.725018 0.055725
O O9 0.594568 0.000000 0.062752
O O10 0.500000 0.173953 0.000000
O O11 0.612479 0.277479 0.131674
O O12 0.625705 0.500000 0.237703
O O13 0.687131 0.242172 0.318290
O O14 0.437368 0.248663 0.581771
O O15 0.312869 0.257826 0.444029
O O16 0.374296 0.000000 0.486294
O O17 0.499729 0.500000 0.673359
O O18 0.750000 0.250000 0.500000
O O19 0.750001 0.000000 0.423754
#
# Coordination Sequence:
#
# PCOD9179085 Si02
#       7
#     8   8   8   8   8   8   8
#     4   8  16  31  48  67  93 125 158 193 235 281
#     4  10  19  31  48  71  99 128 159 195 238 283
#     4   8  16  31  48  67  93 125 158 193 235 281
#     4  11  21  33  49  70  96 126 162 198 235 280
#     4  11  21  33  49  70  96 126 162 198 235 280
#     4  10  19  31  48  71  99 128 159 195 238 283
#     4  12  24  38  52  68  95 128 163 198 234 276
#
# _framework density 16.192195999999999
#
# number of rings (size 3 to 8) (size 9 to 14) (size 15 to 20)
#    0.000    2.000    0.000    7.286    0.000    6.286 
#    0.000    0.000    0.000    0.000    0.000    1.000 
#    0.000    0.000    0.000    0.000    0.000    0.000 
#
# Total GULP energy -156215.221807 kJ/mol
# GULP energy per Si atom -5579.115065 kJ/mol
# Density = 1.615534 g / cm^3
# Si number density = 16.192196 Si / 1000 Ang^3
#
#
#
# Elastic Constant Matrix: (Units=GPa)
#
#
# Indices 1 2 3 4 5 6 
#
# 1 93.2278 54.2752 59.9564 0.0000 -22.4260 0.0000
# 2 54.2752 122.8347 56.6651 0.0000 -8.3156 0.0000
# 3 59.9564 56.6651 106.8834 0.0000 -25.0467 0.0000
# 4 0.0000 0.0000 0.0000 25.8921 0.0000 -5.3218
# 5 -22.4260 -8.3156 -25.0467 0.0000 28.9694 0.0000
# 6 0.0000 0.0000 0.0000 -5.3218 0.0000 24.3608
#
#
#
# Elastic Compliance Matrix: (Units=1/GPa)
#
#
# Indices 1 2 3 4 5 6 
#
# 1 0.019949 -0.005282 -0.006429 0.000000 0.008369 0.000000
# 2 -0.005282 0.012301 -0.004626 0.000000 -0.004558 0.000000
# 3 -0.006429 -0.004626 0.017479 0.000000 0.008807 0.000000
# 4 0.000000 0.000000 0.000000 0.040438 0.000000 0.008834
# 5 0.008369 -0.004558 0.008807 0.000000 0.047304 0.000000
# 6 0.000000 0.000000 0.000000 0.008834 0.000000 0.042979
#
#
# Mechanical properties :
#
#
# Convention : Reuss Voigt Hill
#
# Bulk Modulus (GPa) = 58.63920 73.85992 66.24956
# Shear Modulus (GPa) = 22.85093 25.98109 24.41601
#
# Velocity S-wave (km/s) = 3.76071 4.01002 3.88737
# Velocity P-wave (km/s) = 7.42633 8.19475 7.81998
#
# Compressibility (1/GPa) = 0.01705344
#
# Stress axis : x y z
#
# Youngs Moduli (GPa) = 50.12665 81.29652 57.21189
#
# Poissons Ratio (x) = 0.42944 0.36782
# Poissons Ratio (y) = 0.26479 0.26468
# Poissons Ratio (z) = 0.32227 0.37610
#
# Static dielectric constant tensor:
#      x y z
#    x 1.537000 0.000000 -0.031930 
#    y 0.000000 1.541480 0.000000 
#    z -0.031930 0.000000 1.546180 
# 
# From -- ./inp_files/291951.got.cif
#   From: 2010.05.17/outbox.cif.g08.bks.cpg/sg12_146_cif.got.tgz:291951.got - 2010.06.03 13:09:07.
