data_PCOD9179299
_publ_section_title
;
Structure prediction by ZEFSAII (Michael W. Deem and Ramdas Pophale) SiO2 
 PCOD9179299
Probable space group: C 2/M
;
_chemical_formula_sum "Si O2"
_cell_formula_units_Z 64
_cell_length_a 26.258604
_cell_length_b 7.974388
_cell_length_c 15.728899
_cell_angle_alpha 90.000000
_cell_angle_beta 70.189524
_cell_angle_gamma 90.000000
_cell_volume 3098.655646
_symmetry_space_group_name_H-M "C 2/M"
_symmetry_group_IT_number 12
_symmetry_cell_setting 'monoclinic'
loop_
_space_group_symop_operation_xyz
x,y,z
-x,y,-z
-x,-y,-z
x,-y,z
1/2+x,1/2+y,z
1/2-x,1/2+y,-z
1/2-x,1/2-y,-z
1/2+x,1/2-y,z
loop_
_atom_site_type_symbol
_atom_site_label
_atom_site_fract_x
_atom_site_fract_y
_atom_site_fract_z
Si Si1 0.188398 0.701955 0.516085
Si Si2 0.627324 0.198934 0.206401
Si Si3 0.950664 0.309637 0.974763
Si Si4 0.337140 0.310571 0.998732
Si Si5 0.815331 0.796850 0.192087
Si Si6 0.605797 0.799305 0.706975
Si Si7 0.485263 0.691136 0.782883
Si Si8 0.200036 0.704851 0.322252
O O1 0.184745 0.500000 0.519157
O O2 0.250000 0.750000 0.500000
O O3 0.147934 0.764250 0.611731
O O4 0.177056 0.759704 0.426171
O O5 0.655923 0.229207 0.098024
O O6 0.567801 0.281666 0.244820
O O7 0.665108 0.259751 0.261370
O O8 0.620072 0.000000 0.218602
O O9 0.898179 0.196376 0.001074
O O10 0.972872 0.315000 0.867109
O O11 0.982782 0.000000 0.815229
O O12 0.000000 0.240450 0.000000
O O13 0.317979 0.500000 0.995927
O O14 0.307589 0.235563 0.098476
O O15 0.868413 0.743814 0.215234
O O16 0.762388 0.742725 0.274602
O O17 0.816241 0.000000 0.186509
O O18 0.546458 0.726544 0.721245
O O19 0.601885 0.000000 0.704868
O O20 0.437327 0.000000 0.010809
O O21 0.200307 0.500000 0.321512
#
# Coordination Sequence:
#
# PCOD9179299 Si02
#       8
#     8   8   8   8   8   8   8   8
#     4  10  20  37  61  87 115 144 179 223 275 334
#     4  10  20  37  59  79 107 150 192 232 272 321
#     4  10  19  31  49  73 104 141 182 231 277 324
#     4  10  20  32  49  76 109 147 187 227 271 323
#     4  10  20  35  56  82 115 151 186 226 276 333
#     4  11  22  35  56  88 117 143 181 230 279 329
#     4  11  22  36  55  77 107 148 185 228 279 329
#     4   9  19  37  60  83 110 147 187 225 276 334
#
# _framework density 20.654115999999998
#
# number of rings (size 3 to 8) (size 9 to 14) (size 15 to 20)
#    0.000    1.875    1.250    4.875    0.000    5.000 
#    0.000    3.125    0.000    3.750    0.000    0.000 
#    0.000    0.000    0.000    0.000    0.000    0.000 
#
# Total GULP energy -178456.887677 kJ/mol
# GULP energy per Si atom -5576.777740 kJ/mol
# Density = 2.060711 g / cm^3
# Si number density = 20.654116 Si / 1000 Ang^3
#
#
#
# Elastic Constant Matrix: (Units=GPa)
#
#
# Indices 1 2 3 4 5 6 
#
# 1 62.6898 3.5923 38.1149 0.0000 8.8174 0.0000
# 2 3.5923 45.7220 3.6964 0.0000 0.7516 0.0000
# 3 38.1149 3.6964 104.5026 0.0000 3.8277 0.0000
# 4 0.0000 0.0000 0.0000 11.9921 0.0000 -3.6078
# 5 8.8174 0.7516 3.8277 0.0000 36.9934 0.0000
# 6 0.0000 0.0000 0.0000 -3.6078 0.0000 19.2131
#
#
#
# Elastic Compliance Matrix: (Units=1/GPa)
#
#
# Indices 1 2 3 4 5 6 
#
# 1 0.021189 -0.000985 -0.007538 0.000000 -0.004250 0.000000
# 2 -0.000985 0.021985 -0.000412 0.000000 -0.000169 0.000000
# 3 -0.007538 -0.000412 0.012313 0.000000 0.000531 0.000000
# 4 0.000000 0.000000 0.000000 0.088381 0.000000 0.016596
# 5 -0.004250 -0.000169 0.000531 0.000000 0.027993 0.000000
# 6 0.000000 0.000000 0.000000 0.016596 0.000000 0.055164
#
#
# Mechanical properties :
#
#
# Convention : Reuss Voigt Hill
#
# Bulk Modulus (GPa) = 26.58386 33.74683 30.16535
# Shear Modulus (GPa) = 19.42242 24.80711 22.11476
#
# Velocity S-wave (km/s) = 3.06986 3.46941 3.27573
# Velocity P-wave (km/s) = 5.04622 5.69417 5.37996
#
# Compressibility (1/GPa) = 0.03761681
#
# Stress axis : x y z
#
# Youngs Moduli (GPa) = 47.19520 45.48592 81.21233
#
# Poissons Ratio (x) = 0.04483 0.61214
# Poissons Ratio (y) = 0.04651 0.03346
# Poissons Ratio (z) = 0.35573 0.01874
#
# Static dielectric constant tensor:
#      x y z
#    x 1.963900 0.000000 0.034260 
#    y 0.000000 1.731470 0.000000 
#    z 0.034260 0.000000 1.792400 
# 
# From -- ./inp_files/243738.got.cif
#   From: 2010.05.17/outbox.cif.g08.bks.cpg/sg12_122_cif.got.tgz:243738.got - 2010.06.03 13:09:07.
