data_PCOD9179136
_publ_section_title
;
Structure prediction by ZEFSAII (Michael W. Deem and Ramdas Pophale) SiO2 
 PCOD9179136
Probable space group: C 2/M
;
_chemical_formula_sum "Si O2"
_cell_formula_units_Z 64
_cell_length_a 25.986105
_cell_length_b 8.867739
_cell_length_c 15.540232
_cell_angle_alpha 90.000000
_cell_angle_beta 109.982823
_cell_angle_gamma 90.000000
_cell_volume 3365.462628
_symmetry_space_group_name_H-M "C 2/M"
_symmetry_group_IT_number 12
_symmetry_cell_setting 'monoclinic'
loop_
_space_group_symop_operation_xyz
x,y,z
-x,y,-z
-x,-y,-z
x,-y,z
1/2+x,1/2+y,z
1/2-x,1/2+y,-z
1/2-x,1/2-y,-z
1/2+x,1/2-y,z
loop_
_atom_site_type_symbol
_atom_site_label
_atom_site_fract_x
_atom_site_fract_y
_atom_site_fract_z
Si Si1 0.736661 0.168791 0.740834
Si Si2 0.797820 0.670337 0.476728
Si Si3 0.354312 0.181027 0.788827
Si Si4 0.439318 0.180480 0.695314
Si Si5 0.062146 0.319036 0.009916
Si Si6 0.121659 0.181293 0.700970
Si Si7 0.549104 0.680195 0.824619
Si Si8 0.589872 0.322089 0.493150
O O1 0.722325 0.156944 0.632031
O O2 0.795399 0.249095 0.776165
O O3 0.683014 0.254194 0.745429
O O4 0.740340 0.000000 0.779656
O O5 0.811337 0.500000 0.515976
O O6 0.750000 0.750000 0.500000
O O7 0.849459 0.780029 0.504359
O O8 0.384025 0.227603 0.715981
O O9 0.348371 0.000000 0.781922
O O10 0.396495 0.218762 0.889578
O O11 0.490436 0.241608 0.778582
O O12 0.445082 0.242395 0.601262
O O13 0.440146 0.000000 0.694200
O O14 0.063748 0.500000 0.998501
O O15 0.075106 0.237527 0.928058
O O16 0.000000 0.278236 0.000000
O O17 0.085826 0.220966 0.763078
O O18 0.092015 0.230767 0.594213
O O19 0.125827 0.000000 0.696900
O O20 0.542460 0.500000 0.822214
O O21 0.578375 0.500000 0.485279
#
# Coordination Sequence:
#
# PCOD9179136 Si02
#       8
#     8   8   8   8   8   8   8   8
#     4  10  21  35  55  83 113 145 190 241 281 327
#     4  10  19  31  48  74 108 148 190 235 285 338
#     4  10  21  37  59  84 116 153 185 226 288 351
#     4  11  22  37  57  85 119 155 192 235 287 346
#     4  10  20  40  63  86 116 150 187 228 287 353
#     4   9  21  41  60  79 114 158 196 232 284 343
#     4  11  23  39  61  88 114 148 192 241 288 338
#     4  10  20  35  54  78 110 151 194 239 282 333
#
# _framework density 19.016701000000001
#
# number of rings (size 3 to 8) (size 9 to 14) (size 15 to 20)
#    0.000    1.875    1.250    2.625    0.000    7.250 
#    0.000    3.125    0.000    0.000    0.000    0.000 
#    0.000    0.000    0.000    0.000    0.000    0.000 
#
# Total GULP energy -178536.425483 kJ/mol
# GULP energy per Si atom -5579.263296 kJ/mol
# Density = 1.897342 g / cm^3
# Si number density = 19.016701 Si / 1000 Ang^3
#
#
#
# Elastic Constant Matrix: (Units=GPa)
#
#
# Indices 1 2 3 4 5 6 
#
# 1 53.1074 15.9402 35.4767 0.0000 -6.0209 0.0000
# 2 15.9402 36.0209 33.4774 0.0000 -4.3281 0.0000
# 3 35.4767 33.4774 107.4600 0.0000 -6.4252 0.0000
# 4 0.0000 0.0000 0.0000 31.8892 0.0000 2.8818
# 5 -6.0209 -4.3281 -6.4252 0.0000 34.4754 0.0000
# 6 0.0000 0.0000 0.0000 2.8818 0.0000 22.9638
#
#
#
# Elastic Compliance Matrix: (Units=1/GPa)
#
#
# Indices 1 2 3 4 5 6 
#
# 1 0.024932 -0.004531 -0.006667 0.000000 0.002543 0.000000
# 2 -0.004531 0.040143 -0.010877 0.000000 0.002221 0.000000
# 3 -0.006667 -0.010877 0.014910 0.000000 0.000249 0.000000
# 4 0.000000 0.000000 0.000000 0.031718 0.000000 -0.003980
# 5 0.002543 0.002221 0.000249 0.000000 0.029775 0.000000
# 6 0.000000 0.000000 0.000000 -0.003980 0.000000 0.044046
#
#
# Mechanical properties :
#
#
# Convention : Reuss Voigt Hill
#
# Bulk Modulus (GPa) = 27.90639 40.70853 34.30746
# Shear Modulus (GPa) = 20.69357 25.31195 23.00276
#
# Velocity S-wave (km/s) = 3.30233 3.65230 3.48172
# Velocity P-wave (km/s) = 5.40806 6.26410 5.85175
#
# Compressibility (1/GPa) = 0.03583409
#
# Stress axis : x y z
#
# Youngs Moduli (GPa) = 40.10914 24.91116 67.06703
#
# Poissons Ratio (x) = 0.11287 0.44717
# Poissons Ratio (y) = 0.18173 0.72950
# Poissons Ratio (z) = 0.26743 0.27096
#
# Static dielectric constant tensor:
#      x y z
#    x 1.586980 0.000000 0.004070 
#    y 0.000000 1.659040 0.000000 
#    z 0.004070 0.000000 1.681460 
# 
# From -- ./inp_files/244265.got.cif
#   From: 2010.05.17/outbox.cif.g08.bks.cpg/sg12_123_cif.got.tgz:244265.got - 2010.06.03 13:09:07.
