data_PCOD9179703
_publ_section_title
;
Structure prediction by ZEFSAII (Michael W. Deem and Ramdas Pophale) SiO2 
 PCOD9179703
Probable space group: C 2/M
;
_chemical_formula_sum "Si O2"
_cell_formula_units_Z 56
_cell_length_a 30.408807
_cell_length_b 9.951525
_cell_length_c 14.505969
_cell_angle_alpha 90.000000
_cell_angle_beta 42.417671
_cell_angle_gamma 90.000000
_cell_volume 2960.991119
_symmetry_space_group_name_H-M "C 2/M"
_symmetry_group_IT_number 12
_symmetry_cell_setting 'monoclinic'
loop_
_space_group_symop_operation_xyz
x,y,z
-x,y,-z
-x,-y,-z
x,-y,z
1/2+x,1/2+y,z
1/2-x,1/2+y,-z
1/2-x,1/2-y,-z
1/2+x,1/2-y,z
loop_
_atom_site_type_symbol
_atom_site_label
_atom_site_fract_x
_atom_site_fract_y
_atom_site_fract_z
Si Si1 0.930053 0.662761 0.572736
Si Si2 0.683557 0.838187 0.108847
Si Si3 0.754861 0.645773 0.306909
Si Si4 0.067354 0.847139 0.950710
Si Si5 0.115243 0.651783 0.019524
Si Si6 0.852630 0.654300 0.303701
Si Si7 0.357214 0.841603 0.512160
O O1 0.932649 0.500000 0.575450
O O2 0.866149 0.700644 0.731634
O O3 0.916235 0.698100 0.487640
O O4 0.000000 0.713680 0.500000
O O5 0.698398 0.000000 0.092435
O O6 0.750000 0.750000 0.000000
O O7 0.640488 0.819235 0.082806
O O8 0.723251 0.500000 0.342344
O O9 0.818968 0.650253 0.144340
O O10 0.779787 0.653967 0.374076
O O11 0.706588 0.763181 0.357614
O O12 0.068747 0.759788 0.042411
O O13 0.112748 0.766584 0.809948
O O14 0.088998 0.000000 0.935097
O O15 0.000000 0.850948 0.000000
O O16 0.087220 0.500000 0.060458
O O17 0.876629 0.500000 0.248731
O O18 0.863219 0.683242 0.394181
O O19 0.347179 0.000000 0.538899
#
# Coordination Sequence:
#
# PCOD9179703 Si02
#       7
#     8   8   8   8   8   8   8
#     4   9  19  35  53  77 109 142 181 227 268 311
#     4  10  20  35  58  85 111 143 184 230 277 323
#     4   9  17  30  47  71 104 133 163 210 261 310
#     4  10  21  35  51  74 102 131 167 214 267 320
#     4   9  19  34  52  76 104 138 179 217 260 317
#     4   9  19  33  49  73 102 133 169 206 251 314
#     4  10  19  31  51  76 100 133 175 212 252 307
#
# _framework density 18.912586999999998
#
# number of rings (size 3 to 8) (size 9 to 14) (size 15 to 20)
#    0.000    2.571    0.000    2.571    0.000    5.714 
#    0.000    2.857    0.000    1.714    0.000    0.000 
#    0.000    0.000    0.000    0.000    0.000    0.000 
#
# Total GULP energy -155922.662632 kJ/mol
# GULP energy per Si atom -5568.666523 kJ/mol
# Density = 1.886954 g / cm^3
# Si number density = 18.912587 Si / 1000 Ang^3
#
#
#
# Elastic Constant Matrix: (Units=GPa)
#
#
# Indices 1 2 3 4 5 6 
#
# 1 114.3917 40.4116 24.5432 0.0000 16.4721 0.0000
# 2 40.4116 66.3270 16.6071 -0.0001 3.8251 0.0000
# 3 24.5432 16.6071 28.0599 0.0000 8.4166 0.0000
# 4 0.0000 -0.0001 0.0000 17.2264 0.0000 -5.5670
# 5 16.4721 3.8251 8.4166 0.0000 28.6467 0.0000
# 6 0.0000 0.0000 0.0000 -5.5670 0.0000 34.1716
#
#
#
# Elastic Compliance Matrix: (Units=1/GPa)
#
#
# Indices 1 2 3 4 5 6 
#
# 1 0.012903 -0.006009 -0.006300 0.000000 -0.004766 0.000000
# 2 -0.006009 0.020514 -0.007786 0.000000 0.003004 0.000000
# 3 -0.006300 -0.007786 0.048645 0.000000 -0.009630 0.000000
# 4 0.000000 0.000000 0.000000 0.061277 0.000000 0.009983
# 5 -0.004766 0.003004 -0.009630 0.000000 0.040077 0.000000
# 6 0.000000 0.000000 0.000000 0.009983 0.000000 0.030890
#
#
# Mechanical properties :
#
#
# Convention : Reuss Voigt Hill
#
# Bulk Modulus (GPa) = 23.88229 41.32248 32.60239
# Shear Modulus (GPa) = 18.62523 24.49006 21.55765
#
# Velocity S-wave (km/s) = 3.14157 3.60239 3.37984
# Velocity P-wave (km/s) = 5.08079 6.26095 5.70149
#
# Compressibility (1/GPa) = 0.04187203
#
# Stress axis : x y z
#
# Youngs Moduli (GPa) = 77.50353 48.74630 20.55711
#
# Poissons Ratio (x) = 0.29292 0.12950
# Poissons Ratio (y) = 0.46573 0.16006
# Poissons Ratio (z) = 0.48824 0.37955
#
# Static dielectric constant tensor:
#      x y z
#    x 1.706900 0.000000 0.020950 
#    y 0.000000 1.664260 0.000000 
#    z 0.020950 0.000000 1.681320 
# 
# From -- ./inp_files/248892.got.cif
#   From: 2010.05.17/outbox.cif.g08.bks.cpg/sg12_125_cif.got.tgz:248892.got - 2010.06.03 13:09:07.
