data_PCOD9179377
_publ_section_title
;
Structure prediction by ZEFSAII (Michael W. Deem and Ramdas Pophale) SiO2 
 PCOD9179377
Probable space group: C 2/M
;
_chemical_formula_sum "Si O2"
_cell_formula_units_Z 48
_cell_length_a 16.794996
_cell_length_b 8.632469
_cell_length_c 15.060625
_cell_angle_alpha 90.000000
_cell_angle_beta 78.366297
_cell_angle_gamma 90.000000
_cell_volume 2138.667221
_symmetry_space_group_name_H-M "C 2/M"
_symmetry_group_IT_number 12
_symmetry_cell_setting 'monoclinic'
loop_
_space_group_symop_operation_xyz
x,y,z
-x,y,-z
-x,-y,-z
x,-y,z
1/2+x,1/2+y,z
1/2-x,1/2+y,-z
1/2-x,1/2-y,-z
1/2+x,1/2-y,z
loop_
_atom_site_type_symbol
_atom_site_label
_atom_site_fract_x
_atom_site_fract_y
_atom_site_fract_z
Si Si1 0.066640 0.184353 0.107515
Si Si2 0.379870 0.688747 0.715797
Si Si3 0.316524 0.313290 0.552040
Si Si4 0.683199 0.180904 0.948781
Si Si5 0.061039 0.811748 0.619472
Si Si6 0.879211 0.183309 0.209856
O O1 0.119853 0.235304 0.181522
O O2 0.972585 0.204815 0.154700
O O3 0.078685 0.000000 0.089651
O O4 0.098377 0.273901 0.015305
O O5 0.377098 0.500000 0.718287
O O6 0.318021 0.742753 0.653573
O O7 0.469174 0.735374 0.659704
O O8 0.310798 0.500000 0.554959
O O9 0.250000 0.250000 0.500000
O O10 0.400785 0.270903 0.483150
O O11 0.679375 0.241485 0.849089
O O12 0.695380 0.000000 0.942815
O O13 0.750000 0.250000 0.000000
O O14 0.117129 0.757756 0.689562
O O15 0.060395 0.000000 0.623950
O O16 0.863262 0.000000 0.214516
#
# Coordination Sequence:
#
# PCOD9179377 Si02
#       6
#     8   8   8   8   8   8
#     4   9  18  35  58  81 105 134 170 213 261 311
#     4   8  15  30  54  79 100 130 173 213 247 292
#     4  10  19  31  49  75 107 138 170 208 250 298
#     4  12  25  38  53  75 105 139 175 214 259 310
#     4   8  15  30  54  79 100 130 173 213 247 292
#     4   9  18  35  58  81 105 134 170 213 261 311
#
# _framework density 22.443884000000001
#
# number of rings (size 3 to 8) (size 9 to 14) (size 15 to 20)
#    0.000    2.667    0.000    4.500    0.000    6.000 
#    0.000    5.000    0.000    4.000    0.000    0.000 
#    0.000    0.000    0.000    0.000    0.000    0.000 
#
# Total GULP energy -133987.115602 kJ/mol
# GULP energy per Si atom -5582.796483 kJ/mol
# Density = 2.239280 g / cm^3
# Si number density = 22.443884 Si / 1000 Ang^3
#
#
#
# Elastic Constant Matrix: (Units=GPa)
#
#
# Indices 1 2 3 4 5 6 
#
# 1 49.5399 6.7056 15.9377 0.0000 24.7473 0.0000
# 2 6.7056 22.9122 25.2890 0.0000 12.0295 0.0000
# 3 15.9377 25.2890 143.5577 0.0000 39.0287 0.0000
# 4 0.0000 0.0000 0.0000 17.0272 0.0000 11.7822
# 5 24.7473 12.0295 39.0287 0.0000 44.7314 0.0000
# 6 0.0000 0.0000 0.0000 11.7822 0.0000 12.8864
#
#
#
# Elastic Compliance Matrix: (Units=1/GPa)
#
#
# Indices 1 2 3 4 5 6 
#
# 1 0.028154 -0.001297 0.001629 0.000000 -0.016648 0.000000
# 2 -0.001297 0.056625 -0.007716 0.000000 -0.007778 0.000000
# 3 0.001629 -0.007716 0.010259 0.000000 -0.007777 0.000000
# 4 0.000000 0.000000 0.000000 0.159885 0.000000 -0.146184
# 5 -0.016648 -0.007778 -0.007777 0.000000 0.040443 0.000000
# 6 0.000000 0.000000 0.000000 -0.146184 0.000000 0.211259
#
#
# Mechanical properties :
#
#
# Convention : Reuss Voigt Hill
#
# Bulk Modulus (GPa) = 12.45814 34.65271 23.55543
# Shear Modulus (GPa) = 9.12161 26.13418 17.62789
#
# Velocity S-wave (km/s) = 2.01817 3.41607 2.80558
# Velocity P-wave (km/s) = 3.31565 5.57069 4.58400
#
# Compressibility (1/GPa) = 0.08026881
#
# Stress axis : x y z
#
# Youngs Moduli (GPa) = 35.51921 17.66008 97.47952
#
# Poissons Ratio (x) = 0.02290 -0.15879
# Poissons Ratio (y) = 0.04606 0.75220
# Poissons Ratio (z) = -0.05786 0.13627
#
# Static dielectric constant tensor:
#      x y z
#    x 1.907590 0.000000 0.004870 
#    y 0.000000 1.759950 0.000000 
#    z 0.004870 0.000000 1.864590 
# 
# From -- ./inp_files/221643.got.cif
#   From: 2010.05.17/outbox.cif.g08.bks.cpg/sg12_111_cif.got.tgz:221643.got - 2010.06.03 13:09:07.
