data_PCOD9179422
_publ_section_title
;
Structure prediction by ZEFSAII (Michael W. Deem and Ramdas Pophale) SiO2 
 PCOD9179422
Probable space group: C 2/M
;
_chemical_formula_sum "Si O2"
_cell_formula_units_Z 48
_cell_length_a 28.141279
_cell_length_b 13.474897
_cell_length_c 21.404205
_cell_angle_alpha 90.000000
_cell_angle_beta 16.669802
_cell_angle_gamma 90.000000
_cell_volume 2328.261754
_symmetry_space_group_name_H-M "C 2/M"
_symmetry_group_IT_number 12
_symmetry_cell_setting 'monoclinic'
loop_
_space_group_symop_operation_xyz
x,y,z
-x,y,-z
-x,-y,-z
x,-y,z
1/2+x,1/2+y,z
1/2-x,1/2+y,-z
1/2-x,1/2-y,-z
1/2+x,1/2-y,z
loop_
_atom_site_type_symbol
_atom_site_label
_atom_site_fract_x
_atom_site_fract_y
_atom_site_fract_z
Si Si1 0.814053 0.881465 0.706782
Si Si2 0.150578 0.618505 0.166418
Si Si3 0.397238 0.882043 0.911886
Si Si4 0.842574 0.244403 0.549233
Si Si5 0.278837 0.382195 0.394561
Si Si6 0.487632 0.382299 0.252205
O O1 0.789313 0.821339 0.674463
O O2 0.000000 0.869212 0.500000
O O3 0.792040 0.000000 0.723195
O O4 0.687926 0.843570 0.918787
O O5 0.111914 0.500000 0.217084
O O6 0.188147 0.644479 0.046270
O O7 0.992058 0.683347 0.382981
O O8 0.316291 0.636429 0.996091
O O9 0.592051 0.864891 0.656460
O O10 0.376368 0.000000 0.943248
O O11 0.711138 0.315551 0.679866
O O12 0.910121 0.173138 0.409019
O O13 0.293269 0.500000 0.362946
O O14 0.402555 0.355153 0.294203
O O15 0.463133 0.500000 0.292067
#
# Coordination Sequence:
#
# PCOD9179422 Si02
#       6
#     8   8   8   8   8   8
#     4  10  20  33  51  79 113 144 173 212 264 318
#     4   9  18  33  56  82 107 136 174 221 265 310
#     4   8  15  31  52  74 104 139 171 207 258 314
#     4  11  19  31  52  80 109 139 176 216 262 314
#     4   9  19  35  55  77 105 140 176 218 264 311
#     4  10  19  31  49  78 110 138 173 217 265 313
#
# _framework density 20.616239
#
# number of rings (size 3 to 8) (size 9 to 14) (size 15 to 20)
#    0.000    2.500    0.000    4.000    0.000    4.000 
#    0.000    0.833    0.000    8.000    0.000   21.000 
#    0.000   30.667    0.000    0.000    0.000    0.000 
#
# Total GULP energy -134061.746123 kJ/mol
# GULP energy per Si atom -5585.906088 kJ/mol
# Density = 2.056932 g / cm^3
# Si number density = 20.616239 Si / 1000 Ang^3
#
#
#
# Elastic Constant Matrix: (Units=GPa)
#
#
# Indices 1 2 3 4 5 6 
#
# 1 141.8091 58.9910 55.5506 -0.0003 -19.9134 -0.0001
# 2 58.9910 110.3799 20.2663 0.0003 5.8601 -0.0002
# 3 55.5506 20.2663 28.1874 -0.0026 -7.4832 -0.0002
# 4 -0.0003 0.0003 -0.0026 14.7895 -0.0002 8.4438
# 5 -19.9134 5.8601 -7.4832 -0.0002 37.0049 0.0005
# 6 -0.0001 -0.0002 -0.0002 8.4438 0.0005 41.9951
#
#
#
# Elastic Compliance Matrix: (Units=1/GPa)
#
#
# Indices 1 2 3 4 5 6 
#
# 1 0.037149 -0.008344 -0.065047 -0.000012 0.008159 0.000002
# 2 -0.008344 0.012720 0.005888 0.000001 -0.005314 0.000000
# 3 -0.065047 0.005888 0.158398 0.000030 -0.003904 -0.000005
# 4 -0.000012 0.000001 0.000030 0.076384 0.000000 -0.015358
# 5 0.008159 -0.005314 -0.003904 0.000000 0.031466 0.000000
# 6 0.000002 0.000000 -0.000005 -0.015358 0.000000 0.026900
#
#
# Mechanical properties :
#
#
# Convention : Reuss Voigt Hill
#
# Bulk Modulus (GPa) = 13.64968 61.11024 37.37996
# Shear Modulus (GPa) = 9.95135 28.46245 19.20690
#
# Velocity S-wave (km/s) = 2.19942 3.71965 3.05559
# Velocity P-wave (km/s) = 3.61734 6.93930 5.53349
#
# Compressibility (1/GPa) = 0.07326177
#
# Stress axis : x y z
#
# Youngs Moduli (GPa) = 26.91863 78.61603 6.31320
#
# Poissons Ratio (x) = 0.65597 0.41065
# Poissons Ratio (y) = 0.22461 -0.03717
# Poissons Ratio (z) = 1.75097 -0.46288
#
# Static dielectric constant tensor:
#      x y z
#    x 1.719130 0.000000 -0.023140 
#    y 0.000000 1.796920 0.000000 
#    z -0.023140 0.000000 1.720900 
# 
# From -- ./inp_files/328206.got.cif
#   From: 2010.05.17/outbox.cif.g08.bks.cpg/sg12_165_cif.got.tgz:328206.got - 2010.06.03 13:09:07.
