data_PCOD9179487
_publ_section_title
;
Structure prediction by ZEFSAII (Michael W. Deem and Ramdas Pophale) SiO2 
 PCOD9179487
Probable space group: C 2/M
;
_chemical_formula_sum "Si O2"
_cell_formula_units_Z 56
_cell_length_a 19.923537
_cell_length_b 8.556771
_cell_length_c 23.857775
_cell_angle_alpha 90.000000
_cell_angle_beta 51.625896
_cell_angle_gamma 90.000000
_cell_volume 3188.658530
_symmetry_space_group_name_H-M "C 2/M"
_symmetry_group_IT_number 12
_symmetry_cell_setting 'monoclinic'
loop_
_space_group_symop_operation_xyz
x,y,z
-x,y,-z
-x,-y,-z
x,-y,z
1/2+x,1/2+y,z
1/2-x,1/2+y,-z
1/2-x,1/2-y,-z
1/2+x,1/2-y,z
loop_
_atom_site_type_symbol
_atom_site_label
_atom_site_fract_x
_atom_site_fract_y
_atom_site_fract_z
Si Si1 0.556476 0.190317 0.652818
Si Si2 0.633837 0.190151 0.221544
Si Si3 0.288714 0.812874 0.345297
Si Si4 0.290820 0.687465 0.218812
Si Si5 0.254809 0.312587 0.060122
Si Si6 0.902895 0.687566 0.062673
Si Si7 0.176920 0.687485 0.495824
O O1 0.461826 0.246977 0.716856
O O2 0.628505 0.239126 0.660761
O O3 0.589873 0.233578 0.573260
O O4 0.555273 0.000000 0.654878
O O5 0.702707 0.236302 0.233188
O O6 0.674510 0.237372 0.140839
O O7 0.631089 0.000000 0.223169
O O8 0.293832 0.748802 0.280163
O O9 0.203963 0.755109 0.422001
O O10 0.288748 0.000000 0.344658
O O11 0.294004 0.500000 0.216852
O O12 0.367206 0.751532 0.140448
O O13 0.256328 0.500000 0.058601
O O14 0.338810 0.252470 0.048749
O O15 0.250000 0.250000 0.000000
O O16 0.899133 0.500000 0.064299
O O17 0.000000 0.736500 0.000000
O O18 0.180428 0.500000 0.491429
O O19 0.250000 0.750000 0.500000
#
# Coordination Sequence:
#
# PCOD9179487 Si02
#       7
#     8   8   8   8   8   8   8
#     4   8  15  29  50  73  94 123 166 208 245 291
#     4   8  16  32  51  71  96 127 164 204 247 296
#     4  10  19  31  50  74 101 133 167 205 247 298
#     4  10  20  34  53  75 101 132 164 206 256 302
#     4  10  20  34  54  78 105 136 170 212 259 308
#     4  10  21  37  56  76 101 136 174 211 255 308
#     4   9  16  28  48  72  98 128 163 207 254 297
#
# _framework density 17.562245000000001
#
# number of rings (size 3 to 8) (size 9 to 14) (size 15 to 20)
#    0.000    2.714    0.000    3.857    0.000    2.286 
#    0.000    3.571    0.000   34.286    0.000    0.000 
#    0.000    0.000    0.000    0.000    0.000    0.000 
#
# Total GULP energy -156050.982693 kJ/mol
# GULP energy per Si atom -5573.249382 kJ/mol
# Density = 1.752227 g / cm^3
# Si number density = 17.562245 Si / 1000 Ang^3
#
#
#
# Elastic Constant Matrix: (Units=GPa)
#
#
# Indices 1 2 3 4 5 6 
#
# 1 73.6605 24.3989 107.2919 0.0000 -2.2553 0.0003
# 2 24.3989 44.5387 44.1202 0.0000 1.1717 0.0005
# 3 107.2919 44.1202 213.4881 0.0000 -1.1630 0.0000
# 4 0.0000 0.0000 0.0000 31.2849 0.0000 6.5136
# 5 -2.2553 1.1717 -1.1630 0.0000 36.3471 0.0000
# 6 0.0003 0.0005 0.0000 6.5136 0.0000 22.8606
#
#
#
# Elastic Compliance Matrix: (Units=1/GPa)
#
#
# Indices 1 2 3 4 5 6 
#
# 1 0.051245 -0.003319 -0.025055 0.000000 0.002485 -0.000001
# 2 -0.003319 0.028491 -0.004227 0.000000 -0.001260 -0.000001
# 3 -0.025055 -0.004227 0.018145 0.000000 -0.000838 0.000000
# 4 0.000000 0.000000 0.000000 0.033980 0.000000 -0.009682
# 5 0.002485 -0.001260 -0.000838 0.000000 0.027680 0.000000
# 6 -0.000001 -0.000001 0.000000 -0.009682 0.000000 0.046502
#
#
# Mechanical properties :
#
#
# Convention : Reuss Voigt Hill
#
# Bulk Modulus (GPa) = 30.59995 75.92326 53.26160
# Shear Modulus (GPa) = 17.72188 28.49028 23.10608
#
# Velocity S-wave (km/s) = 3.18006 4.03208 3.63115
# Velocity P-wave (km/s) = 5.56285 8.06236 6.92629
#
# Compressibility (1/GPa) = 0.03267980
#
# Stress axis : x y z
#
# Youngs Moduli (GPa) = 19.51410 35.09894 55.11260
#
# Poissons Ratio (x) = 0.11649 1.38082
# Poissons Ratio (y) = 0.06476 0.23296
# Poissons Ratio (z) = 0.48892 0.14836
#
# Static dielectric constant tensor:
#      x y z
#    x 1.576950 0.000000 -0.015080 
#    y 0.000000 1.598920 0.000000 
#    z -0.015080 0.000000 1.612430 
# 
# From -- ./inp_files/342034.got.cif
#   From: 2010.05.17/outbox.cif.g08.bks.cpg/sg12_172_cif.got.tgz:342034.got - 2010.06.03 13:09:07.
