data_PCOD9179280
_publ_section_title
;
Structure prediction by ZEFSAII (Michael W. Deem and Ramdas Pophale) SiO2 
 PCOD9179280
Probable space group: C 2/M
;
_chemical_formula_sum "Si O2"
_cell_formula_units_Z 56
_cell_length_a 29.887275
_cell_length_b 9.223351
_cell_length_c 19.247322
_cell_angle_alpha 90.000000
_cell_angle_beta 142.319813
_cell_angle_gamma 90.000000
_cell_volume 3243.147145
_symmetry_space_group_name_H-M "C 2/M"
_symmetry_group_IT_number 12
_symmetry_cell_setting 'monoclinic'
loop_
_space_group_symop_operation_xyz
x,y,z
-x,y,-z
-x,-y,-z
x,-y,z
1/2+x,1/2+y,z
1/2-x,1/2+y,-z
1/2-x,1/2-y,-z
1/2+x,1/2-y,z
loop_
_atom_site_type_symbol
_atom_site_label
_atom_site_fract_x
_atom_site_fract_y
_atom_site_fract_z
Si Si1 0.706595 0.174147 0.600471
Si Si2 0.262280 0.332837 0.223616
Si Si3 0.942552 0.830106 0.125030
Si Si4 0.726467 0.327518 0.041667
Si Si5 0.855840 0.674470 0.737728
Si Si6 0.080372 0.672447 0.335622
Si Si7 0.411097 0.164771 0.950054
O O1 0.698705 0.247988 0.666007
O O2 0.780762 0.240092 0.658822
O O3 0.639006 0.208504 0.466896
O O4 0.713417 0.000000 0.615113
O O5 0.286062 0.500000 0.246783
O O6 0.265952 0.247638 0.155785
O O7 0.176044 0.336031 0.139063
O O8 0.003498 0.752837 0.246126
O O9 0.956486 0.000000 0.139306
O O10 0.860539 0.806622 0.052584
O O11 0.945598 0.764407 0.051106
O O12 0.740612 0.500000 0.057184
O O13 0.750000 0.250000 0.000000
O O14 0.842609 0.500000 0.726088
O O15 0.886240 0.707878 0.699157
O O16 0.911402 0.708783 0.869588
O O17 0.068237 0.500000 0.322289
O O18 0.438972 0.000000 0.991879
#
# Coordination Sequence:
#
# PCOD9179280 Si02
#       7
#     8   8   8   8   8   8   8
#     4  10  19  31  49  73 100 133 173 215 251 287
#     4   9  17  31  52  76 101 132 165 200 245 295
#     4  10  21  34  49  72 101 130 163 202 248 299
#     4  10  20  35  57  84 107 127 156 198 247 301
#     4   9  18  32  49  70  95 131 177 217 252 293
#     4  10  21  34  48  68  99 138 175 209 250 297
#     4   8  15  29  48  67  93 129 166 204 247 293
#
# _framework density 17.267178000000001
#
# number of rings (size 3 to 8) (size 9 to 14) (size 15 to 20)
#    0.000    2.571    0.000    3.000    0.000    7.429 
#    0.000    2.857    0.000    0.857    0.000    6.000 
#    0.000    0.000    0.000    0.000    0.000    0.000 
#
# Total GULP energy -156235.214513 kJ/mol
# GULP energy per Si atom -5579.829090 kJ/mol
# Density = 1.722788 g / cm^3
# Si number density = 17.267178 Si / 1000 Ang^3
#
#
#
# Elastic Constant Matrix: (Units=GPa)
#
#
# Indices 1 2 3 4 5 6 
#
# 1 71.7311 54.3226 47.8609 0.0000 -29.1492 0.0000
# 2 54.3226 86.4330 72.7817 0.0000 -11.2528 0.0000
# 3 47.8609 72.7817 125.0969 0.0000 -16.4916 0.0000
# 4 0.0000 0.0000 0.0000 32.1044 0.0000 -1.3679
# 5 -29.1492 -11.2528 -16.4916 0.0000 24.4505 0.0000
# 6 0.0000 0.0000 0.0000 -1.3679 0.0000 23.0249
#
#
#
# Elastic Compliance Matrix: (Units=1/GPa)
#
#
# Indices 1 2 3 4 5 6 
#
# 1 0.062347 -0.035136 0.004671 0.000000 0.061308 0.000000
# 2 -0.035136 0.042547 -0.015643 0.000000 -0.032858 0.000000
# 3 0.004671 -0.015643 0.016566 0.000000 0.009543 0.000000
# 4 0.000000 0.000000 0.000000 0.031227 0.000000 0.001855
# 5 0.061308 -0.032858 0.009543 0.000000 0.105303 0.000000
# 6 0.000000 0.000000 0.000000 0.001855 0.000000 0.043541
#
#
# Mechanical properties :
#
#
# Convention : Reuss Voigt Hill
#
# Bulk Modulus (GPa) = 34.19520 70.35459 52.27489
# Shear Modulus (GPa) = 12.39173 23.13569 17.76371
#
# Velocity S-wave (km/s) = 2.68180 3.66439 3.21090
# Velocity P-wave (km/s) = 5.42549 7.66399 6.63976
#
# Compressibility (1/GPa) = 0.02924387
#
# Stress axis : x y z
#
# Youngs Moduli (GPa) = 16.03930 23.50344 60.36590
#
# Poissons Ratio (x) = 0.82583 -0.28199
# Poissons Ratio (y) = 0.56356 0.94429
# Poissons Ratio (z) = -0.07493 0.36766
#
# Static dielectric constant tensor:
#      x y z
#    x 1.580260 0.000000 0.001720 
#    y 0.000000 1.575240 0.000000 
#    z 0.001720 0.000000 1.587180 
# 
# From -- ./inp_files/288375.got.cif
#   From: 2010.05.17/outbox.cif.g08.bks.cpg/sg12_145_cif.got.tgz:288375.got - 2010.06.03 13:09:07.
