data_PCOD9179899
_publ_section_title
;
Structure prediction by ZEFSAII (Michael W. Deem and Ramdas Pophale) SiO2 
 PCOD9179899
Probable space group: C 2/M
;
_chemical_formula_sum "Si O2"
_cell_formula_units_Z 48
_cell_length_a 24.390583
_cell_length_b 7.479427
_cell_length_c 27.265394
_cell_angle_alpha 90.000000
_cell_angle_beta 27.985036
_cell_angle_gamma 90.000000
_cell_volume 2333.985690
_symmetry_space_group_name_H-M "C 2/M"
_symmetry_group_IT_number 12
_symmetry_cell_setting 'monoclinic'
loop_
_space_group_symop_operation_xyz
x,y,z
-x,y,-z
-x,-y,-z
x,-y,z
1/2+x,1/2+y,z
1/2-x,1/2+y,-z
1/2-x,1/2-y,-z
1/2+x,1/2-y,z
loop_
_atom_site_type_symbol
_atom_site_label
_atom_site_fract_x
_atom_site_fract_y
_atom_site_fract_z
Si Si1 0.215545 0.708678 0.658774
Si Si2 0.021031 0.703232 0.536427
Si Si3 0.629304 0.786306 0.623930
Si Si4 0.576335 0.219606 0.283862
Si Si5 0.914108 0.215931 0.138416
Si Si6 0.166321 0.217605 0.904806
O O1 0.241431 0.500000 0.629496
O O2 0.340726 0.800975 0.563993
O O3 0.145058 0.778192 0.667211
O O4 0.145517 0.724359 0.764572
O O5 0.973492 0.500000 0.570300
O O6 0.000000 0.789219 0.500000
O O7 0.962358 0.780687 0.631294
O O8 0.750000 0.750000 0.500000
O O9 0.518648 0.717730 0.680640
O O10 0.614669 0.000000 0.637680
O O11 0.710308 0.273892 0.170376
O O12 0.572255 0.000000 0.287291
O O13 0.847035 0.272130 0.141715
O O14 0.912885 0.000000 0.139703
O O15 0.048627 0.274731 0.025510
O O16 0.165122 0.000000 0.905818
#
# Coordination Sequence:
#
# PCOD9179899 Si02
#       6
#     8   8   8   8   8   8
#     4  11  22  33  47  72 106 138 167 202 251 307
#     4  10  19  31  52  78  99 125 166 211 252 300
#     4  10  20  34  51  70  97 137 175 207 247 297
#     4   9  16  29  50  74  98 125 164 212 254 290
#     4   9  17  32  55  78 100 128 165 210 253 300
#     4   8  15  30  54  80  99 122 165 215 256 292
#
# _framework density 20.565677000000001
#
# number of rings (size 3 to 8) (size 9 to 14) (size 15 to 20)
#    0.000    2.500    1.667    2.500    0.000    3.667 
#    0.000    2.500    0.000    2.000    0.000    0.000 
#    0.000    0.000    0.000    0.000    0.000    0.000 
#
# Total GULP energy -133968.510631 kJ/mol
# GULP energy per Si atom -5582.021276 kJ/mol
# Density = 2.051887 g / cm^3
# Si number density = 20.565677 Si / 1000 Ang^3
#
#
#
# Elastic Constant Matrix: (Units=GPa)
#
#
# Indices 1 2 3 4 5 6 
#
# 1 59.7646 -1.5593 8.6040 0.0102 -32.1514 -0.0165
# 2 -1.5593 59.5879 -11.9671 0.0133 -1.4900 -0.0108
# 3 8.6040 -11.9671 70.7300 0.0032 -21.2612 -0.0108
# 4 0.0102 0.0133 0.0032 10.7564 -0.0089 -20.7272
# 5 -32.1514 -1.4900 -21.2612 -0.0089 39.4952 0.0043
# 6 -0.0165 -0.0108 -0.0108 -20.7272 0.0043 46.2977
#
#
#
# Elastic Compliance Matrix: (Units=1/GPa)
#
#
# Indices 1 2 3 4 5 6 
#
# 1 0.031315 0.002563 0.005150 0.000064 0.028361 0.000039
# 2 0.002563 0.017821 0.004215 -0.000079 0.005027 -0.000030
# 3 0.005150 0.004215 0.018532 0.000054 0.014327 0.000030
# 4 0.000064 -0.000079 0.000054 0.677069 0.000198 0.303120
# 5 0.028361 0.005027 0.014327 0.000198 0.056310 0.000098
# 6 0.000039 -0.000030 0.000030 0.303120 0.000098 0.157304
#
#
# Mechanical properties :
#
#
# Convention : Reuss Voigt Hill
#
# Bulk Modulus (GPa) = 10.92631 20.02642 15.47636
# Shear Modulus (GPa) = 5.18133 32.31020 18.74576
#
# Velocity S-wave (km/s) = 1.58899 3.96798 3.02239
# Velocity P-wave (km/s) = 2.94804 5.54545 4.44089
#
# Compressibility (1/GPa) = 0.09152218
#
# Stress axis : x y z
#
# Youngs Moduli (GPa) = 31.93327 56.11303 53.96188
#
# Poissons Ratio (x) = -0.14381 -0.27788
# Poissons Ratio (y) = -0.08184 -0.22743
# Poissons Ratio (z) = -0.16444 -0.23650
#
# Static dielectric constant tensor:
#      x y z
#    x 1.735730 0.000000 -0.007830 
#    y 0.000000 1.811000 0.000000 
#    z -0.007830 0.000000 1.691090 
# 
# From -- ./inp_files/172248.got.cif
#   From: 2010.05.17/outbox.cif.g08.bks.cpg/sg12_87_cif.got.tgz:172248.got - 2010.06.03 13:09:07.
