data_PCOD9179662
_publ_section_title
;
Structure prediction by ZEFSAII (Michael W. Deem and Ramdas Pophale) SiO2 
 PCOD9179662
Probable space group: C 2/M
;
_chemical_formula_sum "Si O2"
_cell_formula_units_Z 64
_cell_length_a 15.583343
_cell_length_b 21.368820
_cell_length_c 8.755613
_cell_angle_alpha 90.000000
_cell_angle_beta 84.349675
_cell_angle_gamma 90.000000
_cell_volume 2901.432564
_symmetry_space_group_name_H-M "C 2/M"
_symmetry_group_IT_number 12
_symmetry_cell_setting 'monoclinic'
loop_
_space_group_symop_operation_xyz
x,y,z
-x,y,-z
-x,-y,-z
x,-y,z
1/2+x,1/2+y,z
1/2-x,1/2+y,-z
1/2-x,1/2-y,-z
1/2+x,1/2-y,z
loop_
_atom_site_type_symbol
_atom_site_label
_atom_site_fract_x
_atom_site_fract_y
_atom_site_fract_z
Si Si1 0.036160 0.575429 0.657674
Si Si2 0.219778 0.927976 0.672977
Si Si3 0.583421 0.630429 0.898759
Si Si4 0.368475 0.076131 0.867711
Si Si5 0.686362 0.286576 0.121705
Si Si6 0.863023 0.070941 0.626875
Si Si7 0.027799 0.193857 0.326221
Si Si8 0.798462 0.385746 0.206589
O O1 0.045476 0.500000 0.654029
O O2 0.965100 0.590768 0.798254
O O3 0.000000 0.594684 0.500000
O O4 0.128230 0.602810 0.683160
O O5 0.140694 0.919973 0.802819
O O6 0.302890 0.901650 0.745962
O O7 0.183250 0.904178 0.519448
O O8 0.241351 0.000000 0.637630
O O9 0.548749 0.681803 0.781833
O O10 0.500000 0.604414 0.000000
O O11 0.641708 0.663753 0.015174
O O12 0.361691 0.000000 0.881329
O O13 0.340730 0.104703 0.033341
O O14 0.603431 0.264556 0.234371
O O15 0.752500 0.319129 0.226054
O O16 0.750000 0.250000 0.000000
O O17 0.932262 0.123278 0.659370
O O18 0.783652 0.069095 0.758918
O O19 0.896762 0.000000 0.599896
O O20 0.000000 0.215079 0.500000
#
# Coordination Sequence:
#
# PCOD9179662 Si02
#       8
#     8   8   8   8   8   8   8   8
#     4  10  20  34  53  82 122 161 193 233 294 361
#     4  10  19  32  52  83 124 164 196 230 276 343
#     4  10  20  38  58  84 117 156 190 238 297 356
#     4  10  19  31  50  80 115 155 198 236 284 352
#     4  10  23  43  65  85 109 151 200 257 316 355
#     4  10  20  32  53  88 128 164 196 229 276 345
#     4  10  20  37  64  90 122 157 194 238 296 363
#     4  11  20  35  58  82 112 154 204 246 295 352
#
# _framework density 22.058067999999999
#
# number of rings (size 3 to 8) (size 9 to 14) (size 15 to 20)
#    0.000    1.875    2.500    2.250    0.000    4.000 
#    0.000    4.375    0.000    1.500    0.000    0.000 
#    0.000    0.000    0.000    0.000    0.000    0.000 
#
# Total GULP energy -178556.484972 kJ/mol
# GULP energy per Si atom -5579.890155 kJ/mol
# Density = 2.200786 g / cm^3
# Si number density = 22.058068 Si / 1000 Ang^3
#
#
#
# Elastic Constant Matrix: (Units=GPa)
#
#
# Indices 1 2 3 4 5 6 
#
# 1 96.7868 13.7152 23.8068 0.0000 4.3426 0.0000
# 2 13.7152 5.9348 -0.8647 0.0000 -0.8783 0.0000
# 3 23.8068 -0.8647 102.0814 0.0000 0.0273 0.0000
# 4 0.0000 0.0000 0.0000 12.6156 0.0000 -8.7058
# 5 4.3426 -0.8783 0.0273 0.0000 44.6441 0.0000
# 6 0.0000 0.0000 0.0000 -8.7058 0.0000 14.4985
#
#
#
# Elastic Compliance Matrix: (Units=1/GPa)
#
#
# Indices 1 2 3 4 5 6 
#
# 1 0.017349 -0.041102 -0.004393 0.000000 -0.002493 0.000000
# 2 -0.041102 0.266574 0.011841 0.000000 0.009235 0.000000
# 3 -0.004393 0.011841 0.010921 0.000000 0.000654 0.000000
# 4 0.000000 0.000000 0.000000 0.135353 0.000000 0.081274
# 5 -0.002493 0.009235 0.000654 0.000000 0.022823 0.000000
# 6 0.000000 0.000000 0.000000 0.081274 0.000000 0.117775
#
#
# Mechanical properties :
#
#
# Convention : Reuss Voigt Hill
#
# Bulk Modulus (GPa) = 4.39492 30.90196 17.64844
# Shear Modulus (GPa) = 7.00331 25.56134 16.28233
#
# Velocity S-wave (km/s) = 1.78377 3.40784 2.71985
# Velocity P-wave (km/s) = 2.49784 5.43362 4.22868
#
# Compressibility (1/GPa) = 0.22753532
#
# Stress axis : x y z
#
# Youngs Moduli (GPa) = 57.64061 3.75130 91.56789
#
# Poissons Ratio (x) = 0.15419 0.40230
# Poissons Ratio (y) = 2.36914 -1.08426
# Poissons Ratio (z) = 0.25324 -0.04442
#
# Static dielectric constant tensor:
#      x y z
#    x 1.825890 0.000000 -0.031240 
#    y 0.000000 1.857020 0.000000 
#    z -0.031240 0.000000 1.847470 
# 
# From -- ./inp_files/65854.got.cif
#   From: 2010.05.17/outbox.cif.g08.bks.cpg/sg12_33_cif.got.tgz:65854.got - 2010.06.03 13:09:07.
