data_PCOD9179961
_publ_section_title
;
Structure prediction by ZEFSAII (Michael W. Deem and Ramdas Pophale) SiO2 
 PCOD9179961
Probable space group: C 2/M
;
_chemical_formula_sum "Si O2"
_cell_formula_units_Z 64
_cell_length_a 11.164539
_cell_length_b 14.237756
_cell_length_c 20.490258
_cell_angle_alpha 90.000000
_cell_angle_beta 126.977083
_cell_angle_gamma 90.000000
_cell_volume 2602.011599
_symmetry_space_group_name_H-M "C 2/M"
_symmetry_group_IT_number 12
_symmetry_cell_setting 'monoclinic'
loop_
_space_group_symop_operation_xyz
x,y,z
-x,y,-z
-x,-y,-z
x,-y,z
1/2+x,1/2+y,z
1/2-x,1/2+y,-z
1/2-x,1/2-y,-z
1/2+x,1/2-y,z
loop_
_atom_site_type_symbol
_atom_site_label
_atom_site_fract_x
_atom_site_fract_y
_atom_site_fract_z
Si Si1 0.624301 0.885365 0.490509
Si Si2 0.066109 0.886116 0.345766
Si Si3 0.147754 0.328191 0.931635
Si Si4 0.757834 0.107527 0.292383
Si Si5 0.036123 0.854587 0.834390
Si Si6 0.298993 0.646157 0.858868
Si Si7 0.855174 0.635556 0.890518
Si Si8 0.490229 0.114025 0.689749
O O1 0.500000 0.852426 0.500000
O O2 0.784438 0.853121 0.569698
O O3 0.568874 0.860966 0.400628
O O4 0.628479 0.000000 0.493371
O O5 0.044993 0.866641 0.261774
O O6 0.920459 0.848246 0.336089
O O7 0.063246 0.000000 0.348701
O O8 0.240602 0.390293 0.910176
O O9 0.051278 0.256421 0.854919
O O10 0.036464 0.380843 0.945871
O O11 0.250000 0.250000 0.000000
O O12 0.690813 0.105358 0.197723
O O13 0.638520 0.147870 0.303091
O O14 0.780964 0.000000 0.322173
O O15 0.936392 0.893685 0.861440
O O16 0.206302 0.894094 0.882650
O O17 0.347623 0.751732 0.892771
O O18 0.154991 0.648206 0.764176
O O19 0.502012 0.000000 0.698468
#
# Coordination Sequence:
#
# PCOD9179961 Si02
#       8
#     8   8   8   8   8   8   8   8
#     4   9  17  28  45  73 108 142 179 226 269 314
#     4   9  17  31  50  74 107 143 181 222 269 324
#     4  10  20  35  55  77 102 135 176 226 271 321
#     4   9  17  31  53  78 106 142 182 226 272 327
#     4   9  19  30  50  76  99 138 173 216 269 315
#     4  10  19  32  52  79 106 143 179 224 269 322
#     4   9  18  34  52  77 108 140 179 219 270 327
#     4  10  19  31  52  82 109 141 186 229 275 324
#
# _framework density 24.596354000000002
#
# number of rings (size 3 to 8) (size 9 to 14) (size 15 to 20)
#    0.000    2.625    1.250    0.750    0.000    6.500 
#    0.000    2.500    0.000    8.250    9.750   10.500 
#    0.000    0.000    0.000    0.000    0.000    0.000 
#
# Total GULP energy -178533.902602 kJ/mol
# GULP energy per Si atom -5579.184456 kJ/mol
# Density = 2.454037 g / cm^3
# Si number density = 24.596354 Si / 1000 Ang^3
#
#
#
# Elastic Constant Matrix: (Units=GPa)
#
#
# Indices 1 2 3 4 5 6 
#
# 1 277.4188 8.3483 74.2658 0.0000 -2.1398 0.0000
# 2 8.3483 68.1342 5.1229 0.0000 1.0430 0.0000
# 3 74.2658 5.1229 119.7735 0.0000 17.7735 0.0000
# 4 0.0000 0.0000 0.0000 27.1120 0.0000 -3.9419
# 5 -2.1398 1.0430 17.7735 0.0000 44.7181 0.0000
# 6 0.0000 0.0000 0.0000 -3.9419 0.0000 -0.7811
#
#
#
# Elastic Compliance Matrix: (Units=1/GPa)
#
#
# Indices 1 2 3 4 5 6 
#
# 1 0.004408 -0.000341 -0.002924 0.000000 0.001381 0.000000
# 2 -0.000341 0.014751 -0.000389 0.000000 -0.000206 0.000000
# 3 -0.002924 -0.000389 0.010837 0.000000 -0.004438 0.000000
# 4 0.000000 0.000000 0.000000 0.021274 0.000000 -0.107362
# 5 0.001381 -0.000206 -0.004438 0.000000 0.024197 0.000000
# 6 0.000000 0.000000 0.000000 -0.107362 0.000000 -0.738416
#
#
# Mechanical properties :
#
#
# Convention : Reuss Voigt Hill
#
# Bulk Modulus (GPa) = 44.07428 71.20004 57.63716
# Shear Modulus (GPa) = -7.71512 39.38243 15.83366
#
# Velocity S-wave (km/s) = -1.77299 4.00578 2.53996
# Velocity P-wave (km/s) = 3.71034 7.09966 5.66444
#
# Compressibility (1/GPa) = 0.02268897
#
# Stress axis : x y z
#
# Youngs Moduli (GPa) = 226.84696 67.79146 92.27544
#
# Poissons Ratio (x) = 0.02315 0.26978
# Poissons Ratio (y) = 0.07746 0.03586
# Poissons Ratio (z) = 0.66322 0.02635
#
# Static dielectric constant tensor:
#      x y z
#    x 2.045450 0.000000 0.009230 
#    y 0.000000 1.969710 0.000000 
#    z 0.009230 0.000000 1.948240 
# 
# From -- ./inp_files/306639.got.cif
#   From: 2010.05.17/outbox.cif.g08.bks.cpg/sg12_154_cif.got.tgz:306639.got - 2010.06.03 13:09:07.
