data_PCOD9179517
_publ_section_title
;
Structure prediction by ZEFSAII (Michael W. Deem and Ramdas Pophale) SiO2 
 PCOD9179517
Probable space group: C 2/M
;
_chemical_formula_sum "Si O2"
_cell_formula_units_Z 64
_cell_length_a 20.031902
_cell_length_b 7.322215
_cell_length_c 17.711873
_cell_angle_alpha 90.000000
_cell_angle_beta 104.483448
_cell_angle_gamma 90.000000
_cell_volume 2515.377500
_symmetry_space_group_name_H-M "C 2/M"
_symmetry_group_IT_number 12
_symmetry_cell_setting 'monoclinic'
loop_
_space_group_symop_operation_xyz
x,y,z
-x,y,-z
-x,-y,-z
x,-y,z
1/2+x,1/2+y,z
1/2-x,1/2+y,-z
1/2-x,1/2-y,-z
1/2+x,1/2-y,z
loop_
_atom_site_type_symbol
_atom_site_label
_atom_site_fract_x
_atom_site_fract_y
_atom_site_fract_z
Si Si1 0.449995 0.720826 0.163286
Si Si2 0.678603 0.722253 0.579458
Si Si3 0.427346 0.722543 0.329006
Si Si4 0.555726 0.208777 0.071990
Si Si5 0.930850 0.791057 0.571839
Si Si6 0.697064 0.223787 0.170876
Si Si7 0.674245 0.779238 0.336353
Si Si8 0.196769 0.782895 0.917494
O O1 0.454862 0.500000 0.163453
O O2 0.437895 0.779581 0.245934
O O3 0.518517 0.790953 0.142776
O O4 0.381637 0.782258 0.097972
O O5 0.680829 0.500000 0.576491
O O6 0.643070 0.772077 0.649047
O O7 0.626181 0.789185 0.500462
O O8 0.757565 0.782293 0.598689
O O9 0.429043 0.500000 0.328490
O O10 0.492862 0.785979 0.397052
O O11 0.631514 0.287263 0.103230
O O12 0.565545 0.000000 0.049671
O O13 0.500000 0.295466 0.000000
O O14 0.894511 0.789276 0.643285
O O15 0.940238 0.000000 0.549243
O O16 0.685752 0.279337 0.253618
O O17 0.766379 0.282759 0.148746
O O18 0.696816 0.000000 0.171173
O O19 0.671154 0.000000 0.336566
O O20 0.190495 0.000000 0.908347
O O21 0.250000 0.750000 0.000000
#
# Coordination Sequence:
#
# PCOD9179517 Si02
#       8
#     8   8   8   8   8   8   8   8
#     4  10  20  33  52  77 101 126 159 204 250 286
#     4   9  17  30  50  74  97 127 167 203 237 284
#     4   9  17  31  51  74  99 128 164 202 240 286
#     4  10  20  34  52  72  97 131 166 199 239 292
#     4  10  19  31  50  75 101 128 160 202 246 286
#     4   9  18  33  52  72  95 129 169 201 235 288
#     4  10  19  32  51  72  97 130 165 201 240 287
#     4  10  20  35  54  75  99 127 163 204 244 288
#
# _framework density 25.443496
#
# number of rings (size 3 to 8) (size 9 to 14) (size 15 to 20)
#    0.000    2.375    0.000    3.000    0.000    6.250 
#    0.000    1.250    0.000    5.250    0.000    0.000 
#    0.000    0.000    0.000    0.000    0.000    0.000 
#
# Total GULP energy -179039.341951 kJ/mol
# GULP energy per Si atom -5594.979436 kJ/mol
# Density = 2.538559 g / cm^3
# Si number density = 25.443496 Si / 1000 Ang^3
#
#
#
# Elastic Constant Matrix: (Units=GPa)
#
#
# Indices 1 2 3 4 5 6 
#
# 1 106.0301 -1.2004 -17.5716 0.0000 -2.6454 0.0000
# 2 -1.2004 107.4654 -4.2010 0.0000 3.5179 0.0000
# 3 -17.5716 -4.2010 64.7687 0.0000 -2.9969 0.0000
# 4 0.0000 0.0000 0.0000 5.0990 0.0000 -9.3401
# 5 -2.6454 3.5179 -2.9969 0.0000 47.5243 0.0000
# 6 0.0000 0.0000 0.0000 -9.3401 0.0000 4.0570
#
#
#
# Elastic Compliance Matrix: (Units=1/GPa)
#
#
# Indices 1 2 3 4 5 6 
#
# 1 0.009904 0.000194 0.002732 0.000000 0.000709 0.000000
# 2 0.000194 0.009353 0.000630 0.000000 -0.000642 0.000000
# 3 0.002732 0.000630 0.016274 0.000000 0.001132 0.000000
# 4 0.000000 0.000000 0.000000 -0.060961 0.000000 -0.140346
# 5 0.000709 -0.000642 0.001132 0.000000 0.021200 0.000000
# 6 0.000000 0.000000 0.000000 -0.140346 0.000000 -0.076619
#
#
# Mechanical properties :
#
#
# Convention : Reuss Voigt Hill
#
# Bulk Modulus (GPa) = 23.45018 25.81313 24.63165
# Shear Modulus (GPa) = -67.79956 31.41852 -18.19052
#
# Velocity S-wave (km/s) = -5.16768 3.51783 -2.67673
# Velocity P-wave (km/s) = 5.13518 5.16406 0.38567
#
# Compressibility (1/GPa) = 0.04264360
#
# Stress axis : x y z
#
# Youngs Moduli (GPa) = 100.96941 106.91621 61.44752
#
# Poissons Ratio (x) = -0.02077 -0.16790
# Poissons Ratio (y) = -0.01961 -0.03869
# Poissons Ratio (z) = -0.27588 -0.06732
#
# Static dielectric constant tensor:
#      x y z
#    x 1.967900 0.000000 0.043200 
#    y 0.000000 2.014170 0.000000 
#    z 0.043200 0.000000 2.020410 
# 
# From -- ./inp_files/223831.got.cif
#   From: 2010.05.17/outbox.cif.g08.bks.cpg/sg12_112_cif.got.tgz:223831.got - 2010.06.03 13:09:07.
