data_PCOD9179102
_publ_section_title
;
Structure prediction by ZEFSAII (Michael W. Deem and Ramdas Pophale) SiO2 
 PCOD9179102
Probable space group: C 2/M
;
_chemical_formula_sum "Si O2"
_cell_formula_units_Z 56
_cell_length_a 29.771437
_cell_length_b 8.434519
_cell_length_c 19.470120
_cell_angle_alpha 90.000000
_cell_angle_beta 40.671221
_cell_angle_gamma 90.000000
_cell_volume 3186.310851
_symmetry_space_group_name_H-M "C 2/M"
_symmetry_group_IT_number 12
_symmetry_cell_setting 'monoclinic'
loop_
_space_group_symop_operation_xyz
x,y,z
-x,y,-z
-x,-y,-z
x,-y,z
1/2+x,1/2+y,z
1/2-x,1/2+y,-z
1/2-x,1/2-y,-z
1/2+x,1/2-y,z
loop_
_atom_site_type_symbol
_atom_site_label
_atom_site_fract_x
_atom_site_fract_y
_atom_site_fract_z
Si Si1 0.404809 0.307781 0.882533
Si Si2 0.043596 0.807848 0.665455
Si Si3 0.286466 0.687606 0.124199
Si Si4 0.294810 0.311072 0.661748
Si Si5 0.193812 0.810464 0.119509
Si Si6 0.198521 0.809180 0.501960
Si Si7 0.051861 0.689921 0.500833
O O1 0.402634 0.500000 0.890359
O O2 0.483413 0.254560 0.787116
O O3 0.375553 0.270168 0.840268
O O4 0.351808 0.251044 0.003177
O O5 0.119134 0.756702 0.602641
O O6 0.032993 0.752420 0.599051
O O7 0.042384 0.000000 0.664993
O O8 0.294130 0.500000 0.122665
O O9 0.269441 0.764225 0.216447
O O10 0.217314 0.724952 0.160692
O O11 0.303152 0.500000 0.652954
O O12 0.282720 0.258441 0.597325
O O13 0.368265 0.241087 0.601649
O O14 0.197607 0.000000 0.124573
O O15 0.250000 0.750000 0.000000
O O16 0.250000 0.750000 0.500000
O O17 0.199254 0.000000 0.502497
O O18 0.048765 0.500000 0.505465
O O19 0.000000 0.745769 0.500000
#
# Coordination Sequence:
#
# PCOD9179102 Si02
#       7
#     8   8   8   8   8   8   8
#     4   8  16  30  48  70  99 135 173 208 246 290
#     4   9  18  34  53  75 100 132 172 207 247 307
#     4  10  19  31  48  72 103 137 171 214 254 294
#     4  10  21  36  53  75 100 133 173 208 250 309
#     4   9  16  27  42  64  93 135 179 212 242 282
#     4   9  19  35  57  79  98 122 160 211 262 312
#     4  10  21  34  47  71 104 135 168 212 257 295
#
# _framework density 17.575185000000001
#
# number of rings (size 3 to 8) (size 9 to 14) (size 15 to 20)
#    0.000    2.714    0.000    3.429    2.000    4.000 
#    0.000    3.571    0.000    0.857    0.000    6.000 
#    0.000    0.000    0.000    0.000    0.000    0.000 
#
# Total GULP energy -155886.177324 kJ/mol
# GULP energy per Si atom -5567.363476 kJ/mol
# Density = 1.753518 g / cm^3
# Si number density = 17.575185 Si / 1000 Ang^3
#
#
#
# Elastic Constant Matrix: (Units=GPa)
#
#
# Indices 1 2 3 4 5 6 
#
# 1 124.5462 16.0213 66.3224 0.0016 -1.8954 -0.0037
# 2 16.0213 16.9432 10.4416 -0.0041 -2.3177 -0.0012
# 3 66.3224 10.4416 141.4461 -0.0030 -7.8660 -0.0008
# 4 0.0016 -0.0041 -0.0030 22.5126 -0.0013 3.6965
# 5 -1.8954 -2.3177 -7.8660 -0.0013 14.6029 0.0042
# 6 -0.0037 -0.0012 -0.0008 3.6965 0.0042 24.3495
#
#
#
# Elastic Compliance Matrix: (Units=1/GPa)
#
#
# Indices 1 2 3 4 5 6 
#
# 1 0.011743 -0.008348 -0.005030 -0.000004 -0.002510 0.000002
# 2 -0.008348 0.068593 -0.000623 0.000014 0.009468 -0.000002
# 3 -0.005030 -0.000623 0.009724 0.000002 0.004486 -0.000002
# 4 -0.000004 0.000014 0.000002 0.045555 0.000009 -0.006916
# 5 -0.002510 0.009468 0.004486 0.000009 0.072073 -0.000013
# 6 0.000002 -0.000002 -0.000002 -0.006916 -0.000013 0.042118
#
#
# Mechanical properties :
#
#
# Convention : Reuss Voigt Hill
#
# Bulk Modulus (GPa) = 16.11360 52.05625 34.08493
# Shear Modulus (GPa) = 16.75077 24.96967 20.86022
#
# Velocity S-wave (km/s) = 3.09057 3.77335 3.44890
# Velocity P-wave (km/s) = 4.68228 6.97623 5.94102
#
# Compressibility (1/GPa) = 0.06205936
#
# Stress axis : x y z
#
# Youngs Moduli (GPa) = 85.15644 14.57869 102.84284
#
# Poissons Ratio (x) = 0.12170 0.51725
# Poissons Ratio (y) = 0.71088 0.06405
# Poissons Ratio (z) = 0.42830 0.00908
#
# Static dielectric constant tensor:
#      x y z
#    x 1.609230 0.000000 -0.011980 
#    y 0.000000 1.606180 0.000000 
#    z -0.011980 0.000000 1.631070 
# 
# From -- ./inp_files/291849.got.cif
#   From: 2010.05.17/outbox.cif.g08.bks.cpg/sg12_146_cif.got.tgz:291849.got - 2010.06.03 13:09:07.
