data_PCOD9179656
_publ_section_title
;
Structure prediction by ZEFSAII (Michael W. Deem and Ramdas Pophale) SiO2 
 PCOD9179656
Probable space group: C 2/M
;
_chemical_formula_sum "Si O2"
_cell_formula_units_Z 64
_cell_length_a 11.494554
_cell_length_b 21.636231
_cell_length_c 15.385811
_cell_angle_alpha 90.000000
_cell_angle_beta 108.331988
_cell_angle_gamma 90.000000
_cell_volume 3632.241756
_symmetry_space_group_name_H-M "C 2/M"
_symmetry_group_IT_number 12
_symmetry_cell_setting 'monoclinic'
loop_
_space_group_symop_operation_xyz
x,y,z
-x,y,-z
-x,-y,-z
x,-y,z
1/2+x,1/2+y,z
1/2-x,1/2+y,-z
1/2-x,1/2-y,-z
1/2+x,1/2-y,z
loop_
_atom_site_type_symbol
_atom_site_label
_atom_site_fract_x
_atom_site_fract_y
_atom_site_fract_z
Si Si1 0.351779 0.760474 0.944364
Si Si2 0.045268 0.569630 0.911502
Si Si3 0.859292 0.926149 0.755896
Si Si4 0.360828 0.572552 0.567285
Si Si5 0.794085 0.615276 0.823159
Si Si6 0.398389 0.570962 0.089320
Si Si7 0.843709 0.073439 0.372197
Si Si8 0.226063 0.868963 0.101413
O O1 0.318643 0.820075 0.878451
O O2 0.320693 0.698264 0.884385
O O3 0.500000 0.761921 0.000000
O O4 0.250000 0.750000 0.000000
O O5 0.094579 0.500000 0.909060
O O6 0.922248 0.583080 0.830369
O O7 0.143332 0.622297 0.914093
O O8 0.000000 0.573553 0.000000
O O9 0.825261 0.900938 0.652991
O O10 0.767339 0.910207 0.811129
O O11 0.989134 0.903904 0.826819
O O12 0.872059 0.000000 0.749259
O O13 0.327301 0.500000 0.558222
O O14 0.313981 0.595886 0.463157
O O15 0.508880 0.575450 0.601371
O O16 0.719399 0.575239 0.876241
O O17 0.715537 0.614079 0.717103
O O18 0.423929 0.500000 0.073796
O O19 0.367535 0.605782 0.993456
O O20 0.811123 0.000000 0.353672
#
# Coordination Sequence:
#
# PCOD9179656 Si02
#       8
#     8   8   8   8   8   8   8   8
#     4  12  25  41  55  75 113 156 201 231 269 331
#     4  11  21  35  53  77 109 144 183 231 280 325
#     4  10  19  31  50  80 110 136 168 213 282 340
#     4   8  15  28  49  79 111 134 161 215 283 345
#     4  12  21  33  53  78 107 145 185 225 272 324
#     4  11  19  30  50  79 108 136 169 216 272 326
#     4   9  16  29  51  79 107 135 171 222 283 332
#     4  12  23  36  52  74 107 150 188 225 267 326
#
# _framework density 17.619973000000002
#
# number of rings (size 3 to 8) (size 9 to 14) (size 15 to 20)
#    0.000    1.375    3.750    5.250    0.000    1.000 
#    0.000    0.000    0.000    1.500    0.000    3.500 
#    0.000    0.000    0.000    0.000    0.000    0.000 
#
# Total GULP energy -178264.801183 kJ/mol
# GULP energy per Si atom -5570.775037 kJ/mol
# Density = 1.757987 g / cm^3
# Si number density = 17.619973 Si / 1000 Ang^3
#
#
#
# Elastic Constant Matrix: (Units=GPa)
#
#
# Indices 1 2 3 4 5 6 
#
# 1 66.3776 11.4069 22.6163 0.0000 -1.2196 0.0000
# 2 11.4069 60.9009 24.3230 0.0000 3.4003 0.0000
# 3 22.6163 24.3230 122.2497 0.0000 -17.0072 0.0000
# 4 0.0000 0.0000 0.0000 13.1770 0.0000 1.3236
# 5 -1.2196 3.4003 -17.0072 0.0000 23.2864 0.0000
# 6 0.0000 0.0000 0.0000 1.3236 0.0000 21.3457
#
#
#
# Elastic Compliance Matrix: (Units=1/GPa)
#
#
# Indices 1 2 3 4 5 6 
#
# 1 0.016318 -0.001903 -0.002763 0.000000 -0.000886 0.000000
# 2 -0.001903 0.018788 -0.004209 0.000000 -0.005917 0.000000
# 3 -0.002763 -0.004209 0.010679 0.000000 0.008269 0.000000
# 4 0.000000 0.000000 0.000000 0.076365 0.000000 -0.004735
# 5 -0.000886 -0.005917 0.008269 0.000000 0.049801 0.000000
# 6 0.000000 0.000000 0.000000 -0.004735 0.000000 0.047141
#
#
# Mechanical properties :
#
#
# Convention : Reuss Voigt Hill
#
# Bulk Modulus (GPa) = 35.67192 40.69118 38.18155
# Shear Modulus (GPa) = 20.30965 24.30729 22.30847
#
# Velocity S-wave (km/s) = 3.39875 3.71823 3.56208
# Velocity P-wave (km/s) = 5.97421 6.44807 6.21565
#
# Compressibility (1/GPa) = 0.02803326
#
# Stress axis : x y z
#
# Youngs Moduli (GPa) = 61.28335 53.22518 93.64101
#
# Poissons Ratio (x) = 0.10130 0.25876
# Poissons Ratio (y) = 0.11664 0.39415
# Poissons Ratio (z) = 0.16935 0.22404
#
# Static dielectric constant tensor:
#      x y z
#    x 1.680650 0.000000 -0.015160 
#    y 0.000000 1.626910 0.000000 
#    z -0.015160 0.000000 1.632150 
# 
# From -- ./inp_files/207706.got.cif
#   From: 2010.05.17/outbox.cif.g08.bks.cpg/sg12_104_cif.got.tgz:207706.got - 2010.06.03 13:09:07.
