data_PCOD9179650
_publ_section_title
;
Structure prediction by ZEFSAII (Michael W. Deem and Ramdas Pophale) SiO2 
 PCOD9179650
Probable space group: C 2/M
;
_chemical_formula_sum "Si O2"
_cell_formula_units_Z 48
_cell_length_a 17.662031
_cell_length_b 17.269569
_cell_length_c 16.667010
_cell_angle_alpha 90.000000
_cell_angle_beta 33.676129
_cell_angle_gamma 90.000000
_cell_volume 2818.899789
_symmetry_space_group_name_H-M "C 2/M"
_symmetry_group_IT_number 12
_symmetry_cell_setting 'monoclinic'
loop_
_space_group_symop_operation_xyz
x,y,z
-x,y,-z
-x,-y,-z
x,-y,z
1/2+x,1/2+y,z
1/2-x,1/2+y,-z
1/2-x,1/2-y,-z
1/2+x,1/2-y,z
loop_
_atom_site_type_symbol
_atom_site_label
_atom_site_fract_x
_atom_site_fract_y
_atom_site_fract_z
Si Si1 0.828714 0.411599 0.803815
Si Si2 0.351995 0.790385 0.638681
Si Si3 0.924097 0.702295 0.143405
Si Si4 0.244813 0.587498 0.403492
Si Si5 0.581014 0.089670 0.701888
Si Si6 0.477308 0.374914 0.925294
O O1 0.844556 0.500000 0.758750
O O2 0.845856 0.346690 0.720783
O O3 0.942599 0.400499 0.771546
O O4 0.671687 0.402037 0.969556
O O5 0.500000 0.752947 0.500000
O O6 0.226494 0.731568 0.748452
O O7 0.330501 0.848763 0.583282
O O8 0.917434 0.647097 0.225249
O O9 0.005806 0.781857 0.091459
O O10 0.000000 0.666206 0.000000
O O11 0.195303 0.500000 0.430560
O O12 0.206639 0.603253 0.529342
O O13 0.401523 0.592690 0.236818
O O14 0.586637 0.000000 0.722717
O O15 0.500000 0.396923 0.000000
#
# Coordination Sequence:
#
# PCOD9179650 Si02
#       6
#     8   8   8   8   8   8
#     4  11  20  33  53  85 117 142 178 219 265 325
#     4  11  20  33  54  84 113 146 177 213 275 326
#     4  10  21  41  57  75 108 143 191 225 269 327
#     4  10  19  31  50  79 115 147 177 211 264 327
#     4  10  23  38  56  81 107 143 185 231 273 312
#     4  10  19  32  51  84 113 152 177 207 267 328
#
# _framework density 17.027920000000002
#
# number of rings (size 3 to 8) (size 9 to 14) (size 15 to 20)
#    0.000    1.667    6.667    1.000    0.000    5.000 
#    0.000    0.000    0.000    0.500    0.000    0.000 
#    0.000    0.000    0.000    0.000    0.000    0.000 
#
# Total GULP energy -133851.718485 kJ/mol
# GULP energy per Si atom -5577.154937 kJ/mol
# Density = 1.698916 g / cm^3
# Si number density = 17.027920 Si / 1000 Ang^3
#
#
#
# Elastic Constant Matrix: (Units=GPa)
#
#
# Indices 1 2 3 4 5 6 
#
# 1 72.4325 49.9769 66.7960 -0.0003 5.2051 0.0002
# 2 49.9769 62.7950 49.8265 -0.0001 13.9918 0.0001
# 3 66.7960 49.8265 143.8971 -0.0002 -0.6402 0.0002
# 4 -0.0003 -0.0001 -0.0002 19.3108 0.0004 9.0962
# 5 5.2051 13.9918 -0.6402 0.0004 29.4505 -0.0003
# 6 0.0002 0.0001 0.0002 9.0962 -0.0003 26.5511
#
#
#
# Elastic Compliance Matrix: (Units=1/GPa)
#
#
# Indices 1 2 3 4 5 6 
#
# 1 0.039576 -0.024751 -0.009780 0.000000 0.004552 0.000000
# 2 -0.024751 0.041332 -0.002891 0.000000 -0.015325 0.000000
# 3 -0.009780 -0.002891 0.012505 0.000000 0.003374 0.000000
# 4 0.000000 0.000000 0.000000 0.061749 -0.000001 -0.021155
# 5 0.004552 -0.015325 0.003374 -0.000001 0.040505 0.000001
# 6 0.000000 0.000000 0.000000 -0.021155 0.000001 0.044911
#
#
# Mechanical properties :
#
#
# Convention : Reuss Voigt Hill
#
# Bulk Modulus (GPa) = 53.85306 68.03593 60.94450
# Shear Modulus (GPa) = 15.54671 22.56415 19.05543
#
# Velocity S-wave (km/s) = 3.02489 3.64418 3.34888
# Velocity P-wave (km/s) = 6.62532 7.59927 7.12895
#
# Compressibility (1/GPa) = 0.01856905
#
# Stress axis : x y z
#
# Youngs Moduli (GPa) = 25.26808 24.19423 79.96701
#
# Poissons Ratio (x) = 0.59884 0.78207
# Poissons Ratio (y) = 0.62542 0.23116
# Poissons Ratio (z) = 0.24712 0.06994
#
# Static dielectric constant tensor:
#      x y z
#    x 1.556030 0.000000 -0.014860 
#    y 0.000000 1.576720 0.000000 
#    z -0.014860 0.000000 1.623450 
# 
# From -- ./inp_files/216239.got.cif
#   From: 2010.05.17/outbox.cif.g08.bks.cpg/sg12_109_cif.got.tgz:216239.got - 2010.06.03 13:09:07.
