data_PCOD9179248
_publ_section_title
;
Structure prediction by ZEFSAII (Michael W. Deem and Ramdas Pophale) SiO2 
 PCOD9179248
Probable space group: C 2/M
;
_chemical_formula_sum "Si O2"
_cell_formula_units_Z 64
_cell_length_a 16.151836
_cell_length_b 9.194984
_cell_length_c 19.810806
_cell_angle_alpha 90.000000
_cell_angle_beta 107.858451
_cell_angle_gamma 90.000000
_cell_volume 2800.454327
_symmetry_space_group_name_H-M "C 2/M"
_symmetry_group_IT_number 12
_symmetry_cell_setting 'monoclinic'
loop_
_space_group_symop_operation_xyz
x,y,z
-x,y,-z
-x,-y,-z
x,-y,z
1/2+x,1/2+y,z
1/2-x,1/2+y,-z
1/2-x,1/2-y,-z
1/2+x,1/2-y,z
loop_
_atom_site_type_symbol
_atom_site_label
_atom_site_fract_x
_atom_site_fract_y
_atom_site_fract_z
Si Si1 0.725056 0.825121 0.168621
Si Si2 0.805076 0.331389 0.692492
Si Si3 0.370629 0.674619 0.096856
Si Si4 0.445387 0.335057 0.338250
Si Si5 0.151427 0.165604 0.428456
Si Si6 0.396874 0.833652 0.454339
Si Si7 0.990512 0.666418 0.218550
Si Si8 0.898615 0.828554 0.957177
O O1 0.741275 0.780771 0.250173
O O2 0.798784 0.781391 0.133632
O O3 0.637999 0.759985 0.114601
O O4 0.719099 0.000000 0.168430
O O5 0.783225 0.500000 0.670961
O O6 0.801875 0.231650 0.625635
O O7 0.906950 0.329943 0.740506
O O8 0.376631 0.500000 0.097844
O O9 0.459852 0.739453 0.147762
O O10 0.353210 0.720590 0.015897
O O11 0.418230 0.500000 0.315178
O O12 0.547719 0.339749 0.384782
O O13 0.393507 0.270082 0.388513
O O14 0.444627 0.233786 0.272984
O O15 0.153813 0.268956 0.494268
O O16 0.177930 0.000000 0.449872
O O17 0.500000 0.835678 0.500000
O O18 0.372770 0.000000 0.433329
O O19 0.964743 0.500000 0.201708
O O20 0.882236 0.000000 0.941566
O O21 0.000000 0.811621 0.000000
#
# Coordination Sequence:
#
# PCOD9179248 Si02
#       8
#     8   8   8   8   8   8   8   8
#     4  10  21  36  54  75 100 132 168 205 246 294
#     4   9  18  32  48  69  97 128 165 208 251 295
#     4  10  21  36  52  73 102 133 165 203 248 296
#     4   9  16  26  41  63  94 129 164 205 251 298
#     4   9  16  25  40  64  93 127 165 204 250 300
#     4   9  15  23  37  60  93 130 165 204 250 297
#     4  10  19  31  49  72  97 128 167 208 250 297
#     4  10  21  36  55  79 105 132 163 202 248 296
#
# _framework density 22.853434
#
# number of rings (size 3 to 8) (size 9 to 14) (size 15 to 20)
#    0.000    2.500    0.000    2.625    0.000    6.750 
#    0.000    0.000    0.000    0.000    0.000    0.875 
#    0.000    0.000    0.000    0.000    0.000    0.000 
#
# Total GULP energy -179009.880480 kJ/mol
# GULP energy per Si atom -5594.058765 kJ/mol
# Density = 2.280142 g / cm^3
# Si number density = 22.853434 Si / 1000 Ang^3
#
#
#
# Elastic Constant Matrix: (Units=GPa)
#
#
# Indices 1 2 3 4 5 6 
#
# 1 79.0129 11.0276 26.1593 0.0000 -19.5380 0.0000
# 2 11.0276 35.1299 28.0131 0.0000 -16.4473 0.0000
# 3 26.1593 28.0131 120.7648 0.0000 -22.4086 0.0000
# 4 0.0000 0.0000 0.0000 29.3787 0.0000 0.7277
# 5 -19.5380 -16.4473 -22.4086 0.0000 48.3960 0.0000
# 6 0.0000 0.0000 0.0000 0.7277 0.0000 17.1611
#
#
#
# Elastic Compliance Matrix: (Units=1/GPa)
#
#
# Indices 1 2 3 4 5 6 
#
# 1 0.014617 -0.000695 -0.002137 0.000000 0.004675 0.000000
# 2 -0.000695 0.038836 -0.007068 0.000000 0.009645 0.000000
# 3 -0.002137 -0.007068 0.010696 0.000000 0.001688 0.000000
# 4 0.000000 0.000000 0.000000 0.034074 0.000000 -0.001445
# 5 0.004675 0.009645 0.001688 0.000000 0.026609 0.000000
# 6 0.000000 0.000000 0.000000 -0.001445 0.000000 0.058333
#
#
# Mechanical properties :
#
#
# Convention : Reuss Voigt Hill
#
# Bulk Modulus (GPa) = 22.54932 40.58975 31.56953
# Shear Modulus (GPa) = 22.96218 30.30100 26.63159
#
# Velocity S-wave (km/s) = 3.17323 3.64522 3.41738
# Velocity P-wave (km/s) = 4.82848 5.95955 5.42358
#
# Compressibility (1/GPa) = 0.04434723
#
# Stress axis : x y z
#
# Youngs Moduli (GPa) = 68.41405 25.74936 93.49020
#
# Poissons Ratio (x) = 0.01790 0.19983
# Poissons Ratio (y) = 0.04756 0.66082
# Poissons Ratio (z) = 0.14623 0.18200
#
# Static dielectric constant tensor:
#      x y z
#    x 1.966420 0.000000 0.003660 
#    y 0.000000 1.754410 0.000000 
#    z 0.003660 0.000000 1.804510 
# 
# From -- ./inp_files/314083.got.cif
#   From: 2010.05.17/outbox.cif.g08.bks.cpg/sg12_158_cif.got.tgz:314083.got - 2010.06.03 13:09:07.
