data_PCOD9179025
_publ_section_title
;
Structure prediction by ZEFSAII (Michael W. Deem and Ramdas Pophale) SiO2 
 PCOD9179025
Probable space group: C 2/M
;
_chemical_formula_sum "Si O2"
_cell_formula_units_Z 56
_cell_length_a 17.835727
_cell_length_b 13.604938
_cell_length_c 15.834954
_cell_angle_alpha 90.000000
_cell_angle_beta 115.586819
_cell_angle_gamma 90.000000
_cell_volume 3465.596043
_symmetry_space_group_name_H-M "C 2/M"
_symmetry_group_IT_number 12
_symmetry_cell_setting 'monoclinic'
loop_
_space_group_symop_operation_xyz
x,y,z
-x,y,-z
-x,-y,-z
x,-y,z
1/2+x,1/2+y,z
1/2-x,1/2+y,-z
1/2-x,1/2-y,-z
1/2+x,1/2-y,z
loop_
_atom_site_type_symbol
_atom_site_label
_atom_site_fract_x
_atom_site_fract_y
_atom_site_fract_z
Si Si1 0.961894 0.269990 0.572692
Si Si2 0.616039 0.117249 0.721650
Si Si3 0.191587 0.615560 0.943003
Si Si4 0.873262 0.804574 0.000030
Si Si5 0.876626 0.116010 0.645317
Si Si6 0.052305 0.117332 0.133431
Si Si7 0.809527 0.382133 0.420955
O O1 0.932282 0.175293 0.607888
O O2 0.882677 0.337317 0.512281
O O3 0.000000 0.245526 0.500000
O O4 0.030212 0.327626 0.660831
O O5 0.656227 0.139075 0.831842
O O6 0.674744 0.142496 0.670238
O O7 0.601917 0.000000 0.711627
O O8 0.176932 0.500000 0.953373
O O9 0.290522 0.636913 0.987997
O O10 0.147626 0.691776 0.985741
O O11 0.894141 0.827269 0.912275
O O12 0.957899 0.842573 0.085314
O O13 0.908707 0.131198 0.756002
O O14 0.781296 0.150404 0.594906
O O15 0.879248 0.000000 0.629458
O O16 0.052470 0.000000 0.114297
O O17 0.812950 0.500000 0.428295
#
# Coordination Sequence:
#
# PCOD9179025 Si02
#       7
#     8   8   8   8   8   8   8
#     4  10  19  31  48  70  96 123 150 186 233 280
#     4   9  17  30  49  72  95 119 152 193 232 270
#     4  10  19  31  48  72 100 126 154 192 237 282
#     4  10  19  31  50  72  94 124 159 196 236 277
#     4  10  20  32  48  69  93 123 157 192 229 272
#     4  10  19  33  51  70  92 121 162 204 234 268
#     4   9  17  30  49  71  92 118 155 194 229 267
#
# _framework density 16.158835
#
# number of rings (size 3 to 8) (size 9 to 14) (size 15 to 20)
#    0.000    2.286    0.000    4.286    0.000    4.286 
#    0.000    1.429    0.000    1.714    0.000    8.000 
#    0.000    0.000    0.000    0.000    0.000    0.000 
#
# Total GULP energy -156101.244065 kJ/mol
# GULP energy per Si atom -5575.044431 kJ/mol
# Density = 1.612206 g / cm^3
# Si number density = 16.158835 Si / 1000 Ang^3
#
#
#
# Elastic Constant Matrix: (Units=GPa)
#
#
# Indices 1 2 3 4 5 6 
#
# 1 87.6351 39.3025 21.4353 0.0000 8.1023 0.0000
# 2 39.3025 68.8891 26.9559 0.0000 -4.7543 0.0000
# 3 21.4353 26.9559 32.5990 0.0000 2.5804 0.0000
# 4 0.0000 0.0000 0.0000 89.4221 0.0000 55.2779
# 5 8.1023 -4.7543 2.5804 0.0000 10.3597 0.0000
# 6 0.0000 0.0000 0.0000 55.2779 0.0000 84.2471
#
#
#
# Elastic Compliance Matrix: (Units=1/GPa)
#
#
# Indices 1 2 3 4 5 6 
#
# 1 0.018701 -0.011562 -0.001182 0.000000 -0.019638 0.000000
# 2 -0.011562 0.030999 -0.020272 0.000000 0.028318 0.000000
# 3 -0.001182 -0.020272 0.049862 0.000000 -0.020799 0.000000
# 4 0.000000 0.000000 0.000000 0.018814 0.000000 -0.012345
# 5 -0.019638 0.028318 -0.020799 0.000000 0.130063 0.000000
# 6 0.000000 0.000000 0.000000 -0.012345 0.000000 0.019970
#
#
# Mechanical properties :
#
#
# Convention : Reuss Voigt Hill
#
# Bulk Modulus (GPa) = 29.82355 40.50118 35.16237
# Shear Modulus (GPa) = 14.46692 43.56774 29.01733
#
# Velocity S-wave (km/s) = 2.99539 5.19814 4.24223
# Velocity P-wave (km/s) = 5.51903 7.81962 6.76780
#
# Compressibility (1/GPa) = 0.03353054
#
# Stress axis : x y z
#
# Youngs Moduli (GPa) = 53.47326 32.25905 20.05548
#
# Poissons Ratio (x) = 0.37298 0.02370
# Poissons Ratio (y) = 0.61826 0.40656
# Poissons Ratio (z) = 0.06318 0.65395
#
# Static dielectric constant tensor:
#      x y z
#    x 1.533870 0.000000 0.007700 
#    y 0.000000 1.519920 0.000000 
#    z 0.007700 0.000000 1.533970 
# 
# From -- ./inp_files/223377.got.cif
#   From: 2010.05.17/outbox.cif.g08.bks.cpg/sg12_112_cif.got.tgz:223377.got - 2010.06.03 13:09:07.
