data_PCOD9179357
_publ_section_title
;
Structure prediction by ZEFSAII (Michael W. Deem and Ramdas Pophale) SiO2 
 PCOD9179357
Probable space group: C 2/M
;
_chemical_formula_sum "Si O2"
_cell_formula_units_Z 64
_cell_length_a 27.863146
_cell_length_b 11.268270
_cell_length_c 15.320154
_cell_angle_alpha 90.000000
_cell_angle_beta 142.251611
_cell_angle_gamma 90.000000
_cell_volume 2944.695131
_symmetry_space_group_name_H-M "C 2/M"
_symmetry_group_IT_number 12
_symmetry_cell_setting 'monoclinic'
loop_
_space_group_symop_operation_xyz
x,y,z
-x,y,-z
-x,-y,-z
x,-y,z
1/2+x,1/2+y,z
1/2-x,1/2+y,-z
1/2-x,1/2-y,-z
1/2+x,1/2-y,z
loop_
_atom_site_type_symbol
_atom_site_label
_atom_site_fract_x
_atom_site_fract_y
_atom_site_fract_z
Si Si1 0.484478 0.637886 0.653110
Si Si2 0.440449 0.135728 0.846441
Si Si3 0.806862 0.774944 0.886027
Si Si4 0.700667 0.701889 0.318048
Si Si5 0.801597 0.868910 0.062083
Si Si6 0.644586 0.636693 0.677111
Si Si7 0.830643 0.875264 0.541252
Si Si8 0.949856 0.636187 0.160894
O O1 0.516182 0.500000 0.694682
O O2 0.432144 0.660853 0.490850
O O3 0.420034 0.631668 0.639131
O O4 0.533971 0.756179 0.748337
O O5 0.356988 0.192065 0.738233
O O6 0.479983 0.139563 0.808846
O O7 0.431612 0.000000 0.859501
O O8 0.500000 0.196171 0.000000
O O9 0.817583 0.833796 0.806916
O O10 0.719240 0.719632 0.763889
O O11 0.821172 0.862013 0.988139
O O12 0.870194 0.670733 0.994617
O O13 0.786676 0.758772 0.444574
O O14 0.685026 0.620008 0.378049
O O15 0.864925 0.858083 0.231409
O O16 0.764283 0.000000 0.023639
O O17 0.750000 0.750000 0.000000
O O18 0.665331 0.500000 0.687230
O O19 0.799465 0.000000 0.458595
O O20 0.944782 0.500000 0.187368
#
# Coordination Sequence:
#
# PCOD9179357 Si02
#       8
#     8   8   8   8   8   8   8   8
#     4  10  20  38  60  82 114 157 202 244 294 356
#     4  10  19  31  49  74 110 149 192 238 282 332
#     4  11  21  34  60  89 121 152 195 248 300 354
#     4  11  20  33  52  79 116 150 195 242 296 343
#     4   9  20  39  63  93 124 151 193 251 306 358
#     4   9  18  37  64  87 109 149 201 246 291 351
#     4  10  21  34  51  77 111 152 200 243 286 345
#     4  11  23  37  56  88 125 159 199 248 302 354
#
# _framework density 21.733996999999999
#
# number of rings (size 3 to 8) (size 9 to 14) (size 15 to 20)
#    0.000    1.875    3.750    0.750    0.000    2.500 
#    0.000    3.125    0.000    5.250    0.000    0.000 
#    0.000    0.000    0.000    0.000    0.000    0.000 
#
# Total GULP energy -178252.798112 kJ/mol
# GULP energy per Si atom -5570.399941 kJ/mol
# Density = 2.168453 g / cm^3
# Si number density = 21.733997 Si / 1000 Ang^3
#
#
#
# Elastic Constant Matrix: (Units=GPa)
#
#
# Indices 1 2 3 4 5 6 
#
# 1 77.7788 22.0084 23.6055 0.0000 -28.1811 0.0000
# 2 22.0084 112.2095 45.3761 0.0000 -11.2415 0.0000
# 3 23.6055 45.3761 110.7918 0.0000 -33.8523 0.0000
# 4 0.0000 0.0000 0.0000 27.3561 0.0000 5.2888
# 5 -28.1811 -11.2415 -33.8523 0.0000 45.3301 0.0000
# 6 0.0000 0.0000 0.0000 5.2888 0.0000 22.2052
#
#
#
# Elastic Compliance Matrix: (Units=1/GPa)
#
#
# Indices 1 2 3 4 5 6 
#
# 1 0.017209 -0.002563 0.000593 0.000000 0.010506 0.000000
# 2 -0.002563 0.011085 -0.004717 0.000000 -0.002367 0.000000
# 3 0.000593 -0.004717 0.013717 0.000000 0.009442 0.000000
# 4 0.000000 0.000000 0.000000 0.038319 0.000000 -0.009127
# 5 0.010506 -0.002367 0.009442 0.000000 0.035056 0.000000
# 6 0.000000 0.000000 0.000000 -0.009127 0.000000 0.047208
#
#
# Mechanical properties :
#
#
# Convention : Reuss Voigt Hill
#
# Bulk Modulus (GPa) = 34.92014 53.64001 44.28008
# Shear Modulus (GPa) = 26.95228 32.96429 29.95828
#
# Velocity S-wave (km/s) = 3.52532 3.89873 3.71672
# Velocity P-wave (km/s) = 5.71598 6.70825 6.23190
#
# Compressibility (1/GPa) = 0.02863677
#
# Stress axis : x y z
#
# Youngs Moduli (GPa) = 58.11064 90.21227 72.90390
#
# Poissons Ratio (x) = 0.23117 -0.04323
# Poissons Ratio (y) = 0.14891 0.34390
# Poissons Ratio (z) = -0.03446 0.42555
#
# Static dielectric constant tensor:
#      x y z
#    x 1.858280 0.000000 -0.012140 
#    y 0.000000 1.817980 0.000000 
#    z -0.012140 0.000000 1.858750 
# 
# From -- ./inp_files/250888.got.cif
#   From: 2010.05.17/outbox.cif.g08.bks.cpg/sg12_126_cif.got.tgz:250888.got - 2010.06.03 13:09:07.
