data_PCOD9179540
_publ_section_title
;
Structure prediction by ZEFSAII (Michael W. Deem and Ramdas Pophale) SiO2 
 PCOD9179540
Probable space group: C 2/M
;
_chemical_formula_sum "Si O2"
_cell_formula_units_Z 56
_cell_length_a 29.772441
_cell_length_b 8.865352
_cell_length_c 19.779648
_cell_angle_alpha 90.000000
_cell_angle_beta 41.023051
_cell_angle_gamma 90.000000
_cell_volume 3426.674222
_symmetry_space_group_name_H-M "C 2/M"
_symmetry_group_IT_number 12
_symmetry_cell_setting 'monoclinic'
loop_
_space_group_symop_operation_xyz
x,y,z
-x,y,-z
-x,-y,-z
x,-y,z
1/2+x,1/2+y,z
1/2-x,1/2+y,-z
1/2-x,1/2-y,-z
1/2+x,1/2-y,z
loop_
_atom_site_type_symbol
_atom_site_label
_atom_site_fract_x
_atom_site_fract_y
_atom_site_fract_z
Si Si1 0.256496 0.181650 0.386910
Si Si2 0.642802 0.818262 0.614431
Si Si3 0.994340 0.318532 0.299688
Si Si4 0.207236 0.180854 0.297484
Si Si5 0.142288 0.819985 0.122158
Si Si6 0.942447 0.318686 0.510053
Si Si7 0.742420 0.180076 0.116449
O O1 0.325520 0.224623 0.348856
O O2 0.194069 0.250876 0.500459
O O3 0.248292 0.226982 0.318560
O O4 0.250927 0.000000 0.396070
O O5 0.565998 0.772574 0.683204
O O6 0.645430 0.000000 0.605939
O O7 0.002969 0.500000 0.286723
O O8 0.065812 0.240174 0.203363
O O9 0.969029 0.282120 0.404561
O O10 0.129520 0.239568 0.393516
O O11 0.239685 0.249197 0.193356
O O12 0.206707 0.000000 0.293760
O O13 0.179497 0.744204 0.143934
O O14 0.143025 0.000000 0.129868
O O15 0.189321 0.782561 0.003743
O O16 0.932276 0.500000 0.525022
O O17 0.000000 0.278164 0.500000
O O18 0.736329 0.000000 0.127617
#
# Coordination Sequence:
#
# PCOD9179540 Si02
#       7
#     8   8   8   8   8   8   8
#     4   9  18  31  48  73 103 132 167 211 251 292
#     4   9  17  31  50  72 100 135 172 204 245 302
#     4  10  19  31  50  75 103 137 170 204 249 303
#     4  11  21  32  50  76 103 132 166 210 256 294
#     4  10  21  36  55  77 100 129 168 213 254 294
#     4  10  20  32  46  69 102 137 168 200 245 304
#     4  10  21  37  55  74  99 133 171 208 249 302
#
# _framework density 16.342376000000002
#
# number of rings (size 3 to 8) (size 9 to 14) (size 15 to 20)
#    0.000    2.143    1.429    2.143    0.000    4.857 
#    0.000    0.000    0.000    0.857    0.000    6.000 
#    0.000    0.000    0.000    0.000    0.000    0.000 
#
# Total GULP energy -156232.060798 kJ/mol
# GULP energy per Si atom -5579.716457 kJ/mol
# Density = 1.630518 g / cm^3
# Si number density = 16.342376 Si / 1000 Ang^3
#
#
#
# Elastic Constant Matrix: (Units=GPa)
#
#
# Indices 1 2 3 4 5 6 
#
# 1 160.4245 42.9243 80.4227 -0.0011 15.0174 -0.0055
# 2 42.9243 25.4061 33.9312 0.0000 5.5851 0.0007
# 3 80.4227 33.9312 82.2604 0.0029 12.2554 -0.0005
# 4 -0.0011 0.0000 0.0029 26.8411 0.0001 -5.7911
# 5 15.0174 5.5851 12.2554 0.0001 23.2113 0.0032
# 6 -0.0055 0.0007 -0.0005 -5.7911 0.0032 14.8153
#
#
#
# Elastic Compliance Matrix: (Units=1/GPa)
#
#
# Indices 1 2 3 4 5 6 
#
# 1 0.013670 -0.011606 -0.008331 0.000003 -0.001653 0.000007
# 2 -0.011606 0.097596 -0.028796 0.000001 -0.000771 -0.000009
# 3 -0.008331 -0.028796 0.032935 -0.000004 -0.005070 -0.000001
# 4 0.000003 0.000001 -0.000004 0.040688 -0.000002 0.015904
# 5 -0.001653 -0.000771 -0.005070 -0.000002 0.047014 -0.000012
# 6 0.000007 -0.000009 -0.000001 0.015904 -0.000012 0.073714
#
#
# Mechanical properties :
#
#
# Convention : Reuss Voigt Hill
#
# Bulk Modulus (GPa) = 21.39682 64.73861 43.06771
# Shear Modulus (GPa) = 11.94282 20.36106 16.15194
#
# Velocity S-wave (km/s) = 2.70624 3.53357 3.14721
# Velocity P-wave (km/s) = 4.78396 7.50654 6.29422
#
# Compressibility (1/GPa) = 0.04673592
#
# Stress axis : x y z
#
# Youngs Moduli (GPa) = 73.15254 10.24628 30.36306
#
# Poissons Ratio (x) = 0.11892 0.25296
# Poissons Ratio (y) = 0.84900 0.87432
# Poissons Ratio (z) = 0.60945 0.29505
#
# Static dielectric constant tensor:
#      x y z
#    x 1.561080 0.000000 0.009310 
#    y 0.000000 1.528760 0.000000 
#    z 0.009310 0.000000 1.517250 
# 
# From -- ./inp_files/295084.got.cif
#   From: 2010.05.17/outbox.cif.g08.bks.cpg/sg12_148_cif.got.tgz:295084.got - 2010.06.03 13:09:07.
