data_PCOD9179938
_publ_section_title
;
Structure prediction by ZEFSAII (Michael W. Deem and Ramdas Pophale) SiO2 
 PCOD9179938
Probable space group: C 2/M
;
_chemical_formula_sum "Si O2"
_cell_formula_units_Z 64
_cell_length_a 25.077703
_cell_length_b 8.875481
_cell_length_c 20.587142
_cell_angle_alpha 90.000000
_cell_angle_beta 126.099438
_cell_angle_gamma 90.000000
_cell_volume 3702.411985
_symmetry_space_group_name_H-M "C 2/M"
_symmetry_group_IT_number 12
_symmetry_cell_setting 'monoclinic'
loop_
_space_group_symop_operation_xyz
x,y,z
-x,y,-z
-x,-y,-z
x,-y,z
1/2+x,1/2+y,z
1/2-x,1/2+y,-z
1/2-x,1/2-y,-z
1/2+x,1/2-y,z
loop_
_atom_site_type_symbol
_atom_site_label
_atom_site_fract_x
_atom_site_fract_y
_atom_site_fract_z
Si Si1 0.833017 0.180162 0.504923
Si Si2 0.575586 0.681180 0.546943
Si Si3 0.074610 0.318364 0.037732
Si Si4 0.692864 0.320574 0.368832
Si Si5 0.181283 0.319364 0.719944
Si Si6 0.344022 0.320263 0.018531
Si Si7 0.679271 0.180467 0.224033
Si Si8 0.192814 0.319449 0.876383
O O1 0.894169 0.214777 0.502322
O O2 0.768399 0.265624 0.432431
O O3 0.841567 0.216522 0.587047
O O4 0.819794 0.000000 0.491254
O O5 0.500000 0.729100 0.500000
O O6 0.578657 0.500000 0.557955
O O7 0.623151 0.757351 0.633454
O O8 0.075630 0.500000 0.033147
O O9 0.123997 0.275840 0.131778
O O10 0.102925 0.249967 0.991812
O O11 0.000000 0.271144 0.000000
O O12 0.691690 0.500000 0.358704
O O13 0.663936 0.240052 0.285049
O O14 0.185507 0.500000 0.718050
O O15 0.250619 0.249966 0.746495
O O16 0.171025 0.279164 0.788225
O O17 0.349134 0.500000 0.021632
O O18 0.346256 0.259233 0.093481
O O19 0.270391 0.278611 0.939914
O O20 0.684746 0.000000 0.229002
O O21 0.188007 0.500000 0.880812
#
# Coordination Sequence:
#
# PCOD9179938 Si02
#       8
#     8   8   8   8   8   8   8   8
#     4   9  18  33  52  77 107 142 180 217 267 320
#     4  10  21  37  56  79 111 148 182 221 270 325
#     4  10  22  39  57  78 110 151 187 223 275 334
#     4  10  19  31  52  80 109 139 175 224 271 317
#     4  11  21  35  56  83 111 140 182 229 271 318
#     4  10  19  33  55  83 111 142 182 226 274 325
#     4  11  21  34  55  81 108 140 182 227 272 324
#     4   9  19  34  53  80 113 143 177 226 276 325
#
# _framework density 17.286028000000002
#
# number of rings (size 3 to 8) (size 9 to 14) (size 15 to 20)
#    0.000    2.000    2.500    1.500    0.000    3.000 
#    0.000    1.250    0.000    3.000    0.000    0.000 
#    0.000    0.000    0.000    0.000    0.000    0.000 
#
# Total GULP energy -178607.006358 kJ/mol
# GULP energy per Si atom -5581.468949 kJ/mol
# Density = 1.724668 g / cm^3
# Si number density = 17.286028 Si / 1000 Ang^3
#
#
#
# Elastic Constant Matrix: (Units=GPa)
#
#
# Indices 1 2 3 4 5 6 
#
# 1 160.6622 49.4699 88.4345 0.0000 -14.1185 0.0000
# 2 49.4699 31.8406 41.7840 0.0000 -5.6597 0.0000
# 3 88.4345 41.7840 116.9326 0.0000 -11.2814 0.0000
# 4 0.0000 0.0000 0.0000 17.3580 0.0000 -10.5013
# 5 -14.1185 -5.6597 -11.2814 0.0000 29.8061 0.0000
# 6 0.0000 0.0000 0.0000 -10.5013 0.0000 23.7946
#
#
#
# Elastic Compliance Matrix: (Units=1/GPa)
#
#
# Indices 1 2 3 4 5 6 
#
# 1 0.013446 -0.014033 -0.004979 0.000000 0.001820 0.000000
# 2 -0.014033 0.074109 -0.015726 0.000000 0.001473 0.000000
# 3 -0.004979 -0.015726 0.018081 0.000000 0.001499 0.000000
# 4 0.000000 0.000000 0.000000 0.078595 0.000000 0.034687
# 5 0.001820 0.001473 0.001499 0.000000 0.035259 0.000000
# 6 0.000000 0.000000 0.000000 0.034687 0.000000 0.057335
#
#
# Mechanical properties :
#
#
# Convention : Reuss Voigt Hill
#
# Bulk Modulus (GPa) = 27.65528 74.31246 50.98387
# Shear Modulus (GPa) = 13.95264 22.84153 18.39709
#
# Velocity S-wave (km/s) = 2.84414 3.63903 3.26586
# Velocity P-wave (km/s) = 5.17870 7.79358 6.61660
#
# Compressibility (1/GPa) = 0.03615946
#
# Stress axis : x y z
#
# Youngs Moduli (GPa) = 74.37392 13.49363 55.30561
#
# Poissons Ratio (x) = 0.18936 0.27534
# Poissons Ratio (y) = 1.04371 0.86976
# Poissons Ratio (z) = 0.37027 0.21221
#
# Static dielectric constant tensor:
#      x y z
#    x 1.578500 0.000000 -0.020200 
#    y 0.000000 1.578350 0.000000 
#    z -0.020200 0.000000 1.571600 
# 
# From -- ./inp_files/324344.got.cif
#   From: 2010.05.17/outbox.cif.g08.bks.cpg/sg12_163_cif.got.tgz:324344.got - 2010.06.03 13:09:07.
