data_PCOD9179356
_publ_section_title
;
Structure prediction by ZEFSAII (Michael W. Deem and Ramdas Pophale) SiO2 
 PCOD9179356
Probable space group: C 2/M
;
_chemical_formula_sum "Si O2"
_cell_formula_units_Z 64
_cell_length_a 26.581640
_cell_length_b 8.206512
_cell_length_c 15.040624
_cell_angle_alpha 90.000000
_cell_angle_beta 75.031009
_cell_angle_gamma 90.000000
_cell_volume 3169.661795
_symmetry_space_group_name_H-M "C 2/M"
_symmetry_group_IT_number 12
_symmetry_cell_setting 'monoclinic'
loop_
_space_group_symop_operation_xyz
x,y,z
-x,y,-z
-x,-y,-z
x,-y,z
1/2+x,1/2+y,z
1/2-x,1/2+y,-z
1/2-x,1/2-y,-z
1/2+x,1/2-y,z
loop_
_atom_site_type_symbol
_atom_site_label
_atom_site_fract_x
_atom_site_fract_y
_atom_site_fract_z
Si Si1 0.615068 0.196041 0.629828
Si Si2 0.303034 0.189617 0.929236
Si Si3 0.700864 0.304290 0.461426
Si Si4 0.581331 0.198663 0.093285
Si Si5 0.437368 0.688926 0.089547
Si Si6 0.281306 0.686618 0.747783
Si Si7 0.011348 0.311562 0.757966
Si Si8 0.827433 0.814290 0.220815
O O1 0.646961 0.242269 0.527934
O O2 0.555280 0.255526 0.670467
O O3 0.648591 0.274091 0.694179
O O4 0.615263 0.000000 0.640336
O O5 0.359254 0.259907 0.932028
O O6 0.300410 0.216451 0.824491
O O7 0.305023 0.000000 0.949207
O O8 0.250000 0.250000 0.000000
O O9 0.701665 0.500000 0.460965
O O10 0.750000 0.250000 0.500000
O O11 0.706022 0.248946 0.356743
O O12 0.545896 0.256326 0.193016
O O13 0.581178 0.000000 0.094082
O O14 0.554076 0.256197 0.014768
O O15 0.452616 0.500000 0.096826
O O16 0.460532 0.796362 0.158524
O O17 0.375216 0.698725 0.132111
O O18 0.299280 0.500000 0.746642
O O19 0.218764 0.694397 0.780679
O O20 0.004107 0.500000 0.736796
O O21 0.807522 0.000000 0.228897
#
# Coordination Sequence:
#
# PCOD9179356 Si02
#       8
#     8   8   8   8   8   8   8   8
#     4  10  19  32  52  79 110 143 177 219 273 330
#     4  11  24  41  61  83 110 146 189 234 278 327
#     4  11  22  35  55  83 116 149 183 227 278 338
#     4  10  21  37  55  75 102 141 185 228 274 327
#     4  10  20  31  48  79 111 140 178 224 274 325
#     4  11  23  37  55  80 111 147 188 230 276 330
#     4   9  19  35  54  76 106 143 182 223 272 330
#     4  10  19  31  49  74 109 147 181 220 268 328
#
# _framework density 20.191428999999999
#
# number of rings (size 3 to 8) (size 9 to 14) (size 15 to 20)
#    0.000    1.750    1.250    3.375    0.000    8.500 
#    0.000    0.000    0.000    0.750    0.000    5.250 
#    0.000    0.000    0.000    0.000    0.000    0.000 
#
# Total GULP energy -178502.579274 kJ/mol
# GULP energy per Si atom -5578.205602 kJ/mol
# Density = 2.014547 g / cm^3
# Si number density = 20.191429 Si / 1000 Ang^3
#
#
#
# Elastic Constant Matrix: (Units=GPa)
#
#
# Indices 1 2 3 4 5 6 
#
# 1 76.6962 1.4639 28.7753 0.0000 -19.6860 0.0000
# 2 1.4639 23.2151 8.3639 0.0000 -9.3065 0.0000
# 3 28.7753 8.3639 95.9264 0.0000 -20.3029 0.0000
# 4 0.0000 0.0000 0.0000 24.0703 0.0000 -1.0205
# 5 -19.6860 -9.3065 -20.3029 0.0000 30.8480 0.0000
# 6 0.0000 0.0000 0.0000 -1.0205 0.0000 14.9838
#
#
#
# Elastic Compliance Matrix: (Units=1/GPa)
#
#
# Indices 1 2 3 4 5 6 
#
# 1 0.016689 0.004022 -0.003307 0.000000 0.009687 0.000000
# 2 0.004022 0.050117 -0.002130 0.000000 0.016285 0.000000
# 3 -0.003307 -0.002130 0.012803 0.000000 0.005674 0.000000
# 4 0.000000 0.000000 0.000000 0.041665 0.000000 0.002838
# 5 0.009687 0.016285 0.005674 0.000000 0.047246 0.000000
# 6 0.000000 0.000000 0.000000 0.002838 0.000000 0.066932
#
#
# Mechanical properties :
#
#
# Convention : Reuss Voigt Hill
#
# Bulk Modulus (GPa) = 13.02393 30.33822 21.68107
# Shear Modulus (GPa) = 18.94840 24.46273 21.70557
#
# Velocity S-wave (km/s) = 3.06672 3.48449 3.28226
# Velocity P-wave (km/s) = 4.35935 5.58989 5.01252
#
# Compressibility (1/GPa) = 0.07678174
#
# Stress axis : x y z
#
# Youngs Moduli (GPa) = 59.92058 19.95313 78.10614
#
# Poissons Ratio (x) = -0.08026 0.25826
# Poissons Ratio (y) = -0.24102 0.16634
# Poissons Ratio (z) = 0.19813 0.04249
#
# Static dielectric constant tensor:
#      x y z
#    x 1.754190 0.000000 -0.054820 
#    y 0.000000 1.718240 0.000000 
#    z -0.054820 0.000000 1.752180 
# 
# From -- ./inp_files/243752.got.cif
#   From: 2010.05.17/outbox.cif.g08.bks.cpg/sg12_122_cif.got.tgz:243752.got - 2010.06.03 13:09:07.
