data_PCOD9179015
_publ_section_title
;
Structure prediction by ZEFSAII (Michael W. Deem and Ramdas Pophale) SiO2 
 PCOD9179015
Probable space group: C 2/M
;
_chemical_formula_sum "Si O2"
_cell_formula_units_Z 64
_cell_length_a 33.933156
_cell_length_b 9.112828
_cell_length_c 14.796677
_cell_angle_alpha 90.000000
_cell_angle_beta 115.604113
_cell_angle_gamma 90.000000
_cell_volume 4126.221875
_symmetry_space_group_name_H-M "C 2/M"
_symmetry_group_IT_number 12
_symmetry_cell_setting 'monoclinic'
loop_
_space_group_symop_operation_xyz
x,y,z
-x,y,-z
-x,-y,-z
x,-y,z
1/2+x,1/2+y,z
1/2-x,1/2+y,-z
1/2-x,1/2-y,-z
1/2+x,1/2-y,z
loop_
_atom_site_type_symbol
_atom_site_label
_atom_site_fract_x
_atom_site_fract_y
_atom_site_fract_z
Si Si1 0.877529 0.171602 0.809869
Si Si2 0.045275 0.323156 0.596113
Si Si3 0.043106 0.822915 0.984520
Si Si4 0.522813 0.826696 0.777765
Si Si5 0.880566 0.829573 0.446026
Si Si6 0.065709 0.835399 0.315111
Si Si7 0.704666 0.174640 0.348100
Si Si8 0.702553 0.824851 0.558940
O O1 0.904118 0.179520 0.742282
O O2 0.834027 0.264992 0.752757
O O3 0.866410 0.000000 0.814016
O O4 0.912414 0.219876 0.919856
O O5 0.048810 0.500000 0.591170
O O6 0.041898 0.285273 0.698671
O O7 0.086735 0.247114 0.591532
O O8 0.000000 0.280193 0.500000
O O9 0.041165 0.756951 0.882852
O O10 0.042003 0.000000 0.979538
O O11 0.000000 0.777970 0.000000
O O12 0.471837 0.784490 0.722417
O O13 0.528368 0.000000 0.795196
O O14 0.905803 0.825039 0.566902
O O15 0.835251 0.746104 0.418091
O O16 0.873156 0.000000 0.415496
O O17 0.045612 0.000000 0.291463
O O18 0.693751 0.206106 0.443299
O O19 0.750379 0.254658 0.374097
O O20 0.709544 0.000000 0.344107
O O21 0.703665 0.000000 0.571060
#
# Coordination Sequence:
#
# PCOD9179015 Si02
#       8
#     8   8   8   8   8   8   8   8
#     4  10  19  33  51  71 100 138 172 205 251 302
#     4  10  21  36  50  69 101 136 170 209 255 303
#     4  10  20  35  52  71  99 136 172 208 252 300
#     4  11  22  34  50  71  99 134 172 216 254 291
#     4  11  21  32  51  76 100 132 173 213 249 294
#     4  10  19  31  48  70 101 135 170 208 247 297
#     4  10  20  32  49  74 103 133 169 210 248 294
#     4  10  20  33  50  72 103 138 167 202 253 304
#
# _framework density 15.510555999999999
#
# number of rings (size 3 to 8) (size 9 to 14) (size 15 to 20)
#    0.000    1.750    3.750    1.500    0.000    4.000 
#    0.000    0.000    0.000    0.000    0.000    0.875 
#    0.000    0.000    0.000    0.000    0.000    0.000 
#
# Total GULP energy -178559.283134 kJ/mol
# GULP energy per Si atom -5579.977598 kJ/mol
# Density = 1.547525 g / cm^3
# Si number density = 15.510556 Si / 1000 Ang^3
#
#
#
# Elastic Constant Matrix: (Units=GPa)
#
#
# Indices 1 2 3 4 5 6 
#
# 1 114.1355 58.4006 59.5560 0.0000 8.8261 0.0000
# 2 58.4006 53.6415 45.4361 0.0000 6.0483 0.0000
# 3 59.5560 45.4361 98.7060 0.0000 2.0141 0.0000
# 4 0.0000 0.0000 0.0000 24.6275 0.0000 3.7989
# 5 8.8261 6.0483 2.0141 0.0000 24.9551 0.0000
# 6 0.0000 0.0000 0.0000 3.7989 0.0000 27.6571
#
#
#
# Elastic Compliance Matrix: (Units=1/GPa)
#
#
# Indices 1 2 3 4 5 6 
#
# 1 0.020599 -0.019134 -0.003573 0.000000 -0.002360 0.000000
# 2 -0.019134 0.049345 -0.011082 0.000000 -0.004298 0.000000
# 3 -0.003573 -0.011082 0.017336 0.000000 0.002550 0.000000
# 4 0.000000 0.000000 0.000000 0.041484 0.000000 -0.005698
# 5 -0.002360 -0.004298 0.002550 0.000000 0.041742 0.000000
# 6 0.000000 0.000000 0.000000 -0.005698 0.000000 0.036940
#
#
# Mechanical properties :
#
#
# Convention : Reuss Voigt Hill
#
# Bulk Modulus (GPa) = 50.75488 65.91873 58.33680
# Shear Modulus (GPa) = 17.75629 22.32062 20.03845
#
# Velocity S-wave (km/s) = 3.38714 3.79761 3.59823
# Velocity P-wave (km/s) = 6.93475 7.86261 7.41321
#
# Compressibility (1/GPa) = 0.01970254
#
# Stress axis : x y z
#
# Youngs Moduli (GPa) = 48.54699 20.26543 57.68356
#
# Poissons Ratio (x) = 0.38776 0.20609
# Poissons Ratio (y) = 0.92889 0.63925
# Poissons Ratio (z) = 0.17345 0.22458
#
# Static dielectric constant tensor:
#      x y z
#    x 1.492960 0.000000 -0.000060 
#    y 0.000000 1.524200 0.000000 
#    z -0.000060 0.000000 1.512850 
# 
# From -- ./inp_files/249231.got.cif
#   From: 2010.05.17/outbox.cif.g08.bks.cpg/sg12_125_cif.got.tgz:249231.got - 2010.06.03 13:09:07.
