data_PCOD9179097
_publ_section_title
;
Structure prediction by ZEFSAII (Michael W. Deem and Ramdas Pophale) SiO2 
 PCOD9179097
Probable space group: C 2/M
;
_chemical_formula_sum "Si O2"
_cell_formula_units_Z 56
_cell_length_a 23.111008
_cell_length_b 8.942301
_cell_length_c 21.385348
_cell_angle_alpha 90.000000
_cell_angle_beta 49.997142
_cell_angle_gamma 90.000000
_cell_volume 3385.480230
_symmetry_space_group_name_H-M "C 2/M"
_symmetry_group_IT_number 12
_symmetry_cell_setting 'monoclinic'
loop_
_space_group_symop_operation_xyz
x,y,z
-x,y,-z
-x,-y,-z
x,-y,z
1/2+x,1/2+y,z
1/2-x,1/2+y,-z
1/2-x,1/2-y,-z
1/2+x,1/2-y,z
loop_
_atom_site_type_symbol
_atom_site_label
_atom_site_fract_x
_atom_site_fract_y
_atom_site_fract_z
Si Si1 0.690694 0.678134 0.954356
Si Si2 0.587088 0.177455 0.920244
Si Si3 0.491580 0.180460 0.264897
Si Si4 0.650359 0.678154 0.126354
Si Si5 0.865081 0.328487 0.444636
Si Si6 0.884299 0.822004 0.233882
Si Si7 0.257332 0.170430 0.396262
O O1 0.695303 0.500000 0.941373
O O2 0.639826 0.754297 0.937241
O O3 0.773962 0.749591 0.898193
O O4 0.655222 0.703671 0.047963
O O5 0.602761 0.258169 0.843900
O O6 0.600441 0.000000 0.904738
O O7 0.500000 0.199859 0.000000
O O8 0.575313 0.245165 0.204635
O O9 0.444764 0.221384 0.360171
O O10 0.444908 0.247873 0.238991
O O11 0.491147 0.000000 0.260502
O O12 0.649328 0.500000 0.137518
O O13 0.870808 0.500000 0.462179
O O14 0.823784 0.229983 0.525231
O O15 0.809645 0.328474 0.422456
O O16 0.802001 0.773357 0.316640
O O17 0.892487 0.000000 0.229773
O O18 0.254076 0.000000 0.376035
#
# Coordination Sequence:
#
# PCOD9179097 Si02
#       7
#     8   8   8   8   8   8   8
#     4  10  21  36  53  73  98 129 165 203 244 289
#     4  11  23  37  53  73  99 130 164 203 245 289
#     4  10  19  31  48  72 102 132 164 203 246 291
#     4  10  20  34  53  75  99 128 163 203 245 290
#     4   8  15  26  41  64  94 127 160 196 240 288
#     4  11  21  32  48  70  99 133 167 202 243 294
#     4   9  16  27  43  64  93 127 162 199 240 288
#
# _framework density 16.541228
#
# number of rings (size 3 to 8) (size 9 to 14) (size 15 to 20)
#    0.000    2.143    0.000    5.143    0.000    9.143 
#    0.000    0.000    0.000    0.000    0.000    1.000 
#    0.000    8.000    0.000    0.000    0.000    0.000 
#
# Total GULP energy -156227.387226 kJ/mol
# GULP energy per Si atom -5579.549544 kJ/mol
# Density = 1.650358 g / cm^3
# Si number density = 16.541228 Si / 1000 Ang^3
#
#
#
# Elastic Constant Matrix: (Units=GPa)
#
#
# Indices 1 2 3 4 5 6 
#
# 1 58.7157 37.3567 40.8922 0.0001 -12.3301 -0.0002
# 2 37.3567 101.5687 66.7174 0.0001 -10.8565 -0.0002
# 3 40.8922 66.7174 114.4140 0.0001 -27.6860 -0.0002
# 4 0.0001 0.0001 0.0001 32.1730 0.0000 -3.1301
# 5 -12.3301 -10.8565 -27.6860 0.0000 25.1783 0.0001
# 6 -0.0002 -0.0002 -0.0002 -3.1301 0.0001 22.9108
#
#
#
# Elastic Compliance Matrix: (Units=1/GPa)
#
#
# Indices 1 2 3 4 5 6 
#
# 1 0.024705 -0.005740 -0.004297 0.000000 0.004898 0.000000
# 2 -0.005740 0.017687 -0.009670 0.000000 -0.005818 0.000000
# 3 -0.004297 -0.009670 0.019616 0.000000 0.015296 0.000000
# 4 0.000000 0.000000 0.000000 0.031501 0.000000 0.004304
# 5 0.004898 -0.005818 0.015296 0.000000 0.056426 0.000000
# 6 0.000000 0.000000 0.000000 0.004304 0.000000 0.044236
#
#
# Mechanical properties :
#
#
# Convention : Reuss Voigt Hill
#
# Bulk Modulus (GPa) = 44.26095 62.73679 53.49887
# Shear Modulus (GPa) = 20.73705 24.70122 22.71914
#
# Velocity S-wave (km/s) = 3.54455 3.86853 3.71008
# Velocity P-wave (km/s) = 6.60059 7.61340 7.12502
#
# Compressibility (1/GPa) = 0.02259328
#
# Stress axis : x y z
#
# Youngs Moduli (GPa) = 40.47844 56.53991 50.97901
#
# Poissons Ratio (x) = 0.32454 0.21906
# Poissons Ratio (y) = 0.23235 0.49295
# Poissons Ratio (z) = 0.17394 0.54672
#
# Static dielectric constant tensor:
#      x y z
#    x 1.525480 0.000000 -0.012570 
#    y 0.000000 1.552270 0.000000 
#    z -0.012570 0.000000 1.562700 
# 
# From -- ./inp_files/295190.got.cif
#   From: 2010.05.17/outbox.cif.g08.bks.cpg/sg12_148_cif.got.tgz:295190.got - 2010.06.03 13:09:07.
