data_PCOD9179142
_publ_section_title
;
Structure prediction by ZEFSAII (Michael W. Deem and Ramdas Pophale) SiO2 
 PCOD9179142
Probable space group: C 2/M
;
_chemical_formula_sum "Si O2"
_cell_formula_units_Z 64
_cell_length_a 18.706465
_cell_length_b 16.334033
_cell_length_c 24.455491
_cell_angle_alpha 90.000000
_cell_angle_beta 150.807282
_cell_angle_gamma 90.000000
_cell_volume 3644.665465
_symmetry_space_group_name_H-M "C 2/M"
_symmetry_group_IT_number 12
_symmetry_cell_setting 'monoclinic'
loop_
_space_group_symop_operation_xyz
x,y,z
-x,y,-z
-x,-y,-z
x,-y,z
1/2+x,1/2+y,z
1/2-x,1/2+y,-z
1/2-x,1/2-y,-z
1/2+x,1/2-y,z
loop_
_atom_site_type_symbol
_atom_site_label
_atom_site_fract_x
_atom_site_fract_y
_atom_site_fract_z
Si Si1 0.560634 0.246485 0.157110
Si Si2 0.849905 0.310739 0.370965
Si Si3 0.022096 0.912086 0.950791
Si Si4 0.857458 0.364899 0.160583
Si Si5 0.292422 0.403338 0.623335
Si Si6 0.889135 0.405639 0.057141
Si Si7 0.590798 0.685555 0.835497
Si Si8 0.492017 0.904525 0.366472
O O1 0.730757 0.239365 0.285804
O O2 0.555290 0.327564 0.116624
O O3 0.491034 0.160465 0.094140
O O4 0.461118 0.277367 0.141202
O O5 0.772884 0.374779 0.361506
O O6 0.000000 0.284384 0.500000
O O7 0.894437 0.351662 0.343254
O O8 0.973954 0.000000 0.893097
O O9 0.193922 0.900161 0.054351
O O10 0.000000 0.919298 0.000000
O O11 0.917071 0.393847 0.141254
O O12 0.853946 0.265826 0.159291
O O13 0.947280 0.392142 0.273796
O O14 0.319133 0.500000 0.641797
O O15 0.444386 0.356250 0.714291
O O16 0.162174 0.385029 0.493363
O O17 0.911363 0.500000 0.057597
O O18 0.722345 0.377248 0.933727
O O19 0.470333 0.000000 0.366212
#
# Coordination Sequence:
#
# PCOD9179142 Si02
#       8
#     8   8   8   8   8   8   8   8
#     4  10  19  33  49  75 102 129 172 209 246 307
#     4   9  18  32  51  73 102 137 167 202 249 308
#     4  11  21  31  48  76 105 133 159 196 258 314
#     4  11  20  33  47  73 107 133 166 211 256 309
#     4   9  18  31  50  75 102 135 174 208 241 299
#     4  11  20  34  55  74  98 135 175 219 259 292
#     4  10  19  33  51  71 101 136 174 212 251 296
#     4  10  19  31  48  75 107 137 165 200 256 313
#
# _framework density 17.559911
#
# number of rings (size 3 to 8) (size 9 to 14) (size 15 to 20)
#    0.000    1.875    2.500    3.375    0.000    5.500 
#    0.000    0.000    0.000    0.750    0.000    0.000 
#    0.000    0.000    0.000    0.000    0.000    0.000 
#
# Total GULP energy -178336.840241 kJ/mol
# GULP energy per Si atom -5573.026258 kJ/mol
# Density = 1.751994 g / cm^3
# Si number density = 17.559911 Si / 1000 Ang^3
#
#
#
# Elastic Constant Matrix: (Units=GPa)
#
#
# Indices 1 2 3 4 5 6 
#
# 1 25.3261 14.0109 15.8110 -0.0002 3.6657 0.0010
# 2 14.0109 116.9517 48.3209 -0.0027 18.7270 -0.0002
# 3 15.8110 48.3209 92.9632 -0.0147 10.2028 -0.0017
# 4 -0.0002 -0.0027 -0.0147 25.0856 -0.0023 0.6023
# 5 3.6657 18.7270 10.2028 -0.0023 21.4242 0.0010
# 6 0.0010 -0.0002 -0.0017 0.6023 0.0010 18.3754
#
#
#
# Elastic Compliance Matrix: (Units=1/GPa)
#
#
# Indices 1 2 3 4 5 6 
#
# 1 0.045030 -0.002451 -0.006092 -0.000004 -0.002660 -0.000003
# 2 -0.002451 0.012187 -0.005059 -0.000002 -0.007824 0.000000
# 3 -0.006092 -0.005059 0.014585 0.000008 -0.001481 0.000001
# 4 -0.000004 -0.000002 0.000008 0.039895 0.000003 -0.001308
# 5 -0.002660 -0.007824 -0.001481 0.000003 0.054676 -0.000003
# 6 -0.000003 0.000000 0.000001 -0.001308 -0.000003 0.054464
#
#
# Mechanical properties :
#
#
# Convention : Reuss Voigt Hill
#
# Bulk Modulus (GPa) = 22.42324 43.50296 32.96310
# Shear Modulus (GPa) = 19.01804 23.45026 21.23415
#
# Velocity S-wave (km/s) = 3.29452 3.65834 3.48119
# Velocity P-wave (km/s) = 5.22199 6.53241 5.91361
#
# Compressibility (1/GPa) = 0.04459658
#
# Stress axis : x y z
#
# Youngs Moduli (GPa) = 22.20757 82.05202 68.56176
#
# Poissons Ratio (x) = 0.20114 0.41771
# Poissons Ratio (y) = 0.05444 0.34687
# Poissons Ratio (z) = 0.13530 0.41512
#
# Static dielectric constant tensor:
#      x y z
#    x 1.592730 0.000000 -0.009920 
#    y 0.000000 1.649190 0.000000 
#    z -0.009920 0.000000 1.651340 
# 
# From -- ./inp_files/344100.got.cif
#   From: 2010.05.17/outbox.cif.g08.bks.cpg/sg12_173_cif.got.tgz:344100.got - 2010.06.03 13:09:07.
