data_PCOD9179915
_publ_section_title
;
Structure prediction by ZEFSAII (Michael W. Deem and Ramdas Pophale) SiO2 
 PCOD9179915
Probable space group: C 2/M
;
_chemical_formula_sum "Si O2"
_cell_formula_units_Z 56
_cell_length_a 20.443602
_cell_length_b 7.496910
_cell_length_c 19.318712
_cell_angle_alpha 90.000000
_cell_angle_beta 119.501803
_cell_angle_gamma 90.000000
_cell_volume 2576.955543
_symmetry_space_group_name_H-M "C 2/M"
_symmetry_group_IT_number 12
_symmetry_cell_setting 'monoclinic'
loop_
_space_group_symop_operation_xyz
x,y,z
-x,y,-z
-x,-y,-z
x,-y,z
1/2+x,1/2+y,z
1/2-x,1/2+y,-z
1/2-x,1/2-y,-z
1/2+x,1/2-y,z
loop_
_atom_site_type_symbol
_atom_site_label
_atom_site_fract_x
_atom_site_fract_y
_atom_site_fract_z
Si Si1 0.541838 0.205817 0.863583
Si Si2 0.876283 0.281175 0.741302
Si Si3 0.518481 0.707650 0.434893
Si Si4 0.317530 0.214515 0.981380
Si Si5 0.264031 0.782725 0.803040
Si Si6 0.164683 0.711623 0.434834
Si Si7 0.095020 0.216651 0.739621
O O1 0.458461 0.281518 0.809152
O O2 0.580496 0.211859 0.808509
O O3 0.530395 0.000000 0.878670
O O4 0.603209 0.284846 0.947931
O O5 0.877623 0.500000 0.740425
O O6 0.813597 0.225518 0.763865
O O7 0.856753 0.221467 0.653260
O O8 0.500000 0.787120 0.500000
O O9 0.495804 0.500000 0.426652
O O10 0.605272 0.716922 0.459429
O O11 0.469365 0.781455 0.346065
O O12 0.296921 0.278241 0.893959
O O13 0.323773 0.000000 0.981003
O O14 0.250000 0.250000 0.000000
O O15 0.176850 0.731549 0.754672
O O16 0.265769 0.000000 0.804307
O O17 0.154789 0.500000 0.428657
O O18 0.250000 0.750000 0.500000
O O19 0.092603 0.000000 0.744190
#
# Coordination Sequence:
#
# PCOD9179915 Si02
#       7
#     8   8   8   8   8   8   8
#     4  10  19  33  54  80 108 141 176 221 272 318
#     4   9  19  35  55  78 109 142 178 222 272 323
#     4  10  22  38  59  86 113 144 187 234 277 329
#     4  10  19  31  52  79 108 138 177 224 269 317
#     4   9  18  32  52  80 107 140 182 221 266 321
#     4  11  23  39  60  83 113 150 184 229 281 334
#     4  10  19  33  56  80 106 142 181 221 264 322
#
# _framework density 21.731068
#
# number of rings (size 3 to 8) (size 9 to 14) (size 15 to 20)
#    0.000    2.143    2.857    0.429    2.000    0.857 
#    0.000    2.857    0.000    3.429    0.000    2.000 
#    0.000    0.000    0.000    0.000    0.000    0.000 
#
# Total GULP energy -156419.341872 kJ/mol
# GULP energy per Si atom -5586.405067 kJ/mol
# Density = 2.168161 g / cm^3
# Si number density = 21.731068 Si / 1000 Ang^3
#
#
#
# Elastic Constant Matrix: (Units=GPa)
#
#
# Indices 1 2 3 4 5 6 
#
# 1 130.2230 -19.7997 34.0713 0.0000 7.6224 0.0000
# 2 -19.7997 59.6321 -6.0000 0.0000 0.4329 0.0000
# 3 34.0713 -6.0000 92.7633 0.0000 13.7952 0.0000
# 4 0.0000 0.0000 0.0000 8.1919 0.0000 -4.7999
# 5 7.6224 0.4329 13.7952 0.0000 45.8374 0.0000
# 6 0.0000 0.0000 0.0000 -4.7999 0.0000 -2.8306
#
#
#
# Elastic Compliance Matrix: (Units=1/GPa)
#
#
# Indices 1 2 3 4 5 6 
#
# 1 0.008906 0.002659 -0.003010 0.000000 -0.000600 0.000000
# 2 0.002659 0.017684 0.000270 0.000000 -0.000690 0.000000
# 3 -0.003010 0.000270 0.012383 0.000000 -0.003229 0.000000
# 4 0.000000 0.000000 0.000000 0.061232 0.000000 -0.103833
# 5 -0.000600 -0.000690 -0.003229 0.000000 0.022894 0.000000
# 6 0.000000 0.000000 0.000000 -0.103833 0.000000 -0.177209
#
#
# Mechanical properties :
#
#
# Convention : Reuss Voigt Hill
#
# Bulk Modulus (GPa) = 25.76583 33.24019 29.50301
# Shear Modulus (GPa) = -121.92497 28.52952 -46.69772
#
# Velocity S-wave (km/s) = -7.49854 3.62725 -4.64064
# Velocity P-wave (km/s) = 7.94282 5.73341 3.88693
#
# Compressibility (1/GPa) = 0.03881110
#
# Stress axis : x y z
#
# Youngs Moduli (GPa) = 112.28396 56.54706 80.75403
#
# Poissons Ratio (x) = -0.15033 0.24306
# Poissons Ratio (y) = -0.29851 -0.02181
# Poissons Ratio (z) = 0.33796 -0.01527
#
# Static dielectric constant tensor:
#      x y z
#    x 1.758710 0.000000 0.016800 
#    y 0.000000 1.858540 0.000000 
#    z 0.016800 0.000000 1.786780 
# 
# From -- ./inp_files/280882.got.cif
#   From: 2010.05.17/outbox.cif.g08.bks.cpg/sg12_141_cif.got.tgz:280882.got - 2010.06.03 13:09:07.
