data_PCOD9179608
_publ_section_title
;
Structure prediction by ZEFSAII (Michael W. Deem and Ramdas Pophale) SiO2 
 PCOD9179608
Probable space group: C 2/M
;
_chemical_formula_sum "Si O2"
_cell_formula_units_Z 64
_cell_length_a 22.717477
_cell_length_b 18.603599
_cell_length_c 20.344780
_cell_angle_alpha 90.000000
_cell_angle_beta 153.318516
_cell_angle_gamma 90.000000
_cell_volume 3860.874475
_symmetry_space_group_name_H-M "C 2/M"
_symmetry_group_IT_number 12
_symmetry_cell_setting 'monoclinic'
loop_
_space_group_symop_operation_xyz
x,y,z
-x,y,-z
-x,-y,-z
x,-y,z
1/2+x,1/2+y,z
1/2-x,1/2+y,-z
1/2-x,1/2-y,-z
1/2+x,1/2-y,z
loop_
_atom_site_type_symbol
_atom_site_label
_atom_site_fract_x
_atom_site_fract_y
_atom_site_fract_z
Si Si1 0.348597 0.806742 0.131006
Si Si2 0.618014 0.748104 0.452378
Si Si3 0.510671 0.916894 0.206807
Si Si4 0.673798 0.682012 0.079088
Si Si5 0.252727 0.695796 0.699685
Si Si6 0.515988 0.811436 0.091442
Si Si7 0.076607 0.083728 0.199938
Si Si8 0.278136 0.366990 0.531885
O O1 0.477895 0.764021 0.281994
O O2 0.402137 0.870989 0.138640
O O3 0.273748 0.833798 0.120760
O O4 0.250000 0.750000 0.000000
O O5 0.626590 0.772357 0.536710
O O6 0.661345 0.668947 0.473112
O O7 0.721148 0.801754 0.519590
O O8 0.530988 0.874826 0.158410
O O9 0.649616 0.911801 0.384186
O O10 0.474516 0.000000 0.162441
O O11 0.744394 0.683954 0.219926
O O12 0.604566 0.760611 0.005744
O O13 0.553832 0.625802 0.952947
O O14 0.361900 0.756234 0.789772
O O15 0.304115 0.621300 0.720127
O O16 0.500000 0.836028 0.000000
O O17 0.114036 0.095900 0.314136
O O18 0.065500 0.000000 0.175033
#
# Coordination Sequence:
#
# PCOD9179608 Si02
#       8
#     8   8   8   8   8   8   8   8
#     4  11  21  34  51  74 107 142 176 208 255 319
#     4   9  17  30  54  74  94 133 174 216 259 307
#     4  11  21  33  53  80 107 136 171 219 274 317
#     4  10  20  33  51  74 106 140 177 215 254 312
#     4   9  18  33  53  77  99 132 181 225 262 304
#     4   9  17  33  54  76 101 132 175 223 262 308
#     4  10  19  31  50  77 107 139 176 220 268 311
#     4   9  17  31  51  75 103 128 171 220 267 308
#
# _framework density 16.576554999999999
#
# number of rings (size 3 to 8) (size 9 to 14) (size 15 to 20)
#    0.000    2.250    2.500    2.250    3.500    2.250 
#    0.000    0.000    0.000    0.000    0.000    6.125 
#    0.000    4.000    0.000    0.000    0.000    0.000 
#
# Total GULP energy -178195.997300 kJ/mol
# GULP energy per Si atom -5568.624916 kJ/mol
# Density = 1.653883 g / cm^3
# Si number density = 16.576555 Si / 1000 Ang^3
#
#
#
# Elastic Constant Matrix: (Units=GPa)
#
#
# Indices 1 2 3 4 5 6 
#
# 1 65.6129 39.0421 25.5365 -0.0001 -17.5827 -0.0001
# 2 39.0421 97.9827 35.2371 -0.0003 -15.4485 -0.0003
# 3 25.5365 35.2371 68.8594 -0.0004 -22.3062 -0.0003
# 4 -0.0001 -0.0003 -0.0004 13.3946 -0.0002 -2.2654
# 5 -17.5827 -15.4485 -22.3062 -0.0002 25.1857 -0.0002
# 6 -0.0001 -0.0003 -0.0003 -2.2654 -0.0002 11.4286
#
#
#
# Elastic Compliance Matrix: (Units=1/GPa)
#
#
# Indices 1 2 3 4 5 6 
#
# 1 0.022676 -0.006851 -0.001594 0.000000 0.010216 0.000000
# 2 -0.006851 0.014721 -0.005072 0.000000 -0.000245 0.000000
# 3 -0.001594 -0.005072 0.022915 0.000001 0.016071 0.000001
# 4 0.000000 0.000000 0.000001 0.077247 0.000002 0.015312
# 5 0.010216 -0.000245 0.016071 0.000002 0.060921 0.000002
# 6 0.000000 0.000000 0.000001 0.015312 0.000002 0.090535
#
#
# Mechanical properties :
#
#
# Convention : Reuss Voigt Hill
#
# Bulk Modulus (GPa) = 30.05009 48.00959 39.02984
# Shear Modulus (GPa) = 15.28394 18.84441 17.06418
#
# Velocity S-wave (km/s) = 3.03978 3.37532 3.21193
# Velocity P-wave (km/s) = 5.52157 6.64948 6.11160
#
# Compressibility (1/GPa) = 0.03327777
#
# Stress axis : x y z
#
# Youngs Moduli (GPa) = 44.09987 67.92936 43.63969
#
# Poissons Ratio (x) = 0.46541 0.06955
# Poissons Ratio (y) = 0.30215 0.22133
# Poissons Ratio (z) = 0.07029 0.34453
#
# Static dielectric constant tensor:
#      x y z
#    x 1.578810 0.000000 -0.030160 
#    y 0.000000 1.539470 0.000000 
#    z -0.030160 0.000000 1.607000 
# 
# From -- ./inp_files/285219.got.cif
#   From: 2010.05.17/outbox.cif.g08.bks.cpg/sg12_143_cif.got.tgz:285219.got - 2010.06.03 13:09:07.
