data_PCOD9179628
_publ_section_title
;
Structure prediction by ZEFSAII (Michael W. Deem and Ramdas Pophale) SiO2 
 PCOD9179628
Probable space group: C 2/M
;
_chemical_formula_sum "Si O2"
_cell_formula_units_Z 34
_cell_length_a 8.979018
_cell_length_b 18.353247
_cell_length_c 9.083235
_cell_angle_alpha 90.000000
_cell_angle_beta 65.098328
_cell_angle_gamma 90.000000
_cell_volume 1357.703009
_symmetry_space_group_name_H-M "C 2/M"
_symmetry_group_IT_number 12
_symmetry_cell_setting 'monoclinic'
loop_
_space_group_symop_operation_xyz
x,y,z
-x,y,-z
-x,-y,-z
x,-y,z
1/2+x,1/2+y,z
1/2-x,1/2+y,-z
1/2-x,1/2-y,-z
1/2+x,1/2-y,z
loop_
_atom_site_type_symbol
_atom_site_label
_atom_site_fract_x
_atom_site_fract_y
_atom_site_fract_z
Si Si1 0.664543 0.578159 0.642788
Si Si2 0.473270 0.820721 0.180999
Si Si3 0.000000 0.500000 0.500000
Si Si4 0.613456 0.317222 0.264850
Si Si5 0.241638 0.917524 0.949854
O O1 0.582809 0.500000 0.640204
O O2 0.855776 0.562848 0.531175
O O3 0.554289 0.641812 0.624651
O O4 0.664595 0.586956 0.820490
O O5 0.568104 0.765496 0.247144
O O6 0.279977 0.821758 0.289016
O O7 0.565610 0.897939 0.148247
O O8 0.500000 0.794024 0.000000
O O9 0.670097 0.359573 0.092332
O O10 0.223704 0.000000 0.010406
#
# Coordination Sequence:
#
# PCOD9179628 Si02
#       5
#     8   8   2   8   8
#     4   9  18  33  54  74  98 131 167 211 250 302
#     4  10  20  30  47  77 114 141 158 200 248 304
#     4   8  20  36  54  78  92 132 170 216 264 280
#     4  11  19  31  51  77 108 137 169 197 249 304
#     4  10  19  31  50  78 107 136 164 204 250 302
#
# _framework density 25.042294999999999
#
# number of rings (size 3 to 8) (size 9 to 14) (size 15 to 20)
#    0.706    1.412    0.000    7.059    0.000    7.059 
#    0.000    0.000    0.000    8.471    0.000    0.000 
#    0.000    0.000    0.000    0.000    0.000    0.000 
#
# Total GULP energy -94736.944922 kJ/mol
# GULP energy per Si atom -5572.761466 kJ/mol
# Density = 2.498530 g / cm^3
# Si number density = 25.042295 Si / 1000 Ang^3
#
#
#
# Elastic Constant Matrix: (Units=GPa)
#
#
# Indices 1 2 3 4 5 6 
#
# 1 125.4031 24.3899 28.6763 0.0000 -45.0025 0.0000
# 2 24.3899 67.2530 6.7667 0.0000 -16.7478 0.0000
# 3 28.6763 6.7667 96.8359 0.0000 -31.7309 0.0000
# 4 0.0000 0.0000 0.0000 16.3759 0.0000 -9.9157
# 5 -45.0025 -16.7478 -31.7309 0.0000 51.4900 0.0000
# 6 0.0000 0.0000 0.0000 -9.9157 0.0000 68.7421
#
#
#
# Elastic Compliance Matrix: (Units=1/GPa)
#
#
# Indices 1 2 3 4 5 6 
#
# 1 0.011834 -0.001881 -0.000231 0.000000 0.009589 0.000000
# 2 -0.001881 0.016522 0.000783 0.000000 0.004213 0.000000
# 3 -0.000231 0.000783 0.012979 0.000000 0.008051 0.000000
# 4 0.000000 0.000000 0.000000 0.066909 0.000000 0.009651
# 5 0.009589 0.004213 0.008051 0.000000 0.034134 0.000000
# 6 0.000000 0.000000 0.000000 0.009651 0.000000 0.015939
#
#
# Mechanical properties :
#
#
# Convention : Reuss Voigt Hill
#
# Bulk Modulus (GPa) = 25.85543 45.46197 35.65870
# Shear Modulus (GPa) = 28.75786 42.63222 35.69504
#
# Velocity S-wave (km/s) = 3.39244 4.13050 3.77953
# Velocity P-wave (km/s) = 5.06873 6.39856 5.77207
#
# Compressibility (1/GPa) = 0.03867660
#
# Stress axis : x y z
#
# Youngs Moduli (GPa) = 84.50262 60.52714 77.05049
#
# Poissons Ratio (x) = 0.11382 0.01779
# Poissons Ratio (y) = 0.15891 -0.06032
# Poissons Ratio (z) = 0.01952 -0.04738
#
# Static dielectric constant tensor:
#      x y z
#    x 1.975980 0.000000 -0.025830 
#    y 0.000000 1.902850 0.000000 
#    z -0.025830 0.000000 2.118570 
# 
# From -- ./inp_files/118601.got.cif
#   From: 2010.05.17/outbox.cif.g08.bks.cpg/sg12_60_cif.got.tgz:118601.got - 2010.06.03 13:09:07.
