data_PCOD9179137
_publ_section_title
;
Structure prediction by ZEFSAII (Michael W. Deem and Ramdas Pophale) SiO2 
 PCOD9179137
Probable space group: C 2/M
;
_chemical_formula_sum "Si O2"
_cell_formula_units_Z 48
_cell_length_a 23.548386
_cell_length_b 20.628958
_cell_length_c 5.050627
_cell_angle_alpha 90.000000
_cell_angle_beta 127.275252
_cell_angle_gamma 90.000000
_cell_volume 1952.325732
_symmetry_space_group_name_H-M "C 2/M"
_symmetry_group_IT_number 12
_symmetry_cell_setting 'monoclinic'
loop_
_space_group_symop_operation_xyz
x,y,z
-x,y,-z
-x,-y,-z
x,-y,z
1/2+x,1/2+y,z
1/2-x,1/2+y,-z
1/2-x,1/2-y,-z
1/2+x,1/2-y,z
loop_
_atom_site_type_symbol
_atom_site_label
_atom_site_fract_x
_atom_site_fract_y
_atom_site_fract_z
Si Si1 0.307494 0.390571 0.396255
Si Si2 0.432710 0.252566 0.473385
Si Si3 0.137733 0.661202 0.338657
Si Si4 0.954346 0.906269 0.620739
Si Si5 0.797795 0.194051 0.861572
Si Si6 0.650157 0.073295 0.892984
O O1 0.373297 0.426914 0.446559
O O2 0.328262 0.358457 0.735955
O O3 0.233924 0.428321 0.212972
O O4 0.289886 0.333545 0.137545
O O5 0.500000 0.228265 0.500000
O O6 0.416327 0.212480 0.689243
O O7 0.447710 0.327715 0.584274
O O8 0.360402 0.254106 0.090072
O O9 0.215183 0.698086 0.536731
O O10 0.117457 0.621197 0.020509
O O11 0.145754 0.606597 0.593351
O O12 0.000000 0.927493 0.500000
O O13 0.000000 0.924074 0.000000
O O14 0.622157 0.000000 0.814070
#
# Coordination Sequence:
#
# PCOD9179137 Si02
#       6
#     8   8   8   8   8   8
#     4   9  17  31  51  75  99 132 174 210 251 303
#     4  10  20  33  52  79 113 143 170 200 247 314
#     4  10  21  35  55  80 105 134 172 216 260 307
#     4  10  19  31  48  74 111 145 166 192 242 312
#     4   9  18  32  50  76 108 137 166 205 253 307
#     4  10  21  38  58  75  95 129 177 231 271 298
#
# _framework density 24.586061000000001
#
# number of rings (size 3 to 8) (size 9 to 14) (size 15 to 20)
#    0.000    2.333    0.000    4.000    0.000    5.333 
#    0.000   10.000    0.000    4.000    0.000    0.000 
#    0.000    2.667    0.000    0.000    0.000    0.000 
#
# Total GULP energy -134229.369502 kJ/mol
# GULP energy per Si atom -5592.890396 kJ/mol
# Density = 2.453010 g / cm^3
# Si number density = 24.586061 Si / 1000 Ang^3
#
#
#
# Elastic Constant Matrix: (Units=GPa)
#
#
# Indices 1 2 3 4 5 6 
#
# 1 146.1479 46.7741 10.7400 0.0000 -15.9293 0.0000
# 2 46.7741 130.6582 13.4840 0.0000 -7.9925 0.0000
# 3 10.7400 13.4840 89.1423 0.0000 -18.0294 0.0000
# 4 0.0000 0.0000 0.0000 4.0078 0.0000 -2.9225
# 5 -15.9293 -7.9925 -18.0294 0.0000 42.7334 0.0000
# 6 0.0000 0.0000 0.0000 -2.9225 0.0000 -18.6752
#
#
#
# Elastic Compliance Matrix: (Units=1/GPa)
#
#
# Indices 1 2 3 4 5 6 
#
# 1 0.007977 -0.002700 -0.000058 0.000000 0.002444 0.000000
# 2 -0.002700 0.008732 -0.000950 0.000000 0.000226 0.000000
# 3 -0.000058 -0.000950 0.012385 0.000000 0.005026 0.000000
# 4 0.000000 0.000000 0.000000 0.223956 0.000000 -0.035047
# 5 0.002444 0.000226 0.005026 0.000000 0.026475 0.000000
# 6 0.000000 0.000000 0.000000 -0.035047 0.000000 -0.048062
#
#
# Mechanical properties :
#
#
# Convention : Reuss Voigt Hill
#
# Bulk Modulus (GPa) = 46.13035 56.43827 51.28431
# Shear Modulus (GPa) = 20.31648 25.27655 22.79652
#
# Velocity S-wave (km/s) = 2.87773 3.20985 3.04832
# Velocity P-wave (km/s) = 5.46309 6.06158 5.77010
#
# Compressibility (1/GPa) = 0.02167770
#
# Stress axis : x y z
#
# Youngs Moduli (GPa) = 125.35641 114.52057 80.74121
#
# Poissons Ratio (x) = 0.30923 0.00471
# Poissons Ratio (y) = 0.33849 0.07669
# Poissons Ratio (z) = 0.00732 0.10877
#
# Static dielectric constant tensor:
#      x y z
#    x 1.834700 0.000000 -0.001970 
#    y 0.000000 1.982770 0.000000 
#    z -0.001970 0.000000 1.948750 
# 
# From -- ./inp_files/25489.got.cif
#   From: 2010.05.17/outbox.cif.g08.bks.cpg/sg12_13_cif.got.tgz:25489.got - 2010.06.03 13:09:07.
