data_PCOD9179800
_publ_section_title
;
Structure prediction by ZEFSAII (Michael W. Deem and Ramdas Pophale) SiO2 
 PCOD9179800
Probable space group: C 2/M
;
_chemical_formula_sum "Si O2"
_cell_formula_units_Z 56
_cell_length_a 23.392797
_cell_length_b 17.322752
_cell_length_c 11.705073
_cell_angle_alpha 90.000000
_cell_angle_beta 150.310155
_cell_angle_gamma 90.000000
_cell_volume 2349.338636
_symmetry_space_group_name_H-M "C 2/M"
_symmetry_group_IT_number 12
_symmetry_cell_setting 'monoclinic'
loop_
_space_group_symop_operation_xyz
x,y,z
-x,y,-z
-x,-y,-z
x,-y,z
1/2+x,1/2+y,z
1/2-x,1/2+y,-z
1/2-x,1/2-y,-z
1/2+x,1/2-y,z
loop_
_atom_site_type_symbol
_atom_site_label
_atom_site_fract_x
_atom_site_fract_y
_atom_site_fract_z
Si Si1 0.801985 0.914134 0.341468
Si Si2 0.321190 0.592712 0.943606
Si Si3 0.573814 0.177688 0.522008
Si Si4 0.829399 0.181218 0.181695
Si Si5 0.894871 0.225528 0.615872
Si Si6 0.127506 0.587712 0.241669
Si Si7 0.683321 0.319739 0.282526
O O1 0.771328 0.879608 0.165396
O O2 0.895371 0.860177 0.566004
O O3 0.692150 0.916315 0.233003
O O4 0.848775 0.000000 0.409279
O O5 0.327955 0.500000 0.957017
O O6 0.186610 0.623455 0.708091
O O7 0.370458 0.630144 0.912122
O O8 0.370743 0.633197 0.144026
O O9 0.500000 0.144201 0.500000
O O10 0.595648 0.265134 0.605214
O O11 0.533982 0.206006 0.324831
O O12 0.750000 0.250000 0.000000
O O13 0.760238 0.252198 0.359651
O O14 0.894708 0.214736 0.752072
O O15 0.112681 0.500000 0.260300
O O16 0.217249 0.629954 0.481198
O O17 0.000000 0.620425 0.000000
#
# Coordination Sequence:
#
# PCOD9179800 Si02
#       7
#     8   8   8   8   8   8   8
#     4   9  16  29  50  71  92 125 170 211 246 286
#     4  10  19  31  51  79 110 140 167 202 256 323
#     4   9  18  34  54  76 104 135 173 219 257 296
#     4   9  18  33  50  71  98 138 181 211 241 295
#     4   8  16  30  51  70  95 125 174 217 242 289
#     4   9  17  29  45  71 105 133 160 201 247 295
#     4   9  16  30  50  70  99 137 174 206 243 298
#
# _framework density 23.836496
#
# number of rings (size 3 to 8) (size 9 to 14) (size 15 to 20)
#    0.000    3.000    0.000    1.714    0.000    0.857 
#   10.286    0.000    0.000   10.714    0.000    1.000 
#    0.000    0.000    0.000    0.000    0.000    0.000 
#
# Total GULP energy -155920.301447 kJ/mol
# GULP energy per Si atom -5568.582195 kJ/mol
# Density = 2.378224 g / cm^3
# Si number density = 23.836496 Si / 1000 Ang^3
#
#
#
# Elastic Constant Matrix: (Units=GPa)
#
#
# Indices 1 2 3 4 5 6 
#
# 1 130.0376 25.7030 31.1634 0.0000 -21.9932 0.0000
# 2 25.7030 145.4009 26.8358 0.0000 -16.3202 0.0000
# 3 31.1634 26.8358 71.2777 0.0000 -12.4285 0.0000
# 4 0.0000 0.0000 0.0000 21.6307 0.0000 -13.8261
# 5 -21.9932 -16.3202 -12.4285 0.0000 34.3151 0.0000
# 6 0.0000 0.0000 0.0000 -13.8261 0.0000 31.2064
#
#
#
# Elastic Compliance Matrix: (Units=1/GPa)
#
#
# Indices 1 2 3 4 5 6 
#
# 1 0.009311 -0.000566 -0.003057 0.000000 0.004591 0.000000
# 2 -0.000566 0.007663 -0.002205 0.000000 0.002483 0.000000
# 3 -0.003057 -0.002205 0.016728 0.000000 0.003051 0.000000
# 4 0.000000 0.000000 0.000000 0.064495 0.000000 0.028575
# 5 0.004591 0.002483 0.003051 0.000000 0.034370 0.000000
# 6 0.000000 0.000000 0.000000 0.028575 0.000000 0.044705
#
#
# Mechanical properties :
#
#
# Convention : Reuss Voigt Hill
#
# Bulk Modulus (GPa) = 45.35891 57.12453 51.24172
# Shear Modulus (GPa) = 25.47406 34.96469 30.21938
#
# Velocity S-wave (km/s) = 3.27264 3.83411 3.56445
# Velocity P-wave (km/s) = 5.77501 6.60437 6.20357
#
# Compressibility (1/GPa) = 0.02204639
#
# Stress axis : x y z
#
# Youngs Moduli (GPa) = 107.39783 130.49271 59.77911
#
# Poissons Ratio (x) = 0.07391 0.18275
# Poissons Ratio (y) = 0.06083 0.13179
# Poissons Ratio (z) = 0.32833 0.28768
#
# Static dielectric constant tensor:
#      x y z
#    x 1.987730 0.000000 0.013880 
#    y 0.000000 1.888220 0.000000 
#    z 0.013880 0.000000 1.993840 
# 
# From -- ./inp_files/177173.got.cif
#   From: 2010.05.17/outbox.cif.g08.bks.cpg/sg12_89_cif.got.tgz:177173.got - 2010.06.03 13:09:07.
