data_PCOD9179514
_publ_section_title
;
Structure prediction by ZEFSAII (Michael W. Deem and Ramdas Pophale) SiO2 
 PCOD9179514
Probable space group: C 2/M
;
_chemical_formula_sum "Si O2"
_cell_formula_units_Z 56
_cell_length_a 19.663543
_cell_length_b 7.594936
_cell_length_c 19.262899
_cell_angle_alpha 90.000000
_cell_angle_beta 121.771728
_cell_angle_gamma 90.000000
_cell_volume 2445.707025
_symmetry_space_group_name_H-M "C 2/M"
_symmetry_group_IT_number 12
_symmetry_cell_setting 'monoclinic'
loop_
_space_group_symop_operation_xyz
x,y,z
-x,y,-z
-x,-y,-z
x,-y,z
1/2+x,1/2+y,z
1/2-x,1/2+y,-z
1/2-x,1/2-y,-z
1/2+x,1/2-y,z
loop_
_atom_site_type_symbol
_atom_site_label
_atom_site_fract_x
_atom_site_fract_y
_atom_site_fract_z
Si Si1 0.926225 0.792417 0.503072
Si Si2 0.425000 0.793880 0.760828
Si Si3 0.262659 0.710567 0.086993
Si Si4 0.168505 0.287238 0.677315
Si Si5 0.166203 0.789815 0.418300
Si Si6 0.071753 0.704371 0.752689
Si Si7 0.833955 0.704336 0.839322
O O1 0.851722 0.769724 0.410940
O O2 0.901794 0.721044 0.564791
O O3 0.000000 0.712304 0.500000
O O4 0.941317 0.000000 0.520396
O O5 0.351540 0.783099 0.667187
O O6 0.500102 0.714933 0.759203
O O7 0.399017 0.717030 0.821266
O O8 0.443089 0.000000 0.782670
O O9 0.267017 0.500000 0.098790
O O10 0.346461 0.786061 0.159237
O O11 0.191328 0.777947 0.099158
O O12 0.250000 0.750000 0.000000
O O13 0.172621 0.500000 0.682349
O O14 0.097606 0.223282 0.691260
O O15 0.250607 0.214429 0.752005
O O16 0.250000 0.750000 0.500000
O O17 0.160153 0.000000 0.409477
O O18 0.051392 0.500000 0.730107
O O19 0.855818 0.500000 0.861799
#
# Coordination Sequence:
#
# PCOD9179514 Si02
#       7
#     8   8   8   8   8   8   8
#     4  10  21  35  49  67  95 133 175 217 260 306
#     4  10  20  36  56  77 104 137 175 218 261 308
#     4  10  20  36  59  84 109 137 170 207 249 303
#     4  10  19  31  50  75 100 129 169 216 261 304
#     4  11  23  36  51  73 103 140 180 222 267 312
#     4   9  19  35  55  80 108 137 170 212 262 311
#     4   9  19  35  55  77 101 134 171 204 246 304
#
# _framework density 22.897265000000001
#
# number of rings (size 3 to 8) (size 9 to 14) (size 15 to 20)
#    0.000    2.143    0.000    3.000    0.000    7.143 
#    0.000    0.714    0.000    4.286    0.000    0.000 
#    0.000    0.000    0.000    0.000    0.000    0.000 
#
# Total GULP energy -156371.386001 kJ/mol
# GULP energy per Si atom -5584.692357 kJ/mol
# Density = 2.284515 g / cm^3
# Si number density = 22.897265 Si / 1000 Ang^3
#
#
#
# Elastic Constant Matrix: (Units=GPa)
#
#
# Indices 1 2 3 4 5 6 
#
# 1 145.1802 6.5500 24.2000 0.0000 -39.4913 0.0000
# 2 6.5500 69.7398 -9.9639 0.0000 -1.6580 0.0000
# 3 24.2000 -9.9639 67.3994 0.0000 -35.7351 0.0000
# 4 0.0000 0.0000 0.0000 20.5470 0.0000 2.0207
# 5 -39.4913 -1.6580 -35.7351 0.0000 41.1945 0.0000
# 6 0.0000 0.0000 0.0000 2.0207 0.0000 10.5394
#
#
#
# Elastic Compliance Matrix: (Units=1/GPa)
#
#
# Indices 1 2 3 4 5 6 
#
# 1 0.009570 -0.000262 0.002562 0.000000 0.011386 0.000000
# 2 -0.000262 0.015135 0.004669 0.000000 0.004408 0.000000
# 3 0.002562 0.004669 0.029643 0.000000 0.028358 0.000000
# 4 0.000000 0.000000 0.000000 0.049604 0.000000 -0.009511
# 5 0.011386 0.004408 0.028358 0.000000 0.059968 0.000000
# 6 0.000000 0.000000 0.000000 -0.009511 0.000000 0.096706
#
#
# Mechanical properties :
#
#
# Convention : Reuss Voigt Hill
#
# Bulk Modulus (GPa) = 14.64432 35.98794 25.31613
# Shear Modulus (GPa) = 18.55626 31.89174 25.22400
#
# Velocity S-wave (km/s) = 2.84987 3.73610 3.32266
# Velocity P-wave (km/s) = 4.15193 5.86195 5.07942
#
# Compressibility (1/GPa) = 0.06828588
#
# Stress axis : x y z
#
# Youngs Moduli (GPa) = 104.49321 66.07007 33.73499
#
# Poissons Ratio (x) = 0.01731 -0.08643
# Poissons Ratio (y) = 0.02738 -0.15750
# Poissons Ratio (z) = -0.26773 -0.30846
#
# Static dielectric constant tensor:
#      x y z
#    x 1.958950 0.000000 -0.009730 
#    y 0.000000 1.865880 0.000000 
#    z -0.009730 0.000000 1.806040 
# 
# From -- ./inp_files/275053.got.cif
#   From: 2010.05.17/outbox.cif.g08.bks.cpg/sg12_138_cif.got.tgz:275053.got - 2010.06.03 13:09:07.
