data_PCOD9179666
_publ_section_title
;
Structure prediction by ZEFSAII (Michael W. Deem and Ramdas Pophale) SiO2 
 PCOD9179666
Probable space group: C 2/M
;
_chemical_formula_sum "Si O2"
_cell_formula_units_Z 52
_cell_length_a 9.432771
_cell_length_b 27.151076
_cell_length_c 24.436517
_cell_angle_alpha 90.000000
_cell_angle_beta 152.130798
_cell_angle_gamma 90.000000
_cell_volume 2925.534146
_symmetry_space_group_name_H-M "C 2/M"
_symmetry_group_IT_number 12
_symmetry_cell_setting 'monoclinic'
loop_
_space_group_symop_operation_xyz
x,y,z
-x,y,-z
-x,-y,-z
x,-y,z
1/2+x,1/2+y,z
1/2-x,1/2+y,-z
1/2-x,1/2-y,-z
1/2+x,1/2-y,z
loop_
_atom_site_type_symbol
_atom_site_label
_atom_site_fract_x
_atom_site_fract_y
_atom_site_fract_z
Si Si1 0.000000 0.283692 0.000000
Si Si2 0.824698 0.441752 0.497471
Si Si3 0.399509 0.945064 0.291162
Si Si4 0.749524 0.154970 0.987086
Si Si5 0.206857 0.445968 0.017281
Si Si6 0.611608 0.194913 0.828801
Si Si7 0.345868 0.631778 0.389426
O O1 0.180955 0.317562 0.019937
O O2 0.765069 0.248980 0.885906
O O3 0.720357 0.500000 0.460335
O O4 0.568717 0.400862 0.426241
O O5 0.000000 0.432376 0.500000
O O6 0.050127 0.438120 0.626756
O O7 0.588276 0.906160 0.321341
O O8 0.050452 0.942677 0.155795
O O9 0.516248 0.000000 0.318276
O O10 0.564368 0.180763 0.875781
O O11 0.658312 0.098472 0.959796
O O12 0.103870 0.162102 0.094843
O O13 0.152990 0.500000 0.974851
O O14 0.000000 0.440421 0.000000
O O15 0.317887 0.178405 0.694927
O O16 0.500000 0.646206 0.500000
#
# Coordination Sequence:
#
# PCOD9179666 Si02
#       7
#     4   8   8   8   8   8   8
#     4  10  20  38  63  80 103 144 190 228 280 326
#     4   9  18  32  50  74 105 147 197 230 261 320
#     4   9  17  31  50  72 104 150 189 220 262 326
#     4  10  19  36  57  79 108 144 182 227 275 321
#     4  10  19  31  50  81 115 145 179 217 275 339
#     4  10  20  34  55  85 107 134 188 236 266 325
#     4  10  19  33  54  78 109 146 178 229 277 324
#
# _framework density 17.774533000000002
#
# number of rings (size 3 to 8) (size 9 to 14) (size 15 to 20)
#    0.000    2.462    2.308    2.308    0.000    3.077 
#    0.000    4.615    0.000    3.692    0.000    0.000 
#    0.000    0.000    0.000    0.000    0.000    0.000 
#
# Total GULP energy -144736.685464 kJ/mol
# GULP energy per Si atom -5566.795595 kJ/mol
# Density = 1.773408 g / cm^3
# Si number density = 17.774533 Si / 1000 Ang^3
#
#
#
# Elastic Constant Matrix: (Units=GPa)
#
#
# Indices 1 2 3 4 5 6 
#
# 1 81.4084 16.3114 9.2191 -0.0005 1.6276 0.0029
# 2 16.3114 55.0303 4.8022 0.0006 0.3114 0.0009
# 3 9.2191 4.8022 50.5536 -0.0084 -2.0130 0.0077
# 4 -0.0005 0.0006 -0.0084 12.7183 0.0008 6.2326
# 5 1.6276 0.3114 -2.0130 0.0008 13.0728 0.0012
# 6 0.0029 0.0009 0.0077 6.2326 0.0012 20.7372
#
#
#
# Elastic Compliance Matrix: (Units=1/GPa)
#
#
# Indices 1 2 3 4 5 6 
#
# 1 0.013316 -0.003749 -0.002148 0.000000 -0.001899 -0.000001
# 2 -0.003749 0.019386 -0.001165 -0.000002 -0.000174 0.000001
# 3 -0.002148 -0.001165 0.020420 0.000020 0.003439 -0.000013
# 4 0.000000 -0.000002 0.000020 0.092208 0.000000 -0.027713
# 5 -0.001899 -0.000174 0.003439 0.000000 0.077265 -0.000006
# 6 -0.000001 0.000001 -0.000013 -0.027713 -0.000006 0.056552
#
#
# Mechanical properties :
#
#
# Convention : Reuss Voigt Hill
#
# Bulk Modulus (GPa) = 25.64167 27.51752 26.57959
# Shear Modulus (GPa) = 16.32552 19.74963 18.03758
#
# Velocity S-wave (km/s) = 3.03393 3.33696 3.18905
# Velocity P-wave (km/s) = 5.17014 5.51018 5.34287
#
# Compressibility (1/GPa) = 0.03899903
#
# Stress axis : x y z
#
# Youngs Moduli (GPa) = 75.09716 51.58469 48.97095
#
# Poissons Ratio (x) = 0.19338 0.10518
# Poissons Ratio (y) = 0.28152 0.05704
# Poissons Ratio (z) = 0.16130 0.06009
#
# Static dielectric constant tensor:
#      x y z
#    x 1.611410 0.000000 -0.005020 
#    y 0.000000 1.641860 0.000000 
#    z -0.005020 0.000000 1.620610 
# 
# From -- ./inp_files/334205.got.cif
#   From: 2010.05.17/outbox.cif.g08.bks.cpg/sg12_168_cif.got.tgz:334205.got - 2010.06.03 13:09:07.
