data_PCOD9179737
_publ_section_title
;
Structure prediction by ZEFSAII (Michael W. Deem and Ramdas Pophale) SiO2 
 PCOD9179737
Probable space group: C 2/M
;
_chemical_formula_sum "Si O2"
_cell_formula_units_Z 64
_cell_length_a 7.877327
_cell_length_b 18.422086
_cell_length_c 26.535170
_cell_angle_alpha 90.000000
_cell_angle_beta 53.577700
_cell_angle_gamma 90.000000
_cell_volume 3098.514003
_symmetry_space_group_name_H-M "C 2/M"
_symmetry_group_IT_number 12
_symmetry_cell_setting 'monoclinic'
loop_
_space_group_symop_operation_xyz
x,y,z
-x,y,-z
-x,-y,-z
x,-y,z
1/2+x,1/2+y,z
1/2-x,1/2+y,-z
1/2-x,1/2-y,-z
1/2+x,1/2-y,z
loop_
_atom_site_type_symbol
_atom_site_label
_atom_site_fract_x
_atom_site_fract_y
_atom_site_fract_z
Si Si1 0.293609 0.834404 0.250821
Si Si2 0.204478 0.834426 0.999999
Si Si3 0.200638 0.665678 0.500001
Si Si4 0.044706 0.582409 0.625943
Si Si5 0.451521 0.582409 0.625941
Si Si6 0.042812 0.915981 0.874663
Si Si7 0.796885 0.665596 0.749181
Si Si8 0.958536 0.584019 0.874662
O O1 0.104136 0.874321 0.313430
O O2 0.248680 0.750000 0.250661
O O3 0.497962 0.839392 0.251020
O O4 0.359393 0.874629 0.187942
O O5 0.391053 0.874469 0.937132
O O6 0.250000 0.750000 0.000000
O O7 0.000000 0.839865 0.000000
O O8 0.139588 0.874470 0.062865
O O9 0.250000 0.750000 0.500000
O O10 0.139396 0.625652 0.562286
O O11 0.388541 0.625651 0.437716
O O12 0.000000 0.660989 0.500000
O O13 0.984474 0.500000 0.622836
O O14 0.234058 0.577760 0.632970
O O15 0.857847 0.625678 0.686572
O O16 0.524178 0.500000 0.622836
O O17 0.111151 0.874628 0.812061
O O18 0.250575 0.915276 0.874712
O O19 0.990653 0.000000 0.874694
O O20 0.010569 0.500000 0.874694
#
# Coordination Sequence:
#
# PCOD9179737 Si02
#       8
#     8   8   8   8   8   8   8   8
#     4  10  20  34  54  79 107 140 177 219 265 314
#     4  10  19  31  51  77 105 138 174 216 264 312
#     4  12  25  40  59  83 111 143 179 220 267 318
#     4  10  21  38  59  82 109 142 179 220 268 320
#     4  10  21  38  59  82 109 142 179 220 268 320
#     4   9  17  31  52  77 103 135 179 223 260 306
#     4  10  20  34  54  79 107 140 177 219 265 314
#     4   9  17  31  52  77 103 135 179 223 260 306
#
# _framework density 20.655061
#
# number of rings (size 3 to 8) (size 9 to 14) (size 15 to 20)
#    0.000    2.000    0.000    4.125    0.000    9.500 
#    0.000    0.000    0.000    5.250    0.000    0.000 
#    0.000    0.000    0.000    0.000    0.000    0.000 
#
# Total GULP energy -178856.598035 kJ/mol
# GULP energy per Si atom -5589.268689 kJ/mol
# Density = 2.060805 g / cm^3
# Si number density = 20.655061 Si / 1000 Ang^3
#
#
#
# Elastic Constant Matrix: (Units=GPa)
#
#
# Indices 1 2 3 4 5 6 
#
# 1 21.9191 3.9594 10.2958 -0.0006 -3.6163 0.0011
# 2 3.9594 249.7187 157.2232 -0.0002 17.7163 0.0005
# 3 10.2958 157.2232 250.4284 0.0004 30.0296 0.0002
# 4 -0.0006 -0.0002 0.0004 52.3537 0.0004 2.5422
# 5 -3.6163 17.7163 30.0296 0.0004 -5.9522 -0.0006
# 6 0.0011 0.0005 0.0002 2.5422 -0.0006 30.3596
#
#
#
# Elastic Compliance Matrix: (Units=1/GPa)
#
#
# Indices 1 2 3 4 5 6 
#
# 1 0.041781 0.000533 0.000499 0.000001 -0.021279 -0.000002
# 2 0.000533 0.006623 -0.004053 0.000000 -0.001059 0.000000
# 3 0.000499 -0.004053 0.004985 0.000000 0.012781 0.000000
# 4 0.000001 0.000000 0.000000 0.019179 0.000000 -0.001606
# 5 -0.021279 -0.001059 0.012781 0.000000 -0.093747 -0.000001
# 6 -0.000002 0.000000 0.000000 -0.001606 -0.000001 0.033073
#
#
# Mechanical properties :
#
#
# Convention : Reuss Voigt Hill
#
# Bulk Modulus (GPa) = 21.12079 96.11364 58.61722
# Shear Modulus (GPa) = 148.29306 38.72475 93.50891
#
# Velocity S-wave (km/s) = 8.48239 4.33463 6.73572
# Velocity P-wave (km/s) = 10.30447 8.46674 9.43048
#
# Compressibility (1/GPa) = 0.04734672
#
# Stress axis : x y z
#
# Youngs Moduli (GPa) = 23.93442 150.99156 200.62152
#
# Poissons Ratio (x) = -0.08044 -0.10020
# Poissons Ratio (y) = -0.01275 0.81310
# Poissons Ratio (z) = -0.01195 0.61196
#
# Static dielectric constant tensor:
#      x y z
#    x 1.757610 0.000000 -0.001140 
#    y 0.000000 1.682300 0.000000 
#    z -0.001140 0.000000 1.747780 
# 
# From -- ./inp_files/372923.got.cif
#   From: 2010.05.17/outbox.cif.g08.bks.cpg/sg12_187_cif.got.tgz:372923.got - 2010.06.03 13:09:07.
