data_PCOD9179948
_publ_section_title
;
Structure prediction by ZEFSAII (Michael W. Deem and Ramdas Pophale) SiO2 
 PCOD9179948
Probable space group: C 2/M
;
_chemical_formula_sum "Si O2"
_cell_formula_units_Z 64
_cell_length_a 24.863427
_cell_length_b 8.990221
_cell_length_c 16.160675
_cell_angle_alpha 90.000000
_cell_angle_beta 90.722380
_cell_angle_gamma 90.000000
_cell_volume 3612.071465
_symmetry_space_group_name_H-M "C 2/M"
_symmetry_group_IT_number 12
_symmetry_cell_setting 'monoclinic'
loop_
_space_group_symop_operation_xyz
x,y,z
-x,y,-z
-x,-y,-z
x,-y,z
1/2+x,1/2+y,z
1/2-x,1/2+y,-z
1/2-x,1/2-y,-z
1/2+x,1/2-y,z
loop_
_atom_site_type_symbol
_atom_site_label
_atom_site_fract_x
_atom_site_fract_y
_atom_site_fract_z
Si Si1 0.582098 0.175829 0.552908
Si Si2 0.388656 0.678237 0.189760
Si Si3 0.667886 0.825100 0.959367
Si Si4 0.713241 0.674907 0.118509
Si Si5 0.682940 0.175468 0.668141
Si Si6 0.707860 0.821786 0.297734
Si Si7 0.090914 0.321209 0.363205
Si Si8 0.987159 0.176935 0.305107
O O1 0.642327 0.192239 0.590458
O O2 0.579932 0.223970 0.457991
O O3 0.542965 0.263120 0.613407
O O4 0.568324 0.000000 0.557300
O O5 0.382572 0.500000 0.186473
O O6 0.375452 0.749877 0.101459
O O7 0.346348 0.744963 0.255191
O O8 0.447332 0.714471 0.228354
O O9 0.725633 0.810009 0.914012
O O10 0.657550 0.000000 0.970325
O O11 0.675379 0.743652 0.046925
O O12 0.702627 0.500000 0.130062
O O13 0.708059 0.761889 0.203989
O O14 0.740902 0.247809 0.657200
O O15 0.688395 0.000000 0.686715
O O16 0.651232 0.781159 0.338249
O O17 0.713478 0.000000 0.298630
O O18 0.086537 0.500000 0.359448
O O19 0.045541 0.250024 0.304808
O O20 0.991699 0.000000 0.309395
#
# Coordination Sequence:
#
# PCOD9179948 Si02
#       8
#     8   8   8   8   8   8   8   8
#     4   9  19  36  56  76 103 136 175 221 266 315
#     4  10  19  32  52  78 109 138 168 213 265 310
#     4  10  19  31  52  81 109 137 172 209 254 308
#     4  10  20  33  51  77 109 141 172 208 255 308
#     4  10  19  32  51  76 104 138 175 213 262 313
#     4  11  22  35  52  74 107 143 177 215 257 312
#     4  10  22  38  54  74 101 142 183 216 262 314
#     4  10  21  35  54  81 106 133 174 224 269 306
#
# _framework density 17.718366
#
# number of rings (size 3 to 8) (size 9 to 14) (size 15 to 20)
#    0.000    2.000    1.250    2.625    0.000    6.500 
#    0.000    0.000    0.000    0.750    0.000    5.250 
#    0.000    0.000    0.000    0.000    0.000    0.000 
#
# Total GULP energy -178675.942220 kJ/mol
# GULP energy per Si atom -5583.623194 kJ/mol
# Density = 1.767804 g / cm^3
# Si number density = 17.718366 Si / 1000 Ang^3
#
#
#
# Elastic Constant Matrix: (Units=GPa)
#
#
# Indices 1 2 3 4 5 6 
#
# 1 93.9951 32.0338 8.6996 0.0000 21.3972 0.0000
# 2 32.0338 49.7450 13.5514 0.0000 13.2608 0.0000
# 3 8.6996 13.5514 33.0465 0.0000 21.4429 0.0000
# 4 0.0000 0.0000 0.0000 19.9525 0.0000 3.9887
# 5 21.3972 13.2608 21.4429 0.0000 22.3243 0.0000
# 6 0.0000 0.0000 0.0000 3.9887 0.0000 30.5782
#
#
#
# Elastic Compliance Matrix: (Units=1/GPa)
#
#
# Indices 1 2 3 4 5 6 
#
# 1 0.019033 -0.009148 0.018718 0.000000 -0.030787 0.000000
# 2 -0.009148 0.028312 -0.010561 0.000000 0.002094 0.000000
# 3 0.018718 -0.010561 0.098831 0.000000 -0.106596 0.000000
# 4 0.000000 0.000000 0.000000 0.051461 0.000000 -0.006713
# 5 -0.030787 0.002094 -0.106596 0.000000 0.175447 0.000000
# 6 0.000000 0.000000 0.000000 -0.006713 0.000000 0.033579
#
#
# Mechanical properties :
#
#
# Convention : Reuss Voigt Hill
#
# Bulk Modulus (GPa) = 6.93512 31.70622 19.32067
# Shear Modulus (GPa) = 10.94791 22.73780 16.84286
#
# Velocity S-wave (km/s) = 2.48843 3.58619 3.08650
# Velocity P-wave (km/s) = 3.48983 5.92293 4.86107
#
# Compressibility (1/GPa) = 0.14419354
#
# Stress axis : x y z
#
# Youngs Moduli (GPa) = 52.54157 35.32050 10.11831
#
# Poissons Ratio (x) = 0.32312 -0.18939
# Poissons Ratio (y) = 0.48066 0.10685
# Poissons Ratio (z) = -0.98346 0.37300
#
# Static dielectric constant tensor:
#      x y z
#    x 1.606290 0.000000 0.022680 
#    y 0.000000 1.588690 0.000000 
#    z 0.022680 0.000000 1.589570 
# 
# From -- ./inp_files/238578.got.cif
#   From: 2010.05.17/outbox.cif.g08.bks.cpg/sg12_120_cif.got.tgz:238578.got - 2010.06.03 13:09:07.
