data_PCOD9179373
_publ_section_title
;
Structure prediction by ZEFSAII (Michael W. Deem and Ramdas Pophale) SiO2 
 PCOD9179373
Probable space group: C 2/M
;
_chemical_formula_sum "Si O2"
_cell_formula_units_Z 64
_cell_length_a 25.193583
_cell_length_b 8.870756
_cell_length_c 24.405838
_cell_angle_alpha 90.000000
_cell_angle_beta 46.116239
_cell_angle_gamma 90.000000
_cell_volume 3931.221417
_symmetry_space_group_name_H-M "C 2/M"
_symmetry_group_IT_number 12
_symmetry_cell_setting 'monoclinic'
loop_
_space_group_symop_operation_xyz
x,y,z
-x,y,-z
-x,-y,-z
x,-y,z
1/2+x,1/2+y,z
1/2-x,1/2+y,-z
1/2-x,1/2-y,-z
1/2+x,1/2-y,z
loop_
_atom_site_type_symbol
_atom_site_label
_atom_site_fract_x
_atom_site_fract_y
_atom_site_fract_z
Si Si1 0.788945 0.179999 0.342510
Si Si2 0.192091 0.180584 0.498379
Si Si3 0.577691 0.320160 0.667423
Si Si4 0.861547 0.679579 0.187165
Si Si5 0.522652 0.320068 0.089243
Si Si6 0.771228 0.679467 0.926264
Si Si7 0.654183 0.179541 0.928519
Si Si8 0.060293 0.678142 0.178829
O O1 0.717109 0.249689 0.423058
O O2 0.859562 0.213725 0.331537
O O3 0.807332 0.249863 0.270791
O O4 0.782478 0.000000 0.344454
O O5 0.250000 0.250000 0.500000
O O6 0.113542 0.214879 0.582588
O O7 0.200032 0.000000 0.491477
O O8 0.564208 0.500000 0.679927
O O9 0.504489 0.231590 0.734889
O O10 0.866897 0.500000 0.191739
O O11 0.837445 0.707856 0.142015
O O12 0.941767 0.752410 0.138352
O O13 0.520007 0.500000 0.088640
O O14 0.550715 0.267157 0.128766
O O15 0.579533 0.255370 0.004171
O O16 0.757809 0.500000 0.937261
O O17 0.720988 0.754053 0.915961
O O18 0.858257 0.705366 0.856073
O O19 0.750000 0.750000 0.000000
O O20 0.649014 0.000000 0.941148
O O21 0.053361 0.500000 0.172229
#
# Coordination Sequence:
#
# PCOD9179373 Si02
#       8
#     8   8   8   8   8   8   8   8
#     4  10  19  31  49  75 106 139 175 210 255 314
#     4   9  17  29  46  70 103 139 174 210 253 309
#     4   9  18  31  48  74 105 137 174 212 254 308
#     4  11  23  37  54  76 106 141 177 219 262 313
#     4  12  23  35  54  77 105 140 176 216 263 315
#     4  11  23  38  57  78 102 136 177 222 268 313
#     4  11  24  40  56  76 102 137 181 223 266 313
#     4  11  22  34  53  78 105 138 176 216 263 313
#
# _framework density 16.279928000000002
#
# number of rings (size 3 to 8) (size 9 to 14) (size 15 to 20)
#    0.000    1.500    2.500    4.500    0.000    7.500 
#    0.000    0.000    0.000    0.000    0.000    0.875 
#    0.000    7.000    0.000    0.000    0.000    0.000 
#
# Total GULP energy -178689.052962 kJ/mol
# GULP energy per Si atom -5584.032905 kJ/mol
# Density = 1.624287 g / cm^3
# Si number density = 16.279928 Si / 1000 Ang^3
#
#
#
# Elastic Constant Matrix: (Units=GPa)
#
#
# Indices 1 2 3 4 5 6 
#
# 1 38.9486 31.9875 34.7889 -0.0004 15.3799 -0.0029
# 2 31.9875 81.6892 71.7805 0.0002 7.9461 -0.0004
# 3 34.7889 71.7805 155.0092 -0.0001 8.4937 -0.0009
# 4 -0.0004 0.0002 -0.0001 32.3752 0.0002 -1.9854
# 5 15.3799 7.9461 8.4937 0.0002 16.2867 0.0001
# 6 -0.0029 -0.0004 -0.0009 -1.9854 0.0001 23.0169
#
#
#
# Elastic Compliance Matrix: (Units=1/GPa)
#
#
# Indices 1 2 3 4 5 6 
#
# 1 0.061001 -0.016025 -0.003646 0.000002 -0.047885 0.000007
# 2 -0.016025 0.025293 -0.008512 -0.000001 0.007232 -0.000002
# 3 -0.003646 -0.008512 0.011113 0.000000 0.001801 0.000000
# 4 0.000002 -0.000001 0.000000 0.031052 -0.000002 0.002679
# 5 -0.047885 0.007232 0.001801 -0.000002 0.102151 -0.000006
# 6 0.000007 -0.000002 0.000000 0.002679 -0.000006 0.043677
#
#
# Mechanical properties :
#
#
# Convention : Reuss Voigt Hill
#
# Bulk Modulus (GPa) = 24.36631 61.41786 42.89208
# Shear Modulus (GPa) = 14.52082 23.47509 18.99795
#
# Velocity S-wave (km/s) = 2.98979 3.80144 3.41978
# Velocity P-wave (km/s) = 5.18826 7.55486 6.48051
#
# Compressibility (1/GPa) = 0.04104027
#
# Stress axis : x y z
#
# Youngs Moduli (GPa) = 16.39318 39.53727 89.98827
#
# Poissons Ratio (x) = 0.63358 0.32810
# Poissons Ratio (y) = 0.26270 0.76599
# Poissons Ratio (z) = 0.05977 0.33655
#
# Static dielectric constant tensor:
#      x y z
#    x 1.517580 0.000000 0.002470 
#    y 0.000000 1.543620 0.000000 
#    z 0.002470 0.000000 1.570240 
# 
# From -- ./inp_files/324150.got.cif
#   From: 2010.05.17/outbox.cif.g08.bks.cpg/sg12_163_cif.got.tgz:324150.got - 2010.06.03 13:09:07.
