data_PCOD9179873
_publ_section_title
;
Structure prediction by ZEFSAII (Michael W. Deem and Ramdas Pophale) SiO2 
 PCOD9179873
Probable space group: C 2/M
;
_chemical_formula_sum "Si O2"
_cell_formula_units_Z 64
_cell_length_a 15.428881
_cell_length_b 19.955398
_cell_length_c 30.080249
_cell_angle_alpha 90.000000
_cell_angle_beta 22.315041
_cell_angle_gamma 90.000000
_cell_volume 3516.541407
_symmetry_space_group_name_H-M "C 2/M"
_symmetry_group_IT_number 12
_symmetry_cell_setting 'monoclinic'
loop_
_space_group_symop_operation_xyz
x,y,z
-x,y,-z
-x,-y,-z
x,-y,z
1/2+x,1/2+y,z
1/2-x,1/2+y,-z
1/2-x,1/2-y,-z
1/2+x,1/2-y,z
loop_
_atom_site_type_symbol
_atom_site_label
_atom_site_fract_x
_atom_site_fract_y
_atom_site_fract_z
Si Si1 0.847838 0.074674 0.029298
Si Si2 0.998170 0.318456 0.923211
Si Si3 0.322494 0.205846 0.907105
Si Si4 0.823509 0.922785 0.878419
Si Si5 0.665611 0.425137 0.799621
Si Si6 0.979883 0.205858 0.340961
Si Si7 0.372692 0.695044 0.294117
Si Si8 0.486621 0.172480 0.408108
O O1 0.673162 0.134654 0.119395
O O2 0.761214 0.000000 0.057729
O O3 0.000000 0.067690 0.000000
O O4 0.017375 0.101498 0.910644
O O5 0.266899 0.321589 0.787709
O O6 0.881002 0.312703 0.930257
O O7 0.912864 0.248393 0.985459
O O8 0.895628 0.380212 0.000377
O O9 0.502740 0.257193 0.800755
O O10 0.988318 0.927285 0.843140
O O11 0.975685 0.873642 0.775209
O O12 0.779418 0.000000 0.884758
O O13 0.734384 0.500000 0.779518
O O14 0.880887 0.383891 0.681940
O O15 0.886462 0.227302 0.336434
O O16 0.776846 0.158685 0.455472
O O17 0.999490 0.263287 0.369256
O O18 0.129129 0.681702 0.386475
#
# Coordination Sequence:
#
# PCOD9179873 Si02
#       8
#     8   8   8   8   8   8   8   8
#     4  10  20  30  49  84 112 136 175 218 267 324
#     4  10  19  33  51  79 107 139 179 212 262 323
#     4  10  19  31  52  76 111 140 169 216 268 324
#     4   9  18  34  56  78 106 143 174 211 268 326
#     4   9  17  33  55  75 103 142 175 212 269 318
#     4  11  22  35  55  78 106 140 182 224 268 307
#     4  10  21  36  56  81 106 140 179 223 271 315
#     4  10  21  38  55  77 107 137 183 229 259 314
#
# _framework density 18.199701000000001
#
# number of rings (size 3 to 8) (size 9 to 14) (size 15 to 20)
#    0.000    2.125    2.500    1.125    3.500    1.500 
#    0.000    2.500    0.000    3.000    0.000    0.000 
#    0.000    6.250    0.000    0.000    0.000    0.000 
#
# Total GULP energy -178142.413221 kJ/mol
# GULP energy per Si atom -5566.950413 kJ/mol
# Density = 1.815828 g / cm^3
# Si number density = 18.199701 Si / 1000 Ang^3
#
#
#
# Elastic Constant Matrix: (Units=GPa)
#
#
# Indices 1 2 3 4 5 6 
#
# 1 61.2470 5.2452 0.4566 -0.0201 1.1181 -0.0139
# 2 5.2452 95.6661 30.8802 -0.0345 -13.7959 -0.0283
# 3 0.4566 30.8802 107.5559 -0.0669 -20.6909 -0.0569
# 4 -0.0201 -0.0345 -0.0669 30.4294 -0.0501 4.0462
# 5 1.1181 -13.7959 -20.6909 -0.0501 16.9205 -0.0020
# 6 -0.0139 -0.0283 -0.0569 4.0462 -0.0020 16.7842
#
#
#
# Elastic Compliance Matrix: (Units=1/GPa)
#
#
# Indices 1 2 3 4 5 6 
#
# 1 0.016470 -0.001174 -0.000165 0.000004 -0.002247 0.000010
# 2 -0.001174 0.012274 -0.002065 0.000020 0.007561 0.000009
# 3 -0.000165 -0.002065 0.012513 0.000044 0.013629 0.000030
# 4 0.000004 0.000020 0.000044 0.033952 0.000169 -0.008185
# 5 -0.002247 0.007561 0.013629 0.000169 0.082079 0.000026
# 6 0.000010 0.000009 0.000030 -0.008185 0.000026 0.061553
#
#
# Mechanical properties :
#
#
# Convention : Reuss Voigt Hill
#
# Bulk Modulus (GPa) = 29.02771 37.51478 33.27124
# Shear Modulus (GPa) = 21.08536 28.01928 24.55232
#
# Velocity S-wave (km/s) = 3.40745 3.92796 3.67693
# Velocity P-wave (km/s) = 5.60938 6.42102 6.02887
#
# Compressibility (1/GPa) = 0.03444984
#
# Stress axis : x y z
#
# Youngs Moduli (GPa) = 60.71600 81.47231 79.91811
#
# Poissons Ratio (x) = 0.09563 0.01321
# Poissons Ratio (y) = 0.07127 0.16499
# Poissons Ratio (z) = 0.01003 0.16820
#
# Static dielectric constant tensor:
#      x y z
#    x 1.651340 0.000020 0.001240 
#    y 0.000020 1.690260 -0.000010 
#    z 0.001240 -0.000010 1.663400 
# 
# From -- ./inp_files/377058.got.cif
#   From: 2010.05.17/outbox.cif.g08.bks.cpg/sg12_189_cif.got.tgz:377058.got - 2010.06.03 13:09:07.
