data_PCOD9179941
_publ_section_title
;
Structure prediction by ZEFSAII (Michael W. Deem and Ramdas Pophale) SiO2 
 PCOD9179941
Probable space group: C 2/M
;
_chemical_formula_sum "Si O2"
_cell_formula_units_Z 58
_cell_length_a 26.198794
_cell_length_b 7.364384
_cell_length_c 23.933185
_cell_angle_alpha 90.000000
_cell_angle_beta 149.584759
_cell_angle_gamma 90.000000
_cell_volume 2337.731163
_symmetry_space_group_name_H-M "C 2/M"
_symmetry_group_IT_number 12
_symmetry_cell_setting 'monoclinic'
loop_
_space_group_symop_operation_xyz
x,y,z
-x,y,-z
-x,-y,-z
x,-y,z
1/2+x,1/2+y,z
1/2-x,1/2+y,-z
1/2-x,1/2-y,-z
1/2+x,1/2-y,z
loop_
_atom_site_type_symbol
_atom_site_label
_atom_site_fract_x
_atom_site_fract_y
_atom_site_fract_z
Si Si1 0.582206 0.796617 0.713456
Si Si2 0.351425 0.718703 0.665676
Si Si3 0.468943 0.705063 0.100758
Si Si4 0.133824 0.284980 0.882395
Si Si5 0.121389 0.786839 0.436322
Si Si6 0.835942 0.278292 0.328661
Si Si7 0.886395 0.219160 0.911236
Si Si8 0.000000 0.000000 0.500000
O O1 0.607227 0.709666 0.796518
O O2 0.461735 0.802363 0.603249
O O3 0.626620 0.720597 0.698811
O O4 0.625724 0.000000 0.756663
O O5 0.361167 0.500000 0.673797
O O6 0.422993 0.790325 0.782550
O O7 0.234901 0.760391 0.563681
O O8 0.381429 0.782077 0.631119
O O9 0.490432 0.500000 0.101489
O O10 0.420382 0.700873 0.115794
O O11 0.391619 0.777113 0.981601
O O12 0.110835 0.500000 0.861937
O O13 0.250000 0.250000 0.000000
O O14 0.100229 0.000000 0.415179
O O15 0.846092 0.500000 0.345112
O O16 0.716932 0.225685 0.217260
O O17 0.915733 0.160001 0.438241
O O18 0.880769 0.000000 0.901687
O O19 0.000000 0.273817 0.000000
#
# Coordination Sequence:
#
# PCOD9179941 Si02
#       8
#     8   8   8   8   8   8   8   2
#     4  10  21  38  59  87 126 169 209 255 328 400
#     4   9  18  32  50  79 118 166 212 264 318 379
#     4  10  19  36  59  88 123 162 215 264 321 391
#     4  11  22  35  55  86 122 160 202 251 309 387
#     4  10  19  31  52  80 121 166 212 263 315 376
#     4  10  23  46  73 102 137 175 221 288 351 409
#     4   9  19  41  71  97 128 175 225 283 352 413
#     4  12  26  48  74 102 132 176 234 278 338 414
#
# _framework density 24.810379000000001
#
# number of rings (size 3 to 8) (size 9 to 14) (size 15 to 20)
#    0.000    2.069    1.379    1.862    0.966    3.862 
#    6.207    0.345    0.000    0.000    0.000    0.000 
#    0.000    0.000    0.000    0.000    0.000    0.000 
#
# Total GULP energy -161634.589214 kJ/mol
# GULP energy per Si atom -5573.606525 kJ/mol
# Density = 2.475391 g / cm^3
# Si number density = 24.810379 Si / 1000 Ang^3
#
#
#
# Elastic Constant Matrix: (Units=GPa)
#
#
# Indices 1 2 3 4 5 6 
#
# 1 64.7966 -3.6380 10.9482 0.0000 12.2294 0.0000
# 2 -3.6380 122.2749 22.1681 0.0000 1.4514 0.0000
# 3 10.9482 22.1681 141.1940 0.0000 29.4050 0.0000
# 4 0.0000 0.0000 0.0000 -10.8114 0.0000 6.4375
# 5 12.2294 1.4514 29.4050 0.0000 39.4012 0.0000
# 6 0.0000 0.0000 0.0000 6.4375 0.0000 3.4749
#
#
#
# Elastic Compliance Matrix: (Units=1/GPa)
#
#
# Indices 1 2 3 4 5 6 
#
# 1 0.016445 0.000612 -0.000359 0.000000 -0.004859 0.000000
# 2 0.000612 0.008462 -0.001506 0.000000 0.000622 0.000000
# 3 -0.000359 -0.001506 0.008657 0.000000 -0.006294 0.000000
# 4 0.000000 0.000000 0.000000 -0.043980 0.000000 0.081478
# 5 -0.004859 0.000622 -0.006294 0.000000 0.031562 0.000000
# 6 0.000000 0.000000 0.000000 0.081478 0.000000 0.136836
#
#
# Mechanical properties :
#
#
# Convention : Reuss Voigt Hill
#
# Bulk Modulus (GPa) = 32.19697 43.02468 37.61082
# Shear Modulus (GPa) = 29.26693 26.33210 27.79951
#
# Velocity S-wave (km/s) = 3.43829 3.26135 3.35099
# Velocity P-wave (km/s) = 5.36357 5.61791 5.49221
#
# Compressibility (1/GPa) = 0.03105883
#
# Stress axis : x y z
#
# Youngs Moduli (GPa) = 60.80885 118.17433 115.50680
#
# Poissons Ratio (x) = -0.07234 0.04151
# Poissons Ratio (y) = -0.03722 0.17390
# Poissons Ratio (z) = 0.02186 0.17792
#
# Static dielectric constant tensor:
#      x y z
#    x 1.998290 0.000000 -0.061930 
#    y 0.000000 1.802780 0.000000 
#    z -0.061930 0.000000 1.996270 
# 
# From -- ./inp_files/351541.got.cif
#   From: 2010.05.17/outbox.cif.g08.bks.cpg/sg12_176_cif.got.tgz:351541.got - 2010.06.03 13:09:07.
