data_PCOD9179726
_publ_section_title
;
Structure prediction by ZEFSAII (Michael W. Deem and Ramdas Pophale) SiO2 
 PCOD9179726
Probable space group: C 2/M
;
_chemical_formula_sum "Si O2"
_cell_formula_units_Z 48
_cell_length_a 15.734839
_cell_length_b 19.768716
_cell_length_c 13.736168
_cell_angle_alpha 90.000000
_cell_angle_beta 29.960938
_cell_angle_gamma 90.000000
_cell_volume 2133.846260
_symmetry_space_group_name_H-M "C 2/M"
_symmetry_group_IT_number 12
_symmetry_cell_setting 'monoclinic'
loop_
_space_group_symop_operation_xyz
x,y,z
-x,y,-z
-x,-y,-z
x,-y,z
1/2+x,1/2+y,z
1/2-x,1/2+y,-z
1/2-x,1/2-y,-z
1/2+x,1/2-y,z
loop_
_atom_site_type_symbol
_atom_site_label
_atom_site_fract_x
_atom_site_fract_y
_atom_site_fract_z
Si Si1 0.946574 0.923458 0.274362
Si Si2 0.825297 0.707883 0.730177
Si Si3 0.298795 0.575920 0.223177
Si Si4 0.673764 0.575047 0.384611
Si Si5 0.323911 0.792417 0.281137
Si Si6 0.523409 0.721818 0.243253
O O1 0.802438 0.908402 0.335583
O O2 0.872708 0.930343 0.455532
O O3 0.058388 0.854721 0.170163
O O4 0.016155 0.000000 0.181138
O O5 0.796344 0.628165 0.750789
O O6 0.686858 0.740332 0.796659
O O7 0.000000 0.721884 0.500000
O O8 0.844459 0.743449 0.814606
O O9 0.236719 0.500000 0.271036
O O10 0.500000 0.578947 0.000000
O O11 0.500000 0.595175 0.500000
O O12 0.722443 0.500000 0.300454
O O13 0.812670 0.633686 0.244140
O O14 0.472330 0.771585 0.206582
O O15 0.151019 0.786331 0.518720
#
# Coordination Sequence:
#
# PCOD9179726 Si02
#       6
#     8   8   8   8   8   8
#     4   9  16  29  49  69  95 133 171 204 248 298
#     4  10  19  31  51  77 102 130 165 213 261 303
#     4  10  21  37  53  70 100 141 177 210 249 297
#     4   9  16  25  41  69 101 130 165 206 251 304
#     4   9  15  26  42  66 101 131 154 197 259 302
#     4   9  16  26  45  71  97 127 162 204 252 298
#
# _framework density 22.494591
#
# number of rings (size 3 to 8) (size 9 to 14) (size 15 to 20)
#    0.000    2.667    1.667    2.500    2.333    0.333 
#    0.000    1.667    0.000    0.000    0.000    0.000 
#    0.000    1.333    0.000    0.000    0.000    0.000 
#
# Total GULP energy -133868.842976 kJ/mol
# GULP energy per Si atom -5577.868457 kJ/mol
# Density = 2.244339 g / cm^3
# Si number density = 22.494591 Si / 1000 Ang^3
#
#
#
# Elastic Constant Matrix: (Units=GPa)
#
#
# Indices 1 2 3 4 5 6 
#
# 1 149.1567 80.3369 23.6130 -0.0084 3.2650 0.0107
# 2 80.3369 199.5086 -4.2446 0.0002 -13.3773 -0.0051
# 3 23.6130 -4.2446 48.8565 -0.0070 0.6644 0.0024
# 4 -0.0084 0.0002 -0.0070 8.1415 0.0022 -3.5036
# 5 3.2650 -13.3773 0.6644 0.0022 24.1191 -0.0029
# 6 0.0107 -0.0051 0.0024 -3.5036 -0.0029 49.7080
#
#
#
# Elastic Compliance Matrix: (Units=1/GPa)
#
#
# Indices 1 2 3 4 5 6 
#
# 1 0.009942 -0.004356 -0.005134 0.000006 -0.003620 -0.000002
# 2 -0.004356 0.007122 0.002663 -0.000003 0.004467 0.000002
# 3 -0.005134 0.002663 0.023160 0.000015 0.001534 0.000001
# 4 0.000006 -0.000003 0.000015 0.126670 -0.000014 0.008928
# 5 -0.003620 0.004467 0.001534 -0.000014 0.044386 0.000003
# 6 -0.000002 0.000002 0.000001 0.008928 0.000003 0.020747
#
#
# Mechanical properties :
#
#
# Convention : Reuss Voigt Hill
#
# Bulk Modulus (GPa) = 37.63479 66.32583 51.98031
# Shear Modulus (GPa) = 19.64343 36.24815 27.94579
#
# Velocity S-wave (km/s) = 2.95829 4.01860 3.52850
# Velocity P-wave (km/s) = 5.33250 7.14713 6.30543
#
# Compressibility (1/GPa) = 0.02657116
#
# Stress axis : x y z
#
# Youngs Moduli (GPa) = 100.57989 140.40385 43.17759
#
# Poissons Ratio (x) = 0.61153 0.22169
# Poissons Ratio (y) = 0.43808 -0.11499
# Poissons Ratio (z) = 0.51642 -0.37391
#
# Static dielectric constant tensor:
#      x y z
#    x 1.812420 -0.000020 0.034210 
#    y -0.000020 1.922560 0.000030 
#    z 0.034210 0.000030 1.917010 
# 
# From -- ./inp_files/77290.got.cif
#   From: 2010.05.17/outbox.cif.g08.bks.cpg/sg12_39_cif.got.tgz:77290.got - 2010.06.03 13:09:07.
