data_PCOD9179215
_publ_section_title
;
Structure prediction by ZEFSAII (Michael W. Deem and Ramdas Pophale) SiO2 
 PCOD9179215
Probable space group: C 2/M
;
_chemical_formula_sum "Si O2"
_cell_formula_units_Z 48
_cell_length_a 14.746317
_cell_length_b 9.361369
_cell_length_c 18.006134
_cell_angle_alpha 90.000000
_cell_angle_beta 116.431189
_cell_angle_gamma 90.000000
_cell_volume 2225.841573
_symmetry_space_group_name_H-M "C 2/M"
_symmetry_group_IT_number 12
_symmetry_cell_setting 'monoclinic'
loop_
_space_group_symop_operation_xyz
x,y,z
-x,y,-z
-x,-y,-z
x,-y,z
1/2+x,1/2+y,z
1/2-x,1/2+y,-z
1/2-x,1/2-y,-z
1/2+x,1/2-y,z
loop_
_atom_site_type_symbol
_atom_site_label
_atom_site_fract_x
_atom_site_fract_y
_atom_site_fract_z
Si Si1 0.000982 0.663977 0.588565
Si Si2 0.693310 0.341895 0.917931
Si Si3 0.122758 0.341015 0.765682
Si Si4 0.471122 0.337891 0.908082
Si Si5 0.678499 0.668992 0.415467
Si Si6 0.108510 0.664643 0.251904
O O1 0.964299 0.500000 0.594459
O O2 0.931609 0.791966 0.592034
O O3 0.000000 0.669194 0.500000
O O4 0.105819 0.678964 0.671654
O O5 0.737043 0.500000 0.930682
O O6 0.687770 0.269791 0.835530
O O7 0.577499 0.349491 0.903666
O O8 0.750000 0.250000 0.000000
O O9 0.162110 0.500000 0.794182
O O10 0.006946 0.336150 0.756177
O O11 0.430421 0.500000 0.902395
O O12 0.401157 0.240668 0.831128
O O13 0.500000 0.280785 0.000000
O O14 0.698339 0.500000 0.418612
O O15 0.750000 0.750000 0.500000
O O16 0.675489 0.744040 0.333844
O O17 0.141032 0.500000 0.259111
#
# Coordination Sequence:
#
# PCOD9179215 Si02
#       6
#     8   8   8   8   8   8
#     4   9  18  34  55  78 104 134 167 204 249 301
#     4  10  19  31  49  71  96 126 161 200 241 287
#     4   8  15  29  49  71  96 127 162 197 236 288
#     4   9  18  33  52  74  99 129 165 203 245 295
#     4  11  21  34  53  76 103 134 171 212 254 301
#     4   9  17  31  51  74  99 129 166 205 249 300
#
# _framework density 21.564879000000001
#
# number of rings (size 3 to 8) (size 9 to 14) (size 15 to 20)
#    0.000    2.667    0.000    3.500    0.000    5.333 
#    0.000    1.667    0.000    4.000    0.000    0.000 
#    0.000    0.000    0.000    0.000    0.000    0.000 
#
# Total GULP energy -133890.997655 kJ/mol
# GULP energy per Si atom -5578.791569 kJ/mol
# Density = 2.151580 g / cm^3
# Si number density = 21.564879 Si / 1000 Ang^3
#
#
#
# Elastic Constant Matrix: (Units=GPa)
#
#
# Indices 1 2 3 4 5 6 
#
# 1 31.6251 7.0542 4.4571 0.0000 -2.3706 0.0000
# 2 7.0542 189.5782 130.8773 0.0000 8.4115 0.0000
# 3 4.4571 130.8773 226.7006 0.0000 -14.1434 0.0000
# 4 0.0000 0.0000 0.0000 41.5236 0.0000 1.2160
# 5 -2.3706 8.4115 -14.1434 0.0000 24.7760 0.0000
# 6 0.0000 0.0000 0.0000 1.2160 0.0000 11.4771
#
#
#
# Elastic Compliance Matrix: (Units=1/GPa)
#
#
# Indices 1 2 3 4 5 6 
#
# 1 0.032247 -0.001866 0.000700 0.000000 0.004119 0.000000
# 2 -0.001866 0.009862 -0.006094 0.000000 -0.007005 0.000000
# 3 0.000700 -0.006094 0.008346 0.000000 0.006900 0.000000
# 4 0.000000 0.000000 0.000000 0.024158 0.000000 -0.002559
# 5 0.004119 -0.007005 0.006900 0.000000 0.047073 0.000000
# 6 0.000000 0.000000 0.000000 -0.002559 0.000000 0.087401
#
#
# Mechanical properties :
#
#
# Convention : Reuss Voigt Hill
#
# Bulk Modulus (GPa) = 27.82776 81.40900 54.61838
# Shear Modulus (GPa) = 21.22383 35.92304 28.57344
#
# Velocity S-wave (km/s) = 3.14058 4.08586 3.64400
# Velocity P-wave (km/s) = 5.10717 7.75189 6.56410
#
# Compressibility (1/GPa) = 0.03593534
#
# Stress axis : x y z
#
# Youngs Moduli (GPa) = 31.01091 101.39791 119.81898
#
# Poissons Ratio (x) = 0.18922 -0.08391
# Poissons Ratio (y) = 0.05787 0.73017
# Poissons Ratio (z) = -0.02172 0.61791
#
# Static dielectric constant tensor:
#      x y z
#    x 1.871150 0.000000 0.002540 
#    y 0.000000 1.765580 0.000000 
#    z 0.002540 0.000000 1.796150 
# 
# From -- ./inp_files/280075.got.cif
#   From: 2010.05.17/outbox.cif.g08.bks.cpg/sg12_141_cif.got.tgz:280075.got - 2010.06.03 13:09:07.
