data_PCOD9179235
_publ_section_title
;
Structure prediction by ZEFSAII (Michael W. Deem and Ramdas Pophale) SiO2 
 PCOD9179235
Probable space group: C 2/M
;
_chemical_formula_sum "Si O2"
_cell_formula_units_Z 64
_cell_length_a 26.249288
_cell_length_b 19.057081
_cell_length_c 23.588133
_cell_angle_alpha 90.000000
_cell_angle_beta 164.158689
_cell_angle_gamma 90.000000
_cell_volume 3220.984807
_symmetry_space_group_name_H-M "C 2/M"
_symmetry_group_IT_number 12
_symmetry_cell_setting 'monoclinic'
loop_
_space_group_symop_operation_xyz
x,y,z
-x,y,-z
-x,-y,-z
x,-y,z
1/2+x,1/2+y,z
1/2-x,1/2+y,-z
1/2-x,1/2-y,-z
1/2+x,1/2-y,z
loop_
_atom_site_type_symbol
_atom_site_label
_atom_site_fract_x
_atom_site_fract_y
_atom_site_fract_z
Si Si1 0.411247 0.336920 0.846440
Si Si2 0.126530 0.706146 0.275893
Si Si3 0.632007 0.578022 0.999927
Si Si4 0.989410 0.919680 0.421674
Si Si5 0.451515 0.919336 0.513410
Si Si6 0.625479 0.292400 0.921900
Si Si7 0.923551 0.420012 0.856365
Si Si8 0.428035 0.695057 0.263493
O O1 0.419411 0.270089 0.815017
O O2 0.203136 0.366154 0.630041
O O3 0.500000 0.314487 0.000000
O O4 0.538589 0.399618 0.958791
O O5 0.044182 0.635159 0.159588
O O6 0.351658 0.700856 0.514546
O O7 0.028575 0.731728 0.229378
O O8 0.578302 0.500000 0.926223
O O9 0.854597 0.582005 0.245084
O O10 0.560130 0.635251 0.879322
O O11 0.900255 0.863113 0.282847
O O12 0.000000 0.899406 0.500000
O O13 0.201928 0.922950 0.627964
O O14 0.914160 0.000000 0.338296
O O15 0.500000 0.903270 0.500000
O O16 0.380465 0.000000 0.439213
O O17 0.659979 0.313478 0.893618
O O18 0.812377 0.265415 0.154681
O O19 0.990086 0.500000 0.916906
O O20 0.000000 0.397358 0.000000
#
# Coordination Sequence:
#
# PCOD9179235 Si02
#       8
#     8   8   8   8   8   8   8   8
#     4  11  20  32  50  79 111 144 185 222 268 330
#     4  10  21  36  55  81 110 145 181 236 278 323
#     4  10  21  36  53  77 108 143 186 233 272 320
#     4   9  19  35  57  88 118 146 182 229 287 342
#     4  10  19  31  49  72 106 148 182 223 276 321
#     4  10  22  38  59  81 107 147 195 225 277 332
#     4   9  18  33  53  79 114 150 182 224 284 349
#     4  10  21  40  59  81 112 149 182 232 276 332
#
# _framework density 19.869700000000002
#
# number of rings (size 3 to 8) (size 9 to 14) (size 15 to 20)
#    0.000    2.125    1.250    1.875    1.750    1.000 
#    2.250    0.625    0.000    0.750    0.000    0.000 
#    0.000    0.000    0.000    0.000    0.000    0.000 
#
# Total GULP energy -178237.339326 kJ/mol
# GULP energy per Si atom -5569.916854 kJ/mol
# Density = 1.982448 g / cm^3
# Si number density = 19.869700 Si / 1000 Ang^3
#
#
#
# Elastic Constant Matrix: (Units=GPa)
#
#
# Indices 1 2 3 4 5 6 
#
# 1 82.7698 44.3503 11.7901 -0.0011 -7.9974 0.0020
# 2 44.3503 105.5303 21.8247 -0.0011 -17.6454 0.0012
# 3 11.7901 21.8247 61.9571 -0.0044 9.5763 -0.0044
# 4 -0.0011 -0.0011 -0.0044 14.1665 -0.0025 0.8862
# 5 -7.9974 -17.6454 9.5763 -0.0025 28.2792 -0.0002
# 6 0.0020 0.0012 -0.0044 0.8862 -0.0002 20.3527
#
#
#
# Elastic Compliance Matrix: (Units=1/GPa)
#
#
# Indices 1 2 3 4 5 6 
#
# 1 0.015638 -0.006246 -0.000904 0.000001 0.000831 -0.000001
# 2 -0.006246 0.014786 -0.005459 0.000001 0.009308 -0.000001
# 3 -0.000904 -0.005459 0.019839 0.000004 -0.010380 0.000004
# 4 0.000001 0.000001 0.000004 0.070782 0.000006 -0.003082
# 5 0.000831 0.009308 -0.010380 0.000006 0.044920 -0.000003
# 6 -0.000001 -0.000001 0.000004 -0.003082 -0.000003 0.049268
#
#
# Mechanical properties :
#
#
# Convention : Reuss Voigt Hill
#
# Bulk Modulus (GPa) = 39.92670 45.13195 42.52932
# Shear Modulus (GPa) = 20.09657 24.04580 22.07119
#
# Velocity S-wave (km/s) = 3.18373 3.48253 3.33648
# Velocity P-wave (km/s) = 5.80110 6.23971 6.02440
#
# Compressibility (1/GPa) = 0.02504590
#
# Stress axis : x y z
#
# Youngs Moduli (GPa) = 63.94883 67.63077 50.40457
#
# Poissons Ratio (x) = 0.42241 0.04557
# Poissons Ratio (y) = 0.39942 0.27514
# Poissons Ratio (z) = 0.05781 0.36917
#
# Static dielectric constant tensor:
#      x y z
#    x 1.765870 -0.000010 0.039300 
#    y -0.000010 1.712990 -0.000010 
#    z 0.039300 -0.000010 1.713080 
# 
# From -- ./inp_files/326144.got.cif
#   From: 2010.05.17/outbox.cif.g08.bks.cpg/sg12_164_cif.got.tgz:326144.got - 2010.06.03 13:09:07.
