data_PCOD9179382
_publ_section_title
;
Structure prediction by ZEFSAII (Michael W. Deem and Ramdas Pophale) SiO2 
 PCOD9179382
Probable space group: C 2/M
;
_chemical_formula_sum "Si O2"
_cell_formula_units_Z 48
_cell_length_a 14.518479
_cell_length_b 23.823947
_cell_length_c 14.598579
_cell_angle_alpha 90.000000
_cell_angle_beta 150.683432
_cell_angle_gamma 90.000000
_cell_volume 2472.393099
_symmetry_space_group_name_H-M "C 2/M"
_symmetry_group_IT_number 12
_symmetry_cell_setting 'monoclinic'
loop_
_space_group_symop_operation_xyz
x,y,z
-x,y,-z
-x,-y,-z
x,-y,z
1/2+x,1/2+y,z
1/2-x,1/2+y,-z
1/2-x,1/2-y,-z
1/2+x,1/2-y,z
loop_
_atom_site_type_symbol
_atom_site_label
_atom_site_fract_x
_atom_site_fract_y
_atom_site_fract_z
Si Si1 0.632306 0.281948 0.219609
Si Si2 0.835139 0.630373 0.051598
Si Si3 0.291879 0.819566 0.194434
Si Si4 0.757053 0.659207 0.672622
Si Si5 0.508608 0.288440 0.704008
Si Si6 0.722214 0.938170 0.168949
O O1 0.770176 0.324462 0.285232
O O2 0.694478 0.219826 0.241681
O O3 0.625192 0.282965 0.323250
O O4 0.416632 0.295832 0.009318
O O5 0.819730 0.629095 0.148326
O O6 0.050268 0.641524 0.210766
O O7 0.703211 0.682363 0.905160
O O8 0.764406 0.579916 0.925814
O O9 0.439324 0.771803 0.292940
O O10 0.595316 0.672992 0.460012
O O11 0.711126 0.611514 0.706505
O O12 0.804335 0.000000 0.256008
O O13 0.500000 0.941047 0.000000
#
# Coordination Sequence:
#
# PCOD9179382 Si02
#       6
#     8   8   8   8   8   8
#     4  10  19  31  49  75 108 138 171 205 247 315
#     4  10  19  35  50  69 103 133 170 213 258 300
#     4  10  19  31  50  73 102 143 172 201 254 310
#     4  11  20  32  52  73 102 139 170 211 253 308
#     4  11  20  33  48  76 103 142 171 201 254 315
#     4   9  20  36  56  77 100 135 180 223 265 302
#
# _framework density 19.414389
#
# number of rings (size 3 to 8) (size 9 to 14) (size 15 to 20)
#    0.000    1.833    3.333    2.500    4.667    2.667 
#    0.000    1.667    0.000    0.000    0.000   10.500 
#    0.000    5.333    0.000    0.000    0.000    0.000 
#
# Total GULP energy -133859.744598 kJ/mol
# GULP energy per Si atom -5577.489358 kJ/mol
# Density = 1.937020 g / cm^3
# Si number density = 19.414389 Si / 1000 Ang^3
#
#
#
# Elastic Constant Matrix: (Units=GPa)
#
#
# Indices 1 2 3 4 5 6 
#
# 1 160.0423 46.9898 30.7865 0.0000 -13.3556 0.0000
# 2 46.9898 76.6243 9.0915 0.0000 -9.7430 0.0000
# 3 30.7865 9.0915 68.2731 0.0000 8.4890 0.0000
# 4 0.0000 0.0000 0.0000 9.0877 0.0000 -3.2963
# 5 -13.3556 -9.7430 8.4890 0.0000 24.9643 0.0000
# 6 0.0000 0.0000 0.0000 -3.2963 0.0000 15.4956
#
#
#
# Elastic Compliance Matrix: (Units=1/GPa)
#
#
# Indices 1 2 3 4 5 6 
#
# 1 0.008595 -0.004278 -0.003832 0.000000 0.004232 0.000000
# 2 -0.004278 0.016320 -0.000785 0.000000 0.004348 0.000000
# 3 -0.003832 -0.000785 0.017513 0.000000 -0.008312 0.000000
# 4 0.000000 0.000000 0.000000 0.119239 0.000000 0.025365
# 5 0.004232 0.004348 -0.008312 0.000000 0.046844 0.000000
# 6 0.000000 0.000000 0.000000 0.025365 0.000000 0.069930
#
#
# Mechanical properties :
#
#
# Convention : Reuss Voigt Hill
#
# Bulk Modulus (GPa) = 40.58741 53.18614 46.88678
# Shear Modulus (GPa) = 16.42340 24.44763 20.43552
#
# Velocity S-wave (km/s) = 2.91166 3.55245 3.24789
# Velocity P-wave (km/s) = 5.67934 6.65441 6.18612
#
# Compressibility (1/GPa) = 0.02463818
#
# Stress axis : x y z
#
# Youngs Moduli (GPa) = 116.35113 61.27430 57.10035
#
# Poissons Ratio (x) = 0.26213 0.21881
# Poissons Ratio (y) = 0.49774 0.04481
# Poissons Ratio (z) = 0.44587 0.04809
#
# Static dielectric constant tensor:
#      x y z
#    x 1.783620 0.000000 -0.054300 
#    y 0.000000 1.667130 0.000000 
#    z -0.054300 0.000000 1.758820 
# 
# From -- ./inp_files/63613.got.cif
#   From: 2010.05.17/outbox.cif.g08.bks.cpg/sg12_32_cif.got.tgz:63613.got - 2010.06.03 13:09:07.
