data_PCOD9179989
_publ_section_title
;
Structure prediction by ZEFSAII (Michael W. Deem and Ramdas Pophale) SiO2 
 PCOD9179989
Probable space group: C 2/M
;
_chemical_formula_sum "Si O2"
_cell_formula_units_Z 64
_cell_length_a 21.094451
_cell_length_b 7.727446
_cell_length_c 21.020817
_cell_angle_alpha 90.000000
_cell_angle_beta 65.775805
_cell_angle_gamma 90.000000
_cell_volume 3124.808186
_symmetry_space_group_name_H-M "C 2/M"
_symmetry_group_IT_number 12
_symmetry_cell_setting 'monoclinic'
loop_
_space_group_symop_operation_xyz
x,y,z
-x,y,-z
-x,-y,-z
x,-y,z
1/2+x,1/2+y,z
1/2-x,1/2+y,-z
1/2-x,1/2-y,-z
1/2+x,1/2-y,z
loop_
_atom_site_type_symbol
_atom_site_label
_atom_site_fract_x
_atom_site_fract_y
_atom_site_fract_z
Si Si1 0.169911 0.793341 0.545744
Si Si2 0.300438 0.290567 0.068704
Si Si3 0.803036 0.212004 0.208835
Si Si4 0.384286 0.298450 0.297544
Si Si5 0.854123 0.794633 0.913460
Si Si6 0.921895 0.705455 0.537742
Si Si7 0.458343 0.200471 0.763651
Si Si8 0.145314 0.711879 0.303946
O O1 0.250000 0.750000 0.500000
O O2 0.145336 0.723053 0.624445
O O3 0.121408 0.729500 0.508587
O O4 0.162616 0.000000 0.549624
O O5 0.302312 0.500000 0.066749
O O6 0.322430 0.230934 0.129589
O O7 0.220402 0.239545 0.088942
O O8 0.344835 0.229773 0.989707
O O9 0.851676 0.274311 0.246117
O O10 0.723749 0.264737 0.256014
O O11 0.804842 0.000000 0.206635
O O12 0.363107 0.500000 0.306753
O O13 0.467228 0.288512 0.263059
O O14 0.914599 0.713966 0.846467
O O15 0.866084 0.000000 0.909911
O O16 0.928798 0.500000 0.545859
O O17 0.880569 0.771942 0.616394
O O18 0.000000 0.777508 0.500000
O O19 0.408730 0.269472 0.727922
O O20 0.472343 0.000000 0.743536
O O21 0.146139 0.500000 0.302367
#
# Coordination Sequence:
#
# PCOD9179989 Si02
#       8
#     8   8   8   8   8   8   8   8
#     4  11  23  39  59  82 112 149 187 231 281 336
#     4   9  17  32  55  81 108 143 186 226 267 322
#     4   9  16  32  56  78 101 137 186 229 263 313
#     4  10  22  38  57  80 110 144 181 229 276 320
#     4  10  19  31  52  83 115 142 175 226 279 322
#     4  10  20  35  56  82 111 143 184 232 280 333
#     4  11  21  36  58  81 110 148 185 222 270 333
#     4   9  17  31  55  80 102 137 184 228 267 317
#
# _framework density 20.481255999999998
#
# number of rings (size 3 to 8) (size 9 to 14) (size 15 to 20)
#    0.000    2.125    1.250    2.625    0.000    4.750 
#    0.000    2.500    0.000    3.750    0.000    0.000 
#    0.000    0.000    0.000    0.000    0.000    0.000 
#
# Total GULP energy -178696.817565 kJ/mol
# GULP energy per Si atom -5584.275549 kJ/mol
# Density = 2.043464 g / cm^3
# Si number density = 20.481256 Si / 1000 Ang^3
#
#
#
# Elastic Constant Matrix: (Units=GPa)
#
#
# Indices 1 2 3 4 5 6 
#
# 1 126.0788 -15.2939 67.4792 -0.0006 23.0072 -0.0006
# 2 -15.2939 26.3287 -7.1278 -0.0005 2.8053 -0.0009
# 3 67.4792 -7.1278 156.2428 -0.0006 29.5004 -0.0008
# 4 -0.0006 -0.0005 -0.0006 13.6163 0.0001 1.0516
# 5 23.0072 2.8053 29.5004 0.0001 27.7490 0.0002
# 6 -0.0006 -0.0009 -0.0008 1.0516 0.0002 23.2406
#
#
#
# Elastic Compliance Matrix: (Units=1/GPa)
#
#
# Indices 1 2 3 4 5 6 
#
# 1 0.011868 0.006651 -0.003550 0.000001 -0.006738 0.000000
# 2 0.006651 0.043368 0.001220 0.000002 -0.011195 0.000002
# 3 -0.003550 0.001220 0.009329 0.000000 -0.007098 0.000000
# 4 0.000001 0.000002 0.000000 0.073699 -0.000001 -0.003335
# 5 -0.006738 -0.011195 -0.007098 -0.000001 0.050302 -0.000001
# 6 0.000000 0.000002 0.000000 -0.003335 -0.000001 0.043179
#
#
# Mechanical properties :
#
#
# Convention : Reuss Voigt Hill
#
# Bulk Modulus (GPa) = 13.66000 44.30727 28.98363
# Shear Modulus (GPa) = 20.20155 30.49403 25.34779
#
# Velocity S-wave (km/s) = 3.14402 3.86278 3.52178
# Velocity P-wave (km/s) = 4.45688 6.44785 5.54250
#
# Compressibility (1/GPa) = 0.07320644
#
# Stress axis : x y z
#
# Youngs Moduli (GPa) = 84.26090 23.05860 107.18892
#
# Poissons Ratio (x) = -0.15336 0.38051
# Poissons Ratio (y) = -0.56040 -0.13076
# Poissons Ratio (z) = 0.29912 -0.02813
#
# Static dielectric constant tensor:
#      x y z
#    x 1.675500 0.000000 0.027940 
#    y 0.000000 1.775320 0.000000 
#    z 0.027940 0.000000 1.740870 
# 
# From -- ./inp_files/319891.got.cif
#   From: 2010.05.17/outbox.cif.g08.bks.cpg/sg12_160_cif.got.tgz:319891.got - 2010.06.03 13:09:07.
