data_PCOD9179937
_publ_section_title
;
Structure prediction by ZEFSAII (Michael W. Deem and Ramdas Pophale) SiO2 
 PCOD9179937
Probable space group: C 2/M
;
_chemical_formula_sum "Si O2"
_cell_formula_units_Z 56
_cell_length_a 13.485712
_cell_length_b 20.441700
_cell_length_c 12.033952
_cell_angle_alpha 90.000000
_cell_angle_beta 108.980379
_cell_angle_gamma 90.000000
_cell_volume 3137.042575
_symmetry_space_group_name_H-M "C 2/M"
_symmetry_group_IT_number 12
_symmetry_cell_setting 'monoclinic'
loop_
_space_group_symop_operation_xyz
x,y,z
-x,y,-z
-x,-y,-z
x,-y,z
1/2+x,1/2+y,z
1/2-x,1/2+y,-z
1/2-x,1/2-y,-z
1/2+x,1/2-y,z
loop_
_atom_site_type_symbol
_atom_site_label
_atom_site_fract_x
_atom_site_fract_y
_atom_site_fract_z
Si Si1 0.988263 0.322204 0.233208
Si Si2 0.781720 0.178724 0.662716
Si Si3 0.638879 0.229739 0.111425
Si Si4 0.597668 0.752553 0.461933
Si Si5 0.133078 0.199783 0.875910
Si Si6 0.896830 0.926730 0.038627
Si Si7 0.701175 0.922125 0.799368
O O1 0.055077 0.316952 0.142796
O O2 0.067558 0.311415 0.364715
O O3 0.919584 0.255614 0.215962
O O4 0.904885 0.381307 0.209521
O O5 0.830042 0.218179 0.783576
O O6 0.684434 0.218678 0.576362
O O7 0.864167 0.189687 0.593844
O O8 0.744953 0.110246 0.701162
O O9 0.745006 0.194518 0.110283
O O10 0.611616 0.271409 0.991940
O O11 0.500000 0.735068 0.500000
O O12 0.088657 0.127539 0.862221
O O13 0.792602 0.912407 0.926074
O O14 0.885682 0.000000 0.078323
O O15 0.000000 0.924555 0.000000
O O16 0.683129 0.000000 0.783633
#
# Coordination Sequence:
#
# PCOD9179937 Si02
#       7
#     8   8   8   8   8   8   8
#     4  11  21  33  54  83 111 145 190 227 282 324
#     4  10  19  35  52  82 110 143 186 222 283 318
#     4  10  19  31  52  80 108 142 185 233 267 326
#     4  10  19  33  56  80 112 136 177 244 271 327
#     4  11  18  31  54  78 110 142 186 233 275 326
#     4  10  21  34  51  78 111 147 184 224 274 333
#     4  11  21  37  56  80 116 149 186 227 274 341
#
# _framework density 17.851208
#
# number of rings (size 3 to 8) (size 9 to 14) (size 15 to 20)
#    0.000    1.571    4.286    2.143    2.000    0.000 
#    0.000    2.143    0.000    3.857    0.000    7.000 
#    0.000    0.000    0.000    0.000    0.000    0.000 
#
# Total GULP energy -155985.145439 kJ/mol
# GULP energy per Si atom -5570.898051 kJ/mol
# Density = 1.781058 g / cm^3
# Si number density = 17.851208 Si / 1000 Ang^3
#
#
#
# Elastic Constant Matrix: (Units=GPa)
#
#
# Indices 1 2 3 4 5 6 
#
# 1 111.4421 20.7156 2.8526 0.0000 -27.6382 0.0000
# 2 20.7156 92.5822 -3.6997 0.0000 -12.6587 0.0000
# 3 2.8526 -3.6997 48.6872 0.0000 -10.2436 0.0000
# 4 0.0000 0.0000 0.0000 18.4544 0.0000 -6.8641
# 5 -27.6382 -12.6587 -10.2436 0.0000 29.4808 0.0000
# 6 0.0000 0.0000 0.0000 -6.8641 0.0000 19.4099
#
#
#
# Elastic Compliance Matrix: (Units=1/GPa)
#
#
# Indices 1 2 3 4 5 6 
#
# 1 0.011927 -0.001063 0.001594 0.000000 0.011279 0.000000
# 2 -0.001063 0.011764 0.001952 0.000000 0.004733 0.000000
# 3 0.001594 0.001952 0.022748 0.000000 0.010236 0.000000
# 4 0.000000 0.000000 0.000000 0.062395 0.000000 0.022065
# 5 0.011279 0.004733 0.010236 0.000000 0.050084 0.000000
# 6 0.000000 0.000000 0.000000 0.022065 0.000000 0.059323
#
#
# Mechanical properties :
#
#
# Convention : Reuss Voigt Hill
#
# Bulk Modulus (GPa) = 19.45341 32.49428 25.97384
# Shear Modulus (GPa) = 21.70033 28.99187 25.34610
#
# Velocity S-wave (km/s) = 3.49036 4.03437 3.77218
# Velocity P-wave (km/s) = 5.21197 6.32011 5.79260
#
# Compressibility (1/GPa) = 0.05140488
#
# Stress axis : x y z
#
# Youngs Moduli (GPa) = 83.84087 85.00344 43.96002
#
# Poissons Ratio (x) = 0.09035 -0.07005
# Poissons Ratio (y) = 0.08912 -0.08581
# Poissons Ratio (z) = -0.13360 -0.16593
#
# Static dielectric constant tensor:
#      x y z
#    x 1.690760 0.000000 0.032010 
#    y 0.000000 1.598070 0.000000 
#    z 0.032010 0.000000 1.653660 
# 
# From -- ./inp_files/147154.got.cif
#   From: 2010.05.17/outbox.cif.g08.bks.cpg/sg12_74_cif.got.tgz:147154.got - 2010.06.03 13:09:07.
