data_PCOD9179203
_publ_section_title
;
Structure prediction by ZEFSAII (Michael W. Deem and Ramdas Pophale) SiO2 
 PCOD9179203
Probable space group: C 2/M
;
_chemical_formula_sum "Si O2"
_cell_formula_units_Z 56
_cell_length_a 19.697547
_cell_length_b 9.663562
_cell_length_c 36.113990
_cell_angle_alpha 90.000000
_cell_angle_beta 159.614227
_cell_angle_gamma 90.000000
_cell_volume 2394.568877
_symmetry_space_group_name_H-M "C 2/M"
_symmetry_group_IT_number 12
_symmetry_cell_setting 'monoclinic'
loop_
_space_group_symop_operation_xyz
x,y,z
-x,y,-z
-x,-y,-z
x,-y,z
1/2+x,1/2+y,z
1/2-x,1/2+y,-z
1/2-x,1/2-y,-z
1/2+x,1/2-y,z
loop_
_atom_site_type_symbol
_atom_site_label
_atom_site_fract_x
_atom_site_fract_y
_atom_site_fract_z
Si Si1 0.427606 0.344227 0.190302
Si Si2 0.552792 0.163764 0.404759
Si Si3 0.983620 0.149691 0.090078
Si Si4 0.989527 0.345783 0.159072
Si Si5 0.003755 0.645155 0.045474
Si Si6 0.501144 0.833056 0.296056
Si Si7 0.905728 0.666323 0.492371
O O1 0.504429 0.500000 0.235830
O O2 0.544976 0.242589 0.223546
O O3 0.228184 0.363252 0.065262
O O4 0.388754 0.260669 0.208243
O O5 0.750000 0.250000 0.500000
O O6 0.446136 0.192015 0.311066
O O7 0.480602 0.190793 0.410093
O O8 0.595586 0.000000 0.425219
O O9 0.747636 0.140310 0.966696
O O10 0.056597 0.207535 0.088531
O O11 0.060780 0.000000 0.139552
O O12 0.045341 0.261688 0.151440
O O13 0.069257 0.500000 0.201651
O O14 0.096046 0.500000 0.106296
O O15 0.000000 0.641088 0.000000
O O16 0.717351 0.766122 0.400102
O O17 0.494234 0.000000 0.285371
O O18 0.859012 0.500000 0.469022
O O19 0.000000 0.691768 0.500000
#
# Coordination Sequence:
#
# PCOD9179203 Si02
#       7
#     8   8   8   8   8   8   8
#     4  10  19  31  49  71  95 124 163 206 247 296
#     4   8  15  28  47  72  98 127 164 201 237 286
#     4   9  16  26  43  67  91 116 151 195 241 289
#     4   9  16  27  44  66  91 118 151 193 240 288
#     4   9  18  32  49  68  91 124 165 209 255 298
#     4  10  19  31  49  73 103 134 166 203 248 299
#     4   9  17  31  53  78 102 131 167 205 247 291
#
# _framework density 23.386257000000001
#
# number of rings (size 3 to 8) (size 9 to 14) (size 15 to 20)
#    0.000    2.857    0.000    1.714    0.000    5.143 
#    0.000    0.000    3.143    0.000    0.000    0.000 
#    0.000    0.000    0.000    0.000    0.000    0.000 
#
# Total GULP energy -155889.475539 kJ/mol
# GULP energy per Si atom -5567.481269 kJ/mol
# Density = 2.333303 g / cm^3
# Si number density = 23.386257 Si / 1000 Ang^3
#
#
#
# Elastic Constant Matrix: (Units=GPa)
#
#
# Indices 1 2 3 4 5 6 
#
# 1 114.8480 57.8449 12.6502 -0.0003 -36.2848 0.0005
# 2 57.8449 165.1475 19.7502 -0.0010 -24.3296 0.0005
# 3 12.6502 19.7502 63.8900 -0.0016 -7.8203 0.0042
# 4 -0.0003 -0.0010 -0.0016 14.2431 0.0009 -12.8296
# 5 -36.2848 -24.3296 -7.8203 0.0009 35.1353 -0.0004
# 6 0.0005 0.0005 0.0042 -12.8296 -0.0004 -9.9061
#
#
#
# Elastic Compliance Matrix: (Units=1/GPa)
#
#
# Indices 1 2 3 4 5 6 
#
# 1 0.014260 -0.003114 -0.000331 0.000000 0.012497 0.000000
# 2 -0.003114 0.007577 -0.001518 0.000000 0.001693 0.000000
# 3 -0.000331 -0.001518 0.016465 0.000004 0.002271 0.000002
# 4 0.000000 0.000000 0.000004 0.032406 -0.000001 -0.041969
# 5 0.012497 0.001693 0.002271 -0.000001 0.043045 0.000001
# 6 0.000000 0.000000 0.000002 -0.041969 0.000001 -0.046593
#
#
# Mechanical properties :
#
#
# Convention : Reuss Voigt Hill
#
# Bulk Modulus (GPa) = 35.24305 58.26399 46.75352
# Shear Modulus (GPa) = 57.77336 24.80381 41.28858
#
# Velocity S-wave (km/s) = 4.97570 3.26024 4.20635
# Velocity P-wave (km/s) = 6.93634 6.25620 6.60503
#
# Compressibility (1/GPa) = 0.02837439
#
# Stress axis : x y z
#
# Youngs Moduli (GPa) = 70.12449 131.97945 60.73533
#
# Poissons Ratio (x) = 0.41101 0.02012
# Poissons Ratio (y) = 0.21838 0.09222
# Poissons Ratio (z) = 0.02323 0.20040
#
# Static dielectric constant tensor:
#      x y z
#    x 1.974220 0.000000 0.045720 
#    y 0.000000 1.868610 0.000000 
#    z 0.045720 0.000000 2.018650 
# 
# From -- ./inp_files/377765.got.cif
#   From: 2010.05.17/outbox.cif.g08.bks.cpg/sg12_189_cif.got.tgz:377765.got - 2010.06.03 13:09:07.
