data_PCOD9179709
_publ_section_title
;
Structure prediction by ZEFSAII (Michael W. Deem and Ramdas Pophale) SiO2 
 PCOD9179709
Probable space group: C 2/M
;
_chemical_formula_sum "Si O2"
_cell_formula_units_Z 56
_cell_length_a 18.374536
_cell_length_b 13.990748
_cell_length_c 17.416121
_cell_angle_alpha 90.000000
_cell_angle_beta 136.291093
_cell_angle_gamma 90.000000
_cell_volume 3093.737938
_symmetry_space_group_name_H-M "C 2/M"
_symmetry_group_IT_number 12
_symmetry_cell_setting 'monoclinic'
loop_
_space_group_symop_operation_xyz
x,y,z
-x,y,-z
-x,-y,-z
x,-y,z
1/2+x,1/2+y,z
1/2-x,1/2+y,-z
1/2-x,1/2-y,-z
1/2+x,1/2-y,z
loop_
_atom_site_type_symbol
_atom_site_label
_atom_site_fract_x
_atom_site_fract_y
_atom_site_fract_z
Si Si1 0.003436 0.387921 0.317113
Si Si2 0.389377 0.107641 0.819095
Si Si3 0.773760 0.109891 0.165901
Si Si4 0.250233 0.257919 0.629389
Si Si5 0.111127 0.613651 0.926531
Si Si6 0.919225 0.756769 0.376190
Si Si7 0.242924 0.890116 0.499837
O O1 0.979672 0.500000 0.311638
O O2 0.936159 0.354090 0.191341
O O3 0.974201 0.324924 0.368098
O O4 0.129124 0.382680 0.398815
O O5 0.321693 0.106820 0.844795
O O6 0.342325 0.194798 0.735568
O O7 0.514080 0.121933 0.912592
O O8 0.372927 0.000000 0.771660
O O9 0.865535 0.169638 0.276238
O O10 0.807304 0.000000 0.178680
O O11 0.718163 0.151658 0.046825
O O12 0.172984 0.284496 0.639453
O O13 0.198121 0.181822 0.529772
O O14 0.285367 0.346628 0.604640
O O15 0.129450 0.500000 0.931894
O O16 0.000000 0.800402 0.500000
O O17 0.212481 0.000000 0.486761
#
# Coordination Sequence:
#
# PCOD9179709 Si02
#       7
#     8   8   8   8   8   8   8
#     4  10  20  34  55  78 102 135 174 220 266 297
#     4   9  15  27  50  78 105 129 162 215 268 301
#     4   9  19  32  49  74 105 140 173 206 254 312
#     4  10  19  31  51  76 104 135 168 214 253 313
#     4   9  16  30  52  77 101 128 171 221 262 299
#     4  11  22  35  49  75 111 144 171 205 254 314
#     4  10  19  33  53  76 101 135 174 218 259 296
#
# _framework density 18.10108
#
# number of rings (size 3 to 8) (size 9 to 14) (size 15 to 20)
#    0.000    2.286    2.857    0.857    0.000    4.000 
#    0.000    0.000    0.000    0.000    0.000    1.000 
#    0.000    4.571    0.000    0.000    0.000    0.000 
#
# Total GULP energy -155886.264880 kJ/mol
# GULP energy per Si atom -5567.366603 kJ/mol
# Density = 1.805988 g / cm^3
# Si number density = 18.101080 Si / 1000 Ang^3
#
#
#
# Elastic Constant Matrix: (Units=GPa)
#
#
# Indices 1 2 3 4 5 6 
#
# 1 49.0554 18.0227 -1.2322 0.0000 -3.6140 0.0000
# 2 18.0227 53.7692 22.2295 0.0000 -5.6021 0.0000
# 3 -1.2322 22.2295 112.1930 0.0000 -5.1328 0.0000
# 4 0.0000 0.0000 0.0000 17.9267 0.0000 -6.7273
# 5 -3.6140 -5.6021 -5.1328 0.0000 13.9191 0.0000
# 6 0.0000 0.0000 0.0000 -6.7273 0.0000 16.0868
#
#
#
# Elastic Compliance Matrix: (Units=1/GPa)
#
#
# Indices 1 2 3 4 5 6 
#
# 1 0.023816 -0.008484 0.002105 0.000000 0.003545 0.000000
# 2 -0.008484 0.023930 -0.004572 0.000000 0.005743 0.000000
# 3 0.002105 -0.004572 0.009951 0.000000 0.002376 0.000000
# 4 0.000000 0.000000 0.000000 0.066166 0.000000 0.027670
# 5 0.003545 0.005743 0.002376 0.000000 0.075951 0.000000
# 6 0.000000 0.000000 0.000000 0.027670 0.000000 0.073734
#
#
# Mechanical properties :
#
#
# Convention : Reuss Voigt Hill
#
# Bulk Modulus (GPa) = 27.93654 32.56195 30.24925
# Shear Modulus (GPa) = 16.26643 21.31971 18.79307
#
# Velocity S-wave (km/s) = 3.00099 3.43565 3.22565
# Velocity P-wave (km/s) = 5.24167 5.81088 5.53360
#
# Compressibility (1/GPa) = 0.03579542
#
# Stress axis : x y z
#
# Youngs Moduli (GPa) = 41.98858 41.78855 100.49369
#
# Poissons Ratio (x) = 0.35451 -0.21150
# Poissons Ratio (y) = 0.35621 0.45944
# Poissons Ratio (z) = -0.08837 0.19105
#
# Static dielectric constant tensor:
#      x y z
#    x 1.628140 0.000000 -0.025440 
#    y 0.000000 1.599860 0.000000 
#    z -0.025440 0.000000 1.682690 
# 
# From -- ./inp_files/245666.got.cif
#   From: 2010.05.17/outbox.cif.g08.bks.cpg/sg12_123_cif.got.tgz:245666.got - 2010.06.03 13:09:07.
