data_PCOD9179795
_publ_section_title
;
Structure prediction by ZEFSAII (Michael W. Deem and Ramdas Pophale) SiO2 
 PCOD9179795
Probable space group: C 2/M
;
_chemical_formula_sum "Si O2"
_cell_formula_units_Z 48
_cell_length_a 19.841115
_cell_length_b 7.794295
_cell_length_c 31.124445
_cell_angle_alpha 90.000000
_cell_angle_beta 30.279171
_cell_angle_gamma 90.000000
_cell_volume 2426.940813
_symmetry_space_group_name_H-M "C 2/M"
_symmetry_group_IT_number 12
_symmetry_cell_setting 'monoclinic'
loop_
_space_group_symop_operation_xyz
x,y,z
-x,y,-z
-x,-y,-z
x,-y,z
1/2+x,1/2+y,z
1/2-x,1/2+y,-z
1/2-x,1/2-y,-z
1/2+x,1/2-y,z
loop_
_atom_site_type_symbol
_atom_site_label
_atom_site_fract_x
_atom_site_fract_y
_atom_site_fract_z
Si Si1 0.615716 0.790215 0.470197
Si Si2 0.028087 0.708736 0.366680
Si Si3 0.886991 0.201622 0.277953
Si Si4 0.837633 0.207190 0.211539
Si Si5 0.574580 0.800731 0.247457
Si Si6 0.376760 0.799195 0.095555
O O1 0.500000 0.743529 0.500000
O O2 0.574423 0.731368 0.540574
O O3 0.757891 0.728123 0.374408
O O4 0.617772 0.000000 0.470542
O O5 0.022037 0.500000 0.368486
O O6 0.179350 0.750600 0.298172
O O7 0.013805 0.771857 0.325613
O O8 0.897347 0.269745 0.223791
O O9 0.014429 0.219255 0.238047
O O10 0.858854 0.000000 0.287596
O O11 0.900143 0.279172 0.133568
O O12 0.847464 0.000000 0.202865
O O13 0.734027 0.784764 0.163929
O O14 0.539212 0.000000 0.264779
O O15 0.361779 0.000000 0.093610
O O16 0.500000 0.729840 0.000000
#
# Coordination Sequence:
#
# PCOD9179795 Si02
#       6
#     8   8   8   8   8   8
#     4   9  14  24  47  75 102 137 182 220 250 292
#     4   8  14  27  46  71 100 136 180 217 249 293
#     4  10  19  31  51  79 109 142 178 215 254 299
#     4   9  17  31  53  79 106 137 172 210 255 308
#     4  10  21  35  52  75 108 142 172 212 260 308
#     4  10  21  38  60  82 101 125 164 213 261 317
#
# _framework density 19.777984
#
# number of rings (size 3 to 8) (size 9 to 14) (size 15 to 20)
#    0.000    2.667    1.667    2.000    0.000    2.667 
#    0.000    0.833    0.000    4.500    0.000    0.000 
#    0.000    0.000    0.000    0.000    0.000    0.000 
#
# Total GULP energy -133848.678868 kJ/mol
# GULP energy per Si atom -5577.028286 kJ/mol
# Density = 1.973297 g / cm^3
# Si number density = 19.777984 Si / 1000 Ang^3
#
#
#
# Elastic Constant Matrix: (Units=GPa)
#
#
# Indices 1 2 3 4 5 6 
#
# 1 132.4283 -7.5070 52.2148 -0.0068 20.4660 -0.0115
# 2 -7.5070 22.9601 -4.6211 -0.0201 1.6421 -0.0024
# 3 52.2148 -4.6211 106.6980 -0.0028 30.1614 -0.0014
# 4 -0.0068 -0.0201 -0.0028 61.2286 0.0038 20.6834
# 5 20.4660 1.6421 30.1614 0.0038 22.8583 0.0020
# 6 -0.0115 -0.0024 -0.0014 20.6834 0.0020 22.4428
#
#
#
# Elastic Compliance Matrix: (Units=1/GPa)
#
#
# Indices 1 2 3 4 5 6 
#
# 1 0.009733 0.002820 -0.003382 0.000000 -0.004455 0.000005
# 2 0.002820 0.045957 0.003600 0.000020 -0.010577 -0.000011
# 3 -0.003382 0.003600 0.016587 0.000003 -0.019118 -0.000002
# 4 0.000000 0.000020 0.000003 0.023715 -0.000008 -0.021856
# 5 -0.004455 -0.010577 -0.019118 -0.000008 0.073722 -0.000004
# 6 0.000005 -0.000011 -0.000002 -0.021856 -0.000004 0.064700
#
#
# Mechanical properties :
#
#
# Convention : Reuss Voigt Hill
#
# Bulk Modulus (GPa) = 12.76242 38.02889 25.39565
# Shear Modulus (GPa) = 19.64979 36.10592 27.87785
#
# Velocity S-wave (km/s) = 3.15543 4.27729 3.75846
# Velocity P-wave (km/s) = 4.44325 6.60782 5.63053
#
# Compressibility (1/GPa) = 0.07835507
#
# Stress axis : x y z
#
# Youngs Moduli (GPa) = 102.74420 21.75946 60.28740
#
# Poissons Ratio (x) = -0.06137 0.20386
# Poissons Ratio (y) = -0.28977 -0.21704
# Poissons Ratio (z) = 0.34743 -0.07834
#
# Static dielectric constant tensor:
#      x y z
#    x 1.697060 0.000000 0.029270 
#    y 0.000000 1.727820 0.000000 
#    z 0.029270 0.000000 1.683400 
# 
# From -- ./inp_files/274618.got.cif
#   From: 2010.05.17/outbox.cif.g08.bks.cpg/sg12_138_cif.got.tgz:274618.got - 2010.06.03 13:09:07.
