data_PCOD9179178
_publ_section_title
;
Structure prediction by ZEFSAII (Michael W. Deem and Ramdas Pophale) SiO2 
 PCOD9179178
Probable space group: C 2/M
;
_chemical_formula_sum "Si O2"
_cell_formula_units_Z 64
_cell_length_a 14.200606
_cell_length_b 9.241129
_cell_length_c 21.657915
_cell_angle_alpha 90.000000
_cell_angle_beta 80.234720
_cell_angle_gamma 90.000000
_cell_volume 2800.979759
_symmetry_space_group_name_H-M "C 2/M"
_symmetry_group_IT_number 12
_symmetry_cell_setting 'monoclinic'
loop_
_space_group_symop_operation_xyz
x,y,z
-x,y,-z
-x,-y,-z
x,-y,z
1/2+x,1/2+y,z
1/2-x,1/2+y,-z
1/2-x,1/2-y,-z
1/2+x,1/2-y,z
loop_
_atom_site_type_symbol
_atom_site_label
_atom_site_fract_x
_atom_site_fract_y
_atom_site_fract_z
Si Si1 0.877262 0.831771 0.110103
Si Si2 0.391931 0.336266 0.489789
Si Si3 0.387475 0.663974 0.352981
Si Si4 0.117200 0.332882 0.766185
Si Si5 0.338413 0.838202 0.614059
Si Si6 0.350343 0.666236 0.732522
Si Si7 0.854445 0.675501 0.990012
Si Si8 0.143940 0.666439 0.145751
O O1 0.909467 0.754935 0.169460
O O2 0.760304 0.829711 0.127327
O O3 0.906342 0.000000 0.102947
O O4 0.901990 0.742426 0.045583
O O5 0.500000 0.349840 0.500000
O O6 0.349805 0.500000 0.490786
O O7 0.397787 0.272830 0.420439
O O8 0.343425 0.240468 0.547540
O O9 0.426420 0.500000 0.348791
O O10 0.420481 0.757877 0.291737
O O11 0.273315 0.650224 0.357984
O O12 0.089332 0.500000 0.773495
O O13 0.233689 0.330629 0.748797
O O14 0.380690 0.745264 0.665812
O O15 0.379424 0.000000 0.606421
O O16 0.378367 0.500000 0.727983
O O17 0.383015 0.740903 0.792067
O O18 0.848044 0.500000 0.995581
O O19 0.894504 0.710699 0.917411
O O20 0.750000 0.750000 0.000000
O O21 0.118625 0.500000 0.159411
#
# Coordination Sequence:
#
# PCOD9179178 Si02
#       8
#     8   8   8   8   8   8   8   8
#     4   9  15  22  32  47  71 104 141 181 222 265
#     4  10  21  36  52  70  94 122 150 183 225 273
#     4   9  18  32  49  69  92 119 151 187 228 271
#     4   9  16  25  39  59  81 107 142 184 225 265
#     4  10  19  31  49  70  92 118 150 189 228 270
#     4   9  16  25  39  58  80 107 142 183 223 265
#     4   9  15  21  29  43  67 102 142 181 220 265
#     4   8  14  22  31  46  71 103 139 179 221 262
#
# _framework density 22.849149000000001
#
# number of rings (size 3 to 8) (size 9 to 14) (size 15 to 20)
#    0.000    2.875    0.000    3.000    0.000    7.750 
#    0.000    0.000    0.000    0.000    0.000    0.000 
#    0.000    0.000    0.000    1.125    0.000   23.000 
#
# Total GULP energy -178798.638050 kJ/mol
# GULP energy per Si atom -5587.457439 kJ/mol
# Density = 2.279714 g / cm^3
# Si number density = 22.849149 Si / 1000 Ang^3
#
#
#
# Elastic Constant Matrix: (Units=GPa)
#
#
# Indices 1 2 3 4 5 6 
#
# 1 52.8932 3.2549 34.5604 0.0000 -5.3632 0.0000
# 2 3.2549 153.2562 142.8856 0.0000 13.7928 0.0000
# 3 34.5604 142.8856 263.9715 0.0000 32.5447 0.0000
# 4 0.0000 0.0000 0.0000 22.6857 0.0000 10.5341
# 5 -5.3632 13.7928 32.5447 0.0000 40.3438 0.0000
# 6 0.0000 0.0000 0.0000 10.5341 0.0000 -11.6509
#
#
#
# Elastic Compliance Matrix: (Units=1/GPa)
#
#
# Indices 1 2 3 4 5 6 
#
# 1 0.023681 0.005164 -0.006736 0.000000 0.006816 0.000000
# 2 0.005164 0.014369 -0.008809 0.000000 0.002880 0.000000
# 3 -0.006736 -0.008809 0.010191 0.000000 -0.006105 0.000000
# 4 0.000000 0.000000 0.000000 0.031046 0.000000 0.028070
# 5 0.006816 0.002880 -0.006105 0.000000 0.029633 0.000000
# 6 0.000000 0.000000 0.000000 0.028070 0.000000 -0.060451
#
#
# Mechanical properties :
#
#
# Convention : Reuss Voigt Hill
#
# Bulk Modulus (GPa) = 36.39229 92.39142 64.39185
# Shear Modulus (GPa) = 63.78277 29.57036 46.67657
#
# Velocity S-wave (km/s) = 5.28917 3.60134 4.52465
# Velocity P-wave (km/s) = 7.29810 7.60369 7.45246
#
# Compressibility (1/GPa) = 0.02747835
#
# Stress axis : x y z
#
# Youngs Moduli (GPa) = 42.22872 69.59420 98.12568
#
# Poissons Ratio (x) = -0.35935 0.66095
# Poissons Ratio (y) = -0.21805 0.86438
# Poissons Ratio (z) = 0.28444 0.61305
#
# Static dielectric constant tensor:
#      x y z
#    x 1.906470 0.000000 -0.013560 
#    y 0.000000 1.810350 0.000000 
#    z -0.013560 0.000000 1.832320 
# 
# From -- ./inp_files/319083.got.cif
#   From: 2010.05.17/outbox.cif.g08.bks.cpg/sg12_160_cif.got.tgz:319083.got - 2010.06.03 13:09:07.
