data_PCOD9179534
_publ_section_title
;
Structure prediction by ZEFSAII (Michael W. Deem and Ramdas Pophale) SiO2 
 PCOD9179534
Probable space group: C 2/M
;
_chemical_formula_sum "Si O2"
_cell_formula_units_Z 64
_cell_length_a 16.187253
_cell_length_b 7.639986
_cell_length_c 19.413152
_cell_angle_alpha 90.000000
_cell_angle_beta 90.327435
_cell_angle_gamma 90.000000
_cell_volume 2400.792803
_symmetry_space_group_name_H-M "C 2/M"
_symmetry_group_IT_number 12
_symmetry_cell_setting 'monoclinic'
loop_
_space_group_symop_operation_xyz
x,y,z
-x,y,-z
-x,-y,-z
x,-y,z
1/2+x,1/2+y,z
1/2-x,1/2+y,-z
1/2-x,1/2-y,-z
1/2+x,1/2-y,z
loop_
_atom_site_type_symbol
_atom_site_label
_atom_site_fract_x
_atom_site_fract_y
_atom_site_fract_z
Si Si1 0.435242 0.295303 0.581867
Si Si2 0.832431 0.794027 0.958862
Si Si3 0.528843 0.206653 0.711704
Si Si4 0.229947 0.286326 0.334131
Si Si5 0.412245 0.197585 0.825987
Si Si6 0.926048 0.784785 0.087333
Si Si7 0.166334 0.210506 0.542426
Si Si8 0.811548 0.200213 0.205139
O O1 0.451729 0.500000 0.573237
O O2 0.507260 0.225937 0.631427
O O3 0.352527 0.270566 0.627580
O O4 0.407895 0.223176 0.506719
O O5 0.839575 0.744028 0.879057
O O6 0.842058 0.000000 0.958580
O O7 0.750000 0.750000 0.000000
O O8 0.904609 0.727208 0.010214
O O9 0.450769 0.278602 0.756629
O O10 0.608565 0.299648 0.743206
O O11 0.539324 0.000000 0.726223
O O12 0.229825 0.500000 0.333054
O O13 0.306676 0.224491 0.382257
O O14 0.241794 0.223907 0.255627
O O15 0.491583 0.215222 0.877204
O O16 0.395693 0.000000 0.805257
O O17 0.849974 0.723436 0.135850
O O18 0.931026 0.000000 0.089603
O O19 0.250000 0.250000 0.500000
O O20 0.156616 0.000000 0.547078
O O21 0.791008 0.000000 0.189237
#
# Coordination Sequence:
#
# PCOD9179534 Si02
#       8
#     8   8   8   8   8   8   8   8
#     4  10  19  31  50  75 102 134 172 213 255 304
#     4  11  23  37  54  79 111 141 169 208 254 298
#     4  10  21  36  53  74 102 134 169 212 258 304
#     4   9  17  31  52  76 102 134 170 210 257 305
#     4  10  21  37  57  78 100 132 174 214 253 303
#     4   9  19  36  56  77 102 134 170 206 249 303
#     4   8  15  28  46  70  99 131 169 209 250 300
#     4   9  18  34  55  76 100 132 169 208 251 302
#
# _framework density 26.657858999999998
#
# number of rings (size 3 to 8) (size 9 to 14) (size 15 to 20)
#    0.000    2.500    0.000    1.875    0.000    6.000 
#    0.000    3.125    0.000    3.750    0.000    0.000 
#    0.000    0.000    0.000    0.000    0.000    0.000 
#
# Total GULP energy -178833.338885 kJ/mol
# GULP energy per Si atom -5588.541840 kJ/mol
# Density = 2.659718 g / cm^3
# Si number density = 26.657859 Si / 1000 Ang^3
#
#
#
# Elastic Constant Matrix: (Units=GPa)
#
#
# Indices 1 2 3 4 5 6 
#
# 1 92.1457 -6.9161 7.8285 0.0000 0.8732 0.0000
# 2 -6.9161 63.0686 -7.5863 0.0000 3.0219 0.0000
# 3 7.8285 -7.5863 182.8057 0.0000 -2.1630 0.0000
# 4 0.0000 0.0000 0.0000 25.1634 0.0000 14.8686
# 5 0.8732 3.0219 -2.1630 0.0000 62.4897 0.0000
# 6 0.0000 0.0000 0.0000 14.8686 0.0000 24.8563
#
#
#
# Elastic Compliance Matrix: (Units=1/GPa)
#
#
# Indices 1 2 3 4 5 6 
#
# 1 0.010978 0.001164 -0.000424 0.000000 -0.000224 0.000000
# 2 0.001164 0.016094 0.000609 0.000000 -0.000773 0.000000
# 3 -0.000424 0.000609 0.005516 0.000000 0.000167 0.000000
# 4 0.000000 0.000000 0.000000 0.061466 0.000000 -0.036768
# 5 -0.000224 -0.000773 0.000167 0.000000 0.016049 0.000000
# 6 0.000000 0.000000 0.000000 -0.036768 0.000000 0.062225
#
#
# Mechanical properties :
#
#
# Convention : Reuss Voigt Hill
#
# Bulk Modulus (GPa) = 28.34215 36.07469 32.20842
# Shear Modulus (GPa) = 27.56464 45.48148 36.52306
#
# Velocity S-wave (km/s) = 3.21910 4.13500 3.70546
# Velocity P-wave (km/s) = 4.94689 6.02988 5.51503
#
# Compressibility (1/GPa) = 0.03528313
#
# Stress axis : x y z
#
# Youngs Moduli (GPa) = 91.09210 62.13633 181.30016
#
# Poissons Ratio (x) = -0.07230 0.07696
# Poissons Ratio (y) = -0.10599 -0.11039
# Poissons Ratio (z) = 0.03867 -0.03783
#
# Static dielectric constant tensor:
#      x y z
#    x 25.908690 0.000000 -1.867160 
#    y 0.000000 2.026000 0.000000 
#    z -1.867160 0.000000 2.229590 
# 
# From -- ./inp_files/314043.got.cif
#   From: 2010.05.17/outbox.cif.g08.bks.cpg/sg12_158_cif.got.tgz:314043.got - 2010.06.03 13:09:07.
