data_PCOD9179226
_publ_section_title
;
Structure prediction by ZEFSAII (Michael W. Deem and Ramdas Pophale) SiO2 
 PCOD9179226
Probable space group: C 2/M
;
_chemical_formula_sum "Si O2"
_cell_formula_units_Z 40
_cell_length_a 20.616296
_cell_length_b 7.409945
_cell_length_c 9.745921
_cell_angle_alpha 90.000000
_cell_angle_beta 100.066735
_cell_angle_gamma 90.000000
_cell_volume 1465.920687
_symmetry_space_group_name_H-M "C 2/M"
_symmetry_group_IT_number 12
_symmetry_cell_setting 'monoclinic'
loop_
_space_group_symop_operation_xyz
x,y,z
-x,y,-z
-x,-y,-z
x,-y,z
1/2+x,1/2+y,z
1/2-x,1/2+y,-z
1/2-x,1/2-y,-z
1/2+x,1/2-y,z
loop_
_atom_site_type_symbol
_atom_site_label
_atom_site_fract_x
_atom_site_fract_y
_atom_site_fract_z
Si Si1 0.492033 0.219864 0.340284
Si Si2 0.650912 0.219675 0.729221
Si Si3 0.063867 0.285500 0.103352
Si Si4 0.324688 0.213858 0.568185
Si Si5 0.794978 0.198869 0.861030
O O1 0.500000 0.282402 0.500000
O O2 0.421642 0.272581 0.248740
O O3 0.549905 0.274229 0.257221
O O4 0.491820 0.000000 0.347251
O O5 0.643697 0.269240 0.564261
O O6 0.721101 0.283160 0.820910
O O7 0.656230 0.000000 0.733633
O O8 0.056651 0.500000 0.107693
O O9 0.135030 0.265302 0.054195
O O10 0.000000 0.213276 0.000000
O O11 0.250000 0.250000 0.500000
O O12 0.321317 0.304023 0.714790
O O13 0.338453 0.000000 0.594886
O O14 0.783612 0.000000 0.911496
#
# Coordination Sequence:
#
# PCOD9179226 Si02
#       5
#     8   8   8   8   8
#     4   9  16  29  52  78 102 131 169 210 251 302
#     4   8  15  27  46  74 101 130 171 211 247 296
#     4  10  21  36  54  76 101 131 170 217 264 308
#     4   9  15  25  44  72 104 133 166 208 253 300
#     4  10  19  31  49  72 100 136 175 212 253 308
#
# _framework density 27.286604000000001
#
# number of rings (size 3 to 8) (size 9 to 14) (size 15 to 20)
#    0.000    2.800    0.000    3.600    0.000    3.600 
#    0.000    1.000    0.000   11.400    0.000    0.000 
#    0.000    0.000    0.000    0.000    0.000    0.000 
#
# Total GULP energy -111360.644006 kJ/mol
# GULP energy per Si atom -5568.032200 kJ/mol
# Density = 2.722450 g / cm^3
# Si number density = 27.286604 Si / 1000 Ang^3
#
#
#
# Elastic Constant Matrix: (Units=GPa)
#
#
# Indices 1 2 3 4 5 6 
#
# 1 258.5910 -0.1633 53.7613 0.0000 24.4982 0.0000
# 2 -0.1633 78.9147 17.4315 0.0000 -4.8165 0.0000
# 3 53.7613 17.4315 111.3359 0.0000 9.3924 0.0000
# 4 0.0000 0.0000 0.0000 3.8642 0.0000 6.3901
# 5 24.4982 -4.8165 9.3924 0.0000 37.9560 0.0000
# 6 0.0000 0.0000 0.0000 6.3901 0.0000 10.5642
#
#
#
# Elastic Compliance Matrix: (Units=1/GPa)
#
#
# Indices 1 2 3 4 5 6 
#
# 1 0.004514 0.000313 -0.002028 0.000000 -0.002372 0.000000
# 2 0.000313 0.013333 -0.002415 0.000000 0.002088 0.000000
# 3 -0.002028 -0.002415 0.010473 0.000000 -0.001589 0.000000
# 4 0.000000 0.000000 0.000000********** 0.000000559.615369
# 5 -0.002372 0.002088 -0.001589 0.000000 0.028535 0.000000
# 6 0.000000 0.000000 0.000000559.615369 0.000000**********
#
#
# Mechanical properties :
#
#
# Convention : Reuss Voigt Hill
#
# Bulk Modulus (GPa) = 49.85145 65.65561 57.75353
# Shear Modulus (GPa) = -0.00396 35.66436 17.83020
#
# Velocity S-wave (km/s) = -0.03812 3.61921 2.55902
# Velocity P-wave (km/s) = 4.27870 6.44815 5.47201
#
# Compressibility (1/GPa) = 0.02005960
#
# Stress axis : x y z
#
# Youngs Moduli (GPa) = 221.54741 74.99997 95.48005
#
# Poissons Ratio (x) = -0.02345 0.19367
# Poissons Ratio (y) = -0.06927 0.23055
# Poissons Ratio (z) = 0.44939 0.18110
#
# Static dielectric constant tensor:
#      x y z
#    x 2.198620 0.000000 -0.082150 
#    y 0.000000 2.077380 0.000000 
#    z -0.082150 0.000000 2.555880 
# 
# From -- ./inp_files/162742.got.cif
#   From: 2010.05.17/outbox.cif.g08.bks.cpg/sg12_82_cif.got.tgz:162742.got - 2010.06.03 13:09:07.
