data_PCOD9179164
_publ_section_title
;
Structure prediction by ZEFSAII (Michael W. Deem and Ramdas Pophale) SiO2 
 PCOD9179164
Probable space group: C 2/M
;
_chemical_formula_sum "Si O2"
_cell_formula_units_Z 64
_cell_length_a 16.171010
_cell_length_b 7.233743
_cell_length_c 20.765444
_cell_angle_alpha 90.000000
_cell_angle_beta 108.493479
_cell_angle_gamma 90.000000
_cell_volume 2303.639738
_symmetry_space_group_name_H-M "C 2/M"
_symmetry_group_IT_number 12
_symmetry_cell_setting 'monoclinic'
loop_
_space_group_symop_operation_xyz
x,y,z
-x,y,-z
-x,-y,-z
x,-y,z
1/2+x,1/2+y,z
1/2-x,1/2+y,-z
1/2-x,1/2-y,-z
1/2+x,1/2-y,z
loop_
_atom_site_type_symbol
_atom_site_label
_atom_site_fract_x
_atom_site_fract_y
_atom_site_fract_z
Si Si1 0.539864 0.288482 0.699495
Si Si2 0.116847 0.224971 0.089475
Si Si3 0.148292 0.779636 0.456157
Si Si4 0.261634 0.223719 0.216069
Si Si5 0.350649 0.280766 0.040163
Si Si6 0.404588 0.279356 0.422263
Si Si7 0.014254 0.225603 0.830209
Si Si8 0.201080 0.219524 0.335315
O O1 0.510093 0.500000 0.684973
O O2 0.641652 0.293577 0.747127
O O3 0.544218 0.208595 0.628226
O O4 0.496779 0.208183 0.753402
O O5 0.212283 0.279772 0.139284
O O6 0.102102 0.287817 0.013221
O O7 0.050780 0.280002 0.128971
O O8 0.114133 0.000000 0.087351
O O9 0.250000 0.750000 0.500000
O O10 0.143588 0.710047 0.381297
O O11 0.091402 0.710861 0.502793
O O12 0.135403 0.000000 0.451708
O O13 0.201182 0.283190 0.261801
O O14 0.266449 0.000000 0.218841
O O15 0.364681 0.500000 0.045884
O O16 0.250000 0.250000 0.000000
O O17 0.392801 0.212862 0.116829
O O18 0.420307 0.500000 0.427970
O O19 0.302423 0.250583 0.379851
O O20 0.010693 0.000000 0.824162
O O21 0.186323 0.000000 0.329425
#
# Coordination Sequence:
#
# PCOD9179164 Si02
#       8
#     8   8   8   8   8   8   8   8
#     4   9  16  26  41  60  81 105 134 168 203 238
#     4   9  17  29  45  64  84 108 139 169 195 231
#     4   8  12  18  28  44  69  97 123 153 191 234
#     4   9  16  26  41  60  81 105 134 168 203 238
#     4  10  19  31  49  69  87 108 134 166 202 238
#     4   8  13  20  31  49  72  98 126 157 195 234
#     4   9  17  29  45  64  84 108 139 169 195 231
#     4   8  13  20  31  49  72  98 126 157 195 234
#
# _framework density 27.782122999999999
#
# number of rings (size 3 to 8) (size 9 to 14) (size 15 to 20)
#    0.000    3.250    0.000    1.125    0.000    1.500 
#    0.000    0.000    0.000    3.750    0.000    0.875 
#    0.000    7.000    0.000    0.000    0.000  237.750 
#
# Total GULP energy -178905.412889 kJ/mol
# GULP energy per Si atom -5590.794153 kJ/mol
# Density = 2.771889 g / cm^3
# Si number density = 27.782123 Si / 1000 Ang^3
#
#
#
# Elastic Constant Matrix: (Units=GPa)
#
#
# Indices 1 2 3 4 5 6 
#
# 1 139.6252 -3.5920 46.5214 0.0000 -27.6179 0.0000
# 2 -3.5920 139.9047 5.8261 0.0000 -3.7914 0.0000
# 3 46.5214 5.8261 227.4890 0.0000 -28.7291 0.0000
# 4 0.0000 0.0000 0.0000 -9.5188 0.0000 -4.4565
# 5 -27.6179 -3.7914 -28.7291 0.0000 63.2509 0.0000
# 6 0.0000 0.0000 0.0000 -4.4565 0.0000 -23.2258
#
#
#
# Elastic Compliance Matrix: (Units=1/GPa)
#
#
# Indices 1 2 3 4 5 6 
#
# 1 0.008201 0.000346 -0.001306 0.000000 0.003009 0.000000
# 2 0.000346 0.007178 -0.000192 0.000000 0.000494 0.000000
# 3 -0.001306 -0.000192 0.004874 0.000000 0.001632 0.000000
# 4 0.000000 0.000000 0.000000 -0.115425 0.000000 0.022148
# 5 0.003009 0.000494 0.001632 0.000000 0.017895 0.000000
# 6 0.000000 0.000000 0.000000 0.022148 0.000000 -0.047305
#
#
# Mechanical properties :
#
#
# Convention : Reuss Voigt Hill
#
# Bulk Modulus (GPa) = 55.71212 67.16999 61.44105
# Shear Modulus (GPa) = -42.99384 36.65218 -3.17083
#
# Velocity S-wave (km/s) = -3.93814 3.63612 -1.06949
# Velocity P-wave (km/s) = 0.76279 6.46981 4.54294
#
# Compressibility (1/GPa) = 0.01794942
#
# Stress axis : x y z
#
# Youngs Moduli (GPa) = 121.93347 139.31417 205.17316
#
# Poissons Ratio (x) = -0.04827 0.26797
# Poissons Ratio (y) = -0.04225 0.03945
# Poissons Ratio (z) = 0.15925 0.02679
#
# Static dielectric constant tensor:
#      x y z
#    x 2.429850 0.000000 -0.037180 
#    y 0.000000 1.933120 0.000000 
#    z -0.037180 0.000000 2.240220 
# 
# From -- ./inp_files/309918.got.cif
#   From: 2010.05.17/outbox.cif.g08.bks.cpg/sg12_155_cif.got.tgz:309918.got - 2010.06.03 13:09:07.
