data_PCOD9179202
_publ_section_title
;
Structure prediction by ZEFSAII (Michael W. Deem and Ramdas Pophale) SiO2 
 PCOD9179202
Probable space group: C 2/M
;
_chemical_formula_sum "Si O2"
_cell_formula_units_Z 64
_cell_length_a 20.888018
_cell_length_b 7.317276
_cell_length_c 21.045778
_cell_angle_alpha 90.000000
_cell_angle_beta 114.405349
_cell_angle_gamma 90.000000
_cell_volume 2929.279451
_symmetry_space_group_name_H-M "C 2/M"
_symmetry_group_IT_number 12
_symmetry_cell_setting 'monoclinic'
loop_
_space_group_symop_operation_xyz
x,y,z
-x,y,-z
-x,-y,-z
x,-y,z
1/2+x,1/2+y,z
1/2-x,1/2+y,-z
1/2-x,1/2-y,-z
1/2+x,1/2-y,z
loop_
_atom_site_type_symbol
_atom_site_label
_atom_site_fract_x
_atom_site_fract_y
_atom_site_fract_z
Si Si1 0.086867 0.277412 0.199092
Si Si2 0.889323 0.722728 0.570004
Si Si3 0.578996 0.777263 0.051764
Si Si4 0.332561 0.782302 0.031506
Si Si5 0.701226 0.220893 0.349030
Si Si6 0.863808 0.288413 0.417648
Si Si7 0.548490 0.222849 0.666277
Si Si8 0.567573 0.777120 0.815255
O O1 0.087144 0.500000 0.199748
O O2 0.096245 0.218109 0.130253
O O3 0.148053 0.218770 0.271926
O O4 0.009980 0.222954 0.192623
O O5 0.886795 0.500000 0.568495
O O6 0.830465 0.781876 0.596233
O O7 0.877784 0.788818 0.493538
O O8 0.966821 0.773924 0.625745
O O9 0.579885 0.000000 0.053084
O O10 0.500000 0.724114 0.000000
O O11 0.632112 0.714249 0.019023
O O12 0.374348 0.714182 0.110558
O O13 0.343424 0.000000 0.035605
O O14 0.250000 0.750000 0.000000
O O15 0.780800 0.280527 0.371484
O O16 0.701344 0.000000 0.349161
O O17 0.886102 0.500000 0.431040
O O18 0.907304 0.211858 0.376223
O O19 0.577276 0.281994 0.746548
O O20 0.550628 0.000000 0.667289
O O21 0.568386 0.000000 0.815340
#
# Coordination Sequence:
#
# PCOD9179202 Si02
#       8
#     8   8   8   8   8   8   8   8
#     4   9  15  26  47  73  94 116 157 206 236 261
#     4   9  16  29  49  71  92 121 162 201 232 268
#     4   9  15  26  47  73  94 116 155 202 234 260
#     4  10  20  32  49  74 101 126 153 190 237 284
#     4  10  19  31  49  71  95 124 158 195 235 279
#     4  10  20  31  46  71 101 125 150 193 243 284
#     4   9  16  28  48  72  94 120 160 202 234 269
#     4   9  15  27  48  72  94 119 157 200 233 268
#
# _framework density 21.848376999999999
#
# number of rings (size 3 to 8) (size 9 to 14) (size 15 to 20)
#    0.000    2.625    2.500    0.750    0.000    2.500 
#    0.000    0.000    0.000    3.375    0.000    0.000 
#    0.000    0.000    0.000    0.000    0.000    0.000 
#
# Total GULP energy -178808.639449 kJ/mol
# GULP energy per Si atom -5587.769983 kJ/mol
# Density = 2.179865 g / cm^3
# Si number density = 21.848377 Si / 1000 Ang^3
#
#
#
# Elastic Constant Matrix: (Units=GPa)
#
#
# Indices 1 2 3 4 5 6 
#
# 1 80.1488 -12.5964 1.9545 0.0000 -7.9893 0.0000
# 2 -12.5964 85.7764 -5.6058 0.0000 -5.2247 0.0000
# 3 1.9545 -5.6058 107.3209 0.0000 -8.5307 0.0000
# 4 0.0000 0.0000 0.0000 -13.1786 0.0000 13.0980
# 5 -7.9893 -5.2247 -8.5307 0.0000 31.0907 0.0000
# 6 0.0000 0.0000 0.0000 13.0980 0.0000 6.9608
#
#
#
# Elastic Compliance Matrix: (Units=1/GPa)
#
#
# Indices 1 2 3 4 5 6 
#
# 1 0.013195 0.002181 0.000176 0.000000 0.003805 0.000000
# 2 0.002181 0.012205 0.000823 0.000000 0.002837 0.000000
# 3 0.000176 0.000823 0.009581 0.000000 0.002813 0.000000
# 4 0.000000 0.000000 0.000000 -0.026438 0.000000 0.049747
# 5 0.003805 0.002837 0.002813 0.000000 0.034390 0.000000
# 6 0.000000 0.000000 0.000000 0.049747 0.000000 0.050053
#
#
# Mechanical properties :
#
#
# Convention : Reuss Voigt Hill
#
# Bulk Modulus (GPa) = 24.18865 26.75008 25.46937
# Shear Modulus (GPa) = 49.79738 24.27415 37.03577
#
# Velocity S-wave (km/s) = 4.77930 3.33682 4.12166
# Velocity P-wave (km/s) = 6.44599 5.20730 5.85947
#
# Compressibility (1/GPa) = 0.04134171
#
# Stress axis : x y z
#
# Youngs Moduli (GPa) = 75.78866 81.93278 104.37094
#
# Poissons Ratio (x) = -0.17869 -0.01838
# Poissons Ratio (y) = -0.16529 -0.08593
# Poissons Ratio (z) = -0.01335 -0.06746
#
# Static dielectric constant tensor:
#      x y z
#    x 1.736170 0.000000 -0.022780 
#    y 0.000000 1.857940 0.000000 
#    z -0.022780 0.000000 1.767040 
# 
# From -- ./inp_files/315318.got.cif
#   From: 2010.05.17/outbox.cif.g08.bks.cpg/sg12_158_cif.got.tgz:315318.got - 2010.06.03 13:09:07.
