data_PCOD9179059
_publ_section_title
;
Structure prediction by ZEFSAII (Michael W. Deem and Ramdas Pophale) SiO2 
 PCOD9179059
Probable space group: C 2/M
;
_chemical_formula_sum "Si O2"
_cell_formula_units_Z 64
_cell_length_a 25.586925
_cell_length_b 8.974712
_cell_length_c 30.806849
_cell_angle_alpha 90.000000
_cell_angle_beta 34.068338
_cell_angle_gamma 90.000000
_cell_volume 3962.912814
_symmetry_space_group_name_H-M "C 2/M"
_symmetry_group_IT_number 12
_symmetry_cell_setting 'monoclinic'
loop_
_space_group_symop_operation_xyz
x,y,z
-x,y,-z
-x,-y,-z
x,-y,z
1/2+x,1/2+y,z
1/2-x,1/2+y,-z
1/2-x,1/2-y,-z
1/2+x,1/2-y,z
loop_
_atom_site_type_symbol
_atom_site_label
_atom_site_fract_x
_atom_site_fract_y
_atom_site_fract_z
Si Si1 0.920684 0.677588 0.682615
Si Si2 0.917202 0.822784 0.591467
Si Si3 0.776515 0.323770 0.162208
Si Si4 0.730320 0.322089 0.681340
Si Si5 0.254655 0.676595 0.430613
Si Si6 0.599395 0.676302 0.594957
Si Si7 0.904921 0.323801 0.159640
Si Si8 0.435222 0.671944 0.001281
O O1 0.918930 0.500000 0.681614
O O2 0.938710 0.745215 0.622356
O O3 0.821197 0.740140 0.766528
O O4 0.003771 0.735201 0.655882
O O5 0.822106 0.754377 0.638140
O O6 0.000000 0.799067 0.500000
O O7 0.905690 0.000000 0.606230
O O8 0.762444 0.500000 0.166066
O O9 0.833397 0.302960 0.168261
O O10 0.841906 0.257377 0.079519
O O11 0.735564 0.500000 0.684274
O O12 0.727677 0.291627 0.631811
O O13 0.641707 0.256773 0.767539
O O14 0.232414 0.500000 0.450294
O O15 0.344296 0.705726 0.399285
O O16 0.169335 0.770101 0.508834
O O17 0.582267 0.500000 0.603027
O O18 0.914180 0.500000 0.160439
O O19 0.002793 0.253145 0.077562
O O20 0.416843 0.500000 0.002853
O O21 0.500000 0.673203 0.000000
#
# Coordination Sequence:
#
# PCOD9179059 Si02
#       8
#     8   8   8   8   8   8   8   8
#     4  12  23  34  51  74 102 134 171 211 254 301
#     4  11  23  36  49  69  99 135 171 205 250 306
#     4  10  19  32  49  71 102 135 170 207 248 298
#     4  11  21  33  51  74 102 133 168 209 253 300
#     4   9  20  37  55  76 100 130 170 215 261 304
#     4  10  20  36  56  75  99 131 170 216 261 304
#     4  10  19  31  48  71 102 136 171 206 246 297
#     4   9  17  29  47  70  99 133 170 205 246 294
#
# _framework density 16.149737999999999
#
# number of rings (size 3 to 8) (size 9 to 14) (size 15 to 20)
#    0.000    1.750    1.250    4.125    0.000    7.000 
#    0.000    0.000    0.000    0.000    0.000    0.875 
#    0.000    0.000    0.000    0.000    0.000    0.000 
#
# Total GULP energy -178705.794490 kJ/mol
# GULP energy per Si atom -5584.556078 kJ/mol
# Density = 1.611298 g / cm^3
# Si number density = 16.149738 Si / 1000 Ang^3
#
#
#
# Elastic Constant Matrix: (Units=GPa)
#
#
# Indices 1 2 3 4 5 6 
#
# 1 31.9331 26.3975 17.0720 -0.0241 -5.6838 0.0767
# 2 26.3975 94.8205 51.7642 -0.0350 -9.0839 0.0554
# 3 17.0720 51.7642 80.4151 -0.0220 -8.7125 0.0802
# 4 -0.0241 -0.0350 -0.0220 32.9567 -0.0036 -0.0222
# 5 -5.6838 -9.0839 -8.7125 -0.0036 15.9423 0.0094
# 6 0.0767 0.0554 0.0802 -0.0222 0.0094 19.2118
#
#
#
# Elastic Compliance Matrix: (Units=1/GPa)
#
#
# Indices 1 2 3 4 5 6 
#
# 1 0.041920 -0.010028 -0.001535 0.000020 0.008393 -0.000136
# 2 -0.010028 0.018875 -0.009825 0.000006 0.001810 0.000026
# 3 -0.001535 -0.009825 0.019579 0.000002 0.004555 -0.000049
# 4 0.000020 0.000006 0.000002 0.030343 0.000019 0.000035
# 5 0.008393 0.001810 0.004555 0.000019 0.069239 -0.000092
# 6 -0.000136 0.000026 -0.000049 0.000035 -0.000092 0.052052
#
#
# Mechanical properties :
#
#
# Convention : Reuss Voigt Hill
#
# Bulk Modulus (GPa) = 26.59699 44.18177 35.38938
# Shear Modulus (GPa) = 17.40232 21.08447 19.24339
#
# Velocity S-wave (km/s) = 3.28618 3.61718 3.45564
# Velocity P-wave (km/s) = 5.55908 6.69793 6.15490
#
# Compressibility (1/GPa) = 0.03759824
#
# Stress axis : x y z
#
# Youngs Moduli (GPa) = 23.85491 52.97954 51.07418
#
# Poissons Ratio (x) = 0.53130 0.07839
# Poissons Ratio (y) = 0.23923 0.50181
# Poissons Ratio (z) = 0.03661 0.52053
#
# Static dielectric constant tensor:
#      x y z
#    x 1.520320 0.000000 -0.000050 
#    y 0.000000 1.537470 0.000000 
#    z -0.000050 0.000000 1.527310 
# 
# From -- ./inp_files/287730.got.cif
#   From: 2010.05.17/outbox.cif.g08.bks.cpg/sg12_144_cif.got.tgz:287730.got - 2010.06.03 13:09:07.
