data_PCOD9179466
_publ_section_title
;
Structure prediction by ZEFSAII (Michael W. Deem and Ramdas Pophale) SiO2 
 PCOD9179466
Probable space group: C 2/M
;
_chemical_formula_sum "Si O2"
_cell_formula_units_Z 64
_cell_length_a 30.233884
_cell_length_b 8.840886
_cell_length_c 16.027251
_cell_angle_alpha 90.000000
_cell_angle_beta 61.629860
_cell_angle_gamma 90.000000
_cell_volume 3769.469871
_symmetry_space_group_name_H-M "C 2/M"
_symmetry_group_IT_number 12
_symmetry_cell_setting 'monoclinic'
loop_
_space_group_symop_operation_xyz
x,y,z
-x,y,-z
-x,-y,-z
x,-y,z
1/2+x,1/2+y,z
1/2-x,1/2+y,-z
1/2-x,1/2-y,-z
1/2+x,1/2-y,z
loop_
_atom_site_type_symbol
_atom_site_label
_atom_site_fract_x
_atom_site_fract_y
_atom_site_fract_z
Si Si1 0.864613 0.319140 0.343014
Si Si2 0.906547 0.819476 0.565545
Si Si3 0.326645 0.319400 0.889752
Si Si4 0.460754 0.817986 0.358438
Si Si5 0.232037 0.182061 0.888961
Si Si6 0.296516 0.681699 0.270418
Si Si7 0.074269 0.319214 0.270713
Si Si8 0.311526 0.817556 0.562656
O O1 0.863486 0.500000 0.335462
O O2 0.920371 0.274835 0.323766
O O3 0.843415 0.246639 0.278551
O O4 0.828271 0.278241 0.453655
O O5 0.943379 0.760983 0.459492
O O6 0.921114 0.748311 0.640674
O O7 0.851460 0.760731 0.587860
O O8 0.907426 0.000000 0.569333
O O9 0.329336 0.500000 0.880031
O O10 0.285697 0.256327 0.860935
O O11 0.380578 0.248368 0.823681
O O12 0.304536 0.280786 0.000946
O O13 0.518460 0.782999 0.287575
O O14 0.456143 0.000000 0.374862
O O15 0.209774 0.229617 0.820010
O O16 0.238815 0.000000 0.881459
O O17 0.299411 0.500000 0.269209
O O18 0.245012 0.726122 0.364018
O O19 0.079350 0.500000 0.270412
O O20 0.316390 0.000000 0.567433
#
# Coordination Sequence:
#
# PCOD9179466 Si02
#       8
#     8   8   8   8   8   8   8   8
#     4   9  18  32  48  69  98 129 164 207 247 283
#     4  11  21  31  48  76 105 130 163 206 246 287
#     4  10  20  34  53  78 104 127 160 206 248 289
#     4   9  20  37  52  68  96 135 171 202 243 294
#     4   9  19  35  53  75 105 135 160 194 246 304
#     4  10  19  31  50  73  96 129 168 200 240 295
#     4  11  21  34  53  72  96 133 170 201 244 301
#     4   9  18  32  48  69 102 138 167 197 238 292
#
# _framework density 16.978513
#
# number of rings (size 3 to 8) (size 9 to 14) (size 15 to 20)
#    0.000    2.250    0.000    4.125    0.000    7.000 
#    0.000    0.000    0.000    0.750    0.000    5.250 
#    0.000    0.000    0.000    0.000    0.000    0.000 
#
# Total GULP energy -178619.067541 kJ/mol
# GULP energy per Si atom -5581.845861 kJ/mol
# Density = 1.693987 g / cm^3
# Si number density = 16.978513 Si / 1000 Ang^3
#
#
#
# Elastic Constant Matrix: (Units=GPa)
#
#
# Indices 1 2 3 4 5 6 
#
# 1 132.8340 39.4668 77.5358 0.0000 1.2702 0.0000
# 2 39.4668 28.0325 30.8134 0.0000 -3.3109 0.0000
# 3 77.5358 30.8134 71.1253 0.0000 0.1758 0.0000
# 4 0.0000 0.0000 0.0000 22.9228 0.0000 0.7036
# 5 1.2702 -3.3109 0.1758 0.0000 30.9483 0.0000
# 6 0.0000 0.0000 0.0000 0.7036 0.0000 25.6255
#
#
#
# Elastic Compliance Matrix: (Units=1/GPa)
#
#
# Indices 1 2 3 4 5 6 
#
# 1 0.021852 -0.009152 -0.019853 0.000000 -0.001763 0.000000
# 2 -0.009152 0.073702 -0.021974 0.000000 0.008385 0.000000
# 3 -0.019853 -0.021974 0.045225 0.000000 -0.001793 0.000000
# 4 0.000000 0.000000 0.000000 0.043661 0.000000 -0.001199
# 5 -0.001763 0.008385 -0.001793 0.000000 0.033292 0.000000
# 6 0.000000 0.000000 0.000000 -0.001199 0.000000 0.039057
#
#
# Mechanical properties :
#
#
# Convention : Reuss Voigt Hill
#
# Bulk Modulus (GPa) = 25.75769 58.62486 42.19128
# Shear Modulus (GPa) = 13.45223 21.51105 17.48164
#
# Velocity S-wave (km/s) = 2.81785 3.56330 3.21227
# Velocity P-wave (km/s) = 5.07846 7.17867 6.21788
#
# Compressibility (1/GPa) = 0.03882335
#
# Stress axis : x y z
#
# Youngs Moduli (GPa) = 45.76202 13.56824 22.11144
#
# Poissons Ratio (x) = 0.12417 0.43897
# Poissons Ratio (y) = 0.41881 0.48587
# Poissons Ratio (z) = 0.90849 0.29814
#
# Static dielectric constant tensor:
#      x y z
#    x 1.570430 0.000000 -0.005340 
#    y 0.000000 1.569500 0.000000 
#    z -0.005340 0.000000 1.565670 
# 
# From -- ./inp_files/249005.got.cif
#   From: 2010.05.17/outbox.cif.g08.bks.cpg/sg12_125_cif.got.tgz:249005.got - 2010.06.03 13:09:07.
