data_PCOD9179508
_publ_section_title
;
Structure prediction by ZEFSAII (Michael W. Deem and Ramdas Pophale) SiO2 
 PCOD9179508
Probable space group: C 2/M
;
_chemical_formula_sum "Si O2"
_cell_formula_units_Z 56
_cell_length_a 12.901091
_cell_length_b 13.467081
_cell_length_c 18.557552
_cell_angle_alpha 90.000000
_cell_angle_beta 83.637829
_cell_angle_gamma 90.000000
_cell_volume 3204.332959
_symmetry_space_group_name_H-M "C 2/M"
_symmetry_group_IT_number 12
_symmetry_cell_setting 'monoclinic'
loop_
_space_group_symop_operation_xyz
x,y,z
-x,y,-z
-x,-y,-z
x,-y,z
1/2+x,1/2+y,z
1/2-x,1/2+y,-z
1/2-x,1/2-y,-z
1/2+x,1/2-y,z
loop_
_atom_site_type_symbol
_atom_site_label
_atom_site_fract_x
_atom_site_fract_y
_atom_site_fract_z
Si Si1 0.551459 0.385771 0.883500
Si Si2 0.374142 0.119665 0.504763
Si Si3 0.831760 0.210283 0.887182
Si Si4 0.753858 0.886295 0.032569
Si Si5 0.766024 0.259690 0.383874
Si Si6 0.842282 0.883315 0.732874
Si Si7 0.092851 0.114205 0.719638
O O1 0.513086 0.500000 0.882605
O O2 0.450576 0.318656 0.894303
O O3 0.629663 0.377204 0.943491
O O4 0.610727 0.367338 0.803492
O O5 0.500000 0.131956 0.500000
O O6 0.314929 0.184259 0.570685
O O7 0.326898 0.170227 0.436156
O O8 0.352831 0.000000 0.509845
O O9 0.816079 0.324748 0.906855
O O10 0.809261 0.172604 0.808817
O O11 0.757940 0.157133 0.951943
O O12 0.724420 0.000000 0.033131
O O13 0.706861 0.329758 0.331843
O O14 0.847096 0.190985 0.334450
O O15 0.968147 0.877560 0.719291
O O16 0.814658 0.000000 0.738945
O O17 0.123072 0.000000 0.701367
#
# Coordination Sequence:
#
# PCOD9179508 Si02
#       7
#     8   8   8   8   8   8   8
#     4   9  17  31  51  73  98 131 173 214 251 294
#     4  10  22  38  54  76 105 134 164 199 243 298
#     4  10  19  31  51  74 102 134 167 210 258 296
#     4  10  19  31  50  74  99 133 177 214 246 293
#     4  11  20  34  57  78 100 132 167 203 246 297
#     4  10  20  34  52  76 104 131 164 207 255 302
#     4   9  18  32  51  76 103 131 168 213 252 289
#
# _framework density 17.476336
#
# number of rings (size 3 to 8) (size 9 to 14) (size 15 to 20)
#    0.000    2.143    0.000    5.143    0.000    1.143 
#    0.000    0.714    0.000   25.714    0.000    0.000 
#    0.000    0.000    0.000    0.000    0.000    0.000 
#
# Total GULP energy -156160.775477 kJ/mol
# GULP energy per Si atom -5577.170553 kJ/mol
# Density = 1.743656 g / cm^3
# Si number density = 17.476336 Si / 1000 Ang^3
#
#
#
# Elastic Constant Matrix: (Units=GPa)
#
#
# Indices 1 2 3 4 5 6 
#
# 1 39.4721 20.8687 19.9931 0.0000 1.0534 0.0000
# 2 20.8687 87.0851 38.8117 0.0000 -5.2795 0.0000
# 3 19.9931 38.8117 92.6932 0.0000 10.6911 0.0000
# 4 0.0000 0.0000 0.0000 9.7672 0.0000 -2.4300
# 5 1.0534 -5.2795 10.6911 0.0000 20.3912 0.0000
# 6 0.0000 0.0000 0.0000 -2.4300 0.0000 30.9972
#
#
#
# Elastic Compliance Matrix: (Units=1/GPa)
#
#
# Indices 1 2 3 4 5 6 
#
# 1 0.030356 -0.005466 -0.004167 0.000000 -0.000799 0.000000
# 2 -0.005466 0.016166 -0.006498 0.000000 0.007875 0.000000
# 3 -0.004167 -0.006498 0.015515 0.000000 -0.009602 0.000000
# 4 0.000000 0.000000 0.000000 0.104420 0.000000 0.008186
# 5 -0.000799 0.007875 -0.009602 0.000000 0.056155 0.000000
# 6 0.000000 0.000000 0.000000 0.008186 0.000000 0.032903
#
#
# Mechanical properties :
#
#
# Convention : Reuss Voigt Hill
#
# Bulk Modulus (GPa) = 33.58432 42.06636 37.82534
# Shear Modulus (GPa) = 16.79523 21.53625 19.16574
#
# Velocity S-wave (km/s) = 3.10341 3.51423 3.31519
# Velocity P-wave (km/s) = 5.66571 6.37096 6.02866
#
# Compressibility (1/GPa) = 0.02977580
#
# Stress axis : x y z
#
# Youngs Moduli (GPa) = 32.94256 61.85655 64.45169
#
# Poissons Ratio (x) = 0.33809 0.26856
# Poissons Ratio (y) = 0.18005 0.41884
# Poissons Ratio (z) = 0.13727 0.40197
#
# Static dielectric constant tensor:
#      x y z
#    x 1.577760 0.000000 0.005280 
#    y 0.000000 1.593560 0.000000 
#    z 0.005280 0.000000 1.608820 
# 
# From -- ./inp_files/268621.got.cif
#   From: 2010.05.17/outbox.cif.g08.bks.cpg/sg12_135_cif.got.tgz:268621.got - 2010.06.03 13:09:07.
