data_PCOD9179052
_publ_section_title
;
Structure prediction by ZEFSAII (Michael W. Deem and Ramdas Pophale) SiO2 
 PCOD9179052
Probable space group: C 2/M
;
_chemical_formula_sum "Si O2"
_cell_formula_units_Z 64
_cell_length_a 14.556597
_cell_length_b 7.691191
_cell_length_c 30.461643
_cell_angle_alpha 90.000000
_cell_angle_beta 107.397748
_cell_angle_gamma 90.000000
_cell_volume 3254.392237
_symmetry_space_group_name_H-M "C 2/M"
_symmetry_group_IT_number 12
_symmetry_cell_setting 'monoclinic'
loop_
_space_group_symop_operation_xyz
x,y,z
-x,y,-z
-x,-y,-z
x,-y,z
1/2+x,1/2+y,z
1/2-x,1/2+y,-z
1/2-x,1/2-y,-z
1/2+x,1/2-y,z
loop_
_atom_site_type_symbol
_atom_site_label
_atom_site_fract_x
_atom_site_fract_y
_atom_site_fract_z
Si Si1 0.321205 0.203114 0.872872
Si Si2 0.126052 0.298515 0.799337
Si Si3 0.376256 0.797797 0.298045
Si Si4 0.220062 0.713220 0.628365
Si Si5 0.929032 0.794022 0.627062
Si Si6 0.725118 0.792997 0.946678
Si Si7 0.526914 0.210133 0.552246
Si Si8 0.030042 0.713267 0.872900
O O1 0.232946 0.291693 0.834930
O O2 0.299584 0.220293 0.921495
O O3 0.425933 0.270685 0.874446
O O4 0.316768 0.000000 0.860520
O O5 0.096667 0.500000 0.790149
O O6 0.125466 0.218455 0.750769
O O7 0.057189 0.225546 0.827681
O O8 0.307385 0.725417 0.326492
O O9 0.483424 0.788853 0.333295
O O10 0.347888 0.000000 0.289259
O O11 0.219307 0.500000 0.628577
O O12 0.324284 0.769723 0.626758
O O13 0.132203 0.767541 0.584215
O O14 0.951601 0.762742 0.579131
O O15 0.933383 0.000000 0.635925
O O16 0.618486 0.732347 0.916799
O O17 0.726790 0.000000 0.941744
O O18 0.750000 0.750000 0.000000
O O19 0.500000 0.273307 0.500000
O O20 0.971705 0.500000 0.448623
O O21 0.030005 0.500000 0.872829
#
# Coordination Sequence:
#
# PCOD9179052 Si02
#       8
#     8   8   8   8   8   8   8   8
#     4  10  19  33  52  74 100 131 164 201 245 292
#     4   9  18  34  53  73  98 131 166 202 242 286
#     4   9  18  34  53  70  96 133 168 197 236 293
#     4   8  16  31  48  69  98 129 158 197 247 288
#     4  10  19  31  48  71 100 127 157 202 249 286
#     4  10  20  36  54  74 101 132 166 203 243 290
#     4   9  18  34  53  70  93 128 165 196 235 294
#     4   8  17  33  51  71 100 133 162 197 246 293
#
# _framework density 19.665731000000001
#
# number of rings (size 3 to 8) (size 9 to 14) (size 15 to 20)
#    0.000    2.875    0.000    2.625    0.000    2.750 
#    0.000   13.750    0.000    0.000    0.000    0.000 
#    0.000    0.000    0.000    0.000    0.000    0.000 
#
# Total GULP energy -178440.543942 kJ/mol
# GULP energy per Si atom -5576.266998 kJ/mol
# Density = 1.962097 g / cm^3
# Si number density = 19.665731 Si / 1000 Ang^3
#
#
#
# Elastic Constant Matrix: (Units=GPa)
#
#
# Indices 1 2 3 4 5 6 
#
# 1 166.3599 -12.0260 69.6626 0.0000 -32.4786 0.0000
# 2 -12.0260 33.0543 -12.7742 0.0000 -0.1263 0.0000
# 3 69.6626 -12.7742 162.1757 0.0000 -25.2336 0.0000
# 4 0.0000 0.0000 0.0000 14.2194 0.0000 1.0048
# 5 -32.4786 -0.1263 -25.2336 0.0000 12.4694 0.0000
# 6 0.0000 0.0000 0.0000 1.0048 0.0000 17.2861
#
#
#
# Elastic Compliance Matrix: (Units=1/GPa)
#
#
# Indices 1 2 3 4 5 6 
#
# 1 0.012964 0.004891 0.000114 0.000000 0.034047 0.000000
# 2 0.004891 0.033566 0.003763 0.000000 0.020693 0.000000
# 3 0.000114 0.003763 0.009437 0.000000 0.019433 0.000000
# 4 0.000000 0.000000 0.000000 0.070616 0.000000 -0.004105
# 5 0.034047 0.020693 0.019433 0.000000 0.208411 0.000000
# 6 0.000000 0.000000 0.000000 -0.004105 0.000000 0.058089
#
#
# Mechanical properties :
#
#
# Convention : Reuss Voigt Hill
#
# Bulk Modulus (GPa) = 13.60503 50.14606 31.87554
# Shear Modulus (GPa) = 12.49851 29.91016 21.20433
#
# Velocity S-wave (km/s) = 2.52374 3.90414 3.28722
# Velocity P-wave (km/s) = 3.92753 6.77330 5.53639
#
# Compressibility (1/GPa) = 0.07350225
#
# Stress axis : x y z
#
# Youngs Moduli (GPa) = 77.13776 29.79215 105.96443
#
# Poissons Ratio (x) = -0.14571 -0.01209
# Poissons Ratio (y) = -0.37726 -0.39873
# Poissons Ratio (z) = -0.00880 -0.11210
#
# Static dielectric constant tensor:
#      x y z
#    x 1.669180 0.000000 -0.015540 
#    y 0.000000 1.752370 0.000000 
#    z -0.015540 0.000000 1.687680 
# 
# From -- ./inp_files/359875.got.cif
#   From: 2010.05.17/outbox.cif.g08.bks.cpg/sg12_180_cif.got.tgz:359875.got - 2010.06.03 13:09:07.
