data_PCOD9179413
_publ_section_title
;
Structure prediction by ZEFSAII (Michael W. Deem and Ramdas Pophale) SiO2 
 PCOD9179413
Probable space group: C 2/M
;
_chemical_formula_sum "Si O2"
_cell_formula_units_Z 64
_cell_length_a 17.518393
_cell_length_b 14.931580
_cell_length_c 16.356420
_cell_angle_alpha 90.000000
_cell_angle_beta 136.285675
_cell_angle_gamma 90.000000
_cell_volume 2956.691523
_symmetry_space_group_name_H-M "C 2/M"
_symmetry_group_IT_number 12
_symmetry_cell_setting 'monoclinic'
loop_
_space_group_symop_operation_xyz
x,y,z
-x,y,-z
-x,-y,-z
x,-y,z
1/2+x,1/2+y,z
1/2-x,1/2+y,-z
1/2-x,1/2-y,-z
1/2+x,1/2-y,z
loop_
_atom_site_type_symbol
_atom_site_label
_atom_site_fract_x
_atom_site_fract_y
_atom_site_fract_z
Si Si1 0.479871 0.399756 0.278976
Si Si2 0.364798 0.104085 0.242076
Si Si3 0.267174 0.645462 0.021248
Si Si4 0.374770 0.198804 0.410653
Si Si5 0.652897 0.598693 0.654682
Si Si6 0.924812 0.601429 0.009761
Si Si7 0.093402 0.712298 0.387982
Si Si8 0.636201 0.902030 0.276946
O O1 0.527806 0.500000 0.307988
O O2 0.401876 0.400565 0.299197
O O3 0.563561 0.317114 0.355163
O O4 0.392853 0.380849 0.138427
O O5 0.282296 0.105501 0.100644
O O6 0.317647 0.154056 0.287441
O O7 0.473911 0.161334 0.301797
O O8 0.391559 0.000000 0.280434
O O9 0.191455 0.625394 0.041743
O O10 0.250000 0.750000 0.000000
O O11 0.500000 0.163238 0.500000
O O12 0.381840 0.306524 0.409227
O O13 0.343143 0.184479 0.480083
O O14 0.623052 0.500000 0.595071
O O15 0.784590 0.604156 0.740790
O O16 0.908216 0.500000 0.967550
O O17 0.010195 0.601355 0.151288
O O18 0.000000 0.651148 0.000000
O O19 0.155169 0.674281 0.357129
O O20 0.656174 0.000000 0.329816
#
# Coordination Sequence:
#
# PCOD9179413 Si02
#       8
#     8   8   8   8   8   8   8   8
#     4  11  21  35  56  86 117 149 187 230 283 340
#     4  11  21  35  55  81 112 148 188 233 280 329
#     4  12  20  34  56  82 117 149 185 232 281 334
#     4  10  21  37  55  82 110 146 193 234 281 328
#     4  10  20  36  57  83 114 146 183 232 285 339
#     4  10  19  31  49  77 111 144 174 216 277 338
#     4  11  21  37  56  81 113 151 188 237 278 332
#     4  10  20  34  54  81 112 144 183 231 286 337
#
# _framework density 21.645816
#
# number of rings (size 3 to 8) (size 9 to 14) (size 15 to 20)
#    0.000    1.375    5.000    2.250    0.000    6.000 
#    0.000    0.000    0.000    0.750    0.000    0.000 
#    0.000    9.000    0.000    0.000    0.000    0.000 
#
# Total GULP energy -178336.460587 kJ/mol
# GULP energy per Si atom -5573.014393 kJ/mol
# Density = 2.159655 g / cm^3
# Si number density = 21.645816 Si / 1000 Ang^3
#
#
#
# Elastic Constant Matrix: (Units=GPa)
#
#
# Indices 1 2 3 4 5 6 
#
# 1 50.7278 23.2448 19.2490 0.0000 -7.3771 0.0000
# 2 23.2448 130.5248 17.8246 0.0000 -16.1107 0.0000
# 3 19.2490 17.8246 73.7286 0.0000 -26.3696 0.0000
# 4 0.0000 0.0000 0.0000 7.4251 0.0000 0.3867
# 5 -7.3771 -16.1107 -26.3696 0.0000 28.9227 0.0000
# 6 0.0000 0.0000 0.0000 0.3867 0.0000 21.6512
#
#
#
# Elastic Compliance Matrix: (Units=1/GPa)
#
#
# Indices 1 2 3 4 5 6 
#
# 1 0.023301 -0.003522 -0.005651 0.000000 -0.001171 0.000000
# 2 -0.003522 0.008773 0.000334 0.000000 0.004293 0.000000
# 3 -0.005651 0.000334 0.021529 0.000000 0.018374 0.000000
# 4 0.000000 0.000000 0.000000 0.134804 0.000000 -0.002408
# 5 -0.001171 0.004293 0.018374 0.000000 0.053419 0.000000
# 6 0.000000 0.000000 0.000000 -0.002408 0.000000 0.046230
#
#
# Mechanical properties :
#
#
# Convention : Reuss Voigt Hill
#
# Bulk Modulus (GPa) = 27.83543 41.73533 34.78538
# Shear Modulus (GPa) = 15.73765 24.57731 20.15748
#
# Velocity S-wave (km/s) = 2.69932 3.37327 3.05494
# Velocity P-wave (km/s) = 4.75421 5.87323 5.34309
#
# Compressibility (1/GPa) = 0.03592544
#
# Stress axis : x y z
#
# Youngs Moduli (GPa) = 42.91651 113.98688 46.44853
#
# Poissons Ratio (x) = 0.40152 0.26246
# Poissons Ratio (y) = 0.15117 -0.01552
# Poissons Ratio (z) = 0.24250 -0.03808
#
# Static dielectric constant tensor:
#      x y z
#    x 1.638750 0.000000 0.027720 
#    y 0.000000 1.782070 0.000000 
#    z 0.027720 0.000000 1.866750 
# 
# From -- ./inp_files/225343.got.cif
#   From: 2010.05.17/outbox.cif.g08.bks.cpg/sg12_113_cif.got.tgz:225343.got - 2010.06.03 13:09:07.
