data_PCOD9179309
_publ_section_title
;
Structure prediction by ZEFSAII (Michael W. Deem and Ramdas Pophale) SiO2 
 PCOD9179309
Probable space group: C 2/M
;
_chemical_formula_sum "Si O2"
_cell_formula_units_Z 64
_cell_length_a 14.577458
_cell_length_b 7.830315
_cell_length_c 31.133454
_cell_angle_alpha 90.000000
_cell_angle_beta 119.680637
_cell_angle_gamma 90.000000
_cell_volume 3087.504515
_symmetry_space_group_name_H-M "C 2/M"
_symmetry_group_IT_number 12
_symmetry_cell_setting 'monoclinic'
loop_
_space_group_symop_operation_xyz
x,y,z
-x,y,-z
-x,-y,-z
x,-y,z
1/2+x,1/2+y,z
1/2-x,1/2+y,-z
1/2-x,1/2-y,-z
1/2+x,1/2-y,z
loop_
_atom_site_type_symbol
_atom_site_label
_atom_site_fract_x
_atom_site_fract_y
_atom_site_fract_z
Si Si1 0.246612 0.200051 0.590927
Si Si2 0.473119 0.704924 0.863926
Si Si3 0.593925 0.299131 0.486272
Si Si4 0.039467 0.293577 0.787412
Si Si5 0.771116 0.203447 0.867579
Si Si6 0.969305 0.709968 0.677391
Si Si7 0.928990 0.697722 0.383264
Si Si8 0.204597 0.203550 0.943328
O O1 0.195539 0.273060 0.535131
O O2 0.355144 0.271335 0.634535
O O3 0.157524 0.211785 0.607362
O O4 0.263102 0.000000 0.585787
O O5 0.474446 0.500000 0.869569
O O6 0.470977 0.742472 0.812788
O O7 0.372337 0.773359 0.866125
O O8 0.585319 0.771003 0.907976
O O9 0.500000 0.286720 0.500000
O O10 0.608006 0.500000 0.480180
O O11 0.543446 0.211748 0.433174
O O12 0.042210 0.500000 0.786954
O O13 0.158564 0.229512 0.824316
O O14 0.996589 0.233932 0.731649
O O15 0.773435 0.232944 0.919107
O O16 0.769096 0.000000 0.859937
O O17 0.967621 0.500000 0.677034
O O18 0.054521 0.761779 0.661184
O O19 0.898528 0.500000 0.375186
O O20 0.200852 0.000000 0.939319
O O21 0.250000 0.250000 0.000000
#
# Coordination Sequence:
#
# PCOD9179309 Si02
#       8
#     8   8   8   8   8   8   8   8
#     4   9  18  34  51  66  93 131 162 190 237 302
#     4   9  19  35  54  76 103 135 169 207 251 292
#     4   8  15  29  48  67  91 126 160 190 235 297
#     4   9  18  34  54  73  96 128 167 207 245 293
#     4   9  18  34  55  76 100 134 171 205 247 295
#     4   9  19  34  50  71  99 129 159 197 250 300
#     4  10  19  31  49  73  98 122 156 204 248 288
#     4  10  20  34  52  77 110 141 170 207 246 287
#
# _framework density 20.728715000000001
#
# number of rings (size 3 to 8) (size 9 to 14) (size 15 to 20)
#    0.000    2.875    0.000    1.500    0.000    5.250 
#    0.000    6.875    0.000    0.000    0.000    0.000 
#    0.000    0.000    0.000    0.000    0.000    0.000 
#
# Total GULP energy -178528.505781 kJ/mol
# GULP energy per Si atom -5579.015806 kJ/mol
# Density = 2.068154 g / cm^3
# Si number density = 20.728715 Si / 1000 Ang^3
#
#
#
# Elastic Constant Matrix: (Units=GPa)
#
#
# Indices 1 2 3 4 5 6 
#
# 1 117.1488 -0.4946 54.3939 0.0000 -23.3485 0.0000
# 2 -0.4946 18.6426 -5.7157 0.0000 4.9358 0.0000
# 3 54.3939 -5.7157 104.8257 0.0000 -22.7989 0.0000
# 4 0.0000 0.0000 0.0000 20.6014 0.0000 -5.5578
# 5 -23.3485 4.9358 -22.7989 0.0000 18.6675 0.0000
# 6 0.0000 0.0000 0.0000 -5.5578 0.0000 12.6210
#
#
#
# Elastic Compliance Matrix: (Units=1/GPa)
#
#
# Indices 1 2 3 4 5 6 
#
# 1 0.012911 -0.004151 -0.004323 0.000000 0.011966 0.000000
# 2 -0.004151 0.059017 0.001156 0.000000 -0.019385 0.000000
# 3 -0.004323 0.001156 0.014439 0.000000 0.011921 0.000000
# 4 0.000000 0.000000 0.000000 0.055085 0.000000 0.024257
# 5 0.011966 -0.019385 0.011921 0.000000 0.088221 0.000000
# 6 0.000000 0.000000 0.000000 0.024257 0.000000 0.089915
#
#
# Mechanical properties :
#
#
# Convention : Reuss Voigt Hill
#
# Bulk Modulus (GPa) = 13.94121 37.44272 25.69196
# Shear Modulus (GPa) = 13.96125 23.20686 18.58406
#
# Velocity S-wave (km/s) = 2.59805 3.34960 2.99747
# Velocity P-wave (km/s) = 3.96736 5.74997 4.93974
#
# Compressibility (1/GPa) = 0.07172977
#
# Stress axis : x y z
#
# Youngs Moduli (GPa) = 77.45423 16.94425 69.25775
#
# Poissons Ratio (x) = 0.07034 0.29942
# Poissons Ratio (y) = 0.32152 -0.08005
# Poissons Ratio (z) = 0.33486 -0.01958
#
# Static dielectric constant tensor:
#      x y z
#    x 1.761890 0.000000 0.025420 
#    y 0.000000 1.739740 0.000000 
#    z 0.025420 0.000000 1.677660 
# 
# From -- ./inp_files/375082.got.cif
#   From: 2010.05.17/outbox.cif.g08.bks.cpg/sg12_188_cif.got.tgz:375082.got - 2010.06.03 13:09:07.
