data_PCOD9179848
_publ_section_title
;
Structure prediction by ZEFSAII (Michael W. Deem and Ramdas Pophale) SiO2 
 PCOD9179848
Probable space group: C 2/M
;
_chemical_formula_sum "Si O2"
_cell_formula_units_Z 48
_cell_length_a 18.176365
_cell_length_b 17.758312
_cell_length_c 11.168472
_cell_angle_alpha 90.000000
_cell_angle_beta 134.538833
_cell_angle_gamma 90.000000
_cell_volume 2569.538200
_symmetry_space_group_name_H-M "C 2/M"
_symmetry_group_IT_number 12
_symmetry_cell_setting 'monoclinic'
loop_
_space_group_symop_operation_xyz
x,y,z
-x,y,-z
-x,-y,-z
x,-y,z
1/2+x,1/2+y,z
1/2-x,1/2+y,-z
1/2-x,1/2-y,-z
1/2+x,1/2-y,z
loop_
_atom_site_type_symbol
_atom_site_label
_atom_site_fract_x
_atom_site_fract_y
_atom_site_fract_z
Si Si1 0.363816 0.636723 0.445665
Si Si2 0.270360 0.088883 0.483381
Si Si3 0.148172 0.767862 0.954931
Si Si4 0.572190 0.217771 0.358936
Si Si5 0.883918 0.811607 0.829394
Si Si6 0.594088 0.586142 0.766250
O O1 0.276634 0.610752 0.439397
O O2 0.389091 0.725310 0.493167
O O3 0.471060 0.595502 0.605734
O O4 0.350470 0.613887 0.292744
O O5 0.372875 0.137719 0.575379
O O6 0.186732 0.119213 0.291508
O O7 0.285327 0.000000 0.493746
O O8 0.122231 0.855456 0.901029
O O9 0.051428 0.720620 0.793091
O O10 0.250000 0.750000 0.000000
O O11 0.158608 0.762417 0.109126
O O12 0.609132 0.259427 0.279713
O O13 0.000000 0.833535 0.000000
O O14 0.618983 0.500000 0.819062
#
# Coordination Sequence:
#
# PCOD9179848 Si02
#       6
#     8   8   8   8   8   8
#     4   9  17  32  54  81 107 138 177 223 278 329
#     4  11  21  33  57  84 112 148 185 230 284 327
#     4  10  22  36  56  78 104 152 188 218 277 341
#     4   9  20  37  56  79 109 143 188 236 267 331
#     4   9  19  36  56  80 110 144 186 233 272 323
#     4  10  19  31  51  82 113 133 173 234 280 319
#
# _framework density 18.680399000000001
#
# number of rings (size 3 to 8) (size 9 to 14) (size 15 to 20)
#    0.000    2.333    0.000    5.000    4.667    1.000 
#    0.000    0.833    0.000    5.500    0.000    0.000 
#    0.000    0.000    0.000    0.000    0.000    0.000 
#
# Total GULP energy -133947.113469 kJ/mol
# GULP energy per Si atom -5581.129728 kJ/mol
# Density = 1.863788 g / cm^3
# Si number density = 18.680399 Si / 1000 Ang^3
#
#
#
# Elastic Constant Matrix: (Units=GPa)
#
#
# Indices 1 2 3 4 5 6 
#
# 1 91.1610 31.0426 19.0369 0.0000 22.1455 0.0000
# 2 31.0426 105.9952 26.8613 0.0000 26.6416 0.0000
# 3 19.0369 26.8613 49.3384 0.0000 10.9855 0.0000
# 4 0.0000 0.0000 0.0000 13.1685 0.0000 2.3722
# 5 22.1455 26.6416 10.9855 0.0000 18.2810 0.0000
# 6 0.0000 0.0000 0.0000 2.3722 0.0000 23.5050
#
#
#
# Elastic Compliance Matrix: (Units=1/GPa)
#
#
# Indices 1 2 3 4 5 6 
#
# 1 0.015759 0.000657 -0.002279 0.000000 -0.018679 0.000000
# 2 0.000657 0.015552 -0.004037 0.000000 -0.021035 0.000000
# 3 -0.002279 -0.004037 0.024730 0.000000 -0.006216 0.000000
# 4 0.000000 0.000000 0.000000 0.077345 0.000000 -0.007806
# 5 -0.018679 -0.021035 -0.006216 0.000000 0.111719 0.000000
# 6 0.000000 0.000000 0.000000 -0.007806 0.000000 0.043332
#
#
# Mechanical properties :
#
#
# Convention : Reuss Voigt Hill
#
# Bulk Modulus (GPa) = 22.36023 44.48624 33.42324
# Shear Modulus (GPa) = 15.88999 22.29449 19.09224
#
# Velocity S-wave (km/s) = 2.91971 3.45841 3.20041
# Velocity P-wave (km/s) = 4.83344 6.30980 5.62031
#
# Compressibility (1/GPa) = 0.04472225
#
# Stress axis : x y z
#
# Youngs Moduli (GPa) = 63.45392 64.30024 40.43739
#
# Poissons Ratio (x) = -0.04225 0.09218
# Poissons Ratio (y) = -0.04170 0.16325
# Poissons Ratio (z) = 0.14464 0.25958
#
# Static dielectric constant tensor:
#      x y z
#    x 1.687560 0.000000 -0.005370 
#    y 0.000000 1.625430 0.000000 
#    z -0.005370 0.000000 1.662700 
# 
# From -- ./inp_files/158003.got.cif
#   From: 2010.05.17/outbox.cif.g08.bks.cpg/sg12_80_cif.got.tgz:158003.got - 2010.06.03 13:09:07.
