data_PCOD9179985
_publ_section_title
;
Structure prediction by ZEFSAII (Michael W. Deem and Ramdas Pophale) SiO2 
 PCOD9179985
Probable space group: C 2/M
;
_chemical_formula_sum "Si O2"
_cell_formula_units_Z 56
_cell_length_a 26.932007
_cell_length_b 8.454540
_cell_length_c 13.554901
_cell_angle_alpha 90.000000
_cell_angle_beta 67.476667
_cell_angle_gamma 90.000000
_cell_volume 2850.999213
_symmetry_space_group_name_H-M "C 2/M"
_symmetry_group_IT_number 12
_symmetry_cell_setting 'monoclinic'
loop_
_space_group_symop_operation_xyz
x,y,z
-x,y,-z
-x,-y,-z
x,-y,z
1/2+x,1/2+y,z
1/2-x,1/2+y,-z
1/2-x,1/2-y,-z
1/2+x,1/2-y,z
loop_
_atom_site_type_symbol
_atom_site_label
_atom_site_fract_x
_atom_site_fract_y
_atom_site_fract_z
Si Si1 0.584827 0.688274 0.878514
Si Si2 0.912840 0.188107 0.899515
Si Si3 0.699716 0.191959 0.324376
Si Si4 0.019895 0.687799 0.741611
Si Si5 0.685906 0.189683 0.696478
Si Si6 0.121024 0.691808 0.548994
Si Si7 0.698797 0.188650 0.098636
O O1 0.575346 0.500000 0.876906
O O2 0.549744 0.774770 0.822388
O O3 0.646641 0.728374 0.805715
O O4 0.573130 0.738895 0.999084
O O5 0.856672 0.260934 0.909492
O O6 0.961647 0.235228 0.791401
O O7 0.907072 0.000000 0.906281
O O8 0.753679 0.253712 0.334873
O O9 0.647946 0.244613 0.426957
O O10 0.699163 0.246070 0.211697
O O11 0.700930 0.000000 0.324895
O O12 0.013618 0.500000 0.736229
O O13 0.061734 0.746749 0.626288
O O14 0.661328 0.232494 0.608311
O O15 0.682344 0.000000 0.709972
O O16 0.118350 0.500000 0.548751
O O17 0.701612 0.000000 0.098526
O O18 0.750000 0.250000 0.000000
#
# Coordination Sequence:
#
# PCOD9179985 Si02
#       7
#     8   8   8   8   8   8   8
#     4  10  20  34  53  79 111 146 180 215 263 321
#     4  11  23  38  56  78 108 146 183 220 264 316
#     4  10  20  36  56  77 105 143 182 219 266 321
#     4  10  20  35  57  84 111 139 174 220 269 315
#     4  10  19  31  52  83 113 141 175 219 269 317
#     4   8  17  34  54  79 110 140 175 217 262 319
#     4  11  24  40  59  81 106 140 180 223 268 314
#
# _framework density 19.642237000000002
#
# number of rings (size 3 to 8) (size 9 to 14) (size 15 to 20)
#    0.000    2.000    0.000    4.714    0.000    8.571 
#    0.000    4.286    0.000    4.286    0.000    0.000 
#    0.000    0.000    0.000    0.000    0.000    0.000 
#
# Total GULP energy -156386.971891 kJ/mol
# GULP energy per Si atom -5585.248996 kJ/mol
# Density = 1.959753 g / cm^3
# Si number density = 19.642237 Si / 1000 Ang^3
#
#
#
# Elastic Constant Matrix: (Units=GPa)
#
#
# Indices 1 2 3 4 5 6 
#
# 1 81.1127 0.3858 45.0672 0.0000 -31.2522 0.0000
# 2 0.3858 16.3664 14.1001 0.0000 0.5638 0.0000
# 3 45.0672 14.1001 139.5743 0.0000 -30.3079 0.0000
# 4 0.0000 0.0000 0.0000 20.1767 0.0000 -7.1070
# 5 -31.2522 0.5638 -30.3079 0.0000 27.5338 0.0000
# 6 0.0000 0.0000 0.0000 -7.1070 0.0000 31.1114
#
#
#
# Elastic Compliance Matrix: (Units=1/GPa)
#
#
# Indices 1 2 3 4 5 6 
#
# 1 0.022444 0.000710 -0.002352 0.000000 0.022872 0.000000
# 2 0.000710 0.069881 -0.009757 0.000000 -0.011365 0.000000
# 3 -0.002352 -0.009757 0.011004 0.000000 0.009642 0.000000
# 4 0.000000 0.000000 0.000000 0.053899 0.000000 0.012313
# 5 0.022872 -0.011365 0.009642 0.000000 0.073126 0.000000
# 6 0.000000 0.000000 0.000000 0.012313 0.000000 0.034955
#
#
# Mechanical properties :
#
#
# Convention : Reuss Voigt Hill
#
# Bulk Modulus (GPa) = 12.41765 39.57330 25.99547
# Shear Modulus (GPa) = 15.87549 27.59774 21.73661
#
# Velocity S-wave (km/s) = 2.84603 3.75243 3.33021
# Velocity P-wave (km/s) = 4.13950 6.24220 5.29625
#
# Compressibility (1/GPa) = 0.08053055
#
# Stress axis : x y z
#
# Youngs Moduli (GPa) = 44.55451 14.31001 90.88016
#
# Poissons Ratio (x) = -0.01015 0.21378
# Poissons Ratio (y) = -0.03161 0.88667
# Poissons Ratio (z) = 0.10481 0.13962
#
# Static dielectric constant tensor:
#      x y z
#    x 1.660820 0.000000 -0.012570 
#    y 0.000000 1.669260 0.000000 
#    z -0.012570 0.000000 1.714400 
# 
# From -- ./inp_files/180795.got.cif
#   From: 2010.05.17/outbox.cif.g08.bks.cpg/sg12_91_cif.got.tgz:180795.got - 2010.06.03 13:09:07.
