data_PCOD9179485
_publ_section_title
;
Structure prediction by ZEFSAII (Michael W. Deem and Ramdas Pophale) SiO2 
 PCOD9179485
Probable space group: C 2/M
;
_chemical_formula_sum "Si O2"
_cell_formula_units_Z 64
_cell_length_a 19.850321
_cell_length_b 7.312398
_cell_length_c 17.727100
_cell_angle_alpha 90.000000
_cell_angle_beta 89.480460
_cell_angle_gamma 90.000000
_cell_volume 2573.043895
_symmetry_space_group_name_H-M "C 2/M"
_symmetry_group_IT_number 12
_symmetry_cell_setting 'monoclinic'
loop_
_space_group_symop_operation_xyz
x,y,z
-x,y,-z
-x,-y,-z
x,-y,z
1/2+x,1/2+y,z
1/2-x,1/2+y,-z
1/2-x,1/2-y,-z
1/2+x,1/2-y,z
loop_
_atom_site_type_symbol
_atom_site_label
_atom_site_fract_x
_atom_site_fract_y
_atom_site_fract_z
Si Si1 0.172587 0.781396 0.525324
Si Si2 0.186939 0.205683 0.106046
Si Si3 0.766783 0.779655 0.742485
Si Si4 0.483312 0.276119 0.753280
Si Si5 0.337300 0.722007 0.056926
Si Si6 0.875522 0.222334 0.629261
Si Si7 0.874557 0.786709 0.311942
Si Si8 0.484215 0.721914 0.085306
O O1 0.250000 0.750000 0.500000
O O2 0.125015 0.716122 0.457072
O O3 0.150371 0.708796 0.607335
O O4 0.165869 0.000000 0.529118
O O5 0.188860 0.290862 0.188235
O O6 0.267303 0.200150 0.087035
O O7 0.159281 0.000000 0.113223
O O8 0.155248 0.282997 0.030583
O O9 0.803632 0.724431 0.665739
O O10 0.689578 0.723806 0.742424
O O11 0.768240 0.000000 0.747128
O O12 0.480834 0.500000 0.755251
O O13 0.431061 0.218367 0.689186
O O14 0.557020 0.214514 0.724409
O O15 0.474563 0.218680 0.841060
O O16 0.329969 0.500000 0.056481
O O17 0.405450 0.767663 0.099005
O O18 0.878559 0.000000 0.628102
O O19 0.888876 0.000000 0.324312
O O20 0.488766 0.500000 0.082599
O O21 0.500000 0.784691 0.000000
#
# Coordination Sequence:
#
# PCOD9179485 Si02
#       8
#     8   8   8   8   8   8   8   8
#     4  10  19  33  53  78 103 130 166 205 249 301
#     4   9  18  29  45  69  96 126 163 204 244 292
#     4  10  19  31  50  74 100 134 172 207 247 297
#     4   9  18  31  47  73 104 131 165 208 253 297
#     4   9  17  30  46  68  96 125 160 206 251 292
#     4   9  18  31  49  72 100 132 165 205 248 294
#     4  10  20  33  53  78 103 132 165 208 257 302
#     4   9  17  27  44  68  96 129 162 200 244 288
#
# _framework density 24.873263999999999
#
# number of rings (size 3 to 8) (size 9 to 14) (size 15 to 20)
#    0.000    2.625    1.250    0.750    1.750    2.000 
#    0.000    2.500    0.000    1.875    0.000    1.750 
#    0.000    0.000    0.000    0.000    0.000    0.000 
#
# Total GULP energy -178757.800800 kJ/mol
# GULP energy per Si atom -5586.181275 kJ/mol
# Density = 2.481665 g / cm^3
# Si number density = 24.873264 Si / 1000 Ang^3
#
#
#
# Elastic Constant Matrix: (Units=GPa)
#
#
# Indices 1 2 3 4 5 6 
#
# 1 101.1190 -5.8590 36.0908 0.0000 19.0820 0.0000
# 2 -5.8590 102.5720 1.2065 0.0000 -2.6166 0.0000
# 3 36.0908 1.2065 172.0560 0.0000 17.0066 0.0000
# 4 0.0000 0.0000 0.0000 -2.5667 0.0000 1.3125
# 5 19.0820 -2.6166 17.0066 0.0000 41.8069 0.0000
# 6 0.0000 0.0000 0.0000 1.3125 0.0000 7.4081
#
#
#
# Elastic Compliance Matrix: (Units=1/GPa)
#
#
# Indices 1 2 3 4 5 6 
#
# 1 0.011455 0.000566 -0.001973 0.000000 -0.004390 0.000000
# 2 0.000566 0.009796 -0.000232 0.000000 0.000449 0.000000
# 3 -0.001973 -0.000232 0.006397 0.000000 -0.001716 0.000000
# 4 0.000000 0.000000 0.000000 -0.357240 0.000000 0.063294
# 5 -0.004390 0.000449 -0.001716 0.000000 0.026650 0.000000
# 6 0.000000 0.000000 0.000000 0.063294 0.000000 0.123774
#
#
# Mechanical properties :
#
#
# Convention : Reuss Voigt Hill
#
# Bulk Modulus (GPa) = 41.03463 48.73595 44.88529
# Shear Modulus (GPa) = -29.80317 32.28356 1.24019
#
# Velocity S-wave (km/s) = -3.46526 3.60658 0.70689
# Velocity P-wave (km/s) = 0.72291 6.08107 4.33025
#
# Compressibility (1/GPa) = 0.02436966
#
# Stress axis : x y z
#
# Youngs Moduli (GPa) = 87.30023 102.08519 156.31967
#
# Poissons Ratio (x) = -0.05773 0.30838
# Poissons Ratio (y) = -0.04937 0.03622
# Poissons Ratio (z) = 0.17222 0.02366
#
# Static dielectric constant tensor:
#      x y z
#    x 1.922610 0.000000 -0.019560 
#    y 0.000000 2.070480 0.000000 
#    z -0.019560 0.000000 1.988960 
# 
# From -- ./inp_files/276594.got.cif
#   From: 2010.05.17/outbox.cif.g08.bks.cpg/sg12_139_cif.got.tgz:276594.got - 2010.06.03 13:09:07.
