data_PCOD9179140
_publ_section_title
;
Structure prediction by ZEFSAII (Michael W. Deem and Ramdas Pophale) SiO2 
 PCOD9179140
Probable space group: C 2/M
;
_chemical_formula_sum "Si O2"
_cell_formula_units_Z 56
_cell_length_a 9.780489
_cell_length_b 16.182701
_cell_length_c 24.571031
_cell_angle_alpha 90.000000
_cell_angle_beta 37.522506
_cell_angle_gamma 90.000000
_cell_volume 2368.668675
_symmetry_space_group_name_H-M "C 2/M"
_symmetry_group_IT_number 12
_symmetry_cell_setting 'monoclinic'
loop_
_space_group_symop_operation_xyz
x,y,z
-x,y,-z
-x,-y,-z
x,-y,z
1/2+x,1/2+y,z
1/2-x,1/2+y,-z
1/2-x,1/2-y,-z
1/2+x,1/2-y,z
loop_
_atom_site_type_symbol
_atom_site_label
_atom_site_fract_x
_atom_site_fract_y
_atom_site_fract_z
Si Si1 0.848320 0.709643 0.671096
Si Si2 0.285523 0.182219 0.810632
Si Si3 0.655838 0.405746 0.314674
Si Si4 0.317707 0.594737 0.937342
Si Si5 0.231216 0.403564 0.077992
Si Si6 0.148472 0.863038 0.191928
Si Si7 0.364257 0.089797 0.486933
O O1 0.913446 0.691267 0.713445
O O2 0.619328 0.658802 0.729125
O O3 0.799936 0.808160 0.681111
O O4 0.045679 0.668690 0.574045
O O5 0.379568 0.135516 0.833807
O O6 0.240777 0.273742 0.844091
O O7 0.052112 0.141396 0.867571
O O8 0.740459 0.500000 0.305520
O O9 0.681433 0.403665 0.240443
O O10 0.395015 0.408138 0.415221
O O11 0.361957 0.500000 0.937653
O O12 0.258774 0.595451 0.892405
O O13 0.175517 0.625887 0.034429
O O14 0.188923 0.500000 0.095423
O O15 0.500000 0.388679 0.000000
O O16 0.500000 0.089725 0.500000
O O17 0.410369 0.000000 0.444392
#
# Coordination Sequence:
#
# PCOD9179140 Si02
#       7
#     8   8   8   8   8   8   8
#     4  10  20  33  50  74 102 131 161 202 247 291
#     4   9  18  29  45  71  98 124 156 195 241 283
#     4  10  20  35  53  73  99 131 165 202 245 291
#     4   9  17  30  50  71  94 126 162 201 242 284
#     4   8  14  27  45  67  95 126 158 196 243 287
#     4  10  19  31  48  74  99 126 163 200 241 288
#     4  10  19  32  54  80  97 122 164 206 246 287
#
# _framework density 23.641973
#
# number of rings (size 3 to 8) (size 9 to 14) (size 15 to 20)
#    0.000    2.571    1.429    2.143    0.000    3.429 
#    0.000    1.429    0.000    1.286    0.000    0.000 
#    0.000   36.000    0.000    0.000    0.000    0.000 
#
# Total GULP energy -156039.774414 kJ/mol
# GULP energy per Si atom -5572.849086 kJ/mol
# Density = 2.358816 g / cm^3
# Si number density = 23.641973 Si / 1000 Ang^3
#
#
#
# Elastic Constant Matrix: (Units=GPa)
#
#
# Indices 1 2 3 4 5 6 
#
# 1 46.1366 9.0636 20.2748 -0.0034 9.0935 -0.0006
# 2 9.0636 110.6234 49.5923 -0.0034 27.0755 0.0023
# 3 20.2748 49.5923 81.9758 -0.0063 19.8907 -0.0001
# 4 -0.0034 -0.0034 -0.0063 45.9550 -0.0063 -0.9378
# 5 9.0935 27.0755 19.8907 -0.0063 17.9158 0.0049
# 6 -0.0006 0.0023 -0.0001 -0.9378 0.0049 40.0075
#
#
#
# Elastic Compliance Matrix: (Units=1/GPa)
#
#
# Indices 1 2 3 4 5 6 
#
# 1 0.025786 0.003257 -0.005444 0.000000 -0.011965 0.000002
# 2 0.003257 0.016200 -0.005837 -0.000002 -0.019656 0.000001
# 3 -0.005444 -0.005837 0.019525 0.000001 -0.010093 0.000002
# 4 0.000000 -0.000002 0.000001 0.021771 0.000010 0.000510
# 5 -0.011965 -0.019656 -0.010093 0.000010 0.102801 -0.000011
# 6 0.000002 0.000001 0.000002 0.000510 -0.000011 0.025007
#
#
# Mechanical properties :
#
#
# Convention : Reuss Voigt Hill
#
# Bulk Modulus (GPa) = 21.99622 44.06633 33.03127
# Shear Modulus (GPa) = 20.63612 31.42933 26.03273
#
# Velocity S-wave (km/s) = 2.95762 3.65003 3.32192
# Velocity P-wave (km/s) = 4.58121 6.03681 5.35867
#
# Compressibility (1/GPa) = 0.04546237
#
# Stress axis : x y z
#
# Youngs Moduli (GPa) = 38.78087 61.72730 51.21553
#
# Poissons Ratio (x) = -0.20102 0.27884
# Poissons Ratio (y) = -0.12629 0.29893
# Poissons Ratio (z) = 0.21114 0.36029
#
# Static dielectric constant tensor:
#      x y z
#    x 1.793900 -0.000010 0.157870 
#    y -0.000010 1.866130 0.000010 
#    z 0.157870 0.000010 1.782310 
# 
# From -- ./inp_files/269934.got.cif
#   From: 2010.05.17/outbox.cif.g08.bks.cpg/sg12_135_cif.got.tgz:269934.got - 2010.06.03 13:09:07.
