data_PCOD9179412
_publ_section_title
;
Structure prediction by ZEFSAII (Michael W. Deem and Ramdas Pophale) SiO2 
 PCOD9179412
Probable space group: C 2/M
;
_chemical_formula_sum "Si O2"
_cell_formula_units_Z 56
_cell_length_a 24.395638
_cell_length_b 7.704451
_cell_length_c 14.657547
_cell_angle_alpha 90.000000
_cell_angle_beta 69.742105
_cell_angle_gamma 90.000000
_cell_volume 2584.547446
_symmetry_space_group_name_H-M "C 2/M"
_symmetry_group_IT_number 12
_symmetry_cell_setting 'monoclinic'
loop_
_space_group_symop_operation_xyz
x,y,z
-x,y,-z
-x,-y,-z
x,-y,z
1/2+x,1/2+y,z
1/2-x,1/2+y,-z
1/2-x,1/2-y,-z
1/2+x,1/2-y,z
loop_
_atom_site_type_symbol
_atom_site_label
_atom_site_fract_x
_atom_site_fract_y
_atom_site_fract_z
Si Si1 0.218487 0.711011 0.300139
Si Si2 0.375920 0.700137 0.779798
Si Si3 0.511820 0.796995 0.390490
Si Si4 0.815531 0.292359 0.489671
Si Si5 0.155202 0.207593 0.821579
Si Si6 0.317117 0.289986 0.990093
Si Si7 0.082622 0.709126 0.698456
O O1 0.217236 0.500000 0.297022
O O2 0.187393 0.784615 0.230020
O O3 0.181062 0.769837 0.408561
O O4 0.285908 0.767231 0.265204
O O5 0.393591 0.500000 0.777079
O O6 0.422310 0.785669 0.684861
O O7 0.363516 0.774126 0.887429
O O8 0.500000 0.724257 0.500000
O O9 0.472746 0.726979 0.328453
O O10 0.495694 0.000000 0.407696
O O11 0.822560 0.500000 0.486936
O O12 0.750000 0.250000 0.500000
O O13 0.862854 0.222875 0.392951
O O14 0.098269 0.247554 0.793978
O O15 0.158207 0.000000 0.824792
O O16 0.163917 0.271902 0.920112
O O17 0.320447 0.500000 0.988013
O O18 0.250000 0.250000 0.000000
O O19 0.081027 0.500000 0.698138
#
# Coordination Sequence:
#
# PCOD9179412 Si02
#       7
#     8   8   8   8   8   8   8
#     4  10  19  33  54  80 113 154 191 225 281 352
#     4  11  23  37  58  88 117 147 192 248 294 335
#     4  10  22  43  66  84 112 156 199 237 285 350
#     4  10  19  31  49  77 111 143 179 223 278 341
#     4  10  20  35  56  82 114 152 189 229 285 347
#     4  10  21  37  57  85 119 154 193 237 291 346
#     4  10  21  36  56  82 113 149 190 239 288 337
#
# _framework density 21.667235999999999
#
# number of rings (size 3 to 8) (size 9 to 14) (size 15 to 20)
#    0.000    1.857    2.857    1.286    0.000    5.429 
#    0.000    2.143    0.000    4.286    0.000    0.000 
#    0.000    0.000    0.000    0.000    0.000    0.000 
#
# Total GULP energy -156113.066485 kJ/mol
# GULP energy per Si atom -5575.466660 kJ/mol
# Density = 2.161792 g / cm^3
# Si number density = 21.667236 Si / 1000 Ang^3
#
#
#
# Elastic Constant Matrix: (Units=GPa)
#
#
# Indices 1 2 3 4 5 6 
#
# 1 105.0923 -4.3434 40.7185 0.0000 25.7855 0.0000
# 2 -4.3434 31.0070 6.9044 0.0000 4.7060 0.0000
# 3 40.7185 6.9044 137.0042 0.0000 29.0906 0.0000
# 4 0.0000 0.0000 0.0000 12.1165 0.0000 2.2791
# 5 25.7855 4.7060 29.0906 0.0000 35.7524 0.0000
# 6 0.0000 0.0000 0.0000 2.2791 0.0000 16.4868
#
#
#
# Elastic Compliance Matrix: (Units=1/GPa)
#
#
# Indices 1 2 3 4 5 6 
#
# 1 0.012376 0.003379 -0.002247 0.000000 -0.007542 0.000000
# 2 0.003379 0.033921 -0.001509 0.000000 -0.005674 0.000000
# 3 -0.002247 -0.001509 0.009256 0.000000 -0.005712 0.000000
# 4 0.000000 0.000000 0.000000 0.084736 0.000000 -0.011714
# 5 -0.007542 -0.005674 -0.005712 0.000000 0.038804 0.000000
# 6 0.000000 0.000000 0.000000 -0.011714 0.000000 0.062274
#
#
# Mechanical properties :
#
#
# Convention : Reuss Voigt Hill
#
# Bulk Modulus (GPa) = 18.24852 39.96252 29.10552
# Shear Modulus (GPa) = 19.20212 28.19273 23.69743
#
# Velocity S-wave (km/s) = 2.98019 3.61108 3.31070
# Velocity P-wave (km/s) = 4.50361 5.98919 5.29872
#
# Compressibility (1/GPa) = 0.05479896
#
# Stress axis : x y z
#
# Youngs Moduli (GPa) = 80.79924 29.48002 108.04085
#
# Poissons Ratio (x) = -0.09961 0.24278
# Poissons Ratio (y) = -0.27300 0.16302
# Poissons Ratio (z) = 0.18156 0.04448
#
# Static dielectric constant tensor:
#      x y z
#    x 1.783230 0.000000 0.040740 
#    y 0.000000 1.808020 0.000000 
#    z 0.040740 0.000000 1.843680 
# 
# From -- ./inp_files/237367.got.cif
#   From: 2010.05.17/outbox.cif.g08.bks.cpg/sg12_119_cif.got.tgz:237367.got - 2010.06.03 13:09:07.
