data_PCOD9179697
_publ_section_title
;
Structure prediction by ZEFSAII (Michael W. Deem and Ramdas Pophale) SiO2 
 PCOD9179697
Probable space group: C 2/M
;
_chemical_formula_sum "Si O2"
_cell_formula_units_Z 48
_cell_length_a 29.865269
_cell_length_b 7.425035
_cell_length_c 16.401643
_cell_angle_alpha 90.000000
_cell_angle_beta 37.956913
_cell_angle_gamma 90.000000
_cell_volume 2237.051201
_symmetry_space_group_name_H-M "C 2/M"
_symmetry_group_IT_number 12
_symmetry_cell_setting 'monoclinic'
loop_
_space_group_symop_operation_xyz
x,y,z
-x,y,-z
-x,-y,-z
x,-y,z
1/2+x,1/2+y,z
1/2-x,1/2+y,-z
1/2-x,1/2-y,-z
1/2+x,1/2-y,z
loop_
_atom_site_type_symbol
_atom_site_label
_atom_site_fract_x
_atom_site_fract_y
_atom_site_fract_z
Si Si1 0.896544 0.219858 0.085066
Si Si2 0.975762 0.280411 0.626394
Si Si3 0.237976 0.279361 0.258566
Si Si4 0.604667 0.786582 0.556732
Si Si5 0.686295 0.785089 0.155175
Si Si6 0.053563 0.784269 0.809029
O O1 0.819995 0.280756 0.158913
O O2 0.907966 0.276685 0.162730
O O3 0.895756 0.000000 0.085061
O O4 0.969354 0.278128 0.932685
O O5 0.975789 0.500000 0.629860
O O6 0.893043 0.217804 0.758282
O O7 0.000000 0.232078 0.500000
O O8 0.034971 0.215414 0.606633
O O9 0.239730 0.500000 0.255664
O O10 0.180085 0.219784 0.409965
O O11 0.208908 0.219337 0.212281
O O12 0.593671 0.760775 0.668201
O O13 0.605442 0.000000 0.540793
O O14 0.678946 0.000000 0.173517
O O15 0.750000 0.750000 0.000000
O O16 0.051124 0.000000 0.817561
#
# Coordination Sequence:
#
# PCOD9179697 Si02
#       6
#     8   8   8   8   8   8
#     4   8  16  32  51  70  95 128 164 197 234 286
#     4   9  16  31  51  70  96 130 163 192 230 284
#     4   9  17  31  51  72  94 127 168 199 228 283
#     4  10  19  31  51  75  97 125 162 200 237 282
#     4  10  20  33  51  74  99 127 160 199 239 282
#     4   9  18  33  52  72  96 127 160 198 243 287
#
# _framework density 21.456817000000001
#
# number of rings (size 3 to 8) (size 9 to 14) (size 15 to 20)
#    0.000    2.833    1.667    1.000    2.333    0.667 
#    0.000    2.500    0.000    3.000    0.000    0.000 
#    0.000    0.000    0.000    0.000    0.000    0.000 
#
# Total GULP energy -133993.782016 kJ/mol
# GULP energy per Si atom -5583.074251 kJ/mol
# Density = 2.140798 g / cm^3
# Si number density = 21.456817 Si / 1000 Ang^3
#
#
#
# Elastic Constant Matrix: (Units=GPa)
#
#
# Indices 1 2 3 4 5 6 
#
# 1 40.1634 4.1484 13.5200 0.0079 -12.7744 -0.0055
# 2 4.1484 65.1533 -2.9158 -0.0084 -7.0809 -0.0059
# 3 13.5200 -2.9158 112.3915 0.0077 1.9347 -0.0052
# 4 0.0079 -0.0084 0.0077 10.2937 -0.0029 10.4391
# 5 -12.7744 -7.0809 1.9347 -0.0029 40.3501 -0.0005
# 6 -0.0055 -0.0059 -0.0052 10.4391 -0.0005 -1.1257
#
#
#
# Elastic Compliance Matrix: (Units=1/GPa)
#
#
# Indices 1 2 3 4 5 6 
#
# 1 0.029186 -0.001020 -0.003696 0.000010 0.009238 -0.000028
# 2 -0.001020 0.015697 0.000488 0.000009 0.002408 0.000005
# 3 -0.003696 0.000488 0.009381 0.000002 -0.001534 -0.000006
# 4 0.000010 0.000009 0.000002 0.009337 0.000006 0.086587
# 5 0.009238 0.002408 -0.001534 0.000006 0.028204 -0.000002
# 6 -0.000028 0.000005 -0.000006 0.086587 -0.000002 -0.085380
#
#
# Mechanical properties :
#
#
# Convention : Reuss Voigt Hill
#
# Bulk Modulus (GPa) = 21.82976 27.46816 24.64896
# Shear Modulus (GPa) = 165.83519 23.43398 94.63458
#
# Velocity S-wave (km/s) = 8.80089 3.30835 6.64834
# Velocity P-wave (km/s) = 10.65224 5.23669 8.39324
#
# Compressibility (1/GPa) = 0.04580902
#
# Stress axis : x y z
#
# Youngs Moduli (GPa) = 34.26268 63.70664 106.59609
#
# Poissons Ratio (x) = 0.06496 0.39402
# Poissons Ratio (y) = 0.03494 -0.05207
# Poissons Ratio (z) = 0.12665 -0.03112
#
# Static dielectric constant tensor:
#      x y z
#    x 1.748910 0.000000 -0.018270 
#    y 0.000000 1.838910 0.000000 
#    z -0.018270 0.000000 1.755130 
# 
# From -- ./inp_files/212675.got.cif
#   From: 2010.05.17/outbox.cif.g08.bks.cpg/sg12_107_cif.got.tgz:212675.got - 2010.06.03 13:09:07.
