data_PCOD9179346
_publ_section_title
;
Structure prediction by ZEFSAII (Michael W. Deem and Ramdas Pophale) SiO2 
 PCOD9179346
Probable space group: C 2/M
;
_chemical_formula_sum "Si O2"
_cell_formula_units_Z 64
_cell_length_a 18.147910
_cell_length_b 9.182234
_cell_length_c 31.119652
_cell_angle_alpha 90.000000
_cell_angle_beta 43.129021
_cell_angle_gamma 90.000000
_cell_volume 3545.189119
_symmetry_space_group_name_H-M "C 2/M"
_symmetry_group_IT_number 12
_symmetry_cell_setting 'monoclinic'
loop_
_space_group_symop_operation_xyz
x,y,z
-x,y,-z
-x,-y,-z
x,-y,z
1/2+x,1/2+y,z
1/2-x,1/2+y,-z
1/2-x,1/2-y,-z
1/2+x,1/2-y,z
loop_
_atom_site_type_symbol
_atom_site_label
_atom_site_fract_x
_atom_site_fract_y
_atom_site_fract_z
Si Si1 0.788515 0.325063 0.939873
Si Si2 0.095071 0.827269 0.690599
Si Si3 0.418565 0.832173 0.437838
Si Si4 0.990008 0.827003 0.178949
Si Si5 0.759393 0.167464 0.563578
Si Si6 0.080201 0.827138 0.309612
Si Si7 0.619614 0.676725 0.937084
Si Si8 0.699195 0.326365 0.809435
O O1 0.789846 0.500000 0.943950
O O2 0.905014 0.264769 0.877223
O O3 0.704161 0.286283 0.938147
O O4 0.750000 0.250000 0.000000
O O5 0.198512 0.741424 0.629233
O O6 0.057045 0.787199 0.754369
O O7 0.997501 0.801291 0.698595
O O8 0.118578 0.000000 0.679732
O O9 0.328706 0.829916 0.437837
O O10 0.361666 0.755250 0.502311
O O11 0.520070 0.746440 0.375503
O O12 0.444608 0.000000 0.435620
O O13 0.898432 0.805907 0.182167
O O14 0.017315 0.000000 0.168215
O O15 0.786423 0.000000 0.560565
O O16 0.194990 0.756393 0.251245
O O17 0.088486 0.000000 0.312303
O O18 0.613922 0.500000 0.937509
O O19 0.661247 0.724482 0.872745
O O20 0.500000 0.729522 0.000000
O O21 0.722563 0.500000 0.801596
#
# Coordination Sequence:
#
# PCOD9179346 Si02
#       8
#     8   8   8   8   8   8   8   8
#     4  11  22  36  57  82 108 138 172 212 257 305
#     4   9  18  32  50  74 104 137 171 210 260 312
#     4   9  16  27  45  70 101 135 172 213 258 310
#     4  10  21  37  56  77 104 138 175 215 257 304
#     4   9  16  26  44  72 103 134 170 213 260 308
#     4  10  19  31  49  74 105 136 169 213 261 309
#     4   9  18  34  56  80 105 135 172 211 251 299
#     4  10  20  35  55  76 101 136 176 214 255 305
#
# _framework density 18.052633
#
# number of rings (size 3 to 8) (size 9 to 14) (size 15 to 20)
#    0.000    2.375    0.000    3.000    0.000    6.500 
#    0.000    0.625    0.000    3.375    0.000    5.250 
#    0.000    0.000    0.000    0.000    0.000    0.000 
#
# Total GULP energy -178605.693450 kJ/mol
# GULP energy per Si atom -5581.427920 kJ/mol
# Density = 1.801154 g / cm^3
# Si number density = 18.052633 Si / 1000 Ang^3
#
#
#
# Elastic Constant Matrix: (Units=GPa)
#
#
# Indices 1 2 3 4 5 6 
#
# 1 64.0103 59.6547 79.6513 0.0001 0.2574 0.0004
# 2 59.6547 89.9844 98.0330 0.0007 -2.3265 0.0020
# 3 79.6513 98.0330 208.8712 0.0001 -2.3017 0.0003
# 4 0.0001 0.0007 0.0001 36.2857 0.0000 -3.5011
# 5 0.2574 -2.3265 -2.3017 0.0000 24.4088 0.0001
# 6 0.0004 0.0020 0.0003 -3.5011 0.0001 17.7506
#
#
#
# Elastic Compliance Matrix: (Units=1/GPa)
#
#
# Indices 1 2 3 4 5 6 
#
# 1 0.044987 -0.022877 -0.006454 0.000000 -0.003264 0.000002
# 2 -0.022877 0.034408 -0.007394 -0.000001 0.002824 -0.000003
# 3 -0.006454 -0.007394 0.010723 0.000000 0.000375 0.000001
# 4 0.000000 -0.000001 0.000000 0.028094 0.000000 0.005541
# 5 -0.003264 0.002824 0.000375 0.000000 0.041308 0.000000
# 6 0.000002 -0.000003 0.000001 0.005541 0.000000 0.057429
#
#
# Mechanical properties :
#
#
# Convention : Reuss Voigt Hill
#
# Bulk Modulus (GPa) = 59.99591 93.06044 76.52817
# Shear Modulus (GPa) = 16.89447 24.05749 20.47598
#
# Velocity S-wave (km/s) = 3.06248 3.65448 3.37150
# Velocity P-wave (km/s) = 6.76839 8.33477 7.59208
#
# Compressibility (1/GPa) = 0.01666780
#
# Stress axis : x y z
#
# Youngs Moduli (GPa) = 22.22853 29.06342 93.25375
#
# Poissons Ratio (x) = 0.66488 0.60189
# Poissons Ratio (y) = 0.50852 0.68952
# Poissons Ratio (z) = 0.14347 0.21490
#
# Static dielectric constant tensor:
#      x y z
#    x 1.605220 0.000000 0.009460 
#    y 0.000000 1.604910 0.000000 
#    z 0.009460 0.000000 1.592530 
# 
# From -- ./inp_files/378192.got.cif
#   From: 2010.05.17/outbox.cif.g08.bks.cpg/sg12_190_cif.got.tgz:378192.got - 2010.06.03 13:09:07.
