data_PCOD9179332
_publ_section_title
;
Structure prediction by ZEFSAII (Michael W. Deem and Ramdas Pophale) SiO2 
 PCOD9179332
Probable space group: C 2/M
;
_chemical_formula_sum "Si O2"
_cell_formula_units_Z 64
_cell_length_a 32.394221
_cell_length_b 9.068124
_cell_length_c 14.609630
_cell_angle_alpha 90.000000
_cell_angle_beta 63.208643
_cell_angle_gamma 90.000000
_cell_volume 3830.956999
_symmetry_space_group_name_H-M "C 2/M"
_symmetry_group_IT_number 12
_symmetry_cell_setting 'monoclinic'
loop_
_space_group_symop_operation_xyz
x,y,z
-x,y,-z
-x,-y,-z
x,-y,z
1/2+x,1/2+y,z
1/2-x,1/2+y,-z
1/2-x,1/2-y,-z
1/2+x,1/2-y,z
loop_
_atom_site_type_symbol
_atom_site_label
_atom_site_fract_x
_atom_site_fract_y
_atom_site_fract_z
Si Si1 0.385660 0.177469 0.636073
Si Si2 0.072628 0.175525 0.573269
Si Si3 0.884169 0.824312 0.076874
Si Si4 0.975347 0.327088 0.664433
Si Si5 0.531260 0.172742 0.111153
Si Si6 0.199873 0.675926 0.941922
Si Si7 0.066095 0.175978 0.790763
Si Si8 0.201429 0.676994 0.153517
O O1 0.391565 0.250067 0.531469
O O2 0.431123 0.218001 0.649661
O O3 0.339958 0.220553 0.737697
O O4 0.385531 0.000000 0.627982
O O5 0.079805 0.214149 0.673082
O O6 0.021424 0.234908 0.599921
O O7 0.074122 0.000000 0.562641
O O8 0.838559 0.747972 0.083688
O O9 0.895207 0.793103 0.172300
O O10 0.880998 0.000000 0.067993
O O11 0.928188 0.761831 0.977864
O O12 0.985308 0.500000 0.635802
O O13 0.963942 0.314097 0.783574
O O14 0.480966 0.238226 0.138270
O O15 0.533920 0.000000 0.084547
O O16 0.200063 0.500000 0.930826
O O17 0.250614 0.741986 0.873631
O O18 0.188771 0.708533 0.060126
O O19 0.056204 0.000000 0.803058
O O20 0.208077 0.500000 0.153637
#
# Coordination Sequence:
#
# PCOD9179332 Si02
#       8
#     8   8   8   8   8   8   8   8
#     4  10  19  32  51  72  97 131 166 197 237 294
#     4  10  20  33  48  69  98 130 168 211 245 277
#     4  11  21  33  51  72  98 134 169 200 244 299
#     4   9  18  32  48  69 101 136 164 194 240 294
#     4  10  19  31  49  74 102 131 166 207 245 286
#     4  10  20  35  55  79 104 127 158 200 241 287
#     4   9  20  36  49  66  98 137 170 203 247 294
#     4   9  19  36  55  76 104 133 157 189 243 303
#
# _framework density 16.706009000000002
#
# number of rings (size 3 to 8) (size 9 to 14) (size 15 to 20)
#    0.000    2.250    0.000    3.000    0.000    8.500 
#    0.000    1.250    0.000    0.750    0.000    0.000 
#    0.000    0.000    0.000    0.000    0.000    0.000 
#
# Total GULP energy -178643.184814 kJ/mol
# GULP energy per Si atom -5582.599525 kJ/mol
# Density = 1.666799 g / cm^3
# Si number density = 16.706009 Si / 1000 Ang^3
#
#
#
# Elastic Constant Matrix: (Units=GPa)
#
#
# Indices 1 2 3 4 5 6 
#
# 1 131.4845 58.9932 73.7366 0.0000 6.2138 0.0000
# 2 58.9932 48.9987 52.8990 0.0000 0.2342 0.0000
# 3 73.7366 52.8990 124.3067 0.0000 -12.9778 0.0000
# 4 0.0000 0.0000 0.0000 29.0077 0.0000 -2.8643
# 5 6.2138 0.2342 -12.9778 0.0000 14.4065 0.0000
# 6 0.0000 0.0000 0.0000 -2.8643 0.0000 26.7093
#
#
#
# Elastic Compliance Matrix: (Units=1/GPa)
#
#
# Indices 1 2 3 4 5 6 
#
# 1 0.018638 -0.016716 -0.005247 0.000000 -0.012494 0.000000
# 2 -0.016716 0.056748 -0.014987 0.000000 -0.007213 0.000000
# 3 -0.005247 -0.014987 0.019644 0.000000 0.020202 0.000000
# 4 0.000000 0.000000 0.000000 0.034843 0.000000 0.003737
# 5 -0.012494 -0.007213 0.020202 0.000000 0.093118 0.000000
# 6 0.000000 0.000000 0.000000 0.003737 0.000000 0.037841
#
#
# Mechanical properties :
#
#
# Convention : Reuss Voigt Hill
#
# Bulk Modulus (GPa) = 47.32304 75.11639 61.21972
# Shear Modulus (GPa) = 14.62951 21.96877 18.29914
#
# Velocity S-wave (km/s) = 2.96244 3.63026 3.31322
# Velocity P-wave (km/s) = 6.33165 7.91410 7.16669
#
# Compressibility (1/GPa) = 0.02113136
#
# Stress axis : x y z
#
# Youngs Moduli (GPa) = 53.65345 17.62163 50.90649
#
# Poissons Ratio (x) = 0.29456 0.26709
# Poissons Ratio (y) = 0.89685 0.76294
# Poissons Ratio (z) = 0.28151 0.26410
#
# Static dielectric constant tensor:
#      x y z
#    x 1.540960 0.000000 0.023900 
#    y 0.000000 1.555770 0.000000 
#    z 0.023900 0.000000 1.563620 
# 
# From -- ./inp_files/248986.got.cif
#   From: 2010.05.17/outbox.cif.g08.bks.cpg/sg12_125_cif.got.tgz:248986.got - 2010.06.03 13:09:07.
