data_PCOD9179420
_publ_section_title
;
Structure prediction by ZEFSAII (Michael W. Deem and Ramdas Pophale) SiO2 
 PCOD9179420
Probable space group: C 2/M
;
_chemical_formula_sum "Si O2"
_cell_formula_units_Z 50
_cell_length_a 16.242185
_cell_length_b 7.629523
_cell_length_c 25.719919
_cell_angle_alpha 90.000000
_cell_angle_beta 40.961751
_cell_angle_gamma 90.000000
_cell_volume 2089.395285
_symmetry_space_group_name_H-M "C 2/M"
_symmetry_group_IT_number 12
_symmetry_cell_setting 'monoclinic'
loop_
_space_group_symop_operation_xyz
x,y,z
-x,y,-z
-x,-y,-z
x,-y,z
1/2+x,1/2+y,z
1/2-x,1/2+y,-z
1/2-x,1/2-y,-z
1/2+x,1/2-y,z
loop_
_atom_site_type_symbol
_atom_site_label
_atom_site_fract_x
_atom_site_fract_y
_atom_site_fract_z
Si Si1 0.159681 0.289824 0.495431
Si Si2 0.069006 0.208795 0.158367
Si Si3 0.500000 0.500000 0.000000
Si Si4 0.742285 0.210392 0.168611
Si Si5 0.303152 0.286212 0.324858
Si Si6 0.603520 0.787463 0.335395
Si Si7 0.520563 0.810869 0.064131
O O1 0.146747 0.500000 0.494863
O O2 0.250000 0.250000 0.500000
O O3 0.227593 0.222540 0.411284
O O4 0.022801 0.221317 0.577042
O O5 0.945076 0.272978 0.248665
O O6 0.062874 0.286110 0.103436
O O7 0.186615 0.247810 0.138977
O O8 0.058664 0.000000 0.156669
O O9 0.440113 0.652581 0.990887
O O10 0.632496 0.258484 0.262218
O O11 0.868561 0.299378 0.129893
O O12 0.773145 0.000000 0.156558
O O13 0.305958 0.500000 0.326363
O O14 0.222227 0.236831 0.313334
O O15 0.596757 0.000000 0.339313
O O16 0.565466 0.000000 0.024417
#
# Coordination Sequence:
#
# PCOD9179420 Si02
#       7
#     8   8   2   8   8   8   8
#     4  10  19  31  49  77 117 166 224 278 340 400
#     4  11  21  39  66  99 138 180 231 286 339 403
#     4  12  26  52  80 106 148 180 214 272 344 406
#     4  11  21  39  66  99 138 180 231 286 339 403
#     4   9  17  31  55  84 119 171 226 282 337 397
#     4   9  17  31  55  84 119 171 226 282 337 397
#     4  12  25  47  77 107 140 182 223 273 336 408
#
# _framework density 23.930368999999999
#
# number of rings (size 3 to 8) (size 9 to 14) (size 15 to 20)
#    0.000    1.600    3.200    2.640    0.000    1.920 
#    0.000    2.400    0.000    0.960    0.000    0.000 
#    0.000    0.000    0.000    0.000    0.000    0.000 
#
# Total GULP energy -139622.973109 kJ/mol
# GULP energy per Si atom -5584.918924 kJ/mol
# Density = 2.387590 g / cm^3
# Si number density = 23.930369 Si / 1000 Ang^3
#
#
#
# Elastic Constant Matrix: (Units=GPa)
#
#
# Indices 1 2 3 4 5 6 
#
# 1 151.8671 10.8612 58.0660 -0.0001 27.0746 0.0002
# 2 10.8612 115.5928 27.5564 -0.0001 10.8648 -0.0008
# 3 58.0660 27.5564 107.0357 -0.0001 8.6937 0.0000
# 4 -0.0001 -0.0001 -0.0001 -4.2102 0.0000 -3.2203
# 5 27.0746 10.8648 8.6937 0.0000 45.9447 0.0002
# 6 0.0002 -0.0008 0.0000 -3.2203 0.0002 27.1529
#
#
#
# Elastic Compliance Matrix: (Units=1/GPa)
#
#
# Indices 1 2 3 4 5 6 
#
# 1 0.009203 0.000719 -0.004797 0.000000 -0.004685 0.000000
# 2 0.000719 0.009415 -0.002639 0.000000 -0.002151 0.000000
# 3 -0.004797 -0.002639 0.012537 0.000000 0.001079 0.000000
# 4 0.000000 0.000000 0.000000 -0.217766 0.000000 -0.025827
# 5 -0.004685 -0.002151 0.001079 0.000000 0.024831 0.000000
# 6 0.000000 0.000000 0.000000 -0.025827 0.000000 0.033766
#
#
# Mechanical properties :
#
#
# Convention : Reuss Voigt Hill
#
# Bulk Modulus (GPa) = 56.43264 63.05143 59.74203
# Shear Modulus (GPa) = -46.00904 32.31162 -6.84871
#
# Velocity S-wave (km/s) = -4.38953 3.67854 -1.69356
# Velocity P-wave (km/s) = 1.43436 6.66688 4.60380
#
# Compressibility (1/GPa) = 0.01772024
#
# Stress axis : x y z
#
# Youngs Moduli (GPa) = 108.66380 106.21535 79.76453
#
# Poissons Ratio (x) = -0.07640 0.38263
# Poissons Ratio (y) = -0.07816 0.21053
# Poissons Ratio (z) = 0.52126 0.28034
#
# Static dielectric constant tensor:
#      x y z
#    x 1.846650 0.000000 -0.081610 
#    y 0.000000 1.915870 0.000000 
#    z -0.081610 0.000000 2.287670 
# 
# From -- ./inp_files/362644.got.cif
#   From: 2010.05.17/outbox.cif.g08.bks.cpg/sg12_182_cif.got.tgz:362644.got - 2010.06.03 13:09:07.
