data_PCOD9179063
_publ_section_title
;
Structure prediction by ZEFSAII (Michael W. Deem and Ramdas Pophale) SiO2 
 PCOD9179063
Probable space group: C 2/M
;
_chemical_formula_sum "Si O2"
_cell_formula_units_Z 64
_cell_length_a 33.818713
_cell_length_b 8.514659
_cell_length_c 25.842596
_cell_angle_alpha 90.000000
_cell_angle_beta 153.419196
_cell_angle_gamma 90.000000
_cell_volume 3329.769712
_symmetry_space_group_name_H-M "C 2/M"
_symmetry_group_IT_number 12
_symmetry_cell_setting 'monoclinic'
loop_
_space_group_symop_operation_xyz
x,y,z
-x,y,-z
-x,-y,-z
x,-y,z
1/2+x,1/2+y,z
1/2-x,1/2+y,-z
1/2-x,1/2-y,-z
1/2+x,1/2-y,z
loop_
_atom_site_type_symbol
_atom_site_label
_atom_site_fract_x
_atom_site_fract_y
_atom_site_fract_z
Si Si1 0.597246 0.823882 0.135044
Si Si2 0.806287 0.310874 0.912997
Si Si3 0.853179 0.188028 0.701044
Si Si4 0.746771 0.180105 0.735597
Si Si5 0.170602 0.691184 0.537878
Si Si6 0.989665 0.310931 0.173314
Si Si7 0.701735 0.687466 0.892426
Si Si8 0.976340 0.689105 0.276699
O O1 0.597332 0.775892 0.194437
O O2 0.655220 0.697208 0.173206
O O3 0.635510 0.000000 0.172898
O O4 0.500000 0.826435 0.000000
O O5 0.809898 0.500000 0.917624
O O6 0.756641 0.261096 0.802572
O O7 0.750975 0.256313 0.898247
O O8 0.908960 0.258567 0.041166
O O9 0.750713 0.234565 0.592258
O O10 0.913297 0.239347 0.723320
O O11 0.857290 0.000000 0.710578
O O12 0.690883 0.243844 0.620815
O O13 0.721200 0.000000 0.713687
O O14 0.171540 0.500000 0.540350
O O15 0.074566 0.742274 0.407115
O O16 0.997805 0.500000 0.178701
O O17 0.960767 0.273315 0.198103
O O18 0.707580 0.500000 0.899604
O O19 0.600359 0.739448 0.778159
O O20 0.750000 0.750000 0.000000
O O21 0.972852 0.500000 0.277234
#
# Coordination Sequence:
#
# PCOD9179063 Si02
#       8
#     8   8   8   8   8   8   8   8
#     4  10  19  31  48  71 103 145 186 227 277 331
#     4  10  21  37  55  81 115 146 178 222 279 341
#     4  10  20  33  50  77 110 146 187 232 271 320
#     4  10  20  34  54  81 108 143 186 229 272 322
#     4   8  18  37  57  77 110 149 189 229 274 325
#     4  10  20  34  53  80 111 146 185 225 282 339
#     4  11  22  39  61  87 115 143 180 227 280 337
#     4  10  20  39  62  81 107 149 187 229 281 333
#
# _framework density 19.220548000000001
#
# number of rings (size 3 to 8) (size 9 to 14) (size 15 to 20)
#    0.000    2.125    1.250    3.000    0.000    6.500 
#    0.000    4.375    0.000    3.750    0.000    0.000 
#    0.000    0.000    0.000    0.000    0.000    0.000 
#
# Total GULP energy -178346.292194 kJ/mol
# GULP energy per Si atom -5573.321631 kJ/mol
# Density = 1.917680 g / cm^3
# Si number density = 19.220548 Si / 1000 Ang^3
#
#
#
# Elastic Constant Matrix: (Units=GPa)
#
#
# Indices 1 2 3 4 5 6 
#
# 1 85.0626 4.3698 23.6916 0.0000 9.7587 0.0000
# 2 4.3698 16.3091 14.1154 0.0000 3.1027 0.0000
# 3 23.6916 14.1154 77.6384 0.0000 23.7049 0.0000
# 4 0.0000 0.0000 0.0000 -2.7884 0.0000 35.7857
# 5 9.7587 3.1027 23.7049 0.0000 18.7541 0.0000
# 6 0.0000 0.0000 0.0000 35.7857 0.0000 -12.5691
#
#
#
# Elastic Compliance Matrix: (Units=1/GPa)
#
#
# Indices 1 2 3 4 5 6 
#
# 1 0.012941 -0.000311 -0.003016 0.000000 -0.002870 0.000000
# 2 -0.000311 0.073449 -0.015630 0.000000 0.007767 0.000000
# 3 -0.003016 -0.015630 0.025035 0.000000 -0.027489 0.000000
# 4 0.000000 0.000000 0.000000 0.010091 0.000000 0.028730
# 5 -0.002870 0.007767 -0.027489 0.000000 0.088276 0.000000
# 6 0.000000 0.000000 0.000000 0.028730 0.000000 0.002239
#
#
# Mechanical properties :
#
#
# Convention : Reuss Voigt Hill
#
# Bulk Modulus (GPa) = 13.60340 29.26262 21.43301
# Shear Modulus (GPa) = 18.21826 9.80155 14.00991
#
# Velocity S-wave (km/s) = 3.08206 2.26066 2.70275
# Velocity P-wave (km/s) = 4.44504 4.69807 4.57330
#
# Compressibility (1/GPa) = 0.07351104
#
# Stress axis : x y z
#
# Youngs Moduli (GPa) = 77.27158 13.61488 39.94337
#
# Poissons Ratio (x) = 0.00423 0.12048
# Poissons Ratio (y) = 0.02402 0.62433
# Poissons Ratio (z) = 0.23307 0.21280
#
# Static dielectric constant tensor:
#      x y z
#    x 1.615810 0.000000 0.062630 
#    y 0.000000 1.673970 0.000000 
#    z 0.062630 0.000000 1.633430 
# 
# From -- ./inp_files/353495.got.cif
#   From: 2010.05.17/outbox.cif.g08.bks.cpg/sg12_177_cif.got.tgz:353495.got - 2010.06.03 13:09:07.
