data_PCOD9179463
_publ_section_title
;
Structure prediction by ZEFSAII (Michael W. Deem and Ramdas Pophale) SiO2 
 PCOD9179463
Probable space group: C 2/M
;
_chemical_formula_sum "Si O2"
_cell_formula_units_Z 48
_cell_length_a 15.268390
_cell_length_b 9.078229
_cell_length_c 15.773681
_cell_angle_alpha 90.000000
_cell_angle_beta 88.408572
_cell_angle_gamma 90.000000
_cell_volume 2185.545660
_symmetry_space_group_name_H-M "C 2/M"
_symmetry_group_IT_number 12
_symmetry_cell_setting 'monoclinic'
loop_
_space_group_symop_operation_xyz
x,y,z
-x,y,-z
-x,-y,-z
x,-y,z
1/2+x,1/2+y,z
1/2-x,1/2+y,-z
1/2-x,1/2-y,-z
1/2+x,1/2-y,z
loop_
_atom_site_type_symbol
_atom_site_label
_atom_site_fract_x
_atom_site_fract_y
_atom_site_fract_z
Si Si1 0.846728 0.668263 0.875622
Si Si2 0.294177 0.172927 0.699695
Si Si3 0.601193 0.330842 0.964495
Si Si4 0.453847 0.833832 0.194743
Si Si5 0.343959 0.821450 0.521441
Si Si6 0.406561 0.671355 0.360424
O O1 0.816758 0.500000 0.891328
O O2 0.803321 0.738117 0.792899
O O3 0.843242 0.759734 0.961629
O O4 0.948938 0.660139 0.846492
O O5 0.354810 0.224345 0.619698
O O6 0.194585 0.180631 0.670048
O O7 0.316343 0.000000 0.710555
O O8 0.623297 0.500000 0.949297
O O9 0.500000 0.326353 0.000000
O O10 0.603916 0.243859 0.876124
O O11 0.457659 0.744165 0.281637
O O12 0.423389 0.000000 0.212549
O O13 0.250000 0.750000 0.500000
O O14 0.409110 0.759306 0.448737
O O15 0.339675 0.000000 0.517624
O O16 0.427858 0.500000 0.372335
#
# Coordination Sequence:
#
# PCOD9179463 Si02
#       6
#     8   8   8   8   8   8
#     4   9  17  32  52  72  94 121 158 198 234 277
#     4   8  16  31  51  72  93 122 158 196 235 275
#     4   9  17  30  48  70  96 125 156 190 232 283
#     4  10  19  31  50  73  95 123 158 196 236 279
#     4   9  16  29  49  71  95 125 161 195 232 280
#     4  10  19  32  50  71  97 127 159 196 236 279
#
# _framework density 21.962479999999999
#
# number of rings (size 3 to 8) (size 9 to 14) (size 15 to 20)
#    0.000    2.833    0.000    3.000    0.000    2.667 
#    0.000    6.667    0.000    5.000    0.000    0.000 
#    0.000    0.000    0.000    0.000    0.000    0.000 
#
# Total GULP energy -133932.804493 kJ/mol
# GULP energy per Si atom -5580.533521 kJ/mol
# Density = 2.191249 g / cm^3
# Si number density = 21.962480 Si / 1000 Ang^3
#
#
#
# Elastic Constant Matrix: (Units=GPa)
#
#
# Indices 1 2 3 4 5 6 
#
# 1 20.0167 28.8759 82.5310 0.0000 -8.6048 0.0000
# 2 28.8759 105.6340 31.6519 0.0000 -0.1137 0.0000
# 3 82.5310 31.6519 56.6576 0.0000 14.2151 0.0000
# 4 0.0000 0.0000 0.0000 32.3893 0.0000 -3.5233
# 5 -8.6048 -0.1137 14.2151 0.0000 34.4420 0.0000
# 6 0.0000 0.0000 0.0000 -3.5233 0.0000 0.4193
#
#
#
# Elastic Compliance Matrix: (Units=1/GPa)
#
#
# Indices 1 2 3 4 5 6 
#
# 1 -0.007394 -0.002143 0.013870 0.000000 -0.007579 0.000000
# 2 -0.002143 0.011027 -0.003251 0.000000 0.000843 0.000000
# 3 0.013870 -0.003251 -0.001789 0.000000 0.004193 0.000000
# 4 0.000000 0.000000 0.000000 0.359669 0.000000 3.022542
# 5 -0.007579 0.000843 0.004193 0.000000 0.025413 0.000000
# 6 0.000000 0.000000 0.000000 3.022542 0.000000 27.785596
#
#
# Mechanical properties :
#
#
# Convention : Reuss Voigt Hill
#
# Bulk Modulus (GPa) = 53.20290 52.04732 52.62511
# Shear Modulus (GPa) = 0.17755 16.06675 8.12215
#
# Velocity S-wave (km/s) = 0.28463 2.70766 1.92515
# Velocity P-wave (km/s) = 4.93812 5.79008 5.38099
#
# Compressibility (1/GPa) = 0.01879597
#
# Stress axis : x y z
#
# Youngs Moduli (GPa) = -135.23843 90.68405 -558.85498
#
# Poissons Ratio (x) = 0.19431 7.75108
# Poissons Ratio (y) = -0.28977 -1.81666
# Poissons Ratio (z) = 1.87570 0.29478
#
# Static dielectric constant tensor:
#      x y z
#    x 1.891110 0.000000 -0.011890 
#    y 0.000000 1.754210 0.000000 
#    z -0.011890 0.000000 1.822830 
# 
# From -- ./inp_files/172338.got.cif
#   From: 2010.05.17/outbox.cif.g08.bks.cpg/sg12_87_cif.got.tgz:172338.got - 2010.06.03 13:09:07.
