data_PCOD9179764
_publ_section_title
;
Structure prediction by ZEFSAII (Michael W. Deem and Ramdas Pophale) SiO2 
 PCOD9179764
Probable space group: C 2/M
;
_chemical_formula_sum "Si O2"
_cell_formula_units_Z 48
_cell_length_a 28.215979
_cell_length_b 8.915290
_cell_length_c 11.441113
_cell_angle_alpha 90.000000
_cell_angle_beta 78.314385
_cell_angle_gamma 90.000000
_cell_volume 2818.402146
_symmetry_space_group_name_H-M "C 2/M"
_symmetry_group_IT_number 12
_symmetry_cell_setting 'monoclinic'
loop_
_space_group_symop_operation_xyz
x,y,z
-x,y,-z
-x,-y,-z
x,-y,z
1/2+x,1/2+y,z
1/2-x,1/2+y,-z
1/2-x,1/2-y,-z
1/2+x,1/2-y,z
loop_
_atom_site_type_symbol
_atom_site_label
_atom_site_fract_x
_atom_site_fract_y
_atom_site_fract_z
Si Si1 0.823748 0.178508 0.911124
Si Si2 0.890290 0.322226 0.460402
Si Si3 0.410754 0.178111 0.725705
Si Si4 0.293917 0.679083 0.404973
Si Si5 0.778495 0.678416 0.160763
Si Si6 0.489526 0.327127 0.365556
O O1 0.871275 0.244159 0.827087
O O2 0.777155 0.205096 0.850829
O O3 0.827904 0.000000 0.926414
O O4 0.811195 0.259023 0.039079
O O5 0.885280 0.500000 0.443305
O O6 0.895667 0.297622 0.597400
O O7 0.844025 0.235900 0.435193
O O8 0.939393 0.261064 0.376884
O O9 0.464060 0.247909 0.714183
O O10 0.411958 0.000000 0.745009
O O11 0.291041 0.500000 0.410636
O O12 0.250000 0.750000 0.500000
O O13 0.289635 0.737669 0.274920
O O14 0.785254 0.500000 0.170923
O O15 0.500000 0.326575 0.500000
O O16 0.485071 0.500000 0.330684
#
# Coordination Sequence:
#
# PCOD9179764 Si02
#       6
#     8   8   8   8   8   8
#     4  10  20  34  54  78 104 135 172 215 259 305
#     4  10  20  34  52  76 107 140 174 213 259 308
#     4  10  19  31  51  78 106 137 174 215 258 305
#     4  12  24  37  54  77 106 139 175 212 255 307
#     4  10  21  37  55  76 104 137 173 213 259 307
#     4   9  17  30  49  74 104 136 171 213 260 306
#
# _framework density 17.030926000000001
#
# number of rings (size 3 to 8) (size 9 to 14) (size 15 to 20)
#    0.000    1.833    0.000    5.000    0.000    8.667 
#    0.000    0.000    0.000    1.000    0.000    7.000 
#    0.000    0.000    0.000    0.000    0.000    0.000 
#
# Total GULP energy -134047.652947 kJ/mol
# GULP energy per Si atom -5585.318873 kJ/mol
# Density = 1.699216 g / cm^3
# Si number density = 17.030926 Si / 1000 Ang^3
#
#
#
# Elastic Constant Matrix: (Units=GPa)
#
#
# Indices 1 2 3 4 5 6 
#
# 1 135.2080 86.8968 70.2350 0.0000 -30.2109 0.0000
# 2 86.8968 138.0169 67.3047 0.0000 -10.4957 0.0000
# 3 70.2350 67.3047 74.7612 0.0000 -19.3457 0.0000
# 4 0.0000 0.0000 0.0000 30.5842 0.0000 -4.7588
# 5 -30.2109 -10.4957 -19.3457 0.0000 33.2192 0.0000
# 6 0.0000 0.0000 0.0000 -4.7588 0.0000 33.7150
#
#
#
# Elastic Compliance Matrix: (Units=1/GPa)
#
#
# Indices 1 2 3 4 5 6 
#
# 1 0.018271 -0.006422 -0.008958 0.000000 0.009370 0.000000
# 2 -0.006422 0.015463 -0.009578 0.000000 -0.006533 0.000000
# 3 -0.008958 -0.009578 0.032406 0.000000 0.007700 0.000000
# 4 0.000000 0.000000 0.000000 0.033431 0.000000 0.004719
# 5 0.009370 -0.006533 0.007700 0.000000 0.041044 0.000000
# 6 0.000000 0.000000 0.000000 0.004719 0.000000 0.030326
#
#
# Mechanical properties :
#
#
# Convention : Reuss Voigt Hill
#
# Bulk Modulus (GPa) = 61.63760 88.53990 75.08875
# Shear Modulus (GPa) = 22.09801 27.74031 24.91916
#
# Velocity S-wave (km/s) = 3.60602 4.04024 3.82929
# Velocity P-wave (km/s) = 7.32175 8.59449 7.98352
#
# Compressibility (1/GPa) = 0.01622386
#
# Stress axis : x y z
#
# Youngs Moduli (GPa) = 54.73301 64.67140 30.85830
#
# Poissons Ratio (x) = 0.41534 0.27643
# Poissons Ratio (y) = 0.35151 0.29555
# Poissons Ratio (z) = 0.49030 0.61939
#
# Static dielectric constant tensor:
#      x y z
#    x 1.556590 0.000000 0.001060 
#    y 0.000000 1.564270 0.000000 
#    z 0.001060 0.000000 1.548600 
# 
# From -- ./inp_files/172112.got.cif
#   From: 2010.05.17/outbox.cif.g08.bks.cpg/sg12_87_cif.got.tgz:172112.got - 2010.06.03 13:09:07.
