data_PCOD9179399
_publ_section_title
;
Structure prediction by ZEFSAII (Michael W. Deem and Ramdas Pophale) SiO2 
 PCOD9179399
Probable space group: C 2/M
;
_chemical_formula_sum "Si O2"
_cell_formula_units_Z 56
_cell_length_a 26.200495
_cell_length_b 7.539586
_cell_length_c 13.920952
_cell_angle_alpha 90.000000
_cell_angle_beta 66.978570
_cell_angle_gamma 90.000000
_cell_volume 2530.946869
_symmetry_space_group_name_H-M "C 2/M"
_symmetry_group_IT_number 12
_symmetry_cell_setting 'monoclinic'
loop_
_space_group_symop_operation_xyz
x,y,z
-x,y,-z
-x,-y,-z
x,-y,z
1/2+x,1/2+y,z
1/2-x,1/2+y,-z
1/2-x,1/2-y,-z
1/2+x,1/2-y,z
loop_
_atom_site_type_symbol
_atom_site_label
_atom_site_fract_x
_atom_site_fract_y
_atom_site_fract_z
Si Si1 0.457635 0.702229 0.606193
Si Si2 0.310188 0.288766 0.412135
Si Si3 0.781173 0.297825 0.819376
Si Si4 0.659001 0.703412 0.412971
Si Si5 0.607635 0.792500 0.161536
Si Si6 0.829302 0.784118 0.182723
Si Si7 0.557488 0.209449 0.001868
O O1 0.500000 0.787764 0.500000
O O2 0.477097 0.500000 0.611271
O O3 0.400616 0.697453 0.590121
O O4 0.438790 0.781687 0.721037
O O5 0.318428 0.500000 0.396973
O O6 0.250000 0.250000 0.500000
O O7 0.346634 0.224218 0.475187
O O8 0.318101 0.218582 0.299484
O O9 0.774520 0.500000 0.857978
O O10 0.802336 0.300458 0.692618
O O11 0.833096 0.218110 0.841604
O O12 0.719371 0.219283 0.854379
O O13 0.680133 0.500000 0.402637
O O14 0.581137 0.713811 0.084784
O O15 0.618751 0.000000 0.135801
O O16 0.826142 0.000000 0.183529
O O17 0.890680 0.730184 0.107340
O O18 0.547274 0.000000 0.026864
O O19 0.500000 0.281741 0.000000
#
# Coordination Sequence:
#
# PCOD9179399 Si02
#       7
#     8   8   8   8   8   8   8
#     4   9  18  32  51  78 108 137 173 216 261 312
#     4  10  19  31  49  76 110 142 172 209 257 314
#     4   9  17  32  53  79 108 133 166 215 268 320
#     4   9  17  29  47  73 106 141 172 207 254 310
#     4   9  19  36  57  77 103 140 177 220 270 316
#     4  10  21  35  54  82 111 140 178 223 270 321
#     4  10  23  42  58  75 104 142 186 230 267 314
#
# _framework density 22.126107000000001
#
# number of rings (size 3 to 8) (size 9 to 14) (size 15 to 20)
#    0.000    2.571    1.429    0.000    0.000    4.000 
#    0.000    1.429    0.000    0.000    0.000    0.000 
#    0.000    0.000    0.000    0.000    0.000    0.000 
#
# Total GULP energy -155985.062487 kJ/mol
# GULP energy per Si atom -5570.895089 kJ/mol
# Density = 2.207575 g / cm^3
# Si number density = 22.126107 Si / 1000 Ang^3
#
#
#
# Elastic Constant Matrix: (Units=GPa)
#
#
# Indices 1 2 3 4 5 6 
#
# 1 141.1809 6.6640 82.9664 0.0000 7.5534 0.0000
# 2 6.6640 53.7239 -12.9025 0.0000 7.5871 0.0000
# 3 82.9664 -12.9025 111.1453 0.0000 16.1546 0.0000
# 4 0.0000 0.0000 0.0000 17.6899 0.0000 -7.7559
# 5 7.5534 7.5871 16.1546 0.0000 40.2512 0.0000
# 6 0.0000 0.0000 0.0000 -7.7559 0.0000 8.5708
#
#
#
# Elastic Compliance Matrix: (Units=1/GPa)
#
#
# Indices 1 2 3 4 5 6 
#
# 1 0.013769 -0.004810 -0.011249 0.000000 0.002838 0.000000
# 2 -0.004810 0.021735 0.006986 0.000000 -0.005998 0.000000
# 3 -0.011249 0.006986 0.019210 0.000000 -0.006916 0.000000
# 4 0.000000 0.000000 0.000000 0.093709 0.000000 0.084799
# 5 0.002838 -0.005998 -0.006916 0.000000 0.028218 0.000000
# 6 0.000000 0.000000 0.000000 0.084799 0.000000 0.193412
#
#
# Mechanical properties :
#
#
# Convention : Reuss Voigt Hill
#
# Bulk Modulus (GPa) = 27.34689 51.05624 39.20156
# Shear Modulus (GPa) = 12.48786 28.59050 20.53918
#
# Velocity S-wave (km/s) = 2.37828 3.59856 3.05007
# Velocity P-wave (km/s) = 4.46408 6.35542 5.49179
#
# Compressibility (1/GPa) = 0.03656723
#
# Stress axis : x y z
#
# Youngs Moduli (GPa) = 72.62781 46.00864 52.05560
#
# Poissons Ratio (x) = 0.22131 0.58556
# Poissons Ratio (y) = 0.34935 -0.36364
# Poissons Ratio (z) = 0.81698 -0.32140
#
# Static dielectric constant tensor:
#      x y z
#    x 1.888360 0.000000 0.051700 
#    y 0.000000 1.906120 0.000000 
#    z 0.051700 0.000000 1.837740 
# 
# From -- ./inp_files/237329.got.cif
#   From: 2010.05.17/outbox.cif.g08.bks.cpg/sg12_119_cif.got.tgz:237329.got - 2010.06.03 13:09:07.
