data_PCOD9179798
_publ_section_title
;
Structure prediction by ZEFSAII (Michael W. Deem and Ramdas Pophale) SiO2 
 PCOD9179798
Probable space group: C 2/M
;
_chemical_formula_sum "Si O2"
_cell_formula_units_Z 56
_cell_length_a 19.362800
_cell_length_b 8.928866
_cell_length_c 28.126378
_cell_angle_alpha 90.000000
_cell_angle_beta 39.842222
_cell_angle_gamma 90.000000
_cell_volume 3115.419365
_symmetry_space_group_name_H-M "C 2/M"
_symmetry_group_IT_number 12
_symmetry_cell_setting 'monoclinic'
loop_
_space_group_symop_operation_xyz
x,y,z
-x,y,-z
-x,-y,-z
x,-y,z
1/2+x,1/2+y,z
1/2-x,1/2+y,-z
1/2-x,1/2-y,-z
1/2+x,1/2-y,z
loop_
_atom_site_type_symbol
_atom_site_label
_atom_site_fract_x
_atom_site_fract_y
_atom_site_fract_z
Si Si1 0.098446 0.675538 0.542911
Si Si2 0.388133 0.822010 0.084357
Si Si3 0.811131 0.675147 0.397054
Si Si4 0.364914 0.176514 0.208607
Si Si5 0.025190 0.823190 0.762506
Si Si6 0.163690 0.321934 0.193061
Si Si7 0.120815 0.179035 0.318854
O O1 0.096188 0.500000 0.532132
O O2 0.135288 0.688183 0.578858
O O3 0.190610 0.760944 0.464966
O O4 0.981020 0.748704 0.601319
O O5 0.393501 0.798110 0.138290
O O6 0.285996 0.729958 0.119816
O O7 0.367499 0.000000 0.088139
O O8 0.500000 0.783540 0.000000
O O9 0.810679 0.500000 0.384215
O O10 0.882719 0.767521 0.322591
O O11 0.435074 0.274725 0.206686
O O12 0.237030 0.208995 0.281107
O O13 0.380900 0.000000 0.210555
O O14 0.916651 0.739371 0.804261
O O15 0.010465 0.000000 0.766341
O O16 0.155242 0.500000 0.201638
O O17 0.128291 0.247586 0.261896
O O18 0.107708 0.000000 0.322066
#
# Coordination Sequence:
#
# PCOD9179798 Si02
#       7
#     8   8   8   8   8   8   8
#     4  10  19  31  51  79 109 143 185 234 280 326
#     4   9  19  39  65  90 115 144 179 221 270 326
#     4  10  20  33  51  76 109 146 183 232 284 327
#     4   9  20  37  57  82 113 146 179 221 276 331
#     4  12  23  36  55  80 112 148 188 231 275 327
#     4  11  21  34  56  84 113 146 185 227 270 323
#     4  10  19  34  56  80 108 145 188 233 277 328
#
# _framework density 17.975107000000001
#
# number of rings (size 3 to 8) (size 9 to 14) (size 15 to 20)
#    0.000    1.857    1.429    4.714    0.000    4.286 
#    0.000    1.429    0.000    4.286    0.000    0.000 
#    0.000    0.000    0.000    0.000    0.000    0.000 
#
# Total GULP energy -156412.465914 kJ/mol
# GULP energy per Si atom -5586.159497 kJ/mol
# Density = 1.793420 g / cm^3
# Si number density = 17.975107 Si / 1000 Ang^3
#
#
#
# Elastic Constant Matrix: (Units=GPa)
#
#
# Indices 1 2 3 4 5 6 
#
# 1 73.3352 47.6288 25.2155 0.0000 -17.8728 0.0001
# 2 47.6288 87.4845 26.4661 0.0001 -13.0880 0.0001
# 3 25.2155 26.4661 79.2126 0.0000 -23.2891 0.0000
# 4 0.0000 0.0001 0.0000 27.9546 0.0000 -4.2827
# 5 -17.8728 -13.0880 -23.2891 0.0000 16.6854 0.0000
# 6 0.0001 0.0001 0.0000 -4.2827 0.0000 29.3276
#
#
#
# Elastic Compliance Matrix: (Units=1/GPa)
#
#
# Indices 1 2 3 4 5 6 
#
# 1 0.025429 -0.011263 0.001830 0.000000 0.020959 0.000000
# 2 -0.011263 0.018184 -0.003127 0.000000 -0.002165 0.000000
# 3 0.001830 -0.003127 0.021949 0.000000 0.030143 0.000000
# 4 0.000000 0.000000 0.000000 0.036591 0.000000 0.005343
# 5 0.020959 -0.002165 0.030143 0.000000 0.122759 0.000000
# 6 0.000000 0.000000 0.000000 0.005343 0.000000 0.034878
#
#
# Mechanical properties :
#
#
# Convention : Reuss Voigt Hill
#
# Bulk Modulus (GPa) = 24.72542 48.73924 36.73233
# Shear Modulus (GPa) = 16.75663 24.17500 20.46582
#
# Velocity S-wave (km/s) = 3.05653 3.67129 3.37792
# Velocity P-wave (km/s) = 5.12267 6.71899 5.97439
#
# Compressibility (1/GPa) = 0.04044421
#
# Stress axis : x y z
#
# Youngs Moduli (GPa) = 39.32452 54.99246 45.56088
#
# Poissons Ratio (x) = 0.61935 -0.08339
# Poissons Ratio (y) = 0.44289 0.14246
# Poissons Ratio (z) = -0.07198 0.17196
#
# Static dielectric constant tensor:
#      x y z
#    x 1.610960 0.000000 -0.004390 
#    y 0.000000 1.595810 0.000000 
#    z -0.004390 0.000000 1.600800 
# 
# From -- ./inp_files/362973.got.cif
#   From: 2010.05.17/outbox.cif.g08.bks.cpg/sg12_182_cif.got.tgz:362973.got - 2010.06.03 13:09:07.
