data_PCOD9179388
_publ_section_title
;
Structure prediction by ZEFSAII (Michael W. Deem and Ramdas Pophale) SiO2 
 PCOD9179388
Probable space group: C 2/M
;
_chemical_formula_sum "Si O2"
_cell_formula_units_Z 50
_cell_length_a 30.086626
_cell_length_b 9.082479
_cell_length_c 12.369396
_cell_angle_alpha 90.000000
_cell_angle_beta 37.855191
_cell_angle_gamma 90.000000
_cell_volume 2074.243741
_symmetry_space_group_name_H-M "C 2/M"
_symmetry_group_IT_number 12
_symmetry_cell_setting 'monoclinic'
loop_
_space_group_symop_operation_xyz
x,y,z
-x,y,-z
-x,-y,-z
x,-y,z
1/2+x,1/2+y,z
1/2-x,1/2+y,-z
1/2-x,1/2-y,-z
1/2+x,1/2-y,z
loop_
_atom_site_type_symbol
_atom_site_label
_atom_site_fract_x
_atom_site_fract_y
_atom_site_fract_z
Si Si1 0.370553 0.836402 0.140537
Si Si2 0.000000 0.500000 0.000000
Si Si3 0.042320 0.837070 0.651802
Si Si4 0.168587 0.166868 0.225804
Si Si5 0.438694 0.835547 0.712827
Si Si6 0.333763 0.674979 0.427582
Si Si7 0.230878 0.175878 0.805621
O O1 0.333894 0.756337 0.313529
O O2 0.346370 0.741031 0.083770
O O3 0.338858 0.000000 0.182636
O O4 0.451194 0.873935 0.027723
O O5 0.106100 0.838219 0.438968
O O6 0.085242 0.812192 0.679074
O O7 0.984865 0.717814 0.725921
O O8 0.008571 0.000000 0.715877
O O9 0.124348 0.231454 0.210087
O O10 0.232175 0.264809 0.155206
O O11 0.193198 0.000000 0.160010
O O12 0.500000 0.838791 0.500000
O O13 0.410531 0.000000 0.782700
O O14 0.318557 0.500000 0.448530
O O15 0.283813 0.758633 0.610322
O O16 0.230525 0.000000 0.805562
#
# Coordination Sequence:
#
# PCOD9179388 Si02
#       7
#     8   2   8   8   8   8   8
#     4  10  20  37  53  69  93 128 164 206 246 297
#     4   8  24  40  58  68  92 136 166 210 244 288
#     4   8  15  25  37  57  90 130 166 194 233 288
#     4   9  16  26  39  59  91 133 169 198 237 290
#     4   9  15  22  34  54  87 131 171 198 228 280
#     4  10  19  31  49  76 104 133 165 205 252 299
#     4  11  20  30  48  76 104 132 164 206 253 299
#
# _framework density 24.105172
#
# number of rings (size 3 to 8) (size 9 to 14) (size 15 to 20)
#    0.480    2.080    0.000    4.800    0.000    6.400 
#    0.000    1.600    0.000    0.000    0.000    0.000 
#    0.000    1.280    0.640    0.000    0.000    0.000 
#
# Total GULP energy -139464.440651 kJ/mol
# GULP energy per Si atom -5578.577626 kJ/mol
# Density = 2.405031 g / cm^3
# Si number density = 24.105172 Si / 1000 Ang^3
#
#
#
# Elastic Constant Matrix: (Units=GPa)
#
#
# Indices 1 2 3 4 5 6 
#
# 1 148.9136 74.1264 16.7645 0.0000 -15.7068 0.0000
# 2 74.1264 190.8716 32.5840 0.0000 -26.5525 0.0000
# 3 16.7645 32.5840 78.1347 0.0000 -10.5986 0.0000
# 4 0.0000 0.0000 0.0000 8.7093 0.0000 -21.5853
# 5 -15.7068 -26.5525 -10.5986 0.0000 37.1797 0.0000
# 6 0.0000 0.0000 0.0000 -21.5853 0.0000 47.1252
#
#
#
# Elastic Compliance Matrix: (Units=1/GPa)
#
#
# Indices 1 2 3 4 5 6 
#
# 1 0.008395 -0.003019 -0.000368 0.000000 0.001286 0.000000
# 2 -0.003019 0.007199 -0.001904 0.000000 0.003323 0.000000
# 3 -0.000368 -0.001904 0.014007 0.000000 0.002478 0.000000
# 4 0.000000 0.000000 0.000000 -0.849078 0.000000 -0.388914
# 5 0.001286 0.003323 0.002478 0.000000 0.030519 0.000000
# 6 0.000000 0.000000 0.000000 -0.388914 0.000000 -0.156919
#
#
# Mechanical properties :
#
#
# Convention : Reuss Voigt Hill
#
# Bulk Modulus (GPa) = 52.57424 73.87442 63.22433
# Shear Modulus (GPa) = -5.38238 38.23249 16.42505
#
# Velocity S-wave (km/s) = -1.49590 3.98687 2.61318
# Velocity P-wave (km/s) = 4.34443 7.20463 5.94898
#
# Compressibility (1/GPa) = 0.01902072
#
# Stress axis : x y z
#
# Youngs Moduli (GPa) = 119.11950 138.91489 71.39115
#
# Poissons Ratio (x) = 0.41932 0.02627
# Poissons Ratio (y) = 0.35957 0.13590
# Poissons Ratio (z) = 0.04383 0.26444
#
# Static dielectric constant tensor:
#      x y z
#    x 1.890280 0.000000 0.033890 
#    y 0.000000 1.817890 0.000000 
#    z 0.033890 0.000000 2.006970 
# 
# From -- ./inp_files/294754.got.cif
#   From: 2010.05.17/outbox.cif.g08.bks.cpg/sg12_148_cif.got.tgz:294754.got - 2010.06.03 13:09:07.
