data_PCOD9179021
_publ_section_title
;
Structure prediction by ZEFSAII (Michael W. Deem and Ramdas Pophale) SiO2 
 PCOD9179021
Probable space group: C 2/M
;
_chemical_formula_sum "Si O2"
_cell_formula_units_Z 48
_cell_length_a 20.697363
_cell_length_b 7.644341
_cell_length_c 30.113427
_cell_angle_alpha 90.000000
_cell_angle_beta 149.007997
_cell_angle_gamma 90.000000
_cell_volume 2453.317115
_symmetry_space_group_name_H-M "C 2/M"
_symmetry_group_IT_number 12
_symmetry_cell_setting 'monoclinic'
loop_
_space_group_symop_operation_xyz
x,y,z
-x,y,-z
-x,-y,-z
x,-y,z
1/2+x,1/2+y,z
1/2-x,1/2+y,-z
1/2-x,1/2-y,-z
1/2+x,1/2-y,z
loop_
_atom_site_type_symbol
_atom_site_label
_atom_site_fract_x
_atom_site_fract_y
_atom_site_fract_z
Si Si1 0.612774 0.213573 0.732574
Si Si2 0.697980 0.701928 0.607387
Si Si3 0.213567 0.290730 0.928556
Si Si4 0.026857 0.701979 0.586159
Si Si5 0.033136 0.713840 0.266016
Si Si6 0.639428 0.713942 0.070615
O O1 0.572380 0.274250 0.660122
O O2 0.515134 0.266289 0.713591
O O3 0.751526 0.267246 0.830601
O O4 0.614651 0.000000 0.732774
O O5 0.717122 0.500000 0.631113
O O6 0.593220 0.709463 0.507136
O O7 0.637237 0.790437 0.614659
O O8 0.829762 0.774751 0.667692
O O9 0.210560 0.500000 0.922622
O O10 0.312493 0.228865 0.949658
O O11 0.075613 0.229410 0.832222
O O12 0.250000 0.250000 0.000000
O O13 0.991371 0.500000 0.571775
O O14 0.036667 0.500000 0.268591
O O15 0.637076 0.500000 0.069501
O O16 0.500000 0.774372 0.000000
#
# Coordination Sequence:
#
# PCOD9179021 Si02
#       6
#     8   8   8   8   8   8
#     4   8  15  28  45  65  90 119 150 186 227 266
#     4  10  19  32  49  66  90 124 157 184 218 275
#     4   9  17  30  48  69  94 121 151 188 227 268
#     4  10  19  31  48  70  95 117 145 192 238 268
#     4   8  16  31  48  66  90 123 157 186 221 269
#     4   8  14  26  45  68  91 117 151 186 220 265
#
# _framework density 19.565346999999999
#
# number of rings (size 3 to 8) (size 9 to 14) (size 15 to 20)
#    0.000    3.167    0.000    4.000    0.000    2.000 
#    0.000    3.333    0.000   11.500    0.000    0.000 
#    0.000    0.000    0.000    0.000    0.000    0.000 
#
# Total GULP energy -133801.046801 kJ/mol
# GULP energy per Si atom -5575.043617 kJ/mol
# Density = 1.952082 g / cm^3
# Si number density = 19.565347 Si / 1000 Ang^3
#
#
#
# Elastic Constant Matrix: (Units=GPa)
#
#
# Indices 1 2 3 4 5 6 
#
# 1 149.3843 -4.9976 133.9137 -0.0001 3.7746 0.0000
# 2 -4.9976 34.8558 -5.0742 -0.0002 1.9577 0.0010
# 3 133.9137 -5.0742 145.3963 0.0000 0.3161 -0.0001
# 4 -0.0001 -0.0002 0.0000 12.3853 0.0000 -5.9933
# 5 3.7746 1.9577 0.3161 0.0000 48.8699 0.0000
# 6 0.0000 0.0010 -0.0001 -5.9933 0.0000 10.4495
#
#
#
# Elastic Compliance Matrix: (Units=1/GPa)
#
#
# Indices 1 2 3 4 5 6 
#
# 1 0.038772 0.000520 -0.035686 0.000000 -0.002785 0.000000
# 2 0.000520 0.028909 0.000532 -0.000001 -0.001202 -0.000003
# 3 -0.035686 0.000532 0.039758 0.000000 0.002478 0.000000
# 4 0.000000 -0.000001 0.000000 0.111758 0.000000 0.064098
# 5 -0.002785 -0.001202 0.002478 0.000000 0.020710 0.000000
# 6 0.000000 -0.000003 0.000000 0.064098 0.000000 0.132461
#
#
# Mechanical properties :
#
#
# Convention : Reuss Voigt Hill
#
# Bulk Modulus (GPa) = 26.19629 64.14668 45.17148
# Shear Modulus (GPa) = 11.00451 28.06057 19.53254
#
# Velocity S-wave (km/s) = 2.37417 3.79119 3.16305
# Velocity P-wave (km/s) = 4.57535 7.21257 6.03966
#
# Compressibility (1/GPa) = 0.03817335
#
# Stress axis : x y z
#
# Youngs Moduli (GPa) = 25.79192 34.59105 25.15198
#
# Poissons Ratio (x) = -0.01800 0.89756
# Poissons Ratio (y) = -0.01342 -0.01339
# Poissons Ratio (z) = 0.92040 -0.01841
#
# Static dielectric constant tensor:
#      x y z
#    x 1.669270 0.000000 0.001570 
#    y 0.000000 1.722340 0.000000 
#    z 0.001570 0.000000 1.669410 
# 
# From -- ./inp_files/380259.got.cif
#   From: 2010.05.17/outbox.cif.g08.bks.cpg/sg12_191_cif.got.tgz:380259.got - 2010.06.03 13:09:07.
