data_PCOD9179238
_publ_section_title
;
Structure prediction by ZEFSAII (Michael W. Deem and Ramdas Pophale) SiO2 
 PCOD9179238
Probable space group: C 2/M
;
_chemical_formula_sum "Si O2"
_cell_formula_units_Z 48
_cell_length_a 14.487120
_cell_length_b 9.198856
_cell_length_c 16.248778
_cell_angle_alpha 90.000000
_cell_angle_beta 98.382505
_cell_angle_gamma 90.000000
_cell_volume 2142.259156
_symmetry_space_group_name_H-M "C 2/M"
_symmetry_group_IT_number 12
_symmetry_cell_setting 'monoclinic'
loop_
_space_group_symop_operation_xyz
x,y,z
-x,y,-z
-x,-y,-z
x,-y,z
1/2+x,1/2+y,z
1/2-x,1/2+y,-z
1/2-x,1/2-y,-z
1/2+x,1/2-y,z
loop_
_atom_site_type_symbol
_atom_site_label
_atom_site_fract_x
_atom_site_fract_y
_atom_site_fract_z
Si Si1 0.880136 0.669288 0.355567
Si Si2 0.899373 0.663726 0.028221
Si Si3 0.829182 0.664740 0.851230
Si Si4 0.847601 0.832121 0.694384
Si Si5 0.352371 0.323575 0.515195
Si Si6 0.892728 0.164897 0.194827
O O1 0.906005 0.500000 0.366380
O O2 0.766079 0.674331 0.330455
O O3 0.901843 0.759121 0.441195
O O4 0.919856 0.743632 0.278657
O O5 0.865151 0.500000 0.044457
O O6 0.839251 0.728104 0.944548
O O7 0.911012 0.756728 0.111221
O O8 0.000000 0.653495 0.000000
O O9 0.866610 0.500000 0.859795
O O10 0.874096 0.747299 0.780323
O O11 0.720013 0.656916 0.817936
O O12 0.887849 0.783677 0.611247
O O13 0.870510 0.000000 0.708485
O O14 0.346658 0.500000 0.509496
O O15 0.250000 0.250000 0.500000
O O16 0.928033 0.000000 0.201833
#
# Coordination Sequence:
#
# PCOD9179238 Si02
#       6
#     8   8   8   8   8   8
#     4   9  16  26  41  63  92 125 157 189 230 277
#     4  10  21  36  51  68  93 124 157 194 237 284
#     4   9  18  31  48  70  94 123 158 195 234 276
#     4   8  15  25  39  62  92 124 154 188 229 272
#     4   9  15  23  36  59  92 126 157 189 229 274
#     4  10  19  31  49  72  96 122 156 197 236 278
#
# _framework density 22.406253
#
# number of rings (size 3 to 8) (size 9 to 14) (size 15 to 20)
#    0.000    2.833    0.000    3.000    0.000    6.333 
#    0.000    0.000    0.000    0.000    0.000    1.167 
#    0.000    9.333    0.000    0.000    0.000    0.000 
#
# Total GULP energy -133968.608415 kJ/mol
# GULP energy per Si atom -5582.025351 kJ/mol
# Density = 2.235526 g / cm^3
# Si number density = 22.406253 Si / 1000 Ang^3
#
#
#
# Elastic Constant Matrix: (Units=GPa)
#
#
# Indices 1 2 3 4 5 6 
#
# 1 41.7318 7.3428 32.9307 0.0000 10.4946 0.0000
# 2 7.3428 127.2830 124.1339 0.0000 -16.2356 0.0000
# 3 32.9307 124.1339 255.2365 0.0000 -25.0690 0.0000
# 4 0.0000 0.0000 0.0000 47.6773 0.0000 -4.0888
# 5 10.4946 -16.2356 -25.0690 0.0000 35.1455 0.0000
# 6 0.0000 0.0000 0.0000 -4.0888 0.0000 -7.8312
#
#
#
# Elastic Compliance Matrix: (Units=1/GPa)
#
#
# Indices 1 2 3 4 5 6 
#
# 1 0.032275 0.003390 -0.007103 0.000000 -0.013138 0.000000
# 2 0.003390 0.015414 -0.007886 0.000000 0.000483 0.000000
# 3 -0.007103 -0.007886 0.009162 0.000000 0.005013 0.000000
# 4 0.000000 0.000000 0.000000 0.020075 0.000000 -0.010482
# 5 -0.013138 0.000483 0.005013 0.000000 0.036175 0.000000
# 6 0.000000 0.000000 0.000000 -0.010482 0.000000 -0.122221
#
#
# Mechanical properties :
#
#
# Convention : Reuss Voigt Hill
#
# Bulk Modulus (GPa) = 29.71631 83.67403 56.69517
# Shear Modulus (GPa) = 197.64277 32.32124 114.98200
#
# Velocity S-wave (km/s) = 9.40214 3.80216 7.17135
# Velocity P-wave (km/s) = 11.45244 7.52996 9.69171
#
# Compressibility (1/GPa) = 0.03365156
#
# Stress axis : x y z
#
# Youngs Moduli (GPa) = 30.98356 64.87669 109.14278
#
# Poissons Ratio (x) = -0.21991 0.77525
# Poissons Ratio (y) = -0.10502 0.86074
# Poissons Ratio (z) = 0.22008 0.51164
#
# Static dielectric constant tensor:
#      x y z
#    x 1.902020 0.000000 0.032650 
#    y 0.000000 1.793560 0.000000 
#    z 0.032650 0.000000 1.848540 
# 
# From -- ./inp_files/229305.got.cif
#   From: 2010.05.17/outbox.cif.g08.bks.cpg/sg12_115_cif.got.tgz:229305.got - 2010.06.03 13:09:07.
