data_PCOD9179908
_publ_section_title
;
Structure prediction by ZEFSAII (Michael W. Deem and Ramdas Pophale) SiO2 
 PCOD9179908
Probable space group: C 2/M
;
_chemical_formula_sum "Si O2"
_cell_formula_units_Z 40
_cell_length_a 20.559021
_cell_length_b 12.678249
_cell_length_c 22.791320
_cell_angle_alpha 90.000000
_cell_angle_beta 161.313678
_cell_angle_gamma 90.000000
_cell_volume 1903.294002
_symmetry_space_group_name_H-M "C 2/M"
_symmetry_group_IT_number 12
_symmetry_cell_setting 'monoclinic'
loop_
_space_group_symop_operation_xyz
x,y,z
-x,y,-z
-x,-y,-z
x,-y,z
1/2+x,1/2+y,z
1/2-x,1/2+y,-z
1/2-x,1/2-y,-z
1/2+x,1/2-y,z
loop_
_atom_site_type_symbol
_atom_site_label
_atom_site_fract_x
_atom_site_fract_y
_atom_site_fract_z
Si Si1 0.459852 0.776905 0.212644
Si Si2 0.761312 0.621391 0.337624
Si Si3 0.120847 0.125326 0.452464
Si Si4 0.630422 0.767541 0.688043
Si Si5 0.178796 0.115624 0.053178
O O1 0.656391 0.822758 0.347684
O O2 0.531596 0.682450 0.317466
O O3 0.376543 0.870337 0.183240
O O4 0.250000 0.750000 0.000000
O O5 0.786079 0.500000 0.338841
O O6 0.792341 0.703868 0.310683
O O7 0.941805 0.650078 0.535509
O O8 0.530441 0.629399 0.161378
O O9 0.972041 0.159076 0.379063
O O10 0.132055 0.000000 0.455680
O O11 0.804150 0.797853 0.881967
O O12 0.169818 0.000000 0.072966
#
# Coordination Sequence:
#
# PCOD9179908 Si02
#       5
#     8   8   8   8   8
#     4  10  21  38  58  80 107 141 182 225 269 323
#     4  10  19  32  53  80 108 139 177 223 271 317
#     4  10  22  38  56  80 111 144 179 223 273 325
#     4  10  19  33  51  73 107 140 173 215 264 319
#     4  10  19  31  52  79 104 133 171 219 272 319
#
# _framework density 21.016196999999998
#
# number of rings (size 3 to 8) (size 9 to 14) (size 15 to 20)
#    0.000    2.000    0.000    4.800    0.000    3.200 
#    0.000    8.000    0.000    9.600    0.000    0.000 
#    0.000    0.000    0.000    0.000    0.000    0.000 
#
# Total GULP energy -111375.716471 kJ/mol
# GULP energy per Si atom -5568.785824 kJ/mol
# Density = 2.096836 g / cm^3
# Si number density = 21.016197 Si / 1000 Ang^3
#
#
#
# Elastic Constant Matrix: (Units=GPa)
#
#
# Indices 1 2 3 4 5 6 
#
# 1 33.4692 21.7795 8.9483 0.0012 10.1229 -0.0016
# 2 21.7795 127.2879 37.2113 0.0066 7.7986 -0.0021
# 3 8.9483 37.2113 122.2560 0.0020 0.9158 -0.0054
# 4 0.0012 0.0066 0.0020 22.6016 0.0012 -0.0837
# 5 10.1229 7.7986 0.9158 0.0012 35.6710 -0.0009
# 6 -0.0016 -0.0021 -0.0054 -0.0837 -0.0009 14.3270
#
#
#
# Elastic Compliance Matrix: (Units=1/GPa)
#
#
# Indices 1 2 3 4 5 6 
#
# 1 0.036402 -0.005390 -0.000955 0.000000 -0.009127 0.000002
# 2 -0.005390 0.009541 -0.002506 -0.000002 -0.000492 0.000000
# 3 -0.000955 -0.002506 0.009008 0.000000 0.000588 0.000003
# 4 0.000000 -0.000002 0.000000 0.044246 -0.000001 0.000258
# 5 -0.009127 -0.000492 0.000588 -0.000001 0.030717 0.000001
# 6 0.000002 0.000000 0.000003 0.000258 0.000001 0.069800
#
#
# Mechanical properties :
#
#
# Convention : Reuss Voigt Hill
#
# Bulk Modulus (GPa) = 26.84702 46.54350 36.69526
# Shear Modulus (GPa) = 21.75511 28.85820 25.30665
#
# Velocity S-wave (km/s) = 3.22088 3.70961 3.47385
# Velocity P-wave (km/s) = 5.16084 6.36733 5.79556
#
# Compressibility (1/GPa) = 0.03724808
#
# Stress axis : x y z
#
# Youngs Moduli (GPa) = 27.47129 104.80909 111.01489
#
# Poissons Ratio (x) = 0.56492 0.10607
# Poissons Ratio (y) = 0.14807 0.27819
# Poissons Ratio (z) = 0.02625 0.26264
#
# Static dielectric constant tensor:
#      x y z
#    x 1.837260 0.000000 -0.003220 
#    y 0.000000 1.723320 0.000000 
#    z -0.003220 0.000000 1.771210 
# 
# From -- ./inp_files/347087.got.cif
#   From: 2010.05.17/outbox.cif.g08.bks.cpg/sg12_174_cif.got.tgz:347087.got - 2010.06.03 13:09:07.
