data_PCOD9179840
_publ_section_title
;
Structure prediction by ZEFSAII (Michael W. Deem and Ramdas Pophale) SiO2 
 PCOD9179840
Probable space group: C 2/M
;
_chemical_formula_sum "Si O2"
_cell_formula_units_Z 64
_cell_length_a 18.875925
_cell_length_b 13.482471
_cell_length_c 23.748374
_cell_angle_alpha 90.000000
_cell_angle_beta 148.644359
_cell_angle_gamma 90.000000
_cell_volume 3144.894260
_symmetry_space_group_name_H-M "C 2/M"
_symmetry_group_IT_number 12
_symmetry_cell_setting 'monoclinic'
loop_
_space_group_symop_operation_xyz
x,y,z
-x,y,-z
-x,-y,-z
x,-y,z
1/2+x,1/2+y,z
1/2-x,1/2+y,-z
1/2-x,1/2-y,-z
1/2+x,1/2-y,z
loop_
_atom_site_type_symbol
_atom_site_label
_atom_site_fract_x
_atom_site_fract_y
_atom_site_fract_z
Si Si1 0.630947 0.616489 0.985207
Si Si2 0.269080 0.382888 0.536691
Si Si3 0.594693 0.880354 0.891773
Si Si4 0.786749 0.699992 0.190731
Si Si5 0.564921 0.799212 0.318276
Si Si6 0.325808 0.615575 0.775375
Si Si7 0.611774 0.114638 0.535146
Si Si8 0.129716 0.616121 0.047986
O O1 0.621510 0.500000 0.968543
O O2 0.756216 0.649722 0.031160
O O3 0.676609 0.638426 0.079687
O O4 0.478769 0.654693 0.873579
O O5 0.294307 0.500000 0.560611
O O6 0.396039 0.314048 0.639530
O O7 0.198590 0.359581 0.429131
O O8 0.152255 0.347841 0.501817
O O9 0.483201 0.824144 0.777724
O O10 0.578354 0.000000 0.871500
O O11 0.594312 0.863762 0.958508
O O12 0.760957 0.675527 0.237827
O O13 0.750423 0.812824 0.150196
O O14 0.933338 0.671439 0.266162
O O15 0.328785 0.500000 0.796181
O O16 0.249978 0.616307 0.664619
O O17 0.500000 0.162482 0.500000
O O18 0.566863 0.000000 0.495507
O O19 0.164156 0.500000 0.075989
O O20 0.000000 0.636017 0.000000
#
# Coordination Sequence:
#
# PCOD9179840 Si02
#       8
#     8   8   8   8   8   8   8   8
#     4   9  18  31  50  79 108 136 172 215 271 332
#     4  10  21  38  56  79 113 141 175 231 277 320
#     4   9  19  37  58  78 106 142 182 229 273 323
#     4  11  21  33  52  76 109 144 180 224 266 317
#     4  10  22  36  57  84 104 142 190 221 272 333
#     4  10  19  31  51  81 114 146 177 211 266 338
#     4   9  18  32  52  77 105 139 174 214 272 332
#     4  10  22  38  54  75 106 147 191 230 268 309
#
# _framework density 20.350445000000001
#
# number of rings (size 3 to 8) (size 9 to 14) (size 15 to 20)
#    0.000    2.250    0.000    2.625    0.000    9.000 
#    0.000    2.500    0.000    0.750    0.000    0.000 
#    0.000   13.000    0.000    0.000    0.000    0.000 
#
# Total GULP energy -178540.151351 kJ/mol
# GULP energy per Si atom -5579.379730 kJ/mol
# Density = 2.030413 g / cm^3
# Si number density = 20.350445 Si / 1000 Ang^3
#
#
#
# Elastic Constant Matrix: (Units=GPa)
#
#
# Indices 1 2 3 4 5 6 
#
# 1 63.9976 3.4660 8.1497 0.0001 -18.0408 0.0001
# 2 3.4660 74.0700 18.6176 -0.0001 -7.9454 0.0000
# 3 8.1497 18.6176 53.4328 0.0002 -0.9171 0.0002
# 4 0.0001 -0.0001 0.0002 25.4603 -0.0001 -0.2578
# 5 -18.0408 -7.9454 -0.9171 -0.0001 24.6769 0.0000
# 6 0.0001 0.0000 0.0002 -0.2578 0.0000 18.1431
#
#
#
# Elastic Compliance Matrix: (Units=1/GPa)
#
#
# Indices 1 2 3 4 5 6 
#
# 1 0.020247 0.001524 -0.003359 0.000000 0.015168 0.000000
# 2 0.001524 0.015446 -0.005513 0.000000 0.005882 0.000000
# 3 -0.003359 -0.005513 0.021089 0.000000 -0.003447 0.000000
# 4 0.000000 0.000000 0.000000 0.039282 0.000000 0.000558
# 5 0.015168 0.005882 -0.003447 0.000000 0.053379 0.000000
# 6 0.000000 0.000000 0.000000 0.000558 0.000000 0.055125
#
#
# Mechanical properties :
#
#
# Convention : Reuss Voigt Hill
#
# Bulk Modulus (GPa) = 23.76114 27.99634 25.87874
# Shear Modulus (GPa) = 21.43226 24.40720 22.91973
#
# Velocity S-wave (km/s) = 3.24876 3.46691 3.35961
# Velocity P-wave (km/s) = 5.07680 5.46012 5.27195
#
# Compressibility (1/GPa) = 0.04208553
#
# Stress axis : x y z
#
# Youngs Moduli (GPa) = 49.39125 64.74064 47.41756
#
# Poissons Ratio (x) = -0.09865 0.15926
# Poissons Ratio (y) = -0.07526 0.26143
# Poissons Ratio (z) = 0.16589 0.35694
#
# Static dielectric constant tensor:
#      x y z
#    x 1.730690 0.000000 0.014560 
#    y 0.000000 1.767950 0.000000 
#    z 0.014560 0.000000 1.718260 
# 
# From -- ./inp_files/344092.got.cif
#   From: 2010.05.17/outbox.cif.g08.bks.cpg/sg12_173_cif.got.tgz:344092.got - 2010.06.03 13:09:07.
