data_PCOD9179580
_publ_section_title
;
Structure prediction by ZEFSAII (Michael W. Deem and Ramdas Pophale) SiO2 
 PCOD9179580
Probable space group: C 2/M
;
_chemical_formula_sum "Si O2"
_cell_formula_units_Z 56
_cell_length_a 16.093684
_cell_length_b 7.820169
_cell_length_c 27.015985
_cell_angle_alpha 90.000000
_cell_angle_beta 38.891494
_cell_angle_gamma 90.000000
_cell_volume 2134.747896
_symmetry_space_group_name_H-M "C 2/M"
_symmetry_group_IT_number 12
_symmetry_cell_setting 'monoclinic'
loop_
_space_group_symop_operation_xyz
x,y,z
-x,y,-z
-x,-y,-z
x,-y,z
1/2+x,1/2+y,z
1/2-x,1/2+y,-z
1/2-x,1/2-y,-z
1/2+x,1/2-y,z
loop_
_atom_site_type_symbol
_atom_site_label
_atom_site_fract_x
_atom_site_fract_y
_atom_site_fract_z
Si Si1 0.677665 0.300729 0.805894
Si Si2 0.292734 0.292419 0.097554
Si Si3 0.718973 0.801845 0.341484
Si Si4 0.856353 0.293919 0.519708
Si Si5 0.936987 0.796634 0.379482
Si Si6 0.998598 0.698302 0.753857
Si Si7 0.395961 0.196028 0.948539
O O1 0.715061 0.500000 0.791519
O O2 0.687343 0.225091 0.856195
O O3 0.761710 0.221778 0.721895
O O4 0.520712 0.293117 0.868136
O O5 0.307013 0.500000 0.090959
O O6 0.139121 0.252340 0.157253
O O7 0.388038 0.222857 0.011388
O O8 0.638786 0.729196 0.425866
O O9 0.871447 0.800903 0.291119
O O10 0.678452 0.000000 0.354651
O O11 0.856533 0.500000 0.522837
O O12 0.954022 0.247844 0.429375
O O13 0.711869 0.236466 0.566697
O O14 0.022520 0.716362 0.295890
O O15 0.942920 0.000000 0.371960
O O16 0.025776 0.500000 0.752091
O O17 0.415745 0.000000 0.926494
O O18 0.250000 0.250000 0.000000
#
# Coordination Sequence:
#
# PCOD9179580 Si02
#       7
#     8   8   8   8   8   8   8
#     4  10  21  39  60  81 110 144 177 217 266 318
#     4  10  22  39  58  81 110 144 179 217 265 318
#     4   9  18  32  52  77 103 136 176 218 265 314
#     4   8  14  25  42  68 100 130 167 216 265 312
#     4   9  16  26  43  69 100 134 172 215 265 314
#     4  10  19  31  50  76 105 137 175 219 264 312
#     4  12  25  40  60  85 111 140 177 219 264 314
#
# _framework density 26.232607999999999
#
# number of rings (size 3 to 8) (size 9 to 14) (size 15 to 20)
#    0.000    2.286    0.000    4.286    0.000    9.714 
#    0.000    0.000    0.000    0.857    0.000    6.000 
#    0.000    0.000    0.000    0.000    0.000    0.000 
#
# Total GULP energy -156641.422650 kJ/mol
# GULP energy per Si atom -5594.336523 kJ/mol
# Density = 2.617290 g / cm^3
# Si number density = 26.232608 Si / 1000 Ang^3
#
#
#
# Elastic Constant Matrix: (Units=GPa)
#
#
# Indices 1 2 3 4 5 6 
#
# 1 100.3337 -1.1776 36.0401 -0.0001 24.3785 -0.0004
# 2 -1.1776 53.2928 2.9687 -0.0003 -1.1489 -0.0017
# 3 36.0401 2.9687 209.5183 0.0000 19.5994 -0.0001
# 4 -0.0001 -0.0003 0.0000 22.3545 0.0000 1.5767
# 5 24.3785 -1.1489 19.5994 0.0000 57.0005 0.0000
# 6 -0.0004 -0.0017 -0.0001 1.5767 0.0000 15.7550
#
#
#
# Elastic Compliance Matrix: (Units=1/GPa)
#
#
# Indices 1 2 3 4 5 6 
#
# 1 0.011613 0.000250 -0.001588 0.000000 -0.004416 0.000000
# 2 0.000250 0.018797 -0.000346 0.000000 0.000391 0.000002
# 3 -0.001588 -0.000346 0.005154 0.000000 -0.001100 0.000000
# 4 0.000000 0.000000 0.000000 0.045052 0.000000 -0.004509
# 5 -0.004416 0.000391 -0.001100 0.000000 0.019818 0.000000
# 6 0.000000 0.000002 0.000000 -0.004509 0.000000 0.063923
#
#
# Mechanical properties :
#
#
# Convention : Reuss Voigt Hill
#
# Bulk Modulus (GPa) = 31.05967 48.75635 39.90801
# Shear Modulus (GPa) = 28.01785 40.70957 34.36371
#
# Velocity S-wave (km/s) = 3.27166 3.94365 3.62327
# Velocity P-wave (km/s) = 5.11248 6.27400 5.72278
#
# Compressibility (1/GPa) = 0.03219609
#
# Stress axis : x y z
#
# Youngs Moduli (GPa) = 86.11032 53.19865 194.03099
#
# Poissons Ratio (x) = -0.01329 0.30814
# Poissons Ratio (y) = -0.02152 0.06711
# Poissons Ratio (z) = 0.13675 0.01840
#
# Static dielectric constant tensor:
#      x y z
#    x 2.202290 0.000000 0.022640 
#    y 0.000000 1.916910 0.000000 
#    z 0.022640 0.000000 2.024230 
# 
# From -- ./inp_files/362988.got.cif
#   From: 2010.05.17/outbox.cif.g08.bks.cpg/sg12_182_cif.got.tgz:362988.got - 2010.06.03 13:09:07.
