data_PCOD9179543
_publ_section_title
;
Structure prediction by ZEFSAII (Michael W. Deem and Ramdas Pophale) SiO2 
 PCOD9179543
Probable space group: C 2/M
;
_chemical_formula_sum "Si O2"
_cell_formula_units_Z 64
_cell_length_a 15.145477
_cell_length_b 25.944413
_cell_length_c 8.586171
_cell_angle_alpha 90.000000
_cell_angle_beta 116.201448
_cell_angle_gamma 90.000000
_cell_volume 3027.181466
_symmetry_space_group_name_H-M "C 2/M"
_symmetry_group_IT_number 12
_symmetry_cell_setting 'monoclinic'
loop_
_space_group_symop_operation_xyz
x,y,z
-x,y,-z
-x,-y,-z
x,-y,z
1/2+x,1/2+y,z
1/2-x,1/2+y,-z
1/2-x,1/2-y,-z
1/2+x,1/2-y,z
loop_
_atom_site_type_symbol
_atom_site_label
_atom_site_fract_x
_atom_site_fract_y
_atom_site_fract_z
Si Si1 0.678080 0.753278 0.797669
Si Si2 0.936920 0.854087 0.686803
Si Si3 0.229458 0.558107 0.007873
Si Si4 0.349740 0.639046 0.283224
Si Si5 0.466867 0.238895 0.795644
Si Si6 0.614831 0.058087 0.623482
Si Si7 0.611473 0.554509 0.142392
Si Si8 0.611737 0.165597 0.511466
O O1 0.688395 0.697232 0.731952
O O2 0.568152 0.758388 0.778391
O O3 0.681421 0.799072 0.675062
O O4 0.750000 0.750000 0.000000
O O5 0.894942 0.870225 0.486959
O O6 0.885316 0.892985 0.762637
O O7 0.056188 0.861121 0.762721
O O8 0.919960 0.795159 0.726627
O O9 0.216797 0.500000 0.062198
O O10 0.137312 0.570978 0.823022
O O11 0.316203 0.556065 0.947054
O O12 0.266057 0.600119 0.159309
O O13 0.402765 0.193811 0.665583
O O14 0.500000 0.231825 0.000000
O O15 0.500000 0.054406 0.500000
O O16 0.649193 0.106762 0.547902
O O17 0.654910 0.000000 0.627293
O O18 0.628568 0.500000 0.243047
O O19 0.500000 0.552455 0.000000
O O20 0.500000 0.164375 0.500000
#
# Coordination Sequence:
#
# PCOD9179543 Si02
#       8
#     8   8   8   8   8   8   8   8
#     4  10  19  33  52  76 104 139 176 217 268 316
#     4  10  19  32  49  72 108 147 182 213 257 313
#     4  10  20  33  51  79 108 137 182 227 264 317
#     4  10  19  31  50  75 103 142 183 216 258 312
#     4  10  20  34  53  76 105 144 179 218 266 315
#     4   9  18  34  59  84 102 129 173 226 275 317
#     4  10  19  32  48  70 104 147 182 214 259 305
#     4   9  17  34  54  75 105 135 170 216 268 322
#
# _framework density 21.141780000000001
#
# number of rings (size 3 to 8) (size 9 to 14) (size 15 to 20)
#    0.000    2.250    2.500    1.125    1.750    0.500 
#    0.000    3.125    0.000    0.375    0.000    5.250 
#    0.000    0.000    0.000    0.000    0.000    0.000 
#
# Total GULP energy -178348.584664 kJ/mol
# GULP energy per Si atom -5573.393271 kJ/mol
# Density = 2.109366 g / cm^3
# Si number density = 21.141780 Si / 1000 Ang^3
#
#
#
# Elastic Constant Matrix: (Units=GPa)
#
#
# Indices 1 2 3 4 5 6 
#
# 1 30.8984 3.3379 5.9789 0.0000 16.1804 0.0000
# 2 3.3379 184.3692 74.9765 0.0000 1.6612 0.0000
# 3 5.9789 74.9765 116.1407 0.0000 20.4526 0.0000
# 4 0.0000 0.0000 0.0000 -51.6486 0.0000 7.9321
# 5 16.1804 1.6612 20.4526 0.0000 33.9524 0.0000
# 6 0.0000 0.0000 0.0000 7.9321 0.0000 -1.0294
#
#
#
# Elastic Compliance Matrix: (Units=1/GPa)
#
#
# Indices 1 2 3 4 5 6 
#
# 1 0.043778 -0.001740 0.002829 0.000000 -0.022482 0.000000
# 2 -0.001740 0.007669 -0.005528 0.000000 0.003784 0.000000
# 3 0.002829 -0.005528 0.013673 0.000000 -0.009314 0.000000
# 4 0.000000 0.000000 0.000000 0.105587 0.000000 0.813583
# 5 -0.022482 0.003784 -0.009314 0.000000 0.045593 0.000000
# 6 0.000000 0.000000 0.000000 0.813583 0.000000 5.297541
#
#
# Mechanical properties :
#
#
# Convention : Reuss Voigt Hill
#
# Bulk Modulus (GPa) = 17.78037 55.55500 36.66768
# Shear Modulus (GPa) = 0.90229 12.72921 6.81575
#
# Velocity S-wave (km/s) = 0.65399 2.45641 1.79745
# Velocity P-wave (km/s) = 2.99977 5.86342 4.65716
#
# Compressibility (1/GPa) = 0.05624179
#
# Stress axis : x y z
#
# Youngs Moduli (GPa) = 22.84273 130.39030 73.13430
#
# Poissons Ratio (x) = 0.22694 -0.20690
# Poissons Ratio (y) = 0.03976 0.40427
# Poissons Ratio (z) = -0.06462 0.72077
#
# Static dielectric constant tensor:
#      x y z
#    x 1.781230 0.000000 0.049480 
#    y 0.000000 1.668320 0.000000 
#    z 0.049480 0.000000 1.892360 
# 
# From -- ./inp_files/90413.got.cif
#   From: 2010.05.17/outbox.cif.g08.bks.cpg/sg12_46_cif.got.tgz:90413.got - 2010.06.03 13:09:07.
