data_PCOD9179640
_publ_section_title
;
Structure prediction by ZEFSAII (Michael W. Deem and Ramdas Pophale) SiO2 
 PCOD9179640
Probable space group: C 2/M
;
_chemical_formula_sum "Si O2"
_cell_formula_units_Z 40
_cell_length_a 7.176674
_cell_length_b 28.549807
_cell_length_c 14.947267
_cell_angle_alpha 90.000000
_cell_angle_beta 28.505551
_cell_angle_gamma 90.000000
_cell_volume 1461.600135
_symmetry_space_group_name_H-M "C 2/M"
_symmetry_group_IT_number 12
_symmetry_cell_setting 'monoclinic'
loop_
_space_group_symop_operation_xyz
x,y,z
-x,y,-z
-x,-y,-z
x,-y,z
1/2+x,1/2+y,z
1/2-x,1/2+y,-z
1/2-x,1/2-y,-z
1/2+x,1/2-y,z
loop_
_atom_site_type_symbol
_atom_site_label
_atom_site_fract_x
_atom_site_fract_y
_atom_site_fract_z
Si Si1 0.768544 0.601827 0.800141
Si Si2 0.834471 0.500000 0.777214
Si Si3 0.889433 0.000000 0.779873
Si Si4 0.210352 0.797343 0.816440
Si Si5 0.468354 0.401837 0.295150
Si Si6 0.527460 0.697664 0.704049
O O1 0.001025 0.553047 0.711028
O O2 0.953784 0.653789 0.711404
O O3 0.484392 0.596613 0.832811
O O4 0.500000 0.604892 0.000000
O O5 0.709578 0.500000 0.723853
O O6 0.500000 0.500000 0.000000
O O7 0.900234 0.048527 0.722845
O O8 0.500000 0.000000 0.000000
O O9 0.406016 0.747235 0.716633
O O10 0.923842 0.801943 0.853163
O O11 0.000000 0.794943 0.000000
O O12 0.618714 0.352625 0.269824
O O13 0.000000 0.401301 0.500000
O O14 0.000000 0.696190 0.500000
#
# Coordination Sequence:
#
# PCOD9179640 Si02
#       6
#     8   4   4   8   8   8
#     4   8  15  28  49  72  92 123 168 201 231 285
#     4   8  14  29  50  69  92 128 161 190 233 295
#     4  10  19  31  50  79 103 122 157 210 252 281
#     4  10  19  32  50  74  99 127 166 209 245 288
#     4   9  18  32  50  72  99 132 164 195 241 302
#     4  10  20  34  51  72 100 133 166 201 246 295
#
# _framework density 27.367267999999999
#
# number of rings (size 3 to 8) (size 9 to 14) (size 15 to 20)
#    0.000    2.800    0.000    1.500    0.000    0.800 
#    0.000    6.000    0.000    0.000    0.000   32.900 
#    0.000    0.000    0.000    0.000    0.000    0.000 
#
# Total GULP energy -111590.141371 kJ/mol
# GULP energy per Si atom -5579.507069 kJ/mol
# Density = 2.730498 g / cm^3
# Si number density = 27.367268 Si / 1000 Ang^3
#
#
#
# Elastic Constant Matrix: (Units=GPa)
#
#
# Indices 1 2 3 4 5 6 
#
# 1 101.2508 14.7313 11.6546 0.0000 22.9040 0.0000
# 2 14.7313 434.5865 29.6014 0.0000 -24.3960 0.0000
# 3 11.6546 29.6014 61.0567 0.0000 14.9987 0.0000
# 4 0.0000 0.0000 0.0000 10.7952 0.0000 5.7160
# 5 22.9040 -24.3960 14.9987 0.0000 35.1766 0.0000
# 6 0.0000 0.0000 0.0000 5.7160 0.0000 3.1799
#
#
#
# Elastic Compliance Matrix: (Units=1/GPa)
#
#
# Indices 1 2 3 4 5 6 
#
# 1 0.011895 -0.000895 0.000244 0.000000 -0.008470 0.000000
# 2 -0.000895 0.002642 -0.001903 0.000000 0.003227 0.000000
# 3 0.000244 -0.001903 0.019678 0.000000 -0.009869 0.000000
# 4 0.000000 0.000000 0.000000 1.922479 0.000000 -3.455802
# 5 -0.008470 0.003227 -0.009869 0.000000 0.040389 0.000000
# 6 0.000000 0.000000 0.000000 -3.455802 0.000000 6.526545
#
#
# Mechanical properties :
#
#
# Convention : Reuss Voigt Hill
#
# Bulk Modulus (GPa) = 34.35525 78.76316 56.55920
# Shear Modulus (GPa) = 0.58559 45.89077 23.23818
#
# Velocity S-wave (km/s) = 0.46307 4.09938 2.91713
# Velocity P-wave (km/s) = 3.58700 7.15884 5.66196
#
# Compressibility (1/GPa) = 0.02910763
#
# Stress axis : x y z
#
# Youngs Moduli (GPa) = 84.07198 378.48508 50.81707
#
# Poissons Ratio (x) = 0.33885 -0.01241
# Poissons Ratio (y) = 0.07527 0.09669
# Poissons Ratio (z) = -0.02053 0.72013
#
# Static dielectric constant tensor:
#      x y z
#    x 2.159390 0.000000 -0.047840 
#    y 0.000000 2.208130 0.000000 
#    z -0.047840 0.000000 2.126160 
# 
# From -- ./inp_files/40378.got.cif
#   From: 2010.05.17/outbox.cif.g08.bks.cpg/sg12_21_cif.got.tgz:40378.got - 2010.06.03 13:09:07.
