data_PCOD9179035
_publ_section_title
;
Structure prediction by ZEFSAII (Michael W. Deem and Ramdas Pophale) SiO2 
 PCOD9179035
Probable space group: C 2/M
;
_chemical_formula_sum "Si O2"
_cell_formula_units_Z 64
_cell_length_a 29.556496
_cell_length_b 7.477515
_cell_length_c 14.760831
_cell_angle_alpha 90.000000
_cell_angle_beta 87.964450
_cell_angle_gamma 90.000000
_cell_volume 3260.220037
_symmetry_space_group_name_H-M "C 2/M"
_symmetry_group_IT_number 12
_symmetry_cell_setting 'monoclinic'
loop_
_space_group_symop_operation_xyz
x,y,z
-x,y,-z
-x,-y,-z
x,-y,z
1/2+x,1/2+y,z
1/2-x,1/2+y,-z
1/2-x,1/2-y,-z
1/2+x,1/2-y,z
loop_
_atom_site_type_symbol
_atom_site_label
_atom_site_fract_x
_atom_site_fract_y
_atom_site_fract_z
Si Si1 0.551882 0.281513 0.517694
Si Si2 0.904452 0.216115 0.959717
Si Si3 0.977152 0.217369 0.817657
Si Si4 0.640107 0.792480 0.849098
Si Si5 0.433924 0.707776 0.281545
Si Si6 0.331735 0.281925 0.811777
Si Si7 0.596102 0.282864 0.331934
Si Si8 0.761396 0.714554 0.103971
O O1 0.500000 0.232747 0.500000
O O2 0.553700 0.500000 0.516302
O O3 0.565148 0.217729 0.616941
O O4 0.583490 0.219758 0.432804
O O5 0.594668 0.500000 0.037959
O O6 0.951277 0.278227 0.910218
O O7 0.864053 0.269351 0.893810
O O8 0.891637 0.276247 0.060322
O O9 0.944173 0.261290 0.735601
O O10 0.026777 0.283120 0.786907
O O11 0.978503 0.000000 0.825434
O O12 0.613574 0.714988 0.765859
O O13 0.689309 0.715222 0.871200
O O14 0.646330 0.000000 0.828276
O O15 0.446454 0.500000 0.292176
O O16 0.331192 0.500000 0.811412
O O17 0.357464 0.223355 0.719009
O O18 0.280967 0.219524 0.833682
O O19 0.597387 0.500000 0.334306
O O20 0.762923 0.500000 0.112938
O O21 0.750000 0.750000 0.000000
#
# Coordination Sequence:
#
# PCOD9179035 Si02
#       8
#     8   8   8   8   8   8   8   8
#     4   9  14  23  44  74 100 117 143 192 241 269
#     4   9  16  29  49  69  91 120 157 194 227 271
#     4   8  14  25  44  71  96 120 151 190 230 269
#     4  11  23  34  44  64  96 129 159 192 232 276
#     4  10  19  31  48  70  97 127 157 189 231 277
#     4   8  14  25  45  70  92 114 145 188 237 279
#     4   8  12  21  41  72 100 114 137 188 241 276
#     4  10  19  32  50  70  90 118 157 198 236 273
#
# _framework density 19.630576999999999
#
# number of rings (size 3 to 8) (size 9 to 14) (size 15 to 20)
#    0.000    2.875    2.500    1.875    0.000    1.000 
#    0.000    3.125    0.000    1.125    0.000    1.750 
#    0.000    0.000    0.000    0.000    0.000    0.125 
#
# Total GULP energy -178462.677168 kJ/mol
# GULP energy per Si atom -5576.958662 kJ/mol
# Density = 1.958590 g / cm^3
# Si number density = 19.630577 Si / 1000 Ang^3
#
#
#
# Elastic Constant Matrix: (Units=GPa)
#
#
# Indices 1 2 3 4 5 6 
#
# 1 131.6703 -0.5691 82.4109 0.0000 -13.6180 0.0000
# 2 -0.5691 50.4038 -4.5027 0.0000 -2.3553 0.0000
# 3 82.4109 -4.5027 123.7497 0.0000 -10.4699 0.0000
# 4 0.0000 0.0000 0.0000 -49.8627 0.0000 5.9197
# 5 -13.6180 -2.3553 -10.4699 0.0000 26.5280 0.0000
# 6 0.0000 0.0000 0.0000 5.9197 0.0000 4.2958
#
#
#
# Elastic Compliance Matrix: (Units=1/GPa)
#
#
# Indices 1 2 3 4 5 6 
#
# 1 0.013332 -0.000459 -0.008607 0.000000 0.003406 0.000000
# 2 -0.000459 0.020037 0.001206 0.000000 0.002019 0.000000
# 3 -0.008607 0.001206 0.013958 0.000000 0.001197 0.000000
# 4 0.000000 0.000000 0.000000 -0.017235 0.000000 0.023751
# 5 0.003406 0.002019 0.001197 0.000000 0.040096 0.000000
# 6 0.000000 0.000000 0.000000 0.023751 0.000000 0.200056
#
#
# Mechanical properties :
#
#
# Convention : Reuss Voigt Hill
#
# Bulk Modulus (GPa) = 31.64009 51.16690 41.40350
# Shear Modulus (GPa) = 16.86344 11.42454 14.14399
#
# Velocity S-wave (km/s) = 2.93412 2.41504 2.68714
# Velocity P-wave (km/s) = 5.25656 5.82220 5.54660
#
# Compressibility (1/GPa) = 0.03160547
#
# Stress axis : x y z
#
# Youngs Moduli (GPa) = 75.00731 49.90859 71.64450
#
# Poissons Ratio (x) = 0.02292 0.61664
# Poissons Ratio (y) = 0.03444 -0.08638
# Poissons Ratio (z) = 0.64559 -0.06017
#
# Static dielectric constant tensor:
#      x y z
#    x 1.707400 0.000000 -0.024610 
#    y 0.000000 1.788340 0.000000 
#    z -0.024610 0.000000 1.672280 
# 
# From -- ./inp_files/244099.got.cif
#   From: 2010.05.17/outbox.cif.g08.bks.cpg/sg12_123_cif.got.tgz:244099.got - 2010.06.03 13:09:07.
