data_PCOD9179416
_publ_section_title
;
Structure prediction by ZEFSAII (Michael W. Deem and Ramdas Pophale) SiO2 
 PCOD9179416
Probable space group: C 2/M
;
_chemical_formula_sum "Si O2"
_cell_formula_units_Z 48
_cell_length_a 9.274964
_cell_length_b 25.272060
_cell_length_c 11.920779
_cell_angle_alpha 90.000000
_cell_angle_beta 118.656905
_cell_angle_gamma 90.000000
_cell_volume 2451.930523
_symmetry_space_group_name_H-M "C 2/M"
_symmetry_group_IT_number 12
_symmetry_cell_setting 'monoclinic'
loop_
_space_group_symop_operation_xyz
x,y,z
-x,y,-z
-x,-y,-z
x,-y,z
1/2+x,1/2+y,z
1/2-x,1/2+y,-z
1/2-x,1/2-y,-z
1/2+x,1/2-y,z
loop_
_atom_site_type_symbol
_atom_site_label
_atom_site_fract_x
_atom_site_fract_y
_atom_site_fract_z
Si Si1 0.105132 0.792591 0.923321
Si Si2 0.669772 0.560679 0.127654
Si Si3 0.498311 0.798763 0.743325
Si Si4 0.179779 0.194097 0.517733
Si Si5 0.667129 0.135420 0.623036
Si Si6 0.150550 0.379763 0.976719
O O1 0.005639 0.761542 0.789404
O O2 0.250000 0.750000 0.000000
O O3 0.190037 0.847430 0.917831
O O4 0.000000 0.798300 0.000000
O O5 0.658233 0.500000 0.160331
O O6 0.736448 0.597972 0.253038
O O7 0.797979 0.569655 0.074886
O O8 0.500000 0.575130 0.000000
O O9 0.312772 0.818352 0.662966
O O10 0.596446 0.813511 0.666070
O O11 0.582383 0.836435 0.864483
O O12 0.250000 0.250000 0.500000
O O13 0.210232 0.153187 0.428702
O O14 0.000000 0.196550 0.500000
O O15 0.500000 0.113313 0.500000
O O16 0.000000 0.391087 0.000000
#
# Coordination Sequence:
#
# PCOD9179416 Si02
#       6
#     8   8   8   8   8   8
#     4  10  19  31  49  77 111 148 186 223 269 326
#     4  10  22  40  62  87 112 141 184 239 292 337
#     4   9  19  35  51  75 111 147 189 229 264 320
#     4  11  23  35  51  77 111 152 189 224 268 322
#     4   9  20  40  60  81 112 150 189 228 275 334
#     4  10  21  35  54  81 110 145 185 230 282 337
#
# _framework density 19.576411
#
# number of rings (size 3 to 8) (size 9 to 14) (size 15 to 20)
#    0.000    2.167    0.000    4.000    0.000   12.667 
#    0.000    0.833    0.000    0.500    0.000    0.000 
#    0.000    0.000    0.000    0.000    0.000    0.000 
#
# Total GULP energy -133766.342096 kJ/mol
# GULP energy per Si atom -5573.597587 kJ/mol
# Density = 1.953185 g / cm^3
# Si number density = 19.576411 Si / 1000 Ang^3
#
#
#
# Elastic Constant Matrix: (Units=GPa)
#
#
# Indices 1 2 3 4 5 6 
#
# 1 165.5664 33.9293 51.0632 0.0000 0.8585 0.0000
# 2 33.9293 70.4457 44.2976 0.0000 5.7166 0.0000
# 3 51.0632 44.2976 112.2706 0.0000 11.8488 0.0000
# 4 0.0000 0.0000 0.0000 22.4528 0.0000 0.4689
# 5 0.8585 5.7166 11.8488 0.0000 23.2740 0.0000
# 6 0.0000 0.0000 0.0000 0.4689 0.0000 12.0023
#
#
#
# Elastic Compliance Matrix: (Units=1/GPa)
#
#
# Indices 1 2 3 4 5 6 
#
# 1 0.007262 -0.001921 -0.002712 0.000000 0.001585 0.000000
# 2 -0.001921 0.019405 -0.006644 0.000000 -0.001313 0.000000
# 3 -0.002712 -0.006644 0.013294 0.000000 -0.005036 0.000000
# 4 0.000000 0.000000 0.000000 0.044574 0.000000 -0.001741
# 5 0.001585 -0.001313 -0.005036 0.000000 0.045794 0.000000
# 6 0.000000 0.000000 0.000000 -0.001741 0.000000 0.083385
#
#
# Mechanical properties :
#
#
# Convention : Reuss Voigt Hill
#
# Bulk Modulus (GPa) = 57.45143 67.42921 62.44032
# Shear Modulus (GPa) = 20.65512 26.14531 23.40022
#
# Velocity S-wave (km/s) = 3.25176 3.65848 3.46110
# Velocity P-wave (km/s) = 6.59618 7.23636 6.92367
#
# Compressibility (1/GPa) = 0.01740601
#
# Stress axis : x y z
#
# Youngs Moduli (GPa) = 137.70791 51.53306 75.22345
#
# Poissons Ratio (x) = 0.09897 0.20403
# Poissons Ratio (y) = 0.26448 0.49981
# Poissons Ratio (z) = 0.37350 0.34241
#
# Static dielectric constant tensor:
#      x y z
#    x 1.660340 0.000000 0.001960 
#    y 0.000000 1.690200 0.000000 
#    z 0.001960 0.000000 1.833140 
# 
# From -- ./inp_files/123868.got.cif
#   From: 2010.05.17/outbox.cif.g08.bks.cpg/sg12_62_cif.got.tgz:123868.got - 2010.06.03 13:09:07.
