data_PCOD9179827
_publ_section_title
;
Structure prediction by ZEFSAII (Michael W. Deem and Ramdas Pophale) SiO2 
 PCOD9179827
Probable space group: C 2/M
;
_chemical_formula_sum "Si O2"
_cell_formula_units_Z 48
_cell_length_a 19.166022
_cell_length_b 13.538807
_cell_length_c 20.956502
_cell_angle_alpha 90.000000
_cell_angle_beta 156.439851
_cell_angle_gamma 90.000000
_cell_volume 2173.591363
_symmetry_space_group_name_H-M "C 2/M"
_symmetry_group_IT_number 12
_symmetry_cell_setting 'monoclinic'
loop_
_space_group_symop_operation_xyz
x,y,z
-x,y,-z
-x,-y,-z
x,-y,z
1/2+x,1/2+y,z
1/2-x,1/2+y,-z
1/2-x,1/2-y,-z
1/2+x,1/2-y,z
loop_
_atom_site_type_symbol
_atom_site_label
_atom_site_fract_x
_atom_site_fract_y
_atom_site_fract_z
Si Si1 0.932435 0.236860 0.771089
Si Si2 0.873276 0.614172 0.832694
Si Si3 0.096154 0.888435 0.820483
Si Si4 0.418045 0.307102 0.323831
Si Si5 0.743449 0.607804 0.542546
Si Si6 0.913388 0.386762 0.497529
O O1 0.947270 0.317563 0.838782
O O2 0.097498 0.173928 0.885970
O O3 0.875994 0.303522 0.662237
O O4 0.779021 0.161789 0.664368
O O5 0.848526 0.500000 0.792807
O O6 0.697668 0.663228 0.713547
O O7 0.000000 0.614469 0.000000
O O8 0.886134 0.892611 0.626751
O O9 0.166007 0.840572 0.813872
O O10 0.160228 0.000000 0.880605
O O11 0.599076 0.369413 0.476506
O O12 0.471095 0.192561 0.366822
O O13 0.822761 0.500000 0.614851
O O14 0.910767 0.500000 0.518783
O O15 0.000000 0.387635 0.500000
#
# Coordination Sequence:
#
# PCOD9179827 Si02
#       6
#     8   8   8   8   8   8
#     4  11  19  32  50  80 110 139 173 213 265 316
#     4  11  23  38  56  76 101 139 186 232 267 299
#     4   9  18  32  53  80 110 140 168 209 265 327
#     4   9  18  35  54  77 106 138 173 214 264 317
#     4   8  16  28  50  78 106 135 165 206 261 323
#     4  10  19  31  51  80 113 144 170 207 263 324
#
# _framework density 22.083266999999999
#
# number of rings (size 3 to 8) (size 9 to 14) (size 15 to 20)
#    1.000    1.333    1.667    2.500    0.000    0.000 
#    0.000    4.167    0.000    4.500    0.000    0.000 
#    0.000    0.000    0.000    0.000    0.000    0.000 
#
# Total GULP energy -133797.227133 kJ/mol
# GULP energy per Si atom -5574.884464 kJ/mol
# Density = 2.203300 g / cm^3
# Si number density = 22.083267 Si / 1000 Ang^3
#
#
#
# Elastic Constant Matrix: (Units=GPa)
#
#
# Indices 1 2 3 4 5 6 
#
# 1 103.1827 46.9407 7.0417 -0.0044 -8.9403 -0.0010
# 2 46.9407 203.5435 22.9843 -0.0015 -0.9738 -0.0034
# 3 7.0417 22.9843 29.2515 -0.0058 4.2649 -0.0033
# 4 -0.0044 -0.0015 -0.0058 11.3624 -0.0021 -7.6447
# 5 -8.9403 -0.9738 4.2649 -0.0021 8.7591 -0.0002
# 6 -0.0010 -0.0034 -0.0033 -7.6447 -0.0002 35.2556
#
#
#
# Elastic Compliance Matrix: (Units=1/GPa)
#
#
# Indices 1 2 3 4 5 6 
#
# 1 0.012171 -0.002399 -0.003032 0.000006 0.013633 0.000001
# 2 -0.002399 0.005932 -0.004115 -0.000003 0.000214 0.000000
# 3 -0.003032 -0.004115 0.041622 0.000020 -0.023819 0.000008
# 4 0.000006 -0.000003 0.000020 0.103043 0.000022 0.022343
# 5 0.013633 0.000214 -0.023819 0.000022 0.139703 0.000004
# 6 0.000001 0.000000 0.000008 0.022343 0.000004 0.033209
#
#
# Mechanical properties :
#
#
# Convention : Reuss Voigt Hill
#
# Bulk Modulus (GPa) = 24.61075 54.43455 39.52265
# Shear Modulus (GPa) = 13.57527 28.34281 20.95904
#
# Velocity S-wave (km/s) = 2.48207 3.58642 3.08407
# Velocity P-wave (km/s) = 4.40260 6.46939 5.53335
#
# Compressibility (1/GPa) = 0.04063266
#
# Stress axis : x y z
#
# Youngs Moduli (GPa) = 82.16122 168.57969 24.02567
#
# Poissons Ratio (x) = 0.40446 0.07286
# Poissons Ratio (y) = 0.19712 0.09886
# Poissons Ratio (z) = 0.24915 0.69364
#
# Static dielectric constant tensor:
#      x y z
#    x 1.840870 0.000000 -0.024610 
#    y 0.000000 1.814920 0.000000 
#    z -0.024610 0.000000 1.890950 
# 
# From -- ./inp_files/316344.got.cif
#   From: 2010.05.17/outbox.cif.g08.bks.cpg/sg12_159_cif.got.tgz:316344.got - 2010.06.03 13:09:07.
