data_PCOD9179141
_publ_section_title
;
Structure prediction by ZEFSAII (Michael W. Deem and Ramdas Pophale) SiO2 
 PCOD9179141
Probable space group: C 2/M
;
_chemical_formula_sum "Si O2"
_cell_formula_units_Z 56
_cell_length_a 19.931559
_cell_length_b 14.554459
_cell_length_c 12.978674
_cell_angle_alpha 90.000000
_cell_angle_beta 117.391738
_cell_angle_gamma 90.000000
_cell_volume 3342.895365
_symmetry_space_group_name_H-M "C 2/M"
_symmetry_group_IT_number 12
_symmetry_cell_setting 'monoclinic'
loop_
_space_group_symop_operation_xyz
x,y,z
-x,y,-z
-x,-y,-z
x,-y,z
1/2+x,1/2+y,z
1/2-x,1/2+y,-z
1/2-x,1/2-y,-z
1/2+x,1/2-y,z
loop_
_atom_site_type_symbol
_atom_site_label
_atom_site_fract_x
_atom_site_fract_y
_atom_site_fract_z
Si Si1 0.913981 0.699645 0.895058
Si Si2 0.552078 0.889665 0.295794
Si Si3 0.391923 0.797455 0.237797
Si Si4 0.186307 0.606514 0.999898
Si Si5 0.135375 0.897592 0.851019
Si Si6 0.909197 0.100327 0.940804
Si Si7 0.591096 0.894911 0.546479
O O1 0.914505 0.650227 0.785516
O O2 0.887454 0.805774 0.868683
O O3 0.863234 0.647225 0.942584
O O4 0.000000 0.699536 0.000000
O O5 0.469763 0.844802 0.255201
O O6 0.600098 0.869344 0.433225
O O7 0.543867 0.000000 0.284061
O O8 0.329843 0.833861 0.113321
O O9 0.398892 0.688217 0.233138
O O10 0.375647 0.830500 0.341910
O O11 0.165357 0.500000 0.965344
O O12 0.274151 0.609078 0.090614
O O13 0.111938 0.000000 0.800505
O O14 0.113544 0.888668 0.955870
O O15 0.880047 0.000000 0.884506
O O16 0.000000 0.096283 0.000000
O O17 0.500000 0.894215 0.500000
O O18 0.616354 0.000000 0.580668
#
# Coordination Sequence:
#
# PCOD9179141 Si02
#       7
#     8   8   8   8   8   8   8
#     4  11  19  29  48  73 102 130 158 196 244 298
#     4  10  19  31  48  75 105 127 155 198 249 300
#     4  11  17  30  51  69  97 129 164 200 236 289
#     4  11  21  30  46  75 105 130 156 197 249 296
#     4  10  21  34  47  70 101 133 166 199 242 291
#     4   9  17  31  47  66  93 128 166 198 232 279
#     4   8  16  29  47  71  97 127 158 196 244 290
#
# _framework density 16.751944999999999
#
# number of rings (size 3 to 8) (size 9 to 14) (size 15 to 20)
#    0.000    2.000    2.857    3.857    0.000    0.571 
#    0.000    0.000    0.000    5.571    0.000    0.000 
#    0.000    0.000    0.000    0.000    0.000    0.000 
#
# Total GULP energy -156093.247117 kJ/mol
# GULP energy per Si atom -5574.758826 kJ/mol
# Density = 1.671382 g / cm^3
# Si number density = 16.751945 Si / 1000 Ang^3
#
#
#
# Elastic Constant Matrix: (Units=GPa)
#
#
# Indices 1 2 3 4 5 6 
#
# 1 52.0932 18.9994 17.0928 0.0000 -15.4027 0.0000
# 2 18.9994 144.5742 57.1596 0.0000 -17.8188 0.0000
# 3 17.0928 57.1596 88.2160 0.0000 -29.7694 0.0000
# 4 0.0000 0.0000 0.0000 10.4941 0.0000 -10.2050
# 5 -15.4027 -17.8188 -29.7694 0.0000 15.2232 0.0000
# 6 0.0000 0.0000 0.0000 -10.2050 0.0000 18.1396
#
#
#
# Elastic Compliance Matrix: (Units=1/GPa)
#
#
# Indices 1 2 3 4 5 6 
#
# 1 0.033567 -0.003341 0.017061 0.000000 0.063416 0.000000
# 2 -0.003341 0.009668 -0.008641 0.000000 -0.008962 0.000000
# 3 0.017061 -0.008641 0.047168 0.000000 0.099386 0.000000
# 4 0.000000 0.000000 0.000000 0.210395 0.000000 0.118365
# 5 0.063416 -0.008962 0.099386 0.000000 0.313717 0.000000
# 6 0.000000 0.000000 0.000000 0.118365 0.000000 0.121718
#
#
# Mechanical properties :
#
#
# Convention : Reuss Voigt Hill
#
# Bulk Modulus (GPa) = 9.94417 52.37634 31.16026
# Shear Modulus (GPa) = 6.58245 21.54681 14.06463
#
# Velocity S-wave (km/s) = 1.98441 3.59029 2.90070
# Velocity P-wave (km/s) = 3.34657 6.96568 5.46444
#
# Compressibility (1/GPa) = 0.10056146
#
# Stress axis : x y z
#
# Youngs Moduli (GPa) = 29.79088 103.43652 21.20071
#
# Poissons Ratio (x) = 0.34553 -0.36170
# Poissons Ratio (y) = 0.09952 0.18320
# Poissons Ratio (z) = -0.50826 0.89383
#
# Static dielectric constant tensor:
#      x y z
#    x 1.558910 0.000000 0.001170 
#    y 0.000000 1.605530 0.000000 
#    z 0.001170 0.000000 1.557130 
# 
# From -- ./inp_files/156178.got.cif
#   From: 2010.05.17/outbox.cif.g08.bks.cpg/sg12_79_cif.got.tgz:156178.got - 2010.06.03 13:09:07.
