data_PCOD9179872
_publ_section_title
;
Structure prediction by ZEFSAII (Michael W. Deem and Ramdas Pophale) SiO2 
 PCOD9179872
Probable space group: C 2/M
;
_chemical_formula_sum "Si O2"
_cell_formula_units_Z 40
_cell_length_a 15.138213
_cell_length_b 11.518014
_cell_length_c 11.633956
_cell_angle_alpha 90.000000
_cell_angle_beta 102.625109
_cell_angle_gamma 90.000000
_cell_volume 1979.474092
_symmetry_space_group_name_H-M "C 2/M"
_symmetry_group_IT_number 12
_symmetry_cell_setting 'monoclinic'
loop_
_space_group_symop_operation_xyz
x,y,z
-x,y,-z
-x,-y,-z
x,-y,z
1/2+x,1/2+y,z
1/2-x,1/2+y,-z
1/2-x,1/2-y,-z
1/2+x,1/2-y,z
loop_
_atom_site_type_symbol
_atom_site_label
_atom_site_fract_x
_atom_site_fract_y
_atom_site_fract_z
Si Si1 0.325754 0.129540 0.617101
Si Si2 0.805637 0.126113 0.888639
Si Si3 0.183673 0.310267 0.646083
Si Si4 0.369001 0.131738 0.992566
Si Si5 0.981726 0.361859 0.249652
O O1 0.235014 0.192696 0.628753
O O2 0.332793 0.130797 0.481072
O O3 0.418302 0.181743 0.693704
O O4 0.321405 0.000000 0.659820
O O5 0.753652 0.128116 0.752146
O O6 0.724584 0.126798 0.960109
O O7 0.853433 0.000000 0.913933
O O8 0.858702 0.247883 0.919569
O O9 0.091405 0.299670 0.690368
O O10 0.448738 0.147037 0.109103
O O11 0.378704 0.000000 0.943472
O O12 0.976917 0.500000 0.277538
#
# Coordination Sequence:
#
# PCOD9179872 Si02
#       5
#     8   8   8   8   8
#     4  10  20  33  52  78 103 132 174 217 256 305
#     4   9  16  28  48  73 102 136 169 206 260 316
#     4  10  19  31  52  76 104 134 169 213 260 307
#     4   8  15  28  49  76 100 127 172 220 254 298
#     4   9  17  33  56  77  99 132 174 215 255 304
#
# _framework density 20.207388999999999
#
# number of rings (size 3 to 8) (size 9 to 14) (size 15 to 20)
#    0.000    2.800    0.000    3.600    0.000    2.400 
#    0.000    4.000    0.000   24.000    0.000    0.000 
#    0.000    0.000    0.000    0.000    0.000    0.000 
#
# Total GULP energy -111492.847213 kJ/mol
# GULP energy per Si atom -5574.642361 kJ/mol
# Density = 2.016140 g / cm^3
# Si number density = 20.207389 Si / 1000 Ang^3
#
#
#
# Elastic Constant Matrix: (Units=GPa)
#
#
# Indices 1 2 3 4 5 6 
#
# 1 83.0532 40.3005 34.6482 0.0000 7.5850 0.0000
# 2 40.3005 116.3910 55.1862 0.0000 8.9170 0.0000
# 3 34.6482 55.1862 99.2860 0.0000 -0.7346 0.0000
# 4 0.0000 0.0000 0.0000 0.0788 0.0000 25.6114
# 5 7.5850 8.9170 -0.7346 0.0000 26.7819 0.0000
# 6 0.0000 0.0000 0.0000 25.6114 0.0000 -12.2655
#
#
#
# Elastic Compliance Matrix: (Units=1/GPa)
#
#
# Indices 1 2 3 4 5 6 
#
# 1 0.015480 -0.003437 -0.003516 0.000000 -0.003336 0.000000
# 2 -0.003437 0.012889 -0.005990 0.000000 -0.003482 0.000000
# 3 -0.003516 -0.005990 0.014654 0.000000 0.003392 0.000000
# 4 0.000000 0.000000 0.000000 0.018671 0.000000 0.038988
# 5 -0.003336 -0.003482 0.003392 0.000000 0.039536 0.000000
# 6 0.000000 0.000000 0.000000 0.038988 0.000000 -0.000120
#
#
# Mechanical properties :
#
#
# Convention : Reuss Voigt Hill
#
# Bulk Modulus (GPa) = 58.36008 62.11112 60.23560
# Shear Modulus (GPa) = 37.67636 14.15873 25.91754
#
# Velocity S-wave (km/s) = 4.32265 2.64989 3.58519
# Velocity P-wave (km/s) = 7.33873 6.33767 6.85650
#
# Compressibility (1/GPa) = 0.01713500
#
# Stress axis : x y z
#
# Youngs Moduli (GPa) = 64.59987 77.58605 68.24188
#
# Poissons Ratio (x) = 0.26667 0.23996
# Poissons Ratio (y) = 0.22204 0.40879
# Poissons Ratio (z) = 0.22715 0.46477
#
# Static dielectric constant tensor:
#      x y z
#    x 1.702010 0.000000 -0.010180 
#    y 0.000000 1.739160 0.000000 
#    z -0.010180 0.000000 1.747580 
# 
# From -- ./inp_files/141091.got.cif
#   From: 2010.05.17/outbox.cif.g08.bks.cpg/sg12_71_cif.got.tgz:141091.got - 2010.06.03 13:09:07.
