data_PCOD9179572
_publ_section_title
;
Structure prediction by ZEFSAII (Michael W. Deem and Ramdas Pophale) SiO2 
 PCOD9179572
Probable space group: C 2/M
;
_chemical_formula_sum "Si O2"
_cell_formula_units_Z 56
_cell_length_a 29.458965
_cell_length_b 7.732783
_cell_length_c 19.882168
_cell_angle_alpha 90.000000
_cell_angle_beta 147.314683
_cell_angle_gamma 90.000000
_cell_volume 2445.854579
_symmetry_space_group_name_H-M "C 2/M"
_symmetry_group_IT_number 12
_symmetry_cell_setting 'monoclinic'
loop_
_space_group_symop_operation_xyz
x,y,z
-x,y,-z
-x,-y,-z
x,-y,z
1/2+x,1/2+y,z
1/2-x,1/2+y,-z
1/2-x,1/2-y,-z
1/2+x,1/2-y,z
loop_
_atom_site_type_symbol
_atom_site_label
_atom_site_fract_x
_atom_site_fract_y
_atom_site_fract_z
Si Si1 0.555041 0.707674 0.217734
Si Si2 0.407937 0.296666 0.587207
Si Si3 0.950539 0.200910 0.500822
Si Si4 0.347365 0.792865 0.136833
Si Si5 0.621104 0.794076 0.968761
Si Si6 0.311649 0.795379 0.237702
Si Si7 0.729164 0.293940 0.396086
O O1 0.563813 0.500000 0.231325
O O2 0.571229 0.779235 0.313681
O O3 0.457959 0.746701 0.083650
O O4 0.632498 0.767470 0.267668
O O5 0.427814 0.500000 0.614269
O O6 0.454142 0.219909 0.579685
O O7 0.307140 0.282103 0.452839
O O8 0.854850 0.208824 0.355111
O O9 0.000000 0.283458 0.500000
O O10 0.975445 0.000000 0.536980
O O11 0.392449 0.725798 0.125371
O O12 0.356522 0.727446 0.224633
O O13 0.357666 0.000000 0.152535
O O14 0.250000 0.750000 0.000000
O O15 0.625587 0.000000 0.969875
O O16 0.711971 0.732396 0.106762
O O17 0.325643 0.000000 0.259652
O O18 0.732374 0.500000 0.390586
O O19 0.750000 0.250000 0.500000
#
# Coordination Sequence:
#
# PCOD9179572 Si02
#       7
#     8   8   8   8   8   8   8
#     4   9  18  31  50  79 109 134 166 211 262 313
#     4   9  19  35  53  76 107 141 177 216 261 311
#     4  10  22  38  55  76 104 142 182 218 256 305
#     4   8  16  29  44  66  94 126 165 206 249 296
#     4  10  19  31  50  76 103 134 171 212 262 314
#     4  10  20  35  52  71 101 138 176 218 260 305
#     4   9  17  31  52  77 106 138 172 213 264 316
#
# _framework density 22.895883000000001
#
# number of rings (size 3 to 8) (size 9 to 14) (size 15 to 20)
#    0.000    2.714    0.000    2.143    2.000    4.857 
#    0.000    0.000    0.000    0.857    0.000    6.000 
#    0.000    0.000    0.000    0.000    0.000    0.000 
#
# Total GULP energy -156136.308136 kJ/mol
# GULP energy per Si atom -5576.296719 kJ/mol
# Density = 2.284377 g / cm^3
# Si number density = 22.895883 Si / 1000 Ang^3
#
#
#
# Elastic Constant Matrix: (Units=GPa)
#
#
# Indices 1 2 3 4 5 6 
#
# 1 61.6690 -1.6040 12.5498 0.0000 20.9901 0.0000
# 2 -1.6040 59.4480 3.3803 0.0000 -1.8050 0.0000
# 3 12.5498 3.3803 67.3141 0.0000 20.9419 0.0000
# 4 0.0000 0.0000 0.0000 25.7166 0.0000 8.5036
# 5 20.9901 -1.8050 20.9419 0.0000 40.2397 0.0000
# 6 0.0000 0.0000 0.0000 8.5036 0.0000 12.9319
#
#
#
# Elastic Compliance Matrix: (Units=1/GPa)
#
#
# Indices 1 2 3 4 5 6 
#
# 1 0.019738 0.000263 -0.000589 0.000000 -0.009978 0.000000
# 2 0.000263 0.016942 -0.001305 0.000000 0.001302 0.000000
# 3 -0.000589 -0.001305 0.017843 0.000000 -0.009037 0.000000
# 4 0.000000 0.000000 0.000000 0.049690 0.000000 -0.032674
# 5 -0.009978 0.001302 -0.009037 0.000000 0.034817 0.000000
# 6 0.000000 0.000000 0.000000 -0.032674 0.000000 0.098814
#
#
# Mechanical properties :
#
#
# Convention : Reuss Voigt Hill
#
# Bulk Modulus (GPa) = 19.50774 24.12035 21.81404
# Shear Modulus (GPa) = 19.36539 27.38465 23.37502
#
# Velocity S-wave (km/s) = 2.91142 3.46215 3.19866
# Velocity P-wave (km/s) = 4.45427 5.15166 4.81561
#
# Compressibility (1/GPa) = 0.05126171
#
# Stress axis : x y z
#
# Youngs Moduli (GPa) = 50.66269 59.02405 56.04576
#
# Poissons Ratio (x) = -0.01553 0.03301
# Poissons Ratio (y) = -0.01333 0.07313
# Poissons Ratio (z) = 0.02984 0.07702
#
# Static dielectric constant tensor:
#      x y z
#    x 1.910850 0.000000 0.019750 
#    y 0.000000 1.828040 0.000000 
#    z 0.019750 0.000000 1.885330 
# 
# From -- ./inp_files/295185.got.cif
#   From: 2010.05.17/outbox.cif.g08.bks.cpg/sg12_148_cif.got.tgz:295185.got - 2010.06.03 13:09:07.
