data_PCOD9179575
_publ_section_title
;
Structure prediction by ZEFSAII (Michael W. Deem and Ramdas Pophale) SiO2 
 PCOD9179575
Probable space group: C 2/M
;
_chemical_formula_sum "Si O2"
_cell_formula_units_Z 56
_cell_length_a 16.258904
_cell_length_b 7.935520
_cell_length_c 21.583713
_cell_angle_alpha 90.000000
_cell_angle_beta 52.270555
_cell_angle_gamma 90.000000
_cell_volume 2202.517759
_symmetry_space_group_name_H-M "C 2/M"
_symmetry_group_IT_number 12
_symmetry_cell_setting 'monoclinic'
loop_
_space_group_symop_operation_xyz
x,y,z
-x,y,-z
-x,-y,-z
x,-y,z
1/2+x,1/2+y,z
1/2-x,1/2+y,-z
1/2-x,1/2-y,-z
1/2+x,1/2-y,z
loop_
_atom_site_type_symbol
_atom_site_label
_atom_site_fract_x
_atom_site_fract_y
_atom_site_fract_z
Si Si1 0.838847 0.796706 0.164223
Si Si2 0.654819 0.199105 0.970812
Si Si3 0.388147 0.304039 0.408244
Si Si4 0.391535 0.802503 0.875306
Si Si5 0.119451 0.298604 0.453081
Si Si6 0.093093 0.196509 0.733738
Si Si7 0.126545 0.296176 0.314389
O O1 0.886781 0.729443 0.078834
O O2 0.880186 0.730936 0.211070
O O3 0.716089 0.752351 0.224953
O O4 0.847838 0.000000 0.159000
O O5 0.769287 0.280755 0.919722
O O6 0.667062 0.000000 0.974483
O O7 0.594904 0.261063 0.059686
O O8 0.363796 0.500000 0.415005
O O9 0.343707 0.246680 0.495108
O O10 0.366604 0.228096 0.349771
O O11 0.513124 0.279665 0.357358
O O12 0.467713 0.706740 0.793909
O O13 0.416832 0.000000 0.858043
O O14 0.117455 0.500000 0.454197
O O15 0.167780 0.249505 0.364738
O O16 0.000000 0.237763 0.500000
O O17 0.125970 0.000000 0.719712
O O18 0.113534 0.500000 0.319006
#
# Coordination Sequence:
#
# PCOD9179575 Si02
#       7
#     8   8   8   8   8   8   8
#     4  10  21  37  55  75 104 143 179 210 255 312
#     4  10  21  37  57  82 108 132 168 218 262 303
#     4  10  19  31  50  76 104 132 166 213 263 305
#     4  10  21  37  58  81 105 136 172 211 258 311
#     4   8  15  29  49  73  99 129 168 212 255 302
#     4  10  22  37  52  75 108 142 175 214 258 305
#     4   9  18  33  53  75  99 131 173 215 254 304
#
# _framework density 25.425446999999998
#
# number of rings (size 3 to 8) (size 9 to 14) (size 15 to 20)
#    0.000    2.429    0.000    3.000    0.000    9.429 
#    0.000    3.571    0.000    0.000    0.000    0.000 
#    0.000    0.000    0.000    0.000    0.000    0.000 
#
# Total GULP energy -156449.742302 kJ/mol
# GULP energy per Si atom -5587.490797 kJ/mol
# Density = 2.536758 g / cm^3
# Si number density = 25.425447 Si / 1000 Ang^3
#
#
#
# Elastic Constant Matrix: (Units=GPa)
#
#
# Indices 1 2 3 4 5 6 
#
# 1 82.1785 -6.4671 34.6853 0.0001 27.4738 0.0003
# 2 -6.4671 31.7604 8.7198 0.0002 1.4646 0.0006
# 3 34.6853 8.7198 213.9680 0.0000 33.5363 0.0000
# 4 0.0001 0.0002 0.0000 21.0358 0.0000 9.2105
# 5 27.4738 1.4646 33.5363 0.0000 57.0519 0.0001
# 6 0.0003 0.0006 0.0000 9.2105 0.0001 19.5291
#
#
#
# Elastic Compliance Matrix: (Units=1/GPa)
#
#
# Indices 1 2 3 4 5 6 
#
# 1 0.015342 0.003870 -0.001620 0.000000 -0.006535 0.000000
# 2 0.003870 0.032819 -0.001697 0.000000 -0.001709 -0.000001
# 3 -0.001620 -0.001697 0.005371 0.000000 -0.002333 0.000000
# 4 0.000000 0.000000 0.000000 0.059909 0.000000 -0.028255
# 5 -0.006535 -0.001709 -0.002333 0.000000 0.022090 0.000000
# 6 0.000000 -0.000001 0.000000 -0.028255 0.000000 0.064531
#
#
# Mechanical properties :
#
#
# Convention : Reuss Voigt Hill
#
# Bulk Modulus (GPa) = 18.30264 44.64253 31.47259
# Shear Modulus (GPa) = 23.02352 38.92131 30.97241
#
# Velocity S-wave (km/s) = 3.01247 3.91679 3.49401
# Velocity P-wave (km/s) = 4.39478 6.16858 5.35563
#
# Compressibility (1/GPa) = 0.05463692
#
# Stress axis : x y z
#
# Youngs Moduli (GPa) = 65.18110 30.47059 186.17939
#
# Poissons Ratio (x) = -0.11793 0.30170
# Poissons Ratio (y) = -0.25226 0.31595
# Poissons Ratio (z) = 0.10562 0.05171
#
# Static dielectric constant tensor:
#      x y z
#    x 2.119590 0.000000 0.034740 
#    y 0.000000 1.905810 0.000000 
#    z 0.034740 0.000000 2.017610 
# 
# From -- ./inp_files/313667.got.cif
#   From: 2010.05.17/outbox.cif.g08.bks.cpg/sg12_157_cif.got.tgz:313667.got - 2010.06.03 13:09:07.
