data_PCOD9179796
_publ_section_title
;
Structure prediction by ZEFSAII (Michael W. Deem and Ramdas Pophale) SiO2 
 PCOD9179796
Probable space group: C 2/M
;
_chemical_formula_sum "Si O2"
_cell_formula_units_Z 40
_cell_length_a 5.369622
_cell_length_b 14.487583
_cell_length_c 22.220651
_cell_angle_alpha 90.000000
_cell_angle_beta 96.958179
_cell_angle_gamma 90.000000
_cell_volume 1715.876176
_symmetry_space_group_name_H-M "C 2/M"
_symmetry_group_IT_number 12
_symmetry_cell_setting 'monoclinic'
loop_
_space_group_symop_operation_xyz
x,y,z
-x,y,-z
-x,-y,-z
x,-y,z
1/2+x,1/2+y,z
1/2-x,1/2+y,-z
1/2-x,1/2-y,-z
1/2+x,1/2-y,z
loop_
_atom_site_type_symbol
_atom_site_label
_atom_site_fract_x
_atom_site_fract_y
_atom_site_fract_z
Si Si1 0.508913 0.387307 0.431239
Si Si2 0.975041 0.388065 0.362503
Si Si3 0.731212 0.611795 0.964514
Si Si4 0.205944 0.645897 0.775839
Si Si5 0.230971 0.146668 0.825622
O O1 0.500000 0.355662 0.500000
O O2 0.508570 0.500000 0.432327
O O3 0.254669 0.359113 0.389552
O O4 0.762824 0.360054 0.404438
O O5 0.974520 0.500000 0.360241
O O6 0.894767 0.354208 0.294629
O O7 0.725207 0.500000 0.960241
O O8 0.705541 0.648511 0.896344
O O9 0.500000 0.640297 0.000000
O O10 0.000000 0.637855 0.000000
O O11 0.246697 0.749970 0.800115
O O12 0.481402 0.602998 0.789960
O O13 0.992626 0.603171 0.812154
#
# Coordination Sequence:
#
# PCOD9179796 Si02
#       5
#     8   8   8   8   8
#     4   9  17  30  49  77 111 142 177 224 274 321
#     4  10  19  31  51  79 109 142 180 222 267 315
#     4  10  21  38  60  85 111 137 169 216 271 323
#     4  10  21  36  52  78 109 144 184 219 263 311
#     4  10  21  38  56  78 107 143 180 216 263 315
#
# _framework density 23.311706999999998
#
# number of rings (size 3 to 8) (size 9 to 14) (size 15 to 20)
#    0.000    2.200    0.000    3.000    0.000    4.000 
#    0.000   12.000    0.000    0.000    0.000   56.000 
#    0.000    0.000    0.000    0.000    0.000    1.200 
#
# Total GULP energy -111903.234615 kJ/mol
# GULP energy per Si atom -5595.161731 kJ/mol
# Density = 2.325865 g / cm^3
# Si number density = 23.311707 Si / 1000 Ang^3
#
#
#
# Elastic Constant Matrix: (Units=GPa)
#
#
# Indices 1 2 3 4 5 6 
#
# 1 113.6970 -8.9527 -34.4642 0.0000 -0.9634 0.0000
# 2 -8.9527 98.1885 -3.0775 0.0000 0.0812 0.0000
# 3 -34.4642 -3.0775 74.2269 0.0000 -1.3662 0.0000
# 4 0.0000 0.0000 0.0000 35.3519 0.0000 7.6610
# 5 -0.9634 0.0812 -1.3662 0.0000 51.6012 0.0000
# 6 0.0000 0.0000 0.0000 7.6610 0.0000 -20.1254
#
#
#
# Elastic Compliance Matrix: (Units=1/GPa)
#
#
# Indices 1 2 3 4 5 6 
#
# 1 0.010358 0.001096 0.004861 0.000000 0.000320 0.000000
# 2 0.001096 0.010314 0.000937 0.000000 0.000029 0.000000
# 3 0.004861 0.000937 0.015777 0.000000 0.000507 0.000000
# 4 0.000000 0.000000 0.000000 0.026131 0.000000 0.009947
# 5 0.000320 0.000029 0.000507 0.000000 0.019399 0.000000
# 6 0.000000 0.000000 0.000000 0.009947 0.000000 -0.045902
#
#
# Mechanical properties :
#
#
# Convention : Reuss Voigt Hill
#
# Bulk Modulus (GPa) = 19.90556 21.45819 20.68188
# Shear Modulus (GPa) = 128.09320 35.53933 81.81626
#
# Velocity S-wave (km/s) = 7.42073 3.90876 5.93067
# Velocity P-wave (km/s) = 9.05431 5.44022 7.46915
#
# Compressibility (1/GPa) = 0.05023721
#
# Stress axis : x y z
#
# Youngs Moduli (GPa) = 96.54657 96.95734 63.38265
#
# Poissons Ratio (x) = -0.10631 -0.30807
# Poissons Ratio (y) = -0.10586 -0.05941
# Poissons Ratio (z) = -0.46927 -0.09087
#
# Static dielectric constant tensor:
#      x y z
#    x 1.945900 0.000000 -0.005100 
#    y 0.000000 1.795410 0.000000 
#    z -0.005100 0.000000 1.785230 
# 
# From -- ./inp_files/252598.got.cif
#   From: 2010.05.17/outbox.cif.g08.bks.cpg/sg12_127_cif.got.tgz:252598.got - 2010.06.03 13:09:07.
