data_PCOD9179144
_publ_section_title
;
Structure prediction by ZEFSAII (Michael W. Deem and Ramdas Pophale) SiO2 
 PCOD9179144
Probable space group: C 2/M
;
_chemical_formula_sum "Si O2"
_cell_formula_units_Z 64
_cell_length_a 25.950200
_cell_length_b 7.825516
_cell_length_c 15.621819
_cell_angle_alpha 90.000000
_cell_angle_beta 102.100189
_cell_angle_gamma 90.000000
_cell_volume 3101.898444
_symmetry_space_group_name_H-M "C 2/M"
_symmetry_group_IT_number 12
_symmetry_cell_setting 'monoclinic'
loop_
_space_group_symop_operation_xyz
x,y,z
-x,y,-z
-x,-y,-z
x,-y,z
1/2+x,1/2+y,z
1/2-x,1/2+y,-z
1/2-x,1/2-y,-z
1/2+x,1/2-y,z
loop_
_atom_site_type_symbol
_atom_site_label
_atom_site_fract_x
_atom_site_fract_y
_atom_site_fract_z
Si Si1 0.045297 0.802879 0.085535
Si Si2 0.385393 0.210247 0.677501
Si Si3 0.383657 0.795307 0.184475
Si Si4 0.190026 0.705640 0.501905
Si Si5 0.693802 0.793518 0.694466
Si Si6 0.808501 0.297257 0.802085
Si Si7 0.356491 0.700887 0.984137
Si Si8 0.997779 0.305549 0.754253
O O1 0.024002 0.696088 0.156696
O O2 0.055711 0.000000 0.117184
O O3 0.095031 0.725151 0.053992
O O4 0.000000 0.811800 0.000000
O O5 0.349509 0.266549 0.585544
O O6 0.355652 0.264890 0.755153
O O7 0.446010 0.270133 0.689797
O O8 0.386391 0.000000 0.679756
O O9 0.345082 0.729790 0.244975
O O10 0.359188 0.764807 0.081798
O O11 0.443568 0.727512 0.218928
O O12 0.387433 0.000000 0.193415
O O13 0.185801 0.500000 0.501077
O O14 0.250000 0.750000 0.500000
O O15 0.179232 0.768137 0.594369
O O16 0.753587 0.746100 0.737808
O O17 0.690941 0.000000 0.692988
O O18 0.813265 0.500000 0.809388
O O19 0.809518 0.228684 0.900083
O O20 0.365836 0.500000 0.994790
O O21 0.003842 0.500000 0.724544
#
# Coordination Sequence:
#
# PCOD9179144 Si02
#       8
#     8   8   8   8   8   8   8   8
#     4  10  19  31  48  75 108 138 178 226 271 317
#     4   9  18  32  53  85 114 135 171 225 279 324
#     4  10  22  38  55  77 109 152 193 223 264 326
#     4  10  19  35  59  84 111 139 176 227 279 329
#     4  10  22  39  57  80 111 145 184 229 275 328
#     4  11  21  35  57  84 113 143 180 229 279 328
#     4  11  22  35  54  81 113 148 185 227 276 324
#     4  10  19  33  54  78 109 146 183 223 269 321
#
# _framework density 20.632525000000001
#
# number of rings (size 3 to 8) (size 9 to 14) (size 15 to 20)
#    0.000    1.875    3.750    0.750    0.000    1.750 
#    0.000    1.250    0.000    3.750    0.000    0.000 
#    0.000    4.000    0.000    0.000    0.000    0.000 
#
# Total GULP energy -178456.900772 kJ/mol
# GULP energy per Si atom -5576.778149 kJ/mol
# Density = 2.058556 g / cm^3
# Si number density = 20.632525 Si / 1000 Ang^3
#
#
#
# Elastic Constant Matrix: (Units=GPa)
#
#
# Indices 1 2 3 4 5 6 
#
# 1 67.5161 6.9922 64.2831 0.0000 3.0108 0.0000
# 2 6.9922 28.9208 2.9308 0.0000 -0.6489 0.0000
# 3 64.2831 2.9308 153.5229 0.0000 12.6769 0.0000
# 4 0.0000 0.0000 0.0000 11.4905 0.0000 2.2316
# 5 3.0108 -0.6489 12.6769 0.0000 37.9213 0.0000
# 6 0.0000 0.0000 0.0000 2.2316 0.0000 17.5957
#
#
#
# Elastic Compliance Matrix: (Units=1/GPa)
#
#
# Indices 1 2 3 4 5 6 
#
# 1 0.025428 -0.005034 -0.010672 0.000000 0.001463 0.000000
# 2 -0.005034 0.035666 0.001381 0.000000 0.000548 0.000000
# 3 -0.010672 0.001381 0.011193 0.000000 -0.002871 0.000000
# 4 0.000000 0.000000 0.000000 0.089227 0.000000 -0.011316
# 5 0.001463 0.000548 -0.002871 0.000000 0.027223 0.000000
# 6 0.000000 0.000000 0.000000 -0.011316 0.000000 0.058267
#
#
# Mechanical properties :
#
#
# Convention : Reuss Voigt Hill
#
# Bulk Modulus (GPa) = 22.91492 44.26355 33.58923
# Shear Modulus (GPa) = 17.22951 25.11840 21.17395
#
# Velocity S-wave (km/s) = 2.89288 3.49294 3.20698
# Velocity P-wave (km/s) = 4.72109 6.14551 5.47978
#
# Compressibility (1/GPa) = 0.04363969
#
# Stress axis : x y z
#
# Youngs Moduli (GPa) = 39.32614 28.03751 89.34187
#
# Poissons Ratio (x) = 0.14113 0.95346
# Poissons Ratio (y) = 0.19795 -0.12342
# Poissons Ratio (z) = 0.41969 -0.03873
#
# Static dielectric constant tensor:
#      x y z
#    x 1.765040 0.000000 0.031990 
#    y 0.000000 1.775220 0.000000 
#    z 0.031990 0.000000 1.755600 
# 
# From -- ./inp_files/244079.got.cif
#   From: 2010.05.17/outbox.cif.g08.bks.cpg/sg12_123_cif.got.tgz:244079.got - 2010.06.03 13:09:07.
