data_PCOD9179324
_publ_section_title
;
Structure prediction by ZEFSAII (Michael W. Deem and Ramdas Pophale) SiO2 
 PCOD9179324
Probable space group: C 2/M
;
_chemical_formula_sum "Si O2"
_cell_formula_units_Z 64
_cell_length_a 25.327146
_cell_length_b 13.928221
_cell_length_c 14.631636
_cell_angle_alpha 90.000000
_cell_angle_beta 44.896250
_cell_angle_gamma 90.000000
_cell_volume 3643.107248
_symmetry_space_group_name_H-M "C 2/M"
_symmetry_group_IT_number 12
_symmetry_cell_setting 'monoclinic'
loop_
_space_group_symop_operation_xyz
x,y,z
-x,y,-z
-x,-y,-z
x,-y,z
1/2+x,1/2+y,z
1/2-x,1/2+y,-z
1/2-x,1/2-y,-z
1/2+x,1/2-y,z
loop_
_atom_site_type_symbol
_atom_site_label
_atom_site_fract_x
_atom_site_fract_y
_atom_site_fract_z
Si Si1 0.329760 0.613112 0.719384
Si Si2 0.769239 0.721586 0.279532
Si Si3 0.451203 0.392411 0.943287
Si Si4 0.396956 0.677924 0.193320
Si Si5 0.225844 0.889798 0.511328
Si Si6 0.168175 0.613206 0.452143
Si Si7 0.546464 0.743192 0.532002
Si Si8 0.076654 0.887590 0.223060
O O1 0.330438 0.500000 0.700208
O O2 0.252695 0.660197 0.781042
O O3 0.393160 0.667476 0.582244
O O4 0.353922 0.628952 0.794439
O O5 0.855477 0.730271 0.201554
O O6 0.730544 0.673914 0.415810
O O7 0.731770 0.827359 0.318106
O O8 0.484454 0.500000 0.895192
O O9 0.519825 0.318607 0.869329
O O10 0.407510 0.374949 0.903440
O O11 0.405124 0.387835 0.093055
O O12 0.342288 0.639494 0.339018
O O13 0.300355 0.880359 0.482556
O O14 0.217047 0.000000 0.495319
O O15 0.163759 0.500000 0.434960
O O16 0.092266 0.671989 0.525454
O O17 0.500000 0.778496 0.500000
O O18 0.489801 0.683314 0.664995
O O19 0.054096 0.000000 0.265101
#
# Coordination Sequence:
#
# PCOD9179324 Si02
#       8
#     8   8   8   8   8   8   8   8
#     4   9  17  31  48  73 101 124 158 203 246 294
#     4  10  20  31  50  73  99 129 162 198 251 294
#     4  10  20  32  49  72  98 134 166 196 245 293
#     4  10  19  32  46  70 102 131 162 198 235 295
#     4  10  19  31  49  74 101 128 157 200 252 296
#     4   9  18  29  41  63  94 126 161 197 236 285
#     4   9  17  28  45  69  98 129 160 196 244 294
#     4   9  18  30  48  72  99 128 160 198 245 293
#
# _framework density 17.567422000000001
#
# number of rings (size 3 to 8) (size 9 to 14) (size 15 to 20)
#    0.000    2.500    0.000    3.750    5.250    2.750 
#    0.000    0.625    0.000    0.000    0.000    8.750 
#    0.000    0.000    0.000    0.000    0.000    0.000 
#
# Total GULP energy -178160.101545 kJ/mol
# GULP energy per Si atom -5567.503173 kJ/mol
# Density = 1.752744 g / cm^3
# Si number density = 17.567422 Si / 1000 Ang^3
#
#
#
# Elastic Constant Matrix: (Units=GPa)
#
#
# Indices 1 2 3 4 5 6 
#
# 1 107.6382 44.7217 31.0416 0.0000 9.5576 0.0000
# 2 44.7217 75.0853 6.0132 0.0000 1.8706 0.0000
# 3 31.0416 6.0132 32.7462 0.0000 7.5310 0.0000
# 4 0.0000 0.0000 0.0000 10.3729 0.0000 0.1184
# 5 9.5576 1.8706 7.5310 0.0000 25.6366 0.0000
# 6 0.0000 0.0000 0.0000 0.1184 0.0000 33.3565
#
#
#
# Elastic Compliance Matrix: (Units=1/GPa)
#
#
# Indices 1 2 3 4 5 6 
#
# 1 0.017411 -0.009173 -0.014458 0.000000 -0.001574 0.000000
# 2 -0.009173 0.018352 0.005198 0.000000 0.000554 0.000000
# 3 -0.014458 0.005198 0.045189 0.000000 -0.008264 0.000000
# 4 0.000000 0.000000 0.000000 0.096409 0.000000 -0.000342
# 5 -0.001574 0.000554 -0.008264 0.000000 0.041981 0.000000
# 6 0.000000 0.000000 0.000000 -0.000342 0.000000 0.029980
#
#
# Mechanical properties :
#
#
# Convention : Reuss Voigt Hill
#
# Bulk Modulus (GPa) = 22.68278 42.11363 32.39820
# Shear Modulus (GPa) = 16.61773 22.78609 19.70191
#
# Velocity S-wave (km/s) = 3.07895 3.60539 3.35252
# Velocity P-wave (km/s) = 5.05765 6.43089 5.78516
#
# Compressibility (1/GPa) = 0.04408631
#
# Stress axis : x y z
#
# Youngs Moduli (GPa) = 57.43499 54.49097 22.12908
#
# Poissons Ratio (x) = 0.49985 0.31995
# Poissons Ratio (y) = 0.52686 -0.11503
# Poissons Ratio (z) = 0.83040 -0.28326
#
# Static dielectric constant tensor:
#      x y z
#    x 1.655530 0.000000 -0.009810 
#    y 0.000000 1.610740 0.000000 
#    z -0.009810 0.000000 1.589030 
# 
# From -- ./inp_files/246345.got.cif
#   From: 2010.05.17/outbox.cif.g08.bks.cpg/sg12_124_cif.got.tgz:246345.got - 2010.06.03 13:09:07.
