data_PCOD9179687
_publ_section_title
;
Structure prediction by ZEFSAII (Michael W. Deem and Ramdas Pophale) SiO2 
 PCOD9179687
Probable space group: C 2/M
;
_chemical_formula_sum "Si O2"
_cell_formula_units_Z 64
_cell_length_a 24.805847
_cell_length_b 25.342937
_cell_length_c 12.998787
_cell_angle_alpha 90.000000
_cell_angle_beta 155.101874
_cell_angle_gamma 90.000000
_cell_volume 3440.347154
_symmetry_space_group_name_H-M "C 2/M"
_symmetry_group_IT_number 12
_symmetry_cell_setting 'monoclinic'
loop_
_space_group_symop_operation_xyz
x,y,z
-x,y,-z
-x,-y,-z
x,-y,z
1/2+x,1/2+y,z
1/2-x,1/2+y,-z
1/2-x,1/2-y,-z
1/2+x,1/2-y,z
loop_
_atom_site_type_symbol
_atom_site_label
_atom_site_fract_x
_atom_site_fract_y
_atom_site_fract_z
Si Si1 0.136953 0.058991 0.297731
Si Si2 0.442380 0.631226 0.286523
Si Si3 0.279605 0.358639 0.709962
Si Si4 0.944001 0.940409 0.126539
Si Si5 0.831355 0.803537 0.388671
Si Si6 0.785798 0.690061 0.031741
Si Si7 0.400906 0.241166 0.920738
Si Si8 0.961312 0.301560 0.633308
O O1 0.213791 0.107790 0.384376
O O2 0.086626 0.065573 0.326307
O O3 0.192968 0.000000 0.381555
O O4 0.000000 0.059178 0.000000
O O5 0.500000 0.636567 0.500000
O O6 0.443388 0.572686 0.245104
O O7 0.537978 0.663787 0.376694
O O8 0.299988 0.654804 0.042017
O O9 0.135218 0.345882 0.493814
O O10 0.351446 0.397640 0.913404
O O11 0.354172 0.302340 0.833314
O O12 0.902863 0.000000 0.032488
O O13 0.761638 0.823785 0.166081
O O14 0.874140 0.744316 0.435486
O O15 0.728503 0.794976 0.301588
O O16 0.750000 0.750000 0.000000
O O17 0.936290 0.683323 0.275887
O O18 0.469808 0.226193 0.148226
O O19 0.500000 0.231165 0.000000
#
# Coordination Sequence:
#
# PCOD9179687 Si02
#       8
#     8   8   8   8   8   8   8   8
#     4   8  15  30  51  74  97 124 164 210 253 296
#     4  10  20  34  52  73 100 134 171 215 256 292
#     4  10  19  31  51  74 104 135 165 206 257 308
#     4  10  20  34  54  78 100 128 171 219 259 300
#     4   9  19  31  46  71  97 133 172 204 237 293
#     4  10  19  32  49  68 100 134 173 211 241 291
#     4  10  20  31  45  72 111 141 162 196 244 310
#     4  10  20  31  46  73 102 135 176 199 248 298
#
# _framework density 18.602774
#
# number of rings (size 3 to 8) (size 9 to 14) (size 15 to 20)
#    0.000    2.375    1.250    3.000    3.500    3.250 
#    0.000    0.000    0.000    2.250    0.000    5.250 
#    0.000   20.500    0.000    0.000    0.000    0.000 
#
# Total GULP energy -178142.243740 kJ/mol
# GULP energy per Si atom -5566.945117 kJ/mol
# Density = 1.856043 g / cm^3
# Si number density = 18.602774 Si / 1000 Ang^3
#
#
#
# Elastic Constant Matrix: (Units=GPa)
#
#
# Indices 1 2 3 4 5 6 
#
# 1 105.2546 56.3891 42.5714 0.0000 36.3089 0.0000
# 2 56.3891 84.8013 21.0780 0.0000 16.6261 0.0000
# 3 42.5714 21.0780 45.9042 0.0000 30.4983 0.0000
# 4 0.0000 0.0000 0.0000 10.3770 0.0000 1.3327
# 5 36.3089 16.6261 30.4983 0.0000 31.7682 0.0000
# 6 0.0000 0.0000 0.0000 1.3327 0.0000 28.8916
#
#
#
# Elastic Compliance Matrix: (Units=1/GPa)
#
#
# Indices 1 2 3 4 5 6 
#
# 1 0.022869 -0.010744 -0.007304 0.000000 -0.013502 0.000000
# 2 -0.010744 0.018466 -0.000698 0.000000 0.003285 0.000000
# 3 -0.007304 -0.000698 0.063755 0.000000 -0.052492 0.000000
# 4 0.000000 0.000000 0.000000 0.096941 0.000000 -0.004472
# 5 -0.013502 0.003285 -0.052492 0.000000 0.095585 0.000000
# 6 0.000000 0.000000 0.000000 -0.004472 0.000000 0.034818
#
#
# Mechanical properties :
#
#
# Convention : Reuss Voigt Hill
#
# Bulk Modulus (GPa) = 14.79363 52.89301 33.84332
# Shear Modulus (GPa) = 12.74021 21.93547 17.33784
#
# Velocity S-wave (km/s) = 2.61981 3.43760 3.05618
# Velocity P-wave (km/s) = 4.13774 6.65212 5.53948
#
# Compressibility (1/GPa) = 0.06759666
#
# Stress axis : x y z
#
# Youngs Moduli (GPa) = 43.72759 54.15398 15.68514
#
# Poissons Ratio (x) = 0.58183 0.11457
# Poissons Ratio (y) = 0.46981 0.01095
# Poissons Ratio (z) = 0.31941 0.03779
#
# Static dielectric constant tensor:
#      x y z
#    x 1.733640 0.000000 -0.017940 
#    y 0.000000 1.631220 0.000000 
#    z -0.017940 0.000000 1.705210 
# 
# From -- ./inp_files/170634.got.cif
#   From: 2010.05.17/outbox.cif.g08.bks.cpg/sg12_86_cif.got.tgz:170634.got - 2010.06.03 13:09:07.
