data_PCOD9179702
_publ_section_title
;
Structure prediction by ZEFSAII (Michael W. Deem and Ramdas Pophale) SiO2 
 PCOD9179702
Probable space group: C 2/M
;
_chemical_formula_sum "Si O2"
_cell_formula_units_Z 56
_cell_length_a 28.931826
_cell_length_b 7.371230
_cell_length_c 17.668292
_cell_angle_alpha 90.000000
_cell_angle_beta 139.450273
_cell_angle_gamma 90.000000
_cell_volume 2449.603112
_symmetry_space_group_name_H-M "C 2/M"
_symmetry_group_IT_number 12
_symmetry_cell_setting 'monoclinic'
loop_
_space_group_symop_operation_xyz
x,y,z
-x,y,-z
-x,-y,-z
x,-y,z
1/2+x,1/2+y,z
1/2-x,1/2+y,-z
1/2-x,1/2-y,-z
1/2+x,1/2-y,z
loop_
_atom_site_type_symbol
_atom_site_label
_atom_site_fract_x
_atom_site_fract_y
_atom_site_fract_z
Si Si1 0.663403 0.779025 0.705097
Si Si2 0.264530 0.215744 0.430837
Si Si3 0.410063 0.221127 0.535705
Si Si4 0.471631 0.206839 0.042626
Si Si5 0.688392 0.280524 0.188838
Si Si6 0.465980 0.777721 0.200441
Si Si7 0.331870 0.783681 0.119840
O O1 0.606725 0.721727 0.570992
O O2 0.742491 0.728491 0.774484
O O3 0.650909 0.714979 0.774486
O O4 0.662503 0.000000 0.704588
O O5 0.250000 0.250000 0.500000
O O6 0.341691 0.280680 0.499568
O O7 0.206338 0.278916 0.297272
O O8 0.266494 0.000000 0.423384
O O9 0.480822 0.277894 0.666651
O O10 0.411509 0.000000 0.536702
O O11 0.489679 0.286871 0.147043
O O12 0.499385 0.000000 0.077695
O O13 0.500000 0.291828 0.000000
O O14 0.386157 0.205847 0.931788
O O15 0.682959 0.500000 0.179511
O O16 0.387018 0.717285 0.125508
O O17 0.466542 0.000000 0.197195
O O18 0.341329 0.000000 0.134226
O O19 0.250000 0.750000 0.000000
#
# Coordination Sequence:
#
# PCOD9179702 Si02
#       7
#     8   8   8   8   8   8   8
#     4   8  15  29  49  73  97 124 157 195 243 293
#     4   9  18  30  49  72  94 125 162 200 241 287
#     4   8  15  29  48  70  99 127 154 198 248 284
#     4  10  21  33  47  69  96 129 167 201 239 289
#     4   9  18  33  49  69  96 125 160 198 240 291
#     4   9  18  31  47  72 101 126 160 205 244 285
#     4  10  19  31  51  76 100 126 161 200 239 289
#
# _framework density 22.860847
#
# number of rings (size 3 to 8) (size 9 to 14) (size 15 to 20)
#    0.000    3.000    0.000    2.571    2.000    1.429 
#    0.000    2.857    0.000    1.714    0.000    1.000 
#    0.000    0.000    0.000    0.000    0.000    0.000 
#
# Total GULP energy -156329.247363 kJ/mol
# GULP energy per Si atom -5583.187406 kJ/mol
# Density = 2.280882 g / cm^3
# Si number density = 22.860847 Si / 1000 Ang^3
#
#
#
# Elastic Constant Matrix: (Units=GPa)
#
#
# Indices 1 2 3 4 5 6 
#
# 1 113.7856 2.9760 52.3430 0.0000 -39.1585 0.0000
# 2 2.9760 81.2781 -5.8025 0.0000 -3.0066 0.0000
# 3 52.3430 -5.8025 114.0943 0.0000 -15.0857 0.0000
# 4 0.0000 0.0000 0.0000 10.3199 0.0000 7.5340
# 5 -39.1585 -3.0066 -15.0857 0.0000 37.5386 0.0000
# 6 0.0000 0.0000 0.0000 7.5340 0.0000 -1.9691
#
#
#
# Elastic Compliance Matrix: (Units=1/GPa)
#
#
# Indices 1 2 3 4 5 6 
#
# 1 0.016536 -0.000455 -0.005633 0.000000 0.014950 0.000000
# 2 -0.000455 0.012422 0.000960 0.000000 0.000907 0.000000
# 3 -0.005633 0.000960 0.011228 0.000000 -0.001287 0.000000
# 4 0.000000 0.000000 0.000000 0.025546 0.000000 0.097740
# 5 0.014950 0.000907 -0.001287 0.000000 0.041790 0.000000
# 6 0.000000 0.000000 0.000000 0.097740 0.000000 -0.133882
#
#
# Mechanical properties :
#
#
# Convention : Reuss Voigt Hill
#
# Bulk Modulus (GPa) = 33.40945 45.35454 39.38200
# Shear Modulus (GPa) = -815.87057 26.48731 -394.69163
#
# Velocity S-wave (km/s) = -18.91191 3.40756 -13.15387
# Velocity P-wave (km/s) = 21.49964 5.94680 14.60941
#
# Compressibility (1/GPa) = 0.02993165
#
# Stress axis : x y z
#
# Youngs Moduli (GPa) = 60.47249 80.50125 89.06687
#
# Poissons Ratio (x) = 0.03659 0.50170
# Poissons Ratio (y) = 0.02749 -0.08552
# Poissons Ratio (z) = 0.34063 -0.07730
#
# Static dielectric constant tensor:
#      x y z
#    x 1.850350 0.000000 -0.028770 
#    y 0.000000 1.869380 0.000000 
#    z -0.028770 0.000000 1.836940 
# 
# From -- ./inp_files/223929.got.cif
#   From: 2010.05.17/outbox.cif.g08.bks.cpg/sg12_112_cif.got.tgz:223929.got - 2010.06.03 13:09:07.
