data_PCOD9179254
_publ_section_title
;
Structure prediction by ZEFSAII (Michael W. Deem and Ramdas Pophale) SiO2 
 PCOD9179254
Probable space group: C 2/M
;
_chemical_formula_sum "Si O2"
_cell_formula_units_Z 56
_cell_length_a 14.799426
_cell_length_b 9.464651
_cell_length_c 27.680394
_cell_angle_alpha 90.000000
_cell_angle_beta 137.715575
_cell_angle_gamma 90.000000
_cell_volume 2608.645740
_symmetry_space_group_name_H-M "C 2/M"
_symmetry_group_IT_number 12
_symmetry_cell_setting 'monoclinic'
loop_
_space_group_symop_operation_xyz
x,y,z
-x,y,-z
-x,-y,-z
x,-y,z
1/2+x,1/2+y,z
1/2-x,1/2+y,-z
1/2-x,1/2-y,-z
1/2+x,1/2-y,z
loop_
_atom_site_type_symbol
_atom_site_label
_atom_site_fract_x
_atom_site_fract_y
_atom_site_fract_z
Si Si1 0.296610 0.156553 0.214169
Si Si2 0.137969 0.339846 0.927473
Si Si3 0.546439 0.337230 0.654471
Si Si4 0.302803 0.660891 0.638529
Si Si5 0.867094 0.328945 0.515933
Si Si6 0.471170 0.158219 0.771368
Si Si7 0.911922 0.656229 0.918439
O O1 0.327758 0.266145 0.269019
O O2 0.431797 0.144515 0.236458
O O3 0.190533 0.223017 0.135715
O O4 0.258453 0.000000 0.216096
O O5 0.188397 0.500000 0.936266
O O6 0.066877 0.278710 0.851188
O O7 0.015692 0.352181 0.915959
O O8 0.250000 0.250000 0.000000
O O9 0.568033 0.500000 0.649373
O O10 0.424706 0.337903 0.646584
O O11 0.498919 0.240155 0.591187
O O12 0.287432 0.500000 0.648736
O O13 0.172062 0.700183 0.555190
O O14 0.346844 0.755529 0.700910
O O15 0.863887 0.500000 0.521365
O O16 0.750000 0.250000 0.500000
O O17 0.432149 0.000000 0.772083
O O18 0.847661 0.500000 0.899508
O O19 0.000000 0.687469 0.000000
#
# Coordination Sequence:
#
# PCOD9179254 Si02
#       7
#     8   8   8   8   8   8   8
#     4  10  19  31  49  72  98 128 162 201 243 287
#     4  10  21  36  53  74  98 125 159 198 240 286
#     4   9  16  26  41  63  93 128 163 199 241 287
#     4   8  15  25  39  62  92 126 161 197 237 282
#     4   9  15  23  36  59  92 127 163 201 241 285
#     4   9  18  31  47  69  97 127 160 200 242 284
#     4  10  21  36  53  73  98 128 160 196 240 290
#
# _framework density 21.467077
#
# number of rings (size 3 to 8) (size 9 to 14) (size 15 to 20)
#    0.000    2.714    0.000    3.000    0.000    6.000 
#    0.000    0.000    0.000    0.000    0.000    1.000 
#    0.000    8.000    0.000    0.000    0.000    0.000 
#
# Total GULP energy -156136.461920 kJ/mol
# GULP energy per Si atom -5576.302211 kJ/mol
# Density = 2.141822 g / cm^3
# Si number density = 21.467077 Si / 1000 Ang^3
#
#
#
# Elastic Constant Matrix: (Units=GPa)
#
#
# Indices 1 2 3 4 5 6 
#
# 1 25.6278 1.4036 -1.9808 0.0000 -9.8585 0.0000
# 2 1.4036 123.1520 95.6329 0.0000 -9.2804 0.0000
# 3 -1.9808 95.6329 146.7258 0.0000 -29.8772 0.0000
# 4 0.0000 0.0000 0.0000 71.1155 0.0000 4.2094
# 5 -9.8585 -9.2804 -29.8772 0.0000 18.4981 0.0000
# 6 0.0000 0.0000 0.0000 4.2094 0.0000 8.0321
#
#
#
# Elastic Compliance Matrix: (Units=1/GPa)
#
#
# Indices 1 2 3 4 5 6 
#
# 1 0.067746 -0.014363 0.024080 0.000000 0.067793 0.000000
# 2 -0.014363 0.022110 -0.020719 0.000000 -0.030026 0.000000
# 3 0.024080 -0.020719 0.031502 0.000000 0.053319 0.000000
# 4 0.000000 0.000000 0.000000 0.014512 0.000000 -0.007605
# 5 0.067793 -0.030026 0.053319 0.000000 0.161244 0.000000
# 6 0.000000 0.000000 0.000000 -0.007605 0.000000 0.128486
#
#
# Mechanical properties :
#
#
# Convention : Reuss Voigt Hill
#
# Bulk Modulus (GPa) = 10.06488 53.95746 32.01117
# Shear Modulus (GPa) = 10.40102 32.89248 21.64675
#
# Velocity S-wave (km/s) = 2.20355 3.91862 3.17893
# Velocity P-wave (km/s) = 3.34258 6.75749 5.33088
#
# Compressibility (1/GPa) = 0.09935543
#
# Stress axis : x y z
#
# Youngs Moduli (GPa) = 14.76093 45.22770 31.74401
#
# Poissons Ratio (x) = 0.64960 -0.76441
# Poissons Ratio (y) = 0.21201 0.65771
# Poissons Ratio (z) = -0.35545 0.93708
#
# Static dielectric constant tensor:
#      x y z
#    x 1.856750 0.000000 0.046970 
#    y 0.000000 1.793810 0.000000 
#    z 0.046970 0.000000 1.859430 
# 
# From -- ./inp_files/313722.got.cif
#   From: 2010.05.17/outbox.cif.g08.bks.cpg/sg12_157_cif.got.tgz:313722.got - 2010.06.03 13:09:07.
