data_PCOD9179982
_publ_section_title
;
Structure prediction by ZEFSAII (Michael W. Deem and Ramdas Pophale) SiO2 
 PCOD9179982
Probable space group: C 2/M
;
_chemical_formula_sum "Si O2"
_cell_formula_units_Z 56
_cell_length_a 21.139800
_cell_length_b 8.508631
_cell_length_c 22.988961
_cell_angle_alpha 90.000000
_cell_angle_beta 48.397331
_cell_angle_gamma 90.000000
_cell_volume 3092.048496
_symmetry_space_group_name_H-M "C 2/M"
_symmetry_group_IT_number 12
_symmetry_cell_setting 'monoclinic'
loop_
_space_group_symop_operation_xyz
x,y,z
-x,y,-z
-x,-y,-z
x,-y,z
1/2+x,1/2+y,z
1/2-x,1/2+y,-z
1/2-x,1/2-y,-z
1/2+x,1/2-y,z
loop_
_atom_site_type_symbol
_atom_site_label
_atom_site_fract_x
_atom_site_fract_y
_atom_site_fract_z
Si Si1 0.257650 0.691784 0.327600
Si Si2 0.949412 0.189549 0.232546
Si Si3 0.251916 0.310519 0.090012
Si Si4 0.673186 0.809650 0.259036
Si Si5 0.679897 0.811182 0.497596
Si Si6 0.488253 0.688543 0.341216
Si Si7 0.884951 0.687574 0.923581
O O1 0.258187 0.500000 0.326805
O O2 0.355154 0.742852 0.273656
O O3 0.213866 0.743917 0.294778
O O4 0.207042 0.739890 0.416284
O O5 0.971973 0.241857 0.284469
O O6 0.022218 0.247362 0.145053
O O7 0.949477 0.000000 0.232498
O O8 0.255405 0.500000 0.086453
O O9 0.228454 0.260056 0.169313
O O10 0.176079 0.259949 0.092726
O O11 0.338140 0.245648 0.010130
O O12 0.578242 0.749894 0.308004
O O13 0.671169 0.000000 0.260313
O O14 0.750000 0.750000 0.500000
O O15 0.588866 0.749375 0.572694
O O16 0.680026 0.000000 0.499075
O O17 0.487908 0.500000 0.341746
O O18 0.887306 0.500000 0.921763
#
# Coordination Sequence:
#
# PCOD9179982 Si02
#       7
#     8   8   8   8   8   8   8
#     4   9  20  38  59  81 109 147 186 227 276 329
#     4  10  19  35  56  80 109 144 186 226 269 326
#     4   9  18  32  52  80 109 140 179 225 275 325
#     4  10  20  38  60  82 110 145 188 230 272 328
#     4  11  21  37  59  85 113 145 188 232 278 325
#     4  11  22  36  57  84 114 147 184 228 278 329
#     4  10  19  31  52  83 110 138 181 228 274 321
#
# _framework density 18.110970999999999
#
# number of rings (size 3 to 8) (size 9 to 14) (size 15 to 20)
#    0.000    2.000    2.857    1.286    0.000    2.286 
#    0.000    5.714    0.000    4.286    0.000    0.000 
#    0.000    0.000    0.000    0.000    0.000    0.000 
#
# Total GULP energy -156318.063268 kJ/mol
# GULP energy per Si atom -5582.787974 kJ/mol
# Density = 1.806975 g / cm^3
# Si number density = 18.110971 Si / 1000 Ang^3
#
#
#
# Elastic Constant Matrix: (Units=GPa)
#
#
# Indices 1 2 3 4 5 6 
#
# 1 150.7197 24.2318 108.2990 0.0000 -0.5239 0.0002
# 2 24.2318 14.8963 28.9215 -0.0001 0.5882 0.0005
# 3 108.2990 28.9215 204.8552 0.0000 -10.2659 0.0000
# 4 0.0000 -0.0001 0.0000 28.0884 0.0000 -5.7420
# 5 -0.5239 0.5882 -10.2659 0.0000 32.3567 -0.0001
# 6 0.0002 0.0005 0.0000 -5.7420 -0.0001 23.8085
#
#
#
# Elastic Compliance Matrix: (Units=1/GPa)
#
#
# Indices 1 2 3 4 5 6 
#
# 1 0.011663 -0.009420 -0.004896 0.000000 -0.001193 0.000000
# 2 -0.009420 0.101217 -0.009562 0.000000 -0.005026 -0.000002
# 3 -0.004896 -0.009562 0.008967 0.000000 0.002940 0.000000
# 4 0.000000 0.000000 0.000000 0.037448 0.000000 0.009031
# 5 -0.001193 -0.005026 0.002940 0.000000 0.031910 0.000000
# 6 0.000000 -0.000002 0.000000 0.009031 0.000000 0.044180
#
#
# Mechanical properties :
#
#
# Convention : Reuss Voigt Hill
#
# Bulk Modulus (GPa) = 13.49668 77.04176 45.26922
# Shear Modulus (GPa) = 16.24232 30.78530 23.51381
#
# Velocity S-wave (km/s) = 2.99795 4.12735 3.60713
# Velocity P-wave (km/s) = 4.41044 8.08359 6.51139
#
# Compressibility (1/GPa) = 0.07409231
#
# Stress axis : x y z
#
# Youngs Moduli (GPa) = 85.74208 9.87973 111.52209
#
# Poissons Ratio (x) = 0.09307 0.54597
# Poissons Ratio (y) = 0.80770 1.06634
# Poissons Ratio (z) = 0.41976 0.09447
#
# Static dielectric constant tensor:
#      x y z
#    x 1.600030 0.000000 0.012780 
#    y 0.000000 1.623490 0.000000 
#    z 0.012780 0.000000 1.610020 
# 
# From -- ./inp_files/280887.got.cif
#   From: 2010.05.17/outbox.cif.g08.bks.cpg/sg12_141_cif.got.tgz:280887.got - 2010.06.03 13:09:07.
