data_PCOD9179452
_publ_section_title
;
Structure prediction by ZEFSAII (Michael W. Deem and Ramdas Pophale) SiO2 
 PCOD9179452
Probable space group: C 2/M
;
_chemical_formula_sum "Si O2"
_cell_formula_units_Z 36
_cell_length_a 19.850989
_cell_length_b 7.697344
_cell_length_c 14.732677
_cell_angle_alpha 90.000000
_cell_angle_beta 40.387719
_cell_angle_gamma 90.000000
_cell_volume 1458.648558
_symmetry_space_group_name_H-M "C 2/M"
_symmetry_group_IT_number 12
_symmetry_cell_setting 'monoclinic'
loop_
_space_group_symop_operation_xyz
x,y,z
-x,y,-z
-x,-y,-z
x,-y,z
1/2+x,1/2+y,z
1/2-x,1/2+y,-z
1/2-x,1/2-y,-z
1/2+x,1/2-y,z
loop_
_atom_site_type_symbol
_atom_site_label
_atom_site_fract_x
_atom_site_fract_y
_atom_site_fract_z
Si Si1 0.167620 0.795226 0.455082
Si Si2 0.000000 0.259741 0.500000
Si Si3 0.607088 0.788907 0.722629
Si Si4 0.117033 0.303392 0.027672
Si Si5 0.840117 0.802651 0.817751
O O1 0.288948 0.746791 0.328523
O O2 0.128824 0.779490 0.598789
O O3 0.094965 0.680268 0.466218
O O4 0.157348 0.000000 0.438485
O O5 0.070705 0.184571 0.347220
O O6 0.496492 0.725561 0.874899
O O7 0.601969 0.000000 0.722093
O O8 0.115437 0.500000 0.992374
O O9 0.122591 0.300789 0.132535
O O10 0.231658 0.231256 0.888157
O O11 0.818279 0.000000 0.871726
#
# Coordination Sequence:
#
# PCOD9179452 Si02
#       5
#     8   4   8   8   8
#     4  10  19  31  50  73 100 131 164 202 246 295
#     4  12  21  32  51  80 105 128 165 210 253 296
#     4   9  18  33  50  71  98 131 168 203 241 292
#     4   9  18  33  50  71  98 131 168 203 241 292
#     4  10  19  31  50  73 100 131 164 202 246 295
#
# _framework density 24.68038
#
# number of rings (size 3 to 8) (size 9 to 14) (size 15 to 20)
#    0.000    2.222    2.222    2.000    0.000    0.000 
#    0.000    3.333    0.000    5.333    0.000    0.000 
#    0.000   14.222    0.000    0.000    0.000    0.000 
#
# Total GULP energy -100242.534327 kJ/mol
# GULP energy per Si atom -5569.029685 kJ/mol
# Density = 2.462421 g / cm^3
# Si number density = 24.680380 Si / 1000 Ang^3
#
#
#
# Elastic Constant Matrix: (Units=GPa)
#
#
# Indices 1 2 3 4 5 6 
#
# 1 166.2535 24.0545 33.8841 -0.0002 -53.9244 -0.0001
# 2 24.0545 71.2694 5.7780 -0.0015 -5.0371 -0.0006
# 3 33.8841 5.7780 131.3941 -0.0005 -50.1614 -0.0002
# 4 -0.0002 -0.0015 -0.0005 -108.6946 0.0002 -14.4056
# 5 -53.9244 -5.0371 -50.1614 0.0002 65.0658 0.0001
# 6 -0.0001 -0.0006 -0.0002 -14.4056 0.0001 -17.5214
#
#
#
# Elastic Compliance Matrix: (Units=1/GPa)
#
#
# Indices 1 2 3 4 5 6 
#
# 1 0.008676 -0.002454 0.000770 0.000000 0.007594 0.000000
# 2 -0.002454 0.014810 -0.000506 0.000000 -0.001277 0.000000
# 3 0.000770 -0.000506 0.010859 0.000000 0.008970 0.000000
# 4 0.000000 0.000000 0.000000 -0.010325 0.000000 0.008489
# 5 0.007594 -0.001277 0.008970 0.000000 0.028479 0.000000
# 6 0.000000 0.000000 0.000000 0.008489 0.000000 -0.064052
#
#
# Mechanical properties :
#
#
# Convention : Reuss Voigt Hill
#
# Bulk Modulus (GPa) = 33.37317 55.15002 44.26159
# Shear Modulus (GPa) = 1775.46844 8.11665 891.79254
#
# Velocity S-wave (km/s) = 26.85044 1.81545 19.02948
# Velocity P-wave (km/s) = 31.22200 5.17578 22.37858
#
# Compressibility (1/GPa) = 0.02996419
#
# Stress axis : x y z
#
# Youngs Moduli (GPa) = 115.25794 67.52063 92.08992
#
# Poissons Ratio (x) = 0.16570 -0.07086
# Poissons Ratio (y) = 0.28285 0.04661
# Poissons Ratio (z) = -0.08869 0.03417
#
# Static dielectric constant tensor:
#      x y z
#    x 1.970110 0.000000 -0.056750 
#    y 0.000000 1.963500 0.000000 
#    z -0.056750 0.000000 1.923250 
# 
# From -- ./inp_files/230773.got.cif
#   From: 2010.05.17/outbox.cif.g08.bks.cpg/sg12_116_cif.got.tgz:230773.got - 2010.06.03 13:09:07.
