data_PCOD9179527
_publ_section_title
;
Structure prediction by ZEFSAII (Michael W. Deem and Ramdas Pophale) SiO2 
 PCOD9179527
Probable space group: C 2/M
;
_chemical_formula_sum "Si O2"
_cell_formula_units_Z 64
_cell_length_a 20.904822
_cell_length_b 9.618788
_cell_length_c 17.814481
_cell_angle_alpha 90.000000
_cell_angle_beta 126.357856
_cell_angle_gamma 90.000000
_cell_volume 2884.788091
_symmetry_space_group_name_H-M "C 2/M"
_symmetry_group_IT_number 12
_symmetry_cell_setting 'monoclinic'
loop_
_space_group_symop_operation_xyz
x,y,z
-x,y,-z
-x,-y,-z
x,-y,z
1/2+x,1/2+y,z
1/2-x,1/2+y,-z
1/2-x,1/2-y,-z
1/2+x,1/2-y,z
loop_
_atom_site_type_symbol
_atom_site_label
_atom_site_fract_x
_atom_site_fract_y
_atom_site_fract_z
Si Si1 0.953829 0.156383 0.539385
Si Si2 0.724758 0.345761 0.371591
Si Si3 0.191243 0.151196 0.669363
Si Si4 0.662088 0.336182 0.816098
Si Si5 0.934174 0.339931 0.887731
Si Si6 0.320807 0.337357 0.911895
Si Si7 0.627047 0.844131 0.407431
Si Si8 0.545282 0.660789 0.864721
O O1 0.867192 0.138744 0.441842
O O2 0.941860 0.257057 0.600174
O O3 0.000000 0.216082 0.500000
O O4 0.983331 0.000000 0.578034
O O5 0.692423 0.500000 0.341222
O O6 0.756823 0.282172 0.317015
O O7 0.661928 0.240878 0.362770
O O8 0.798733 0.353029 0.481898
O O9 0.145323 0.172634 0.715267
O O10 0.232117 0.000000 0.704473
O O11 0.679968 0.500000 0.845100
O O12 0.739834 0.240372 0.879929
O O13 0.588720 0.296764 0.817835
O O14 0.914486 0.500000 0.855875
O O15 0.862919 0.252620 0.875720
O O16 0.976222 0.258683 0.848633
O O17 0.000000 0.343916 0.000000
O O18 0.307665 0.500000 0.883013
O O19 0.383664 0.336146 0.024212
O O20 0.603318 0.000000 0.371957
O O21 0.518118 0.500000 0.839640
#
# Coordination Sequence:
#
# PCOD9179527 Si02
#       8
#     8   8   8   8   8   8   8   8
#     4   9  17  30  49  71  95 124 161 201 242 290
#     4   9  16  27  45  68  93 118 151 192 232 280
#     4   9  18  32  49  69  95 128 160 195 244 298
#     4  10  20  33  50  72 102 136 168 207 257 309
#     4   9  17  30  50  74  99 129 167 211 257 302
#     4  10  19  31  50  75 102 131 170 215 255 300
#     4   9  16  26  44  70  94 118 149 190 237 281
#     4   9  18  32  50  74 102 134 171 212 256 302
#
# _framework density 22.185338000000002
#
# number of rings (size 3 to 8) (size 9 to 14) (size 15 to 20)
#    0.000    2.750    0.000    1.875    0.000    6.250 
#    0.000    0.000    2.750    0.000    0.000    0.000 
#    0.000    0.000    0.000    0.000    0.000    0.000 
#
# Total GULP energy -178664.546841 kJ/mol
# GULP energy per Si atom -5583.267089 kJ/mol
# Density = 2.213484 g / cm^3
# Si number density = 22.185338 Si / 1000 Ang^3
#
#
#
# Elastic Constant Matrix: (Units=GPa)
#
#
# Indices 1 2 3 4 5 6 
#
# 1 126.8725 85.8605 36.3798 0.0000 -48.5608 0.0000
# 2 85.8605 145.8214 41.8544 0.0000 -39.4907 0.0000
# 3 36.3798 41.8544 53.4373 0.0000 -0.4195 0.0000
# 4 0.0000 0.0000 0.0000 5.2078 0.0000 -11.3766
# 5 -48.5608 -39.4907 -0.4195 0.0000 43.7414 0.0000
# 6 0.0000 0.0000 0.0000 -11.3766 0.0000 29.5570
#
#
#
# Elastic Compliance Matrix: (Units=1/GPa)
#
#
# Indices 1 2 3 4 5 6 
#
# 1 0.021618 -0.003921 -0.011487 0.000000 0.020350 0.000000
# 2 -0.003921 0.013536 -0.007871 0.000000 0.007792 0.000000
# 3 -0.011487 -0.007871 0.032545 0.000000 -0.019547 0.000000
# 4 0.000000 0.000000 0.000000 1.206378 0.000000 0.464337
# 5 0.020350 0.007792 -0.019547 0.000000 0.052301 0.000000
# 6 0.000000 0.000000 0.000000 0.464337 0.000000 0.212557
#
#
# Mechanical properties :
#
#
# Convention : Reuss Voigt Hill
#
# Bulk Modulus (GPa) = 47.30059 72.70227 60.00143
# Shear Modulus (GPa) = 3.13964 26.50369 14.82166
#
# Velocity S-wave (km/s) = 1.19091 3.46012 2.58754
# Velocity P-wave (km/s) = 4.82265 6.98604 6.00261
#
# Compressibility (1/GPa) = 0.02114139
#
# Stress axis : x y z
#
# Youngs Moduli (GPa) = 46.25776 73.87819 30.72636
#
# Poissons Ratio (x) = 0.28966 0.35294
# Poissons Ratio (y) = 0.18137 0.24186
# Poissons Ratio (z) = 0.53135 0.58152
#
# Static dielectric constant tensor:
#      x y z
#    x 1.804740 0.000000 0.041520 
#    y 0.000000 1.791820 0.000000 
#    z 0.041520 0.000000 1.859670 
# 
# From -- ./inp_files/319230.got.cif
#   From: 2010.05.17/outbox.cif.g08.bks.cpg/sg12_160_cif.got.tgz:319230.got - 2010.06.03 13:09:07.
