data_PCOD9179926
_publ_section_title
;
Structure prediction by ZEFSAII (Michael W. Deem and Ramdas Pophale) SiO2 
 PCOD9179926
Probable space group: C 2/M
;
_chemical_formula_sum "Si O2"
_cell_formula_units_Z 56
_cell_length_a 30.716858
_cell_length_b 9.027013
_cell_length_c 12.801081
_cell_angle_alpha 90.000000
_cell_angle_beta 74.670831
_cell_angle_gamma 90.000000
_cell_volume 3423.221832
_symmetry_space_group_name_H-M "C 2/M"
_symmetry_group_IT_number 12
_symmetry_cell_setting 'monoclinic'
loop_
_space_group_symop_operation_xyz
x,y,z
-x,y,-z
-x,-y,-z
x,-y,z
1/2+x,1/2+y,z
1/2-x,1/2+y,-z
1/2-x,1/2-y,-z
1/2+x,1/2-y,z
loop_
_atom_site_type_symbol
_atom_site_label
_atom_site_fract_x
_atom_site_fract_y
_atom_site_fract_z
Si Si1 0.795818 0.323596 0.342174
Si Si2 0.702008 0.177206 0.412858
Si Si3 0.603260 0.177636 0.406269
Si Si4 0.615137 0.677503 0.791525
Si Si5 0.052044 0.822471 0.632252
Si Si6 0.548591 0.321851 0.020221
Si Si7 0.457235 0.823111 0.752204
O O1 0.795405 0.500000 0.332724
O O2 0.747018 0.257397 0.345487
O O3 0.803616 0.286490 0.460254
O O4 0.836918 0.255274 0.251750
O O5 0.655810 0.218639 0.384386
O O6 0.708303 0.000000 0.401138
O O7 0.574927 0.259688 0.513628
O O8 0.581650 0.209240 0.307724
O O9 0.600018 0.000000 0.426880
O O10 0.621323 0.500000 0.787687
O O11 0.584080 0.713953 0.710773
O O12 0.587353 0.718192 0.912785
O O13 0.003556 0.749619 0.682256
O O14 0.047538 0.000000 0.629809
O O15 0.549257 0.500000 0.034892
O O16 0.553285 0.242515 0.127687
O O17 0.500000 0.285429 0.000000
O O18 0.462876 0.000000 0.754711
#
# Coordination Sequence:
#
# PCOD9179926 Si02
#       7
#     8   8   8   8   8   8   8
#     4  10  19  31  52  80 106 134 171 216 261 312
#     4   9  18  33  52  74 106 141 170 207 261 317
#     4  10  21  37  53  76 110 145 176 213 263 316
#     4  10  20  34  54  77 106 140 172 215 265 311
#     4  11  21  34  53  78 108 143 180 215 257 312
#     4  10  20  38  57  75 103 139 180 223 263 307
#     4  11  23  36  53  77 108 143 180 219 261 311
#
# _framework density 16.358858000000001
#
# number of rings (size 3 to 8) (size 9 to 14) (size 15 to 20)
#    0.000    1.857    2.857    1.714    0.000    5.429 
#    0.000    0.000    0.000    0.857    0.000    0.000 
#    0.000    0.000    0.000    0.000    0.000    0.000 
#
# Total GULP energy -156329.640112 kJ/mol
# GULP energy per Si atom -5583.201433 kJ/mol
# Density = 1.632162 g / cm^3
# Si number density = 16.358858 Si / 1000 Ang^3
#
#
#
# Elastic Constant Matrix: (Units=GPa)
#
#
# Indices 1 2 3 4 5 6 
#
# 1 144.5138 59.9601 103.6315 0.0000 -14.8394 0.0000
# 2 59.9601 39.1135 58.7799 0.0000 -2.6002 0.0000
# 3 103.6315 58.7799 121.4424 0.0000 -2.6915 0.0000
# 4 0.0000 0.0000 0.0000 29.9423 0.0000 -3.5973
# 5 -14.8394 -2.6002 -2.6915 0.0000 30.4425 0.0000
# 6 0.0000 0.0000 0.0000 -3.5973 0.0000 25.3005
#
#
#
# Elastic Compliance Matrix: (Units=1/GPa)
#
#
# Indices 1 2 3 4 5 6 
#
# 1 0.023359 -0.020403 -0.009863 0.000000 0.008772 0.000000
# 2 -0.020403 0.112090 -0.036924 0.000000 -0.003636 0.000000
# 3 -0.009863 -0.036924 0.034414 0.000000 -0.004919 0.000000
# 4 0.000000 0.000000 0.000000 0.033978 0.000000 0.004831
# 5 0.008772 -0.003636 -0.004919 0.000000 0.036379 0.000000
# 6 0.000000 0.000000 0.000000 0.004831 0.000000 0.040212
#
#
# Mechanical properties :
#
#
# Convention : Reuss Voigt Hill
#
# Bulk Modulus (GPa) = 28.18195 83.31253 55.74724
# Shear Modulus (GPa) = 11.71950 22.65029 17.18490
#
# Velocity S-wave (km/s) = 2.67947 3.72504 3.24465
# Velocity P-wave (km/s) = 5.18049 8.33906 6.94181
#
# Compressibility (1/GPa) = 0.03548371
#
# Stress axis : x y z
#
# Youngs Moduli (GPa) = 42.81043 8.92136 29.05812
#
# Poissons Ratio (x) = 0.18202 0.28661
# Poissons Ratio (y) = 0.87344 1.07293
# Poissons Ratio (z) = 0.42226 0.32941
#
# Static dielectric constant tensor:
#      x y z
#    x 1.538690 0.000000 0.004970 
#    y 0.000000 1.544880 0.000000 
#    z 0.004970 0.000000 1.522900 
# 
# From -- ./inp_files/186385.got.cif
#   From: 2010.05.17/outbox.cif.g08.bks.cpg/sg12_94_cif.got.tgz:186385.got - 2010.06.03 13:09:07.
