data_PCOD9179682
_publ_section_title
;
Structure prediction by ZEFSAII (Michael W. Deem and Ramdas Pophale) SiO2 
 PCOD9179682
Probable space group: C 2/M
;
_chemical_formula_sum "Si O2"
_cell_formula_units_Z 56
_cell_length_a 13.472840
_cell_length_b 30.108601
_cell_length_c 14.363234
_cell_angle_alpha 90.000000
_cell_angle_beta 146.665312
_cell_angle_gamma 90.000000
_cell_volume 3201.786497
_symmetry_space_group_name_H-M "C 2/M"
_symmetry_group_IT_number 12
_symmetry_cell_setting 'monoclinic'
loop_
_space_group_symop_operation_xyz
x,y,z
-x,y,-z
-x,-y,-z
x,-y,z
1/2+x,1/2+y,z
1/2-x,1/2+y,-z
1/2-x,1/2-y,-z
1/2+x,1/2-y,z
loop_
_atom_site_type_symbol
_atom_site_label
_atom_site_fract_x
_atom_site_fract_y
_atom_site_fract_z
Si Si1 0.197150 0.000000 0.767840
Si Si2 0.975467 0.222264 0.770274
Si Si3 0.352851 0.184034 0.131162
Si Si4 0.705073 0.404572 0.765321
Si Si5 0.990741 0.403676 0.835479
Si Si6 0.813087 0.721919 0.296323
Si Si7 0.550307 0.689441 0.647071
Si Si8 0.504765 0.000000 0.846714
O O1 0.103991 0.047917 0.685518
O O2 0.351312 0.000000 0.807858
O O3 0.303944 0.000000 0.949318
O O4 0.024277 0.274198 0.803271
O O5 0.912685 0.207287 0.617676
O O6 0.841972 0.214371 0.750486
O O7 0.159028 0.194260 0.932083
O O8 0.444858 0.138169 0.173352
O O9 0.321783 0.188315 0.217358
O O10 0.598901 0.360724 0.708181
O O11 0.802023 0.396473 0.741752
O O12 0.863262 0.408346 0.966309
O O13 0.985887 0.452187 0.783244
O O14 0.798558 0.771117 0.236994
O O15 0.000000 0.720466 0.500000
O O16 0.500000 0.687867 0.500000
#
# Coordination Sequence:
#
# PCOD9179682 Si02
#       8
#     4   8   8   8   8   8   8   4
#     4   7  12  22  39  60  95 124 146 178 221 275
#     4  10  20  34  47  69  98 122 160 199 230 275
#     4  10  19  31  51  73  92 123 158 197 238 271
#     4   9  15  26  42  68  95 124 151 182 226 276
#     4   9  15  25  46  69  95 118 150 188 228 277
#     4  10  22  35  48  66  94 129 161 195 235 277
#     4  10  20  31  46  66  92 127 157 186 229 274
#     4   7  12  22  38  68  93 117 144 182 229 273
#
# _framework density 17.490235999999999
#
# number of rings (size 3 to 8) (size 9 to 14) (size 15 to 20)
#    0.000    2.714    1.429    3.000    0.000    6.286 
#    0.000    0.357    0.000    0.000    0.000    3.500 
#    0.000    0.000    0.000    0.000    0.000    0.000 
#
# Total GULP energy -155879.052095 kJ/mol
# GULP energy per Si atom -5567.109003 kJ/mol
# Density = 1.745043 g / cm^3
# Si number density = 17.490236 Si / 1000 Ang^3
#
#
#
# Elastic Constant Matrix: (Units=GPa)
#
#
# Indices 1 2 3 4 5 6 
#
# 1 113.3458 63.5324 11.7096 0.0000 -6.7029 0.0000
# 2 63.5324 169.6309 9.8212 0.0000 4.2027 0.0000
# 3 11.7096 9.8212 22.2238 0.0000 -6.8029 0.0000
# 4 0.0000 0.0000 0.0000 5.5982 0.0000 -2.8537
# 5 -6.7029 4.2027 -6.8029 0.0000 18.9566 0.0000
# 6 0.0000 0.0000 0.0000 -2.8537 0.0000 25.7467
#
#
#
# Elastic Compliance Matrix: (Units=1/GPa)
#
#
# Indices 1 2 3 4 5 6 
#
# 1 0.011815 -0.004348 -0.003067 0.000000 0.004041 0.000000
# 2 -0.004348 0.007765 -0.002402 0.000000 -0.004121 0.000000
# 3 -0.003067 -0.002402 0.053368 0.000000 0.018600 0.000000
# 4 0.000000 0.000000 0.000000 0.189325 0.000000 0.020984
# 5 0.004041 -0.004121 0.018600 0.000000 0.061770 0.000000
# 6 0.000000 0.000000 0.000000 0.020984 0.000000 0.041166
#
#
# Mechanical properties :
#
#
# Convention : Reuss Voigt Hill
#
# Bulk Modulus (GPa) = 18.75663 52.81409 35.78536
# Shear Modulus (GPa) = 12.41885 24.73612 18.57749
#
# Velocity S-wave (km/s) = 2.66756 3.76477 3.26262
# Velocity P-wave (km/s) = 4.49835 7.01141 5.89046
#
# Compressibility (1/GPa) = 0.05331448
#
# Stress axis : x y z
#
# Youngs Moduli (GPa) = 84.63514 128.78764 18.73781
#
# Poissons Ratio (x) = 0.55995 0.05747
# Poissons Ratio (y) = 0.36798 0.04501
# Poissons Ratio (z) = 0.25958 0.30934
#
# Static dielectric constant tensor:
#      x y z
#    x 1.586000 0.000000 -0.029260 
#    y 0.000000 1.644670 0.000000 
#    z -0.029260 0.000000 1.691350 
# 
# From -- ./inp_files/209695.got.cif
#   From: 2010.05.17/outbox.cif.g08.bks.cpg/sg12_105_cif.got.tgz:209695.got - 2010.06.03 13:09:07.
