data_PCOD9179072
_publ_section_title
;
Structure prediction by ZEFSAII (Michael W. Deem and Ramdas Pophale) SiO2 
 PCOD9179072
Probable space group: C 2/M
;
_chemical_formula_sum "Si O2"
_cell_formula_units_Z 64
_cell_length_a 19.696788
_cell_length_b 9.097014
_cell_length_c 20.892642
_cell_angle_alpha 90.000000
_cell_angle_beta 100.560707
_cell_angle_gamma 90.000000
_cell_volume 3680.172899
_symmetry_space_group_name_H-M "C 2/M"
_symmetry_group_IT_number 12
_symmetry_cell_setting 'monoclinic'
loop_
_space_group_symop_operation_xyz
x,y,z
-x,y,-z
-x,-y,-z
x,-y,z
1/2+x,1/2+y,z
1/2-x,1/2+y,-z
1/2-x,1/2-y,-z
1/2+x,1/2-y,z
loop_
_atom_site_type_symbol
_atom_site_label
_atom_site_fract_x
_atom_site_fract_y
_atom_site_fract_z
Si Si1 0.702335 0.671601 0.824281
Si Si2 0.840842 0.330162 0.572416
Si Si3 0.080485 0.831118 0.029655
Si Si4 0.368853 0.828631 0.836572
Si Si5 0.826766 0.169872 0.440424
Si Si6 0.645202 0.330586 0.295994
Si Si7 0.683986 0.175581 0.954758
Si Si8 0.312541 0.169544 0.308653
O O1 0.683851 0.500000 0.827411
O O2 0.786065 0.679754 0.834547
O O3 0.679853 0.763273 0.882128
O O4 0.673875 0.740516 0.753707
O O5 0.862237 0.500000 0.575365
O O6 0.855834 0.250659 0.508023
O O7 0.757050 0.328459 0.566081
O O8 0.870116 0.245024 0.638860
O O9 0.095180 0.764891 0.101969
O O10 0.106357 0.000000 0.030939
O O11 0.119828 0.730804 0.985335
O O12 0.000000 0.831314 0.000000
O O13 0.382293 0.760624 0.769102
O O14 0.388342 0.000000 0.842806
O O15 0.842144 0.253614 0.377130
O O16 0.847946 0.000000 0.441402
O O17 0.622742 0.500000 0.290384
O O18 0.728941 0.330178 0.303052
O O19 0.690262 0.000000 0.956801
O O20 0.750000 0.250000 0.000000
O O21 0.334178 0.000000 0.307066
#
# Coordination Sequence:
#
# PCOD9179072 Si02
#       8
#     8   8   8   8   8   8   8   8
#     4  10  19  31  48  71  96 124 160 204 248 294
#     4   9  15  22  32  48  72 105 148 192 233 282
#     4  11  24  40  57  77 103 134 168 208 256 308
#     4  10  19  31  49  70  94 125 160 202 248 297
#     4   9  15  22  32  47  72 108 148 189 234 284
#     4   9  16  25  38  56  81 112 150 195 239 286
#     4  12  23  36  56  79 103 132 167 210 254 302
#     4   9  16  25  37  56  82 114 151 193 239 287
#
# _framework density 17.390487
#
# number of rings (size 3 to 8) (size 9 to 14) (size 15 to 20)
#    0.000    2.125    1.250    3.750    0.000    8.000 
#    0.000    0.000    0.000    0.000    0.000    0.000 
#    0.000    0.000    0.000    1.125    0.000   21.250 
#
# Total GULP energy -178537.336772 kJ/mol
# GULP energy per Si atom -5579.291774 kJ/mol
# Density = 1.735091 g / cm^3
# Si number density = 17.390487 Si / 1000 Ang^3
#
#
#
# Elastic Constant Matrix: (Units=GPa)
#
#
# Indices 1 2 3 4 5 6 
#
# 1 16.1284 19.8065 17.9874 0.0000 -3.5276 0.0000
# 2 19.8065 184.6864 98.4587 0.0000 -8.2970 0.0000
# 3 17.9874 98.4587 178.6513 0.0000 -16.3423 0.0000
# 4 0.0000 0.0000 0.0000 38.9334 0.0000 -3.5031
# 5 -3.5276 -8.2970 -16.3423 0.0000 5.6880 0.0000
# 6 0.0000 0.0000 0.0000 -3.5031 0.0000 11.8090
#
#
#
# Elastic Compliance Matrix: (Units=1/GPa)
#
#
# Indices 1 2 3 4 5 6 
#
# 1 0.078913 -0.006184 -0.001201 0.000000 0.036468 0.000000
# 2 -0.006184 0.008159 -0.004254 0.000000 -0.004157 0.000000
# 3 -0.001201 -0.004254 0.010075 0.000000 0.021997 0.000000
# 4 0.000000 0.000000 0.000000 0.026389 0.000000 0.007828
# 5 0.036468 -0.004157 0.021997 0.000000 0.255564 0.000000
# 6 0.000000 0.000000 0.000000 0.007828 0.000000 0.087003
#
#
# Mechanical properties :
#
#
# Convention : Reuss Voigt Hill
#
# Bulk Modulus (GPa) = 13.53769 72.44128 42.98948
# Shear Modulus (GPa) = 9.72753 27.50031 18.61392
#
# Velocity S-wave (km/s) = 2.36764 3.98092 3.27517
# Velocity P-wave (km/s) = 3.90842 7.92947 6.25109
#
# Compressibility (1/GPa) = 0.07386784
#
# Stress axis : x y z
#
# Youngs Moduli (GPa) = 12.67224 122.56331 99.25357
#
# Poissons Ratio (x) = 0.75797 0.11920
# Poissons Ratio (y) = 0.07837 0.42225
# Poissons Ratio (z) = 0.01522 0.52141
#
# Static dielectric constant tensor:
#      x y z
#    x 1.565470 0.000000 -0.002790 
#    y 0.000000 1.585850 0.000000 
#    z -0.002790 0.000000 1.580320 
# 
# From -- ./inp_files/319258.got.cif
#   From: 2010.05.17/outbox.cif.g08.bks.cpg/sg12_160_cif.got.tgz:319258.got - 2010.06.03 13:09:07.
