data_PCOD9179940
_publ_section_title
;
Structure prediction by ZEFSAII (Michael W. Deem and Ramdas Pophale) SiO2 
 PCOD9179940
Probable space group: C 2/M
;
_chemical_formula_sum "Si O2"
_cell_formula_units_Z 40
_cell_length_a 16.677094
_cell_length_b 14.714551
_cell_length_c 9.274265
_cell_angle_alpha 90.000000
_cell_angle_beta 133.019443
_cell_angle_gamma 90.000000
_cell_volume 1663.937003
_symmetry_space_group_name_H-M "C 2/M"
_symmetry_group_IT_number 12
_symmetry_cell_setting 'monoclinic'
loop_
_space_group_symop_operation_xyz
x,y,z
-x,y,-z
-x,-y,-z
x,-y,z
1/2+x,1/2+y,z
1/2-x,1/2+y,-z
1/2-x,1/2-y,-z
1/2+x,1/2-y,z
loop_
_atom_site_type_symbol
_atom_site_label
_atom_site_fract_x
_atom_site_fract_y
_atom_site_fract_z
Si Si1 0.541803 0.895563 0.386989
Si Si2 0.673574 0.183823 0.004806
Si Si3 0.813954 0.771341 0.418257
Si Si4 0.124122 0.902977 0.745895
Si Si5 0.947602 0.893944 0.782062
O O1 0.500000 0.900228 0.500000
O O2 0.648690 0.831903 0.521040
O O3 0.556036 0.000000 0.352851
O O4 0.449634 0.837860 0.187326
O O5 0.696036 0.212301 0.198173
O O6 0.746426 0.095456 0.062562
O O7 0.750000 0.250000 0.000000
O O8 0.885442 0.822194 0.380612
O O9 0.851692 0.829094 0.603132
O O10 0.048962 0.890269 0.792353
O O11 0.103332 0.000000 0.649118
O O12 0.911375 0.000000 0.744703
O O13 0.000000 0.869395 0.000000
#
# Coordination Sequence:
#
# PCOD9179940 Si02
#       5
#     8   8   8   8   8
#     4  11  20  32  51  84 116 144 179 229 280 325
#     4  10  19  31  52  80 112 139 183 226 274 326
#     4  10  20  34  54  79 108 146 184 225 274 333
#     4   9  18  31  52  79 106 138 180 225 273 325
#     4  10  19  31  52  81 112 143 181 231 283 330
#
# _framework density 24.039370999999999
#
# number of rings (size 3 to 8) (size 9 to 14) (size 15 to 20)
#    1.200    0.800    2.000    4.200    0.000    1.600 
#    0.000    0.000    0.000    6.600    0.000    0.000 
#    0.000    0.000    0.000    0.000    0.000    0.000 
#
# Total GULP energy -111437.247731 kJ/mol
# GULP energy per Si atom -5571.862387 kJ/mol
# Density = 2.398466 g / cm^3
# Si number density = 24.039371 Si / 1000 Ang^3
#
#
#
# Elastic Constant Matrix: (Units=GPa)
#
#
# Indices 1 2 3 4 5 6 
#
# 1 60.4992 16.3065 16.7294 0.0000 -4.7405 0.0000
# 2 16.3065 169.5627 53.4872 0.0000 -1.1627 0.0000
# 3 16.7294 53.4872 164.6916 0.0000 -3.1868 0.0000
# 4 0.0000 0.0000 0.0000 0.4414 0.0000 -12.4764
# 5 -4.7405 -1.1627 -3.1868 0.0000 29.5004 0.0000
# 6 0.0000 0.0000 0.0000 -12.4764 0.0000 3.5875
#
#
#
# Elastic Compliance Matrix: (Units=1/GPa)
#
#
# Indices 1 2 3 4 5 6 
#
# 1 0.017433 -0.001243 -0.001317 0.000000 0.002610 0.000000
# 2 -0.001243 0.006659 -0.002040 0.000000 -0.000158 0.000000
# 3 -0.001317 -0.002040 0.006877 0.000000 0.000451 0.000000
# 4 0.000000 0.000000 0.000000 -0.023284 0.000000 -0.080975
# 5 0.002610 -0.000158 0.000451 0.000000 0.034360 0.000000
# 6 0.000000 0.000000 0.000000 -0.080975 0.000000 -0.002865
#
#
# Mechanical properties :
#
#
# Convention : Reuss Voigt Hill
#
# Bulk Modulus (GPa) = 45.93420 63.08885 54.51153
# Shear Modulus (GPa) = 89.87022 27.25453 58.56238
#
# Velocity S-wave (km/s) = 6.12093 3.37077 4.94104
# Velocity P-wave (km/s) = 8.31287 6.43820 7.43485
#
# Compressibility (1/GPa) = 0.02177027
#
# Stress axis : x y z
#
# Youngs Moduli (GPa) = 57.36302 150.16452 145.41648
#
# Poissons Ratio (x) = 0.18670 0.19145
# Poissons Ratio (y) = 0.07132 0.29658
# Poissons Ratio (z) = 0.07552 0.30627
#
# Static dielectric constant tensor:
#      x y z
#    x 1.943960 0.000000 0.024560 
#    y 0.000000 2.076070 0.000000 
#    z 0.024560 0.000000 2.071140 
# 
# From -- ./inp_files/95959.got.cif
#   From: 2010.05.17/outbox.cif.g08.bks.cpg/sg12_48_cif.got.tgz:95959.got - 2010.06.03 13:09:07.
