data_PCOD9179745
_publ_section_title
;
Structure prediction by ZEFSAII (Michael W. Deem and Ramdas Pophale) SiO2 
 PCOD9179745
Probable space group: C 2/M
;
_chemical_formula_sum "Si O2"
_cell_formula_units_Z 44
_cell_length_a 8.324261
_cell_length_b 23.661468
_cell_length_c 10.590490
_cell_angle_alpha 90.000000
_cell_angle_beta 79.526188
_cell_angle_gamma 90.000000
_cell_volume 2051.191908
_symmetry_space_group_name_H-M "C 2/M"
_symmetry_group_IT_number 12
_symmetry_cell_setting 'monoclinic'
loop_
_space_group_symop_operation_xyz
x,y,z
-x,y,-z
-x,-y,-z
x,-y,z
1/2+x,1/2+y,z
1/2-x,1/2+y,-z
1/2-x,1/2-y,-z
1/2+x,1/2-y,z
loop_
_atom_site_type_symbol
_atom_site_label
_atom_site_fract_x
_atom_site_fract_y
_atom_site_fract_z
Si Si1 0.739688 0.935851 0.822410
Si Si2 0.500000 0.150773 0.000000
Si Si3 0.585378 0.435496 0.850685
Si Si4 0.336211 0.306265 0.440942
Si Si5 0.329121 0.164275 0.777376
Si Si6 0.105639 0.603089 0.589526
O O1 0.633949 0.890718 0.915872
O O2 0.667882 0.934424 0.693386
O O3 0.930728 0.919552 0.785951
O O4 0.730975 0.000000 0.876914
O O5 0.595441 0.184155 0.098631
O O6 0.633657 0.500000 0.818960
O O7 0.737873 0.394654 0.820267
O O8 0.500000 0.432196 0.000000
O O9 0.500000 0.306516 0.500000
O O10 0.250000 0.250000 0.500000
O O11 0.304885 0.304467 0.292402
O O12 0.247493 0.363451 0.498576
O O13 0.486574 0.150829 0.668414
O O14 0.000000 0.571818 0.500000
#
# Coordination Sequence:
#
# PCOD9179745 Si02
#       6
#     8   4   8   8   8   8
#     4  10  19  31  51  77 114 157 196 234 279 338
#     4  10  19  32  52  82 120 150 190 234 279 344
#     4  10  19  32  51  82 121 159 201 233 277 342
#     4  11  22  41  68  89 109 145 193 243 295 352
#     4  10  20  35  58  87 119 154 192 239 291 340
#     4   9  20  36  54  83 114 148 196 241 288 343
#
# _framework density 21.450942999999999
#
# number of rings (size 3 to 8) (size 9 to 14) (size 15 to 20)
#    0.000    2.000    1.818    3.000    0.000    3.273 
#    0.000    2.727    0.000   19.636    9.455    0.000 
#    0.000    0.000    0.000    0.000    0.000    0.000 
#
# Total GULP energy -122559.023093 kJ/mol
# GULP energy per Si atom -5570.864686 kJ/mol
# Density = 2.140212 g / cm^3
# Si number density = 21.450943 Si / 1000 Ang^3
#
#
#
# Elastic Constant Matrix: (Units=GPa)
#
#
# Indices 1 2 3 4 5 6 
#
# 1 128.4325 11.6429 43.4603 0.0000 47.3848 0.0000
# 2 11.6429 29.3374 3.6588 0.0000 10.4426 0.0000
# 3 43.4603 3.6588 102.4875 0.0000 54.1742 0.0000
# 4 0.0000 0.0000 0.0000 10.5630 0.0000 -6.0030
# 5 47.3848 10.4426 54.1742 0.0000 53.9610 0.0000
# 6 0.0000 0.0000 0.0000 -6.0030 0.0000 2.6825
#
#
#
# Elastic Compliance Matrix: (Units=1/GPa)
#
#
# Indices 1 2 3 4 5 6 
#
# 1 0.011583 -0.000831 0.000872 0.000000 -0.010886 0.000000
# 2 -0.000831 0.038013 0.005323 0.000000 -0.011971 0.000000
# 3 0.000872 0.005323 0.021620 0.000000 -0.023502 0.000000
# 4 0.000000 0.000000 0.000000 -0.348346 0.000000 -0.779546
# 5 -0.010886 -0.011971 -0.023502 0.000000 0.054003 0.000000
# 6 0.000000 0.000000 0.000000 -0.779546 0.000000 -1.371717
#
#
# Mechanical properties :
#
#
# Convention : Reuss Voigt Hill
#
# Bulk Modulus (GPa) = 12.20331 41.97571 27.08951
# Shear Modulus (GPa) = -3.16805 26.87431 11.85313
#
# Velocity S-wave (km/s) = -1.21659 3.54337 2.35323
# Velocity P-wave (km/s) = 1.93076 6.02921 4.47656
#
# Compressibility (1/GPa) = 0.08194498
#
# Stress axis : x y z
#
# Youngs Moduli (GPa) = 86.33549 26.30677 46.25304
#
# Poissons Ratio (x) = 0.02185 -0.04035
# Poissons Ratio (y) = 0.07171 -0.24620
# Poissons Ratio (z) = -0.07531 -0.14003
#
# Static dielectric constant tensor:
#      x y z
#    x 1.918540 0.000000 0.119160 
#    y 0.000000 1.731210 0.000000 
#    z 0.119160 0.000000 1.893520 
# 
# From -- ./inp_files/120735.got.cif
#   From: 2010.05.17/outbox.cif.g08.bks.cpg/sg12_61_cif.got.tgz:120735.got - 2010.06.03 13:09:07.
