data_PCOD9179515
_publ_section_title
;
Structure prediction by ZEFSAII (Michael W. Deem and Ramdas Pophale) SiO2 
 PCOD9179515
Probable space group: C 2/M
;
_chemical_formula_sum "Si O2"
_cell_formula_units_Z 44
_cell_length_a 14.804333
_cell_length_b 25.044073
_cell_length_c 5.244277
_cell_angle_alpha 90.000000
_cell_angle_beta 60.817355
_cell_angle_gamma 90.000000
_cell_volume 1697.572771
_symmetry_space_group_name_H-M "C 2/M"
_symmetry_group_IT_number 12
_symmetry_cell_setting 'monoclinic'
loop_
_space_group_symop_operation_xyz
x,y,z
-x,y,-z
-x,-y,-z
x,-y,z
1/2+x,1/2+y,z
1/2-x,1/2+y,-z
1/2-x,1/2-y,-z
1/2+x,1/2-y,z
loop_
_atom_site_type_symbol
_atom_site_label
_atom_site_fract_x
_atom_site_fract_y
_atom_site_fract_z
Si Si1 0.630786 0.226941 0.970425
Si Si2 0.928462 0.885754 0.347124
Si Si3 0.367602 0.729385 0.537425
Si Si4 0.072880 0.000000 0.649729
Si Si5 0.874057 0.561337 0.214456
Si Si6 0.878183 0.384819 0.714252
O O1 0.588944 0.230053 0.738102
O O2 0.748561 0.244038 0.752788
O O3 0.587003 0.268540 0.238007
O O4 0.631023 0.171837 0.127781
O O5 0.867634 0.830626 0.435719
O O6 0.870556 0.942968 0.426031
O O7 0.000000 0.885722 0.500000
O O8 0.000000 0.884476 0.000000
O O9 0.000000 0.000000 0.500000
O O10 0.000000 0.000000 0.000000
O O11 0.856249 0.500000 0.314965
O O12 0.837324 0.601931 0.487487
O O13 0.834006 0.574786 0.986440
O O14 0.000000 0.567071 0.000000
O O15 0.000000 0.392885 0.500000
#
# Coordination Sequence:
#
# PCOD9179515 Si02
#       6
#     8   8   8   4   8   8
#     4  10  21  36  52  74 104 144 178 210 260 314
#     4  10  19  33  55  82 105 135 174 220 266 315
#     4  10  21  36  53  74 103 143 176 208 261 320
#     4   8  16  30  50  76 104 130 163 208 268 318
#     4   9  17  30  49  72  98 130 167 204 253 306
#     4  10  19  31  50  75 100 132 169 217 257 291
#
# _framework density 25.919357999999999
#
# number of rings (size 3 to 8) (size 9 to 14) (size 15 to 20)
#    0.000    2.364    0.000    2.727    0.000    4.364 
#    0.000    0.000    4.000    0.000    4.727    0.000 
#    0.000    0.000    0.000    0.000    0.000    0.000 
#
# Total GULP energy -122857.196978 kJ/mol
# GULP energy per Si atom -5584.418044 kJ/mol
# Density = 2.586036 g / cm^3
# Si number density = 25.919358 Si / 1000 Ang^3
#
#
#
# Elastic Constant Matrix: (Units=GPa)
#
#
# Indices 1 2 3 4 5 6 
#
# 1 49.0352 -0.1696 39.7284 0.0000 16.5177 0.0000
# 2 -0.1696 176.8551 76.7934 0.0000 9.4462 0.0000
# 3 39.7284 76.7934 245.5091 0.0000 30.4077 0.0000
# 4 0.0000 0.0000 0.0000 54.1359 0.0000 3.9516
# 5 16.5177 9.4462 30.4077 0.0000 39.4336 0.0000
# 6 0.0000 0.0000 0.0000 3.9516 0.0000 23.8354
#
#
#
# Elastic Compliance Matrix: (Units=1/GPa)
#
#
# Indices 1 2 3 4 5 6 
#
# 1 0.026454 0.002177 -0.003897 0.000000 -0.008598 0.000000
# 2 0.002177 0.006722 -0.002369 0.000000 -0.000695 0.000000
# 3 -0.003897 -0.002369 0.005718 0.000000 -0.002210 0.000000
# 4 0.000000 0.000000 0.000000 0.018698 0.000000 -0.003100
# 5 -0.008598 -0.000695 -0.002210 0.000000 0.030831 0.000000
# 6 0.000000 0.000000 0.000000 -0.003100 0.000000 0.042468
#
#
# Mechanical properties :
#
#
# Convention : Reuss Voigt Hill
#
# Bulk Modulus (GPa) = 32.55515 78.23376 55.39446
# Shear Modulus (GPa) = 33.48752 47.15080 40.31916
#
# Velocity S-wave (km/s) = 3.59832 4.26976 3.94834
# Velocity P-wave (km/s) = 5.46364 7.38626 6.49647
#
# Compressibility (1/GPa) = 0.03071710
#
# Stress axis : x y z
#
# Youngs Moduli (GPa) = 37.80084 148.76263 174.87485
#
# Poissons Ratio (x) = -0.32381 0.68146
# Poissons Ratio (y) = -0.08228 0.41423
# Poissons Ratio (z) = 0.14730 0.35238
#
# Static dielectric constant tensor:
#      x y z
#    x 2.168560 0.000000 0.043790 
#    y 0.000000 2.054070 0.000000 
#    z 0.043790 0.000000 2.018150 
# 
# From -- ./inp_files/20910.got.cif
#   From: 2010.05.17/outbox.cif.g08.bks.cpg/sg12_11_cif.got.tgz:20910.got - 2010.06.03 13:09:07.
