data_PCOD9179353
_publ_section_title
;
Structure prediction by ZEFSAII (Michael W. Deem and Ramdas Pophale) SiO2 
 PCOD9179353
Probable space group: C 2/M
;
_chemical_formula_sum "Si O2"
_cell_formula_units_Z 48
_cell_length_a 28.121703
_cell_length_b 8.900025
_cell_length_c 21.323948
_cell_angle_alpha 90.000000
_cell_angle_beta 32.345702
_cell_angle_gamma 90.000000
_cell_volume 2855.457318
_symmetry_space_group_name_H-M "C 2/M"
_symmetry_group_IT_number 12
_symmetry_cell_setting 'monoclinic'
loop_
_space_group_symop_operation_xyz
x,y,z
-x,y,-z
-x,-y,-z
x,-y,z
1/2+x,1/2+y,z
1/2-x,1/2+y,-z
1/2-x,1/2-y,-z
1/2+x,1/2-y,z
loop_
_atom_site_type_symbol
_atom_site_label
_atom_site_fract_x
_atom_site_fract_y
_atom_site_fract_z
Si Si1 0.523266 0.677185 0.235531
Si Si2 0.817672 0.820215 0.473874
Si Si3 0.301841 0.178539 0.001962
Si Si4 0.290828 0.178446 0.774797
Si Si5 0.821074 0.322047 0.604554
Si Si6 0.028404 0.673641 0.359763
O O1 0.532273 0.500000 0.213588
O O2 0.419944 0.721930 0.343041
O O3 0.596014 0.767953 0.115694
O O4 0.544420 0.714800 0.284447
O O5 0.750000 0.750000 0.500000
O O6 0.798274 0.762018 0.565806
O O7 0.812533 0.000000 0.478530
O O8 0.295101 0.000000 0.004640
O O9 0.250000 0.250000 0.000000
O O10 0.260214 0.236785 0.113272
O O11 0.276026 0.228769 0.719641
O O12 0.395562 0.194174 0.673902
O O13 0.270616 0.000000 0.801205
O O14 0.803493 0.500000 0.616208
O O15 0.927713 0.306022 0.494061
O O16 0.036179 0.500000 0.328073
#
# Coordination Sequence:
#
# PCOD9179353 Si02
#       6
#     8   8   8   8   8   8
#     4  10  20  34  52  77 106 137 177 220 261 307
#     4  10  21  37  59  83 106 133 170 220 272 319
#     4  12  23  34  50  73 106 147 185 219 255 303
#     4  10  19  31  49  74 107 145 179 212 254 307
#     4   9  18  32  51  77 107 138 174 214 261 316
#     4   9  16  28  48  73 104 141 176 210 251 304
#
# _framework density 16.809916000000001
#
# number of rings (size 3 to 8) (size 9 to 14) (size 15 to 20)
#    0.000    2.000    1.667    3.000    0.000    4.667 
#    0.000    0.000    0.000    6.000    0.000    7.000 
#    0.000    0.000    0.000    0.000    0.000    0.000 
#
# Total GULP energy -133869.196843 kJ/mol
# GULP energy per Si atom -5577.883202 kJ/mol
# Density = 1.677166 g / cm^3
# Si number density = 16.809916 Si / 1000 Ang^3
#
#
#
# Elastic Constant Matrix: (Units=GPa)
#
#
# Indices 1 2 3 4 5 6 
#
# 1 115.7701 56.6318 73.2852 -0.0001 12.3055 0.0000
# 2 56.6318 71.5744 50.6138 0.0006 9.4398 -0.0005
# 3 73.2852 50.6138 86.8528 0.0000 20.1552 0.0004
# 4 -0.0001 0.0006 0.0000 25.5729 0.0003 3.2472
# 5 12.3055 9.4398 20.1552 0.0003 21.0448 0.0000
# 6 0.0000 -0.0005 0.0004 3.2472 0.0000 22.4703
#
#
#
# Elastic Compliance Matrix: (Units=1/GPa)
#
#
# Indices 1 2 3 4 5 6 
#
# 1 0.020674 -0.006567 -0.014781 0.000000 0.005013 0.000000
# 2 -0.006567 0.026035 -0.010045 -0.000001 0.001781 0.000001
# 3 -0.014781 -0.010045 0.034443 0.000001 -0.019839 -0.000001
# 4 0.000000 -0.000001 0.000001 0.039835 -0.000001 -0.005756
# 5 0.005013 0.001781 -0.019839 -0.000001 0.062787 0.000001
# 6 0.000000 0.000001 -0.000001 -0.005756 0.000001 0.045335
#
#
# Mechanical properties :
#
#
# Convention : Reuss Voigt Hill
#
# Bulk Modulus (GPa) = 54.44359 70.58432 62.51395
# Shear Modulus (GPa) = 16.77757 20.06203 18.41980
#
# Velocity S-wave (km/s) = 3.16266 3.45840 3.31383
# Velocity P-wave (km/s) = 6.76718 7.61763 7.20496
#
# Compressibility (1/GPa) = 0.01836764
#
# Stress axis : x y z
#
# Youngs Moduli (GPa) = 48.37024 38.40925 29.03335
#
# Poissons Ratio (x) = 0.25222 0.42914
# Poissons Ratio (y) = 0.31763 0.29164
# Poissons Ratio (z) = 0.71496 0.38582
#
# Static dielectric constant tensor:
#      x y z
#    x 1.549820 0.000000 0.001290 
#    y 0.000000 1.566610 0.000000 
#    z 0.001290 0.000000 1.587280 
# 
# From -- ./inp_files/323870.got.cif
#   From: 2010.05.17/outbox.cif.g08.bks.cpg/sg12_162_cif.got.tgz:323870.got - 2010.06.03 13:09:07.
