data_PCOD9179480
_publ_section_title
;
Structure prediction by ZEFSAII (Michael W. Deem and Ramdas Pophale) SiO2 
 PCOD9179480
Probable space group: C 2/M
;
_chemical_formula_sum "Si O2"
_cell_formula_units_Z 32
_cell_length_a 20.288504
_cell_length_b 10.788553
_cell_length_c 20.269975
_cell_angle_alpha 90.000000
_cell_angle_beta 156.190192
_cell_angle_gamma 90.000000
_cell_volume 1791.130573
_symmetry_space_group_name_H-M "C 2/M"
_symmetry_group_IT_number 12
_symmetry_cell_setting 'monoclinic'
loop_
_space_group_symop_operation_xyz
x,y,z
-x,y,-z
-x,-y,-z
x,-y,z
1/2+x,1/2+y,z
1/2-x,1/2+y,-z
1/2-x,1/2-y,-z
1/2+x,1/2-y,z
loop_
_atom_site_type_symbol
_atom_site_label
_atom_site_fract_x
_atom_site_fract_y
_atom_site_fract_z
Si Si1 0.145462 0.363469 0.973104
Si Si2 0.503881 0.282984 0.277481
Si Si3 0.715020 0.138603 0.562793
Si Si4 0.506693 0.356872 0.084574
O O1 0.100625 0.500000 0.956949
O O2 0.337893 0.357450 0.134783
O O3 0.048300 0.333090 0.816637
O O4 0.102249 0.248690 0.981190
O O5 0.580865 0.235544 0.415979
O O6 0.642892 0.352945 0.363098
O O7 0.812042 0.163114 0.719247
O O8 0.647311 0.000000 0.502738
O O9 0.461340 0.500000 0.061149
O O10 0.500000 0.346891 0.000000
#
# Coordination Sequence:
#
# PCOD9179480 Si02
#       4
#     8   8   8   8
#     4  10  19  31  50  74 100 128 158 196 240 287
#     4   9  18  29  46  74 102 124 153 193 243 289
#     4   9  16  29  49  70  95 126 158 194 235 284
#     4   9  19  35  52  70  94 127 165 201 238 282
#
# _framework density 17.865811999999998
#
# number of rings (size 3 to 8) (size 9 to 14) (size 15 to 20)
#    0.000    2.750    0.000    1.500    0.000    7.500 
#    0.000    2.500    0.000    6.000    0.000    0.000 
#    0.000    0.000    0.000    0.000    0.000    0.000 
#
# Total GULP energy -89109.570859 kJ/mol
# GULP energy per Si atom -5569.348179 kJ/mol
# Density = 1.782515 g / cm^3
# Si number density = 17.865812 Si / 1000 Ang^3
#
#
#
# Elastic Constant Matrix: (Units=GPa)
#
#
# Indices 1 2 3 4 5 6 
#
# 1 38.6397 27.0177 17.5061 0.0000 -24.6923 0.0000
# 2 27.0177 101.6218 22.6788 -0.0003 -8.3402 -0.0005
# 3 17.5061 22.6788 59.7323 0.0002 -21.2042 -0.0002
# 4 0.0000 -0.0003 0.0002 3.1205 -0.0001 -1.8994
# 5 -24.6923 -8.3402 -21.2042 -0.0001 32.0066 -0.0002
# 6 0.0000 -0.0005 -0.0002 -1.8994 -0.0002 15.1564
#
#
#
# Elastic Compliance Matrix: (Units=1/GPa)
#
#
# Indices 1 2 3 4 5 6 
#
# 1 0.065812 -0.014260 0.003701 0.000000 0.049509 0.000000
# 2 -0.014260 0.013842 -0.004839 0.000002 -0.010600 0.000001
# 3 0.003701 -0.004839 0.023613 -0.000001 0.017238 0.000000
# 4 0.000000 0.000002 -0.000001 0.346921 0.000001 0.043476
# 5 0.049509 -0.010600 0.017238 0.000001 0.078096 0.000001
# 6 0.000000 0.000001 0.000000 0.043476 0.000001 0.071427
#
#
# Mechanical properties :
#
#
# Convention : Reuss Voigt Hill
#
# Bulk Modulus (GPa) = 13.79857 37.15546 25.47702
# Shear Modulus (GPa) = 7.63750 18.90944 13.27347
#
# Velocity S-wave (km/s) = 2.06983 3.25686 2.72868
# Velocity P-wave (km/s) = 3.66776 5.91481 4.92125
#
# Compressibility (1/GPa) = 0.07247127
#
# Stress axis : x y z
#
# Youngs Moduli (GPa) = 15.19475 72.24615 42.34928
#
# Poissons Ratio (x) = 1.03023 -0.15674
# Poissons Ratio (y) = 0.21668 0.20493
# Poissons Ratio (z) = -0.05624 0.34960
#
# Static dielectric constant tensor:
#      x y z
#    x 1.596910 0.000000 -0.008960 
#    y 0.000000 1.627030 0.000000 
#    z -0.008960 0.000000 1.617890 
# 
# From -- ./inp_files/70257.got.cif
#   From: 2010.05.17/outbox.cif.g08.bks.cpg/sg12_36_cif.got.tgz:70257.got - 2010.06.03 13:09:07.
