data_PCOD9179188
_publ_section_title
;
Structure prediction by ZEFSAII (Michael W. Deem and Ramdas Pophale) SiO2 
 PCOD9179188
Probable space group: C 2/M
;
_chemical_formula_sum "Si O2"
_cell_formula_units_Z 48
_cell_length_a 24.585753
_cell_length_b 8.922233
_cell_length_c 14.577049
_cell_angle_alpha 90.000000
_cell_angle_beta 69.757172
_cell_angle_gamma 90.000000
_cell_volume 3000.116765
_symmetry_space_group_name_H-M "C 2/M"
_symmetry_group_IT_number 12
_symmetry_cell_setting 'monoclinic'
loop_
_space_group_symop_operation_xyz
x,y,z
-x,y,-z
-x,-y,-z
x,-y,z
1/2+x,1/2+y,z
1/2-x,1/2+y,-z
1/2-x,1/2-y,-z
1/2+x,1/2-y,z
loop_
_atom_site_type_symbol
_atom_site_label
_atom_site_fract_x
_atom_site_fract_y
_atom_site_fract_z
Si Si1 0.439586 0.172577 0.477849
Si Si2 0.166076 0.677872 0.986934
Si Si3 0.278811 0.177737 0.843430
Si Si4 0.517237 0.180446 0.270465
Si Si5 0.377628 0.321944 0.673615
Si Si6 0.459434 0.678391 0.936261
O O1 0.500000 0.174980 0.500000
O O2 0.460448 0.218133 0.364376
O O3 0.395409 0.273348 0.560478
O O4 0.419427 0.000000 0.488953
O O5 0.161399 0.500000 0.974791
O O6 0.216239 0.748189 0.894759
O O7 0.186928 0.701079 0.080147
O O8 0.104648 0.756736 0.009876
O O9 0.317099 0.253659 0.742535
O O10 0.273769 0.000000 0.831923
O O11 0.572796 0.251447 0.289327
O O12 0.515895 0.242185 0.168946
O O13 0.523735 0.000000 0.267898
O O14 0.377845 0.500000 0.683017
O O15 0.456003 0.500000 0.922573
O O16 0.500000 0.706354 0.000000
#
# Coordination Sequence:
#
# PCOD9179188 Si02
#       6
#     8   8   8   8   8   8
#     4   8  16  29  44  64  94 127 161 197 240 292
#     4  10  20  33  50  71  96 129 166 203 245 291
#     4  10  19  31  49  71 100 132 161 199 246 294
#     4  10  19  32  48  67  94 130 166 204 245 287
#     4  11  19  27  45  72 101 130 161 196 241 296
#     4  11  23  36  51  72  99 132 168 206 246 288
#
# _framework density 15.999377000000001
#
# number of rings (size 3 to 8) (size 9 to 14) (size 15 to 20)
#    0.000    2.000    1.667    4.500    0.000    6.333 
#    0.000    0.000    0.000    0.000    0.000    1.167 
#    0.000    0.000    0.000    0.000    0.000    0.000 
#
# Total GULP energy -133896.039875 kJ/mol
# GULP energy per Si atom -5579.001661 kJ/mol
# Density = 1.596296 g / cm^3
# Si number density = 15.999377 Si / 1000 Ang^3
#
#
#
# Elastic Constant Matrix: (Units=GPa)
#
#
# Indices 1 2 3 4 5 6 
#
# 1 56.8522 50.1729 56.1629 0.0000 -11.1264 0.0000
# 2 50.1729 96.2127 74.8106 0.0000 -16.3055 0.0000
# 3 56.1629 74.8106 143.0545 0.0000 -30.4441 0.0000
# 4 0.0000 0.0000 0.0000 29.6754 0.0000 -5.5397
# 5 -11.1264 -16.3055 -30.4441 0.0000 21.8978 0.0000
# 6 0.0000 0.0000 0.0000 -5.5397 0.0000 19.9868
#
#
#
# Elastic Compliance Matrix: (Units=1/GPa)
#
#
# Indices 1 2 3 4 5 6 
#
# 1 0.036816 -0.013430 -0.007921 0.000000 -0.002307 0.000000
# 2 -0.013430 0.022418 -0.006179 0.000000 0.001279 0.000000
# 3 -0.007921 -0.006179 0.016326 0.000000 0.014072 0.000000
# 4 0.000000 0.000000 0.000000 0.035537 0.000000 0.009850
# 5 -0.002307 0.001279 0.014072 0.000000 0.065011 0.000000
# 6 0.000000 0.000000 0.000000 0.009850 0.000000 0.052763
#
#
# Mechanical properties :
#
#
# Convention : Reuss Voigt Hill
#
# Bulk Modulus (GPa) = 48.78215 73.15691 60.96953
# Shear Modulus (GPa) = 17.19600 21.97688 19.58644
#
# Velocity S-wave (km/s) = 3.28196 3.71024 3.50265
# Velocity P-wave (km/s) = 6.70208 8.01116 7.38568
#
# Compressibility (1/GPa) = 0.02049930
#
# Stress axis : x y z
#
# Youngs Moduli (GPa) = 27.16229 44.60621 61.25088
#
# Poissons Ratio (x) = 0.59908 0.48519
# Poissons Ratio (y) = 0.36480 0.37846
# Poissons Ratio (z) = 0.21516 0.27562
#
# Static dielectric constant tensor:
#      x y z
#    x 1.500400 0.000000 -0.012580 
#    y 0.000000 1.529080 0.000000 
#    z -0.012580 0.000000 1.557330 
# 
# From -- ./inp_files/236619.got.cif
#   From: 2010.05.17/outbox.cif.g08.bks.cpg/sg12_119_cif.got.tgz:236619.got - 2010.06.03 13:09:07.
