data_PCOD9179096
_publ_section_title
;
Structure prediction by ZEFSAII (Michael W. Deem and Ramdas Pophale) SiO2 
 PCOD9179096
Probable space group: C 2/M
;
_chemical_formula_sum "Si O2"
_cell_formula_units_Z 64
_cell_length_a 29.121457
_cell_length_b 8.633741
_cell_length_c 16.094507
_cell_angle_alpha 90.000000
_cell_angle_beta 89.329968
_cell_angle_gamma 90.000000
_cell_volume 4046.318804
_symmetry_space_group_name_H-M "C 2/M"
_symmetry_group_IT_number 12
_symmetry_cell_setting 'monoclinic'
loop_
_space_group_symop_operation_xyz
x,y,z
-x,y,-z
-x,-y,-z
x,-y,z
1/2+x,1/2+y,z
1/2-x,1/2+y,-z
1/2-x,1/2-y,-z
1/2+x,1/2-y,z
loop_
_atom_site_type_symbol
_atom_site_label
_atom_site_fract_x
_atom_site_fract_y
_atom_site_fract_z
Si Si1 0.450697 0.184956 0.906440
Si Si2 0.203096 0.312405 0.685318
Si Si3 0.301301 0.185959 0.990880
Si Si4 0.640793 0.684493 0.164584
Si Si5 0.141866 0.686595 0.843900
Si Si6 0.198336 0.686188 0.503496
Si Si7 0.693046 0.813800 0.321365
Si Si8 0.049195 0.815619 0.907174
O O1 0.409337 0.244679 0.850856
O O2 0.500600 0.246751 0.878935
O O3 0.450829 0.000000 0.909708
O O4 0.442911 0.248751 0.000093
O O5 0.208294 0.500000 0.687780
O O6 0.171239 0.266628 0.762875
O O7 0.181388 0.269165 0.595849
O O8 0.253947 0.240034 0.690341
O O9 0.326591 0.255659 0.910472
O O10 0.300322 0.000000 0.983563
O O11 0.250000 0.250000 0.000000
O O12 0.329774 0.225959 0.073352
O O13 0.638389 0.500000 0.161296
O O14 0.662524 0.739292 0.250554
O O15 0.136353 0.500000 0.842437
O O16 0.092206 0.763764 0.851417
O O17 0.199615 0.500000 0.501849
O O18 0.250000 0.750000 0.500000
O O19 0.177407 0.734014 0.415278
O O20 0.691240 0.000000 0.314692
O O21 0.046005 0.000000 0.912356
#
# Coordination Sequence:
#
# PCOD9179096 Si02
#       8
#     8   8   8   8   8   8   8   8
#     4  11  21  36  55  73  96 125 161 206 253 296
#     4   9  17  31  50  73 101 133 169 206 246 292
#     4  11  22  34  48  68 100 137 171 202 239 287
#     4  12  23  35  50  71  98 131 170 208 247 293
#     4  10  20  33  49  70  98 133 168 202 243 290
#     4   8  15  28  47  70  97 128 163 206 249 292
#     4  10  19  31  48  72 101 133 169 207 251 297
#     4  11  21  34  53  75  98 126 162 203 247 294
#
# _framework density 15.816845000000001
#
# number of rings (size 3 to 8) (size 9 to 14) (size 15 to 20)
#    0.000    1.750    1.250    5.625    0.000    2.500 
#    0.000    0.000    0.000    0.000    0.000    0.875 
#    0.000    7.000    0.000    0.000    0.000    0.000 
#
# Total GULP energy -178557.852085 kJ/mol
# GULP energy per Si atom -5579.932878 kJ/mol
# Density = 1.578084 g / cm^3
# Si number density = 15.816845 Si / 1000 Ang^3
#
#
#
# Elastic Constant Matrix: (Units=GPa)
#
#
# Indices 1 2 3 4 5 6 
#
# 1 112.1104 42.4566 59.7818 0.0000 11.8050 0.0000
# 2 42.4566 75.3976 40.3691 0.0000 8.0486 0.0000
# 3 59.7818 40.3691 116.3520 0.0000 24.4887 0.0000
# 4 0.0000 0.0000 0.0000 10.2312 0.0000 -2.3850
# 5 11.8050 8.0486 24.4887 0.0000 9.9654 0.0000
# 6 0.0000 0.0000 0.0000 -2.3850 0.0000 26.3749
#
#
#
# Elastic Compliance Matrix: (Units=1/GPa)
#
#
# Indices 1 2 3 4 5 6 
#
# 1 0.013581 -0.004791 -0.005683 0.000000 0.001748 0.000000
# 2 -0.004791 0.017990 -0.003970 0.000000 0.000901 0.000000
# 3 -0.005683 -0.003970 0.022370 0.000000 -0.045033 0.000000
# 4 0.000000 0.000000 0.000000 0.099845 0.000000 0.009028
# 5 0.001748 0.000901 -0.045033 0.000000 0.208213 0.000000
# 6 0.000000 0.000000 0.000000 0.009028 0.000000 0.038731
#
#
# Mechanical properties :
#
#
# Convention : Reuss Voigt Hill
#
# Bulk Modulus (GPa) = 39.91580 65.45279 52.68430
# Shear Modulus (GPa) = 11.41633 20.06447 15.74040
#
# Velocity S-wave (km/s) = 2.68952 3.56554 3.15805
# Velocity P-wave (km/s) = 5.91064 7.64345 6.83220
#
# Compressibility (1/GPa) = 0.02505274
#
# Stress axis : x y z
#
# Youngs Moduli (GPa) = 73.63390 55.58596 44.70194
#
# Poissons Ratio (x) = 0.26631 0.25406
# Poissons Ratio (y) = 0.35277 0.17746
# Poissons Ratio (z) = 0.41850 0.22067
#
# Static dielectric constant tensor:
#      x y z
#    x 1.503020 0.000000 0.004840 
#    y 0.000000 1.529560 0.000000 
#    z 0.004840 0.000000 1.546390 
# 
# From -- ./inp_files/248277.got.cif
#   From: 2010.05.17/outbox.cif.g08.bks.cpg/sg12_125_cif.got.tgz:248277.got - 2010.06.03 13:09:07.
