data_PCOD9179232
_publ_section_title
;
Structure prediction by ZEFSAII (Michael W. Deem and Ramdas Pophale) SiO2 
 PCOD9179232
Probable space group: C 2/M
;
_chemical_formula_sum "Si O2"
_cell_formula_units_Z 48
_cell_length_a 24.066256
_cell_length_b 8.931072
_cell_length_c 31.614371
_cell_angle_alpha 90.000000
_cell_angle_beta 24.756384
_cell_angle_gamma 90.000000
_cell_volume 2845.527685
_symmetry_space_group_name_H-M "C 2/M"
_symmetry_group_IT_number 12
_symmetry_cell_setting 'monoclinic'
loop_
_space_group_symop_operation_xyz
x,y,z
-x,y,-z
-x,-y,-z
x,-y,z
1/2+x,1/2+y,z
1/2-x,1/2+y,-z
1/2-x,1/2-y,-z
1/2+x,1/2-y,z
loop_
_atom_site_type_symbol
_atom_site_label
_atom_site_fract_x
_atom_site_fract_y
_atom_site_fract_z
Si Si1 0.269956 0.822943 0.361288
Si Si2 0.876695 0.320676 0.113750
Si Si3 0.500715 0.826051 0.564251
Si Si4 0.195908 0.176144 0.748288
Si Si5 0.155461 0.177485 0.601195
Si Si6 0.578999 0.676317 0.295807
O O1 0.337168 0.756603 0.272768
O O2 0.321163 0.750735 0.369505
O O3 0.114918 0.776696 0.466466
O O4 0.284003 0.000000 0.353072
O O5 0.886615 0.500000 0.112773
O O6 0.870703 0.244899 0.163857
O O7 0.735758 0.291774 0.187890
O O8 0.000000 0.270659 0.000000
O O9 0.354562 0.805436 0.646228
O O10 0.485407 0.779605 0.623712
O O11 0.538729 0.000000 0.532945
O O12 0.168687 0.000000 0.764243
O O13 0.250000 0.250000 0.500000
O O14 0.004734 0.197672 0.688768
O O15 0.183087 0.000000 0.584322
O O16 0.562855 0.500000 0.319201
#
# Coordination Sequence:
#
# PCOD9179232 Si02
#       6
#     8   8   8   8   8   8
#     4  12  23  33  48  71 103 143 178 212 255 305
#     4   9  18  35  59  83 105 130 164 211 265 317
#     4  10  19  31  49  72 102 137 172 212 255 303
#     4  10  21  35  51  75 104 134 171 215 262 310
#     4  11  21  33  50  73 105 143 181 214 247 296
#     4   9  18  32  51  76 104 136 173 210 252 304
#
# _framework density 16.868576999999998
#
# number of rings (size 3 to 8) (size 9 to 14) (size 15 to 20)
#    0.000    1.833    1.667    3.500    0.000    5.000 
#    0.000    0.000    0.000    1.000    0.000    0.000 
#    0.000    0.000    0.000    0.000    0.000    0.000 
#
# Total GULP energy -133943.432841 kJ/mol
# GULP energy per Si atom -5580.976368 kJ/mol
# Density = 1.683018 g / cm^3
# Si number density = 16.868577 Si / 1000 Ang^3
#
#
#
# Elastic Constant Matrix: (Units=GPa)
#
#
# Indices 1 2 3 4 5 6 
#
# 1 119.3090 70.0137 58.8818 0.0004 28.8156 -0.0003
# 2 70.0137 96.9286 51.2290 0.0002 18.6189 0.0025
# 3 58.8818 51.2290 99.7455 0.0030 18.8047 -0.0017
# 4 0.0004 0.0002 0.0030 17.2322 -0.0009 1.1828
# 5 28.8156 18.6189 18.8047 -0.0009 17.8698 0.0003
# 6 -0.0003 0.0025 -0.0017 1.1828 0.0003 21.5478
#
#
#
# Elastic Compliance Matrix: (Units=1/GPa)
#
#
# Indices 1 2 3 4 5 6 
#
# 1 0.020008 -0.008830 -0.003653 -0.000001 -0.019219 0.000001
# 2 -0.008830 0.019278 -0.004474 0.000001 -0.001140 -0.000003
# 3 -0.003653 -0.004474 0.015582 -0.000003 -0.005845 0.000002
# 4 -0.000001 0.000001 -0.000003 0.058250 0.000007 -0.003197
# 5 -0.019219 -0.001140 -0.005845 0.000007 0.094291 -0.000002
# 6 0.000001 -0.000003 0.000002 -0.003197 -0.000002 0.046584
#
#
# Mechanical properties :
#
#
# Convention : Reuss Voigt Hill
#
# Bulk Modulus (GPa) = 47.72136 75.13688 61.42912
# Shear Modulus (GPa) = 16.95542 20.38720 18.67131
#
# Velocity S-wave (km/s) = 3.17385 3.48025 3.33057
# Velocity P-wave (km/s) = 6.46394 7.79671 7.16140
#
# Compressibility (1/GPa) = 0.02095498
#
# Stress axis : x y z
#
# Youngs Moduli (GPa) = 49.98096 51.87162 64.17833
#
# Poissons Ratio (x) = 0.45801 0.23442
# Poissons Ratio (y) = 0.44131 0.28714
# Poissons Ratio (z) = 0.18256 0.23208
#
# Static dielectric constant tensor:
#      x y z
#    x 1.588150 0.000000 -0.011170 
#    y 0.000000 1.562610 0.000000 
#    z -0.011170 0.000000 1.557050 
# 
# From -- ./inp_files/172434.got.cif
#   From: 2010.05.17/outbox.cif.g08.bks.cpg/sg12_87_cif.got.tgz:172434.got - 2010.06.03 13:09:07.
