data_PCOD9179196
_publ_section_title
;
Structure prediction by ZEFSAII (Michael W. Deem and Ramdas Pophale) SiO2 
 PCOD9179196
Probable space group: C 2/M
;
_chemical_formula_sum "Si O2"
_cell_formula_units_Z 56
_cell_length_a 15.865767
_cell_length_b 9.263981
_cell_length_c 18.176629
_cell_angle_alpha 90.000000
_cell_angle_beta 62.399903
_cell_angle_gamma 90.000000
_cell_volume 2367.582854
_symmetry_space_group_name_H-M "C 2/M"
_symmetry_group_IT_number 12
_symmetry_cell_setting 'monoclinic'
loop_
_space_group_symop_operation_xyz
x,y,z
-x,y,-z
-x,-y,-z
x,-y,z
1/2+x,1/2+y,z
1/2-x,1/2+y,-z
1/2-x,1/2-y,-z
1/2+x,1/2-y,z
loop_
_atom_site_type_symbol
_atom_site_label
_atom_site_fract_x
_atom_site_fract_y
_atom_site_fract_z
Si Si1 0.108978 0.834837 0.015019
Si Si2 0.604853 0.334486 0.601048
Si Si3 0.561104 0.163919 0.259248
Si Si4 0.274447 0.665078 0.877100
Si Si5 0.388076 0.172197 0.543914
Si Si6 0.278953 0.667116 0.292563
Si Si7 0.056277 0.664509 0.847628
O O1 0.167020 0.838101 0.069200
O O2 0.006557 0.769040 0.076079
O O3 0.105327 0.000000 0.990048
O O4 0.172509 0.732033 0.938163
O O5 0.590626 0.500000 0.585857
O O6 0.505591 0.260323 0.663097
O O7 0.647426 0.249572 0.515163
O O8 0.667431 0.330935 0.649684
O O9 0.663014 0.232445 0.200173
O O10 0.504453 0.158899 0.204137
O O11 0.567725 0.000000 0.284510
O O12 0.269983 0.500000 0.852866
O O13 0.500000 0.204593 0.500000
O O14 0.326878 0.213178 0.640343
O O15 0.376580 0.000000 0.541047
O O16 0.281273 0.500000 0.265657
O O17 0.341913 0.769780 0.215867
O O18 0.060920 0.500000 0.873315
#
# Coordination Sequence:
#
# PCOD9179196 Si02
#       7
#     8   8   8   8   8   8   8
#     4   9  15  22  33  51  80 118 154 187 227 274
#     4  10  19  31  49  71  94 121 155 195 236 278
#     4   9  16  26  40  59  85 117 153 190 229 275
#     4   9  15  22  33  52  81 116 153 190 228 271
#     4  10  21  36  52  70  94 123 154 190 234 284
#     4   9  18  32  49  69  93 122 156 193 234 280
#     4   9  16  25  39  60  85 115 152 192 231 272
#
# _framework density 23.652815
#
# number of rings (size 3 to 8) (size 9 to 14) (size 15 to 20)
#    0.000    2.714    0.000    2.571    0.000    8.286 
#    0.000    0.000    0.000    0.000    0.000    0.000 
#    0.000    1.143    0.000   12.286    0.000   17.714 
#
# Total GULP energy -156768.618720 kJ/mol
# GULP energy per Si atom -5598.879240 kJ/mol
# Density = 2.359898 g / cm^3
# Si number density = 23.652815 Si / 1000 Ang^3
#
#
#
# Elastic Constant Matrix: (Units=GPa)
#
#
# Indices 1 2 3 4 5 6 
#
# 1 97.2653 32.5069 29.4877 0.0000 -25.2020 0.0000
# 2 32.5069 67.1102 47.3553 0.0000 -26.6802 0.0000
# 3 29.4877 47.3553 134.5853 0.0000 -33.1721 0.0000
# 4 0.0000 0.0000 0.0000 39.3855 0.0000 -1.3401
# 5 -25.2020 -26.6802 -33.1721 0.0000 58.0934 0.0000
# 6 0.0000 0.0000 0.0000 -1.3401 0.0000 13.7325
#
#
#
# Elastic Compliance Matrix: (Units=1/GPa)
#
#
# Indices 1 2 3 4 5 6 
#
# 1 0.012778 -0.004656 -0.000375 0.000000 0.003191 0.000000
# 2 -0.004656 0.023467 -0.005910 0.000000 0.005383 0.000000
# 3 -0.000375 -0.005910 0.010338 0.000000 0.003026 0.000000
# 4 0.000000 0.000000 0.000000 0.025475 0.000000 0.002486
# 5 0.003191 0.005383 0.003026 0.000000 0.022798 0.000000
# 6 0.000000 0.000000 0.000000 0.002486 0.000000 0.073063
#
#
# Mechanical properties :
#
#
# Convention : Reuss Voigt Hill
#
# Bulk Modulus (GPa) = 40.48649 57.51786 49.00218
# Shear Modulus (GPa) = 25.24835 34.88301 30.06568
#
# Velocity S-wave (km/s) = 3.27074 3.84447 3.56915
# Velocity P-wave (km/s) = 5.60516 6.63905 6.14389
#
# Compressibility (1/GPa) = 0.02469960
#
# Stress axis : x y z
#
# Youngs Moduli (GPa) = 78.26141 42.61387 96.73299
#
# Poissons Ratio (x) = 0.19842 0.03625
# Poissons Ratio (y) = 0.36441 0.57170
# Poissons Ratio (z) = 0.02933 0.25185
#
# Static dielectric constant tensor:
#      x y z
#    x 2.031040 0.000000 0.040760 
#    y 0.000000 1.786660 0.000000 
#    z 0.040760 0.000000 1.825960 
# 
# From -- ./inp_files/280306.got.cif
#   From: 2010.05.17/outbox.cif.g08.bks.cpg/sg12_141_cif.got.tgz:280306.got - 2010.06.03 13:09:07.
