data_PCOD9179978
_publ_section_title
;
Structure prediction by ZEFSAII (Michael W. Deem and Ramdas Pophale) SiO2 
 PCOD9179978
Probable space group: C 2/M
;
_chemical_formula_sum "Si O2"
_cell_formula_units_Z 56
_cell_length_a 26.399590
_cell_length_b 20.020273
_cell_length_c 17.863123
_cell_angle_alpha 90.000000
_cell_angle_beta 19.059682
_cell_angle_gamma 90.000000
_cell_volume 3083.032318
_symmetry_space_group_name_H-M "C 2/M"
_symmetry_group_IT_number 12
_symmetry_cell_setting 'monoclinic'
loop_
_space_group_symop_operation_xyz
x,y,z
-x,y,-z
-x,-y,-z
x,-y,z
1/2+x,1/2+y,z
1/2-x,1/2+y,-z
1/2-x,1/2-y,-z
1/2+x,1/2-y,z
loop_
_atom_site_type_symbol
_atom_site_label
_atom_site_fract_x
_atom_site_fract_y
_atom_site_fract_z
Si Si1 0.651665 0.799084 0.084193
Si Si2 0.643614 0.240895 0.438237
Si Si3 0.021329 0.073238 0.711836
Si Si4 0.611862 0.072355 0.770919
Si Si5 0.074035 0.200086 0.059591
Si Si6 0.871789 0.718035 0.244703
Si Si7 0.956285 0.870609 0.641947
O O1 0.490560 0.811003 0.351585
O O2 0.611299 0.757139 0.067486
O O3 0.750000 0.750000 0.000000
O O4 0.772516 0.856403 0.897424
O O5 0.715878 0.272195 0.413992
O O6 0.558529 0.301870 0.512447
O O7 0.781175 0.206057 0.199901
O O8 0.207552 0.072325 0.459146
O O9 0.949075 0.130987 0.864572
O O10 0.988189 0.087197 0.671257
O O11 0.962916 0.000000 0.815391
O O12 0.599357 0.146885 0.754350
O O13 0.581045 0.000000 0.775497
O O14 0.500000 0.072921 0.000000
O O15 0.916922 0.221376 0.235744
O O16 0.000000 0.718878 0.000000
O O17 0.000000 0.898554 0.500000
#
# Coordination Sequence:
#
# PCOD9179978 Si02
#       7
#     8   8   8   8   8   8   8
#     4  10  19  31  52  83 109 141 187 243 281 329
#     4  10  19  33  52  87 117 142 183 243 290 331
#     4  11  23  38  54  81 119 155 195 232 283 353
#     4   9  17  31  51  75 112 153 181 218 278 345
#     4  11  20  34  59  84 115 151 190 240 291 336
#     4   9  18  31  52  83 116 140 183 236 284 334
#     4  11  20  35  57  83 113 145 188 233 292 340
#
# _framework density 18.163934999999999
#
# number of rings (size 3 to 8) (size 9 to 14) (size 15 to 20)
#    0.000    1.857    5.714    0.000    0.000    2.571 
#    0.000    0.000    0.000    6.429    0.000    0.000 
#    0.000    0.000    0.000    0.000    0.000    0.000 
#
# Total GULP energy -155880.884502 kJ/mol
# GULP energy per Si atom -5567.174447 kJ/mol
# Density = 1.812259 g / cm^3
# Si number density = 18.163935 Si / 1000 Ang^3
#
#
#
# Elastic Constant Matrix: (Units=GPa)
#
#
# Indices 1 2 3 4 5 6 
#
# 1 71.4522 28.8024 15.5766 0.0005 5.6705 -0.0002
# 2 28.8024 82.0971 16.6500 0.0004 10.3130 -0.0002
# 3 15.5766 16.6500 96.3131 0.0006 4.8026 -0.0005
# 4 0.0005 0.0004 0.0006 13.4670 -0.0006 -4.5699
# 5 5.6705 10.3130 4.8026 -0.0006 23.3668 0.0005
# 6 -0.0002 -0.0002 -0.0005 -4.5699 0.0005 7.8263
#
#
#
# Elastic Compliance Matrix: (Units=1/GPa)
#
#
# Indices 1 2 3 4 5 6 
#
# 1 0.016615 -0.005316 -0.001702 0.000000 -0.001336 0.000000
# 2 -0.005316 0.014976 -0.001479 0.000000 -0.005015 0.000000
# 3 -0.001702 -0.001479 0.010973 0.000000 -0.001190 0.000001
# 4 0.000000 0.000000 0.000000 0.092605 0.000001 0.054074
# 5 -0.001336 -0.005015 -0.001190 0.000001 0.045578 -0.000002
# 6 0.000000 0.000000 0.000001 0.054074 -0.000002 0.159348
#
#
# Mechanical properties :
#
#
# Convention : Reuss Voigt Hill
#
# Bulk Modulus (GPa) = 39.10761 41.32449 40.21605
# Shear Modulus (GPa) = 13.67568 21.52092 17.59830
#
# Velocity S-wave (km/s) = 2.74688 3.44585 3.11603
# Velocity P-wave (km/s) = 5.62473 6.21547 5.92746
#
# Compressibility (1/GPa) = 0.02557047
#
# Stress axis : x y z
#
# Youngs Moduli (GPa) = 60.18539 66.77421 91.13288
#
# Poissons Ratio (x) = 0.35499 0.15506
# Poissons Ratio (y) = 0.31996 0.13479
# Poissons Ratio (z) = 0.10241 0.09876
#
# Static dielectric constant tensor:
#      x y z
#    x 1.682390 0.000000 -0.021750 
#    y 0.000000 1.655390 0.000000 
#    z -0.021750 0.000000 1.686450 
# 
# From -- ./inp_files/294063.got.cif
#   From: 2010.05.17/outbox.cif.g08.bks.cpg/sg12_148_cif.got.tgz:294063.got - 2010.06.03 13:09:07.
