data_PCOD9179075
_publ_section_title
;
Structure prediction by ZEFSAII (Michael W. Deem and Ramdas Pophale) SiO2 
 PCOD9179075
Probable space group: C 2/M
;
_chemical_formula_sum "Si O2"
_cell_formula_units_Z 48
_cell_length_a 14.572079
_cell_length_b 7.577767
_cell_length_c 22.927460
_cell_angle_alpha 90.000000
_cell_angle_beta 73.753734
_cell_angle_gamma 90.000000
_cell_volume 2430.640577
_symmetry_space_group_name_H-M "C 2/M"
_symmetry_group_IT_number 12
_symmetry_cell_setting 'monoclinic'
loop_
_space_group_symop_operation_xyz
x,y,z
-x,y,-z
-x,-y,-z
x,-y,z
1/2+x,1/2+y,z
1/2-x,1/2+y,-z
1/2-x,1/2-y,-z
1/2+x,1/2-y,z
loop_
_atom_site_type_symbol
_atom_site_label
_atom_site_fract_x
_atom_site_fract_y
_atom_site_fract_z
Si Si1 0.970923 0.787389 0.568808
Si Si2 0.394522 0.213824 0.001875
Si Si3 0.388342 0.294858 0.767358
Si Si4 0.707695 0.709293 0.099642
Si Si5 0.281270 0.209082 0.669669
Si Si6 0.072783 0.783390 0.668016
O O1 0.039770 0.727138 0.609258
O O2 0.000000 0.720583 0.500000
O O3 0.863452 0.742059 0.607285
O O4 0.977062 0.000000 0.566474
O O5 0.362721 0.265672 0.942564
O O6 0.394477 0.000000 0.003806
O O7 0.500000 0.275403 0.000000
O O8 0.310802 0.279018 0.060166
O O9 0.407274 0.500000 0.777620
O O10 0.338174 0.215883 0.833218
O O11 0.319058 0.286864 0.723717
O O12 0.489877 0.221627 0.727121
O O13 0.721562 0.500000 0.106407
O O14 0.178002 0.274802 0.667606
O O15 0.273899 0.000000 0.680066
O O16 0.071877 0.000000 0.668042
#
# Coordination Sequence:
#
# PCOD9179075 Si02
#       6
#     8   8   8   8   8   8
#     4   9  18  34  53  70  93 128 162 189 227 281
#     4   9  18  32  48  69  99 128 154 194 244 283
#     4   9  18  34  51  67  93 127 161 194 231 282
#     4   9  18  32  50  70  92 124 163 197 231 279
#     4  10  19  31  48  71  97 122 152 194 240 278
#     4   8  16  31  48  67  94 124 152 190 237 278
#
# _framework density 19.747882000000001
#
# number of rings (size 3 to 8) (size 9 to 14) (size 15 to 20)
#    0.000    3.000    0.000    1.500    0.000    3.333 
#    0.000    6.667    0.000    0.000    0.000    0.000 
#    0.000    0.000    0.000    0.000    0.000    0.000 
#
# Total GULP energy -133831.990153 kJ/mol
# GULP energy per Si atom -5576.332923 kJ/mol
# Density = 1.970293 g / cm^3
# Si number density = 19.747882 Si / 1000 Ang^3
#
#
#
# Elastic Constant Matrix: (Units=GPa)
#
#
# Indices 1 2 3 4 5 6 
#
# 1 169.9707 -17.4491 83.8581 0.0000 -20.2076 0.0000
# 2 -17.4491 39.0849 -7.5997 0.0000 -2.4709 0.0000
# 3 83.8581 -7.5997 184.0719 0.0000 -20.1842 0.0000
# 4 0.0000 0.0000 0.0000 0.6675 0.0000 15.7692
# 5 -20.2076 -2.4709 -20.1842 0.0000 6.8605 0.0000
# 6 0.0000 0.0000 0.0000 15.7692 0.0000 3.5738
#
#
#
# Elastic Compliance Matrix: (Units=1/GPa)
#
#
# Indices 1 2 3 4 5 6 
#
# 1 0.010799 0.006468 -0.001342 0.000000 0.030188 0.000000
# 2 0.006468 0.031331 0.002470 0.000000 0.037604 0.000000
# 3 -0.001342 0.002470 0.008577 0.000000 0.022171 0.000000
# 4 0.000000 0.000000 0.000000 -0.014511 0.000000 0.064029
# 5 0.030188 0.037604 0.022171 0.000000 0.313453 0.000000
# 6 0.000000 0.000000 0.000000 0.064029 0.000000 -0.002710
#
#
# Mechanical properties :
#
#
# Convention : Reuss Voigt Hill
#
# Bulk Modulus (GPa) = 15.17476 56.74958 35.96217
# Shear Modulus (GPa) = 14.13578 24.50823 19.32201
#
# Velocity S-wave (km/s) = 2.67837 3.52668 3.13139
# Velocity P-wave (km/s) = 4.15522 6.73667 5.59681
#
# Compressibility (1/GPa) = 0.06589890
#
# Stress axis : x y z
#
# Youngs Moduli (GPa) = 92.60431 31.91770 116.58669
#
# Poissons Ratio (x) = -0.20646 0.15649
# Poissons Ratio (y) = -0.59900 -0.28798
# Poissons Ratio (z) = 0.12430 -0.07884
#
# Static dielectric constant tensor:
#      x y z
#    x 1.666050 0.000000 -0.021560 
#    y 0.000000 1.729030 0.000000 
#    z -0.021560 0.000000 1.688820 
# 
# From -- ./inp_files/303875.got.cif
#   From: 2010.05.17/outbox.cif.g08.bks.cpg/sg12_152_cif.got.tgz:303875.got - 2010.06.03 13:09:07.
