data_PCOD9179537
_publ_section_title
;
Structure prediction by ZEFSAII (Michael W. Deem and Ramdas Pophale) SiO2 
 PCOD9179537
Probable space group: C 2/M
;
_chemical_formula_sum "Si O2"
_cell_formula_units_Z 56
_cell_length_a 14.027674
_cell_length_b 16.847373
_cell_length_c 15.788688
_cell_angle_alpha 90.000000
_cell_angle_beta 120.815282
_cell_angle_gamma 90.000000
_cell_volume 3204.554880
_symmetry_space_group_name_H-M "C 2/M"
_symmetry_group_IT_number 12
_symmetry_cell_setting 'monoclinic'
loop_
_space_group_symop_operation_xyz
x,y,z
-x,y,-z
-x,-y,-z
x,-y,z
1/2+x,1/2+y,z
1/2-x,1/2+y,-z
1/2-x,1/2-y,-z
1/2+x,1/2-y,z
loop_
_atom_site_type_symbol
_atom_site_label
_atom_site_fract_x
_atom_site_fract_y
_atom_site_fract_z
Si Si1 0.111017 0.749811 0.502029
Si Si2 0.139809 0.815508 0.197373
Si Si3 0.756982 0.320363 0.071480
Si Si4 0.158665 0.689832 0.347922
Si Si5 0.669455 0.091241 0.631050
Si Si6 0.056559 0.085967 0.932535
Si Si7 0.454368 0.909220 0.248398
O O1 0.099664 0.739990 0.396445
O O2 0.212655 0.809674 0.566300
O O3 0.143764 0.661535 0.552935
O O4 0.000000 0.773295 0.500000
O O5 0.188769 0.800052 0.126379
O O6 0.155182 0.738532 0.260285
O O7 0.213190 0.885969 0.272540
O O8 0.013322 0.844103 0.141276
O O9 0.877458 0.350503 0.157339
O O10 0.750000 0.250000 0.000000
O O11 0.684716 0.392662 0.000550
O O12 0.083675 0.612703 0.303312
O O13 0.584409 0.098273 0.671167
O O14 0.666211 0.000000 0.598288
O O15 0.040971 0.000000 0.884901
O O16 0.000000 0.081694 0.000000
O O17 0.432929 0.000000 0.213526
#
# Coordination Sequence:
#
# PCOD9179537 Si02
#       7
#     8   8   8   8   8   8   8
#     4  10  19  33  51  77 105 131 166 206 255 310
#     4   9  18  31  48  74 103 134 170 202 247 306
#     4  10  19  31  50  75 103 134 169 208 251 300
#     4  10  20  33  51  74 103 136 167 204 254 306
#     4   9  17  29  49  78 107 129 157 209 268 310
#     4   9  16  28  47  71 100 127 157 204 256 298
#     4  10  19  32  51  76 104 132 168 213 262 304
#
# _framework density 17.475127000000001
#
# number of rings (size 3 to 8) (size 9 to 14) (size 15 to 20)
#    0.000    2.429    1.429    1.714    0.000    4.286 
#    0.000    0.000    0.000    3.000    0.000    0.000 
#    0.000    0.000    0.000    0.000    0.000    0.000 
#
# Total GULP energy -155928.670238 kJ/mol
# GULP energy per Si atom -5568.881080 kJ/mol
# Density = 1.743535 g / cm^3
# Si number density = 17.475127 Si / 1000 Ang^3
#
#
#
# Elastic Constant Matrix: (Units=GPa)
#
#
# Indices 1 2 3 4 5 6 
#
# 1 68.6438 14.2465 12.8064 0.0000 8.5502 0.0000
# 2 14.2465 54.8676 14.7071 0.0000 -3.2232 0.0000
# 3 12.8064 14.7071 49.8651 0.0000 -3.9733 0.0000
# 4 0.0000 0.0000 0.0000 17.2384 0.0000 5.7512
# 5 8.5502 -3.2232 -3.9733 0.0000 22.9344 0.0000
# 6 0.0000 0.0000 0.0000 5.7512 0.0000 14.3631
#
#
#
# Elastic Compliance Matrix: (Units=1/GPa)
#
#
# Indices 1 2 3 4 5 6 
#
# 1 0.017021 -0.003833 -0.003842 0.000000 -0.007550 0.000000
# 2 -0.003833 0.020727 -0.004850 0.000000 0.003502 0.000000
# 3 -0.003842 -0.004850 0.022846 0.000000 0.004709 0.000000
# 4 0.000000 0.000000 0.000000 0.066954 0.000000 -0.026809
# 5 -0.007550 0.003502 0.004709 0.000000 0.047725 0.000000
# 6 0.000000 0.000000 0.000000 -0.026809 0.000000 0.080358
#
#
# Mechanical properties :
#
#
# Convention : Reuss Voigt Hill
#
# Bulk Modulus (GPa) = 28.13437 28.54405 28.33921
# Shear Modulus (GPa) = 17.09232 19.68163 18.38698
#
# Velocity S-wave (km/s) = 3.13084 3.35963 3.24725
# Velocity P-wave (km/s) = 5.40409 5.60527 5.50560
#
# Compressibility (1/GPa) = 0.03554371
#
# Stress axis : x y z
#
# Youngs Moduli (GPa) = 58.75194 48.24724 43.77047
#
# Poissons Ratio (x) = 0.18493 0.16818
# Poissons Ratio (y) = 0.22520 0.21227
# Poissons Ratio (z) = 0.22575 0.23398
#
# Static dielectric constant tensor:
#      x y z
#    x 1.597290 0.000000 0.032230 
#    y 0.000000 1.586040 0.000000 
#    z 0.032230 0.000000 1.635260 
# 
# From -- ./inp_files/269943.got.cif
#   From: 2010.05.17/outbox.cif.g08.bks.cpg/sg12_135_cif.got.tgz:269943.got - 2010.06.03 13:09:07.
