data_PCOD9179483
_publ_section_title
;
Structure prediction by ZEFSAII (Michael W. Deem and Ramdas Pophale) SiO2 
 PCOD9179483
Probable space group: C 2/M
;
_chemical_formula_sum "Si O2"
_cell_formula_units_Z 56
_cell_length_a 19.258975
_cell_length_b 8.048835
_cell_length_c 23.887263
_cell_angle_alpha 90.000000
_cell_angle_beta 127.326923
_cell_angle_gamma 90.000000
_cell_volume 2944.440301
_symmetry_space_group_name_H-M "C 2/M"
_symmetry_group_IT_number 12
_symmetry_cell_setting 'monoclinic'
loop_
_space_group_symop_operation_xyz
x,y,z
-x,y,-z
-x,-y,-z
x,-y,z
1/2+x,1/2+y,z
1/2-x,1/2+y,-z
1/2-x,1/2-y,-z
1/2+x,1/2-y,z
loop_
_atom_site_type_symbol
_atom_site_label
_atom_site_fract_x
_atom_site_fract_y
_atom_site_fract_z
Si Si1 0.995026 0.796472 0.933509
Si Si2 0.067761 0.299705 0.369869
Si Si3 0.729602 0.802640 0.372468
Si Si4 0.374966 0.308585 0.780689
Si Si5 0.155234 0.801694 0.933021
Si Si6 0.919739 0.801793 0.497011
Si Si7 0.965600 0.303774 0.215625
O O1 0.909235 0.740434 0.856898
O O2 0.081126 0.744391 0.941122
O O3 0.993231 0.000000 0.931966
O O4 0.000000 0.742377 0.000000
O O5 0.072193 0.500000 0.377066
O O6 0.153831 0.240488 0.377639
O O7 0.065085 0.226859 0.430050
O O8 0.985188 0.260025 0.289475
O O9 0.698380 0.773874 0.293579
O O10 0.824879 0.733005 0.432928
O O11 0.731935 0.000000 0.382572
O O12 0.350586 0.500000 0.776012
O O13 0.462760 0.294366 0.785847
O O14 0.126357 0.731677 0.858409
O O15 0.151058 0.000000 0.928017
O O16 0.250000 0.750000 0.000000
O O17 0.000000 0.733165 0.500000
O O18 0.916482 0.000000 0.485283
O O19 0.985741 0.500000 0.219543
#
# Coordination Sequence:
#
# PCOD9179483 Si02
#       7
#     8   8   8   8   8   8   8
#     4   8  15  29  48  70  96 125 159 199 240 284
#     4   9  18  32  52  75  94 120 160 204 245 284
#     4   9  18  33  51  71  96 125 160 201 242 285
#     4   9  16  27  48  75  96 121 160 201 243 287
#     4  10  19  31  50  74 100 132 167 203 244 289
#     4  10  21  35  50  70  99 133 161 192 243 297
#     4   9  17  31  50  72  99 127 159 202 247 288
#
# _framework density 19.018896000000002
#
# number of rings (size 3 to 8) (size 9 to 14) (size 15 to 20)
#    0.000    2.857    0.000    3.429    0.000    3.714 
#    0.000    1.429    0.000   20.571    0.000    0.000 
#    0.000    0.000    0.000    0.000    0.000    0.000 
#
# Total GULP energy -155974.788902 kJ/mol
# GULP energy per Si atom -5570.528175 kJ/mol
# Density = 1.897561 g / cm^3
# Si number density = 19.018896 Si / 1000 Ang^3
#
#
#
# Elastic Constant Matrix: (Units=GPa)
#
#
# Indices 1 2 3 4 5 6 
#
# 1 69.6129 6.5343 74.5783 0.0000 0.1472 0.0000
# 2 6.5343 11.7981 -4.5723 0.0000 3.6785 0.0000
# 3 74.5783 -4.5723 184.0171 0.0000 2.1011 0.0000
# 4 0.0000 0.0000 0.0000 29.7937 0.0000 0.0335
# 5 0.1472 3.6785 2.1011 0.0000 25.8863 0.0000
# 6 0.0000 0.0000 0.0000 0.0335 0.0000 8.0802
#
#
#
# Elastic Compliance Matrix: (Units=1/GPa)
#
#
# Indices 1 2 3 4 5 6 
#
# 1 0.030392 -0.023146 -0.012940 0.000000 0.004167 0.000000
# 2 -0.023146 0.107344 0.012232 0.000000 -0.016115 0.000000
# 3 -0.012940 0.012232 0.011012 0.000000 -0.002558 0.000000
# 4 0.000000 0.000000 0.000000 0.033564 0.000000 -0.000139
# 5 0.004167 -0.016115 -0.002558 0.000000 0.041104 0.000000
# 6 0.000000 0.000000 0.000000 -0.000139 0.000000 0.123759
#
#
# Mechanical properties :
#
#
# Convention : Reuss Voigt Hill
#
# Bulk Modulus (GPa) = 9.89717 46.50096 28.19906
# Shear Modulus (GPa) = 11.66689 25.34456 18.50573
#
# Velocity S-wave (km/s) = 2.47945 3.65444 3.12271
# Velocity P-wave (km/s) = 3.66225 6.50458 5.27833
#
# Compressibility (1/GPa) = 0.10103903
#
# Stress axis : x y z
#
# Youngs Moduli (GPa) = 32.90363 9.31585 90.81282
#
# Poissons Ratio (x) = 0.21563 1.17510
# Poissons Ratio (y) = 0.76159 -1.11081
# Poissons Ratio (z) = 0.42577 -0.11395
#
# Static dielectric constant tensor:
#      x y z
#    x 1.649370 0.000000 0.014440 
#    y 0.000000 1.692070 0.000000 
#    z 0.014440 0.000000 1.696750 
# 
# From -- ./inp_files/345654.got.cif
#   From: 2010.05.17/outbox.cif.g08.bks.cpg/sg12_173_cif.got.tgz:345654.got - 2010.06.03 13:09:07.
