data_PCOD9179071
_publ_section_title
;
Structure prediction by ZEFSAII (Michael W. Deem and Ramdas Pophale) SiO2 
 PCOD9179071
Probable space group: C 2/M
;
_chemical_formula_sum "Si O2"
_cell_formula_units_Z 48
_cell_length_a 27.556364
_cell_length_b 13.780344
_cell_length_c 23.315466
_cell_angle_alpha 90.000000
_cell_angle_beta 159.430035
_cell_angle_gamma 90.000000
_cell_volume 3110.764634
_symmetry_space_group_name_H-M "C 2/M"
_symmetry_group_IT_number 12
_symmetry_cell_setting 'monoclinic'
loop_
_space_group_symop_operation_xyz
x,y,z
-x,y,-z
-x,-y,-z
x,-y,z
1/2+x,1/2+y,z
1/2-x,1/2+y,-z
1/2-x,1/2-y,-z
1/2+x,1/2-y,z
loop_
_atom_site_type_symbol
_atom_site_label
_atom_site_fract_x
_atom_site_fract_y
_atom_site_fract_z
Si Si1 0.657624 0.615354 0.693274
Si Si2 0.852775 0.611044 0.806203
Si Si3 0.290587 0.196841 0.953569
Si Si4 0.353988 0.610537 0.619368
Si Si5 0.891381 0.696832 0.726097
Si Si6 0.163518 0.888807 0.927887
O O1 0.500000 0.625997 0.500000
O O2 0.685339 0.500000 0.734218
O O3 0.747299 0.646135 0.737661
O O4 0.702140 0.672588 0.799358
O O5 0.814641 0.500000 0.747687
O O6 0.864406 0.673620 0.762190
O O7 0.000000 0.608126 0.000000
O O8 0.232533 0.136610 0.943431
O O9 0.450687 0.172673 0.116381
O O10 0.287412 0.308674 0.971673
O O11 0.347393 0.500000 0.632533
O O12 0.219491 0.636483 0.433571
O O13 0.366339 0.690844 0.682466
O O14 0.496267 0.620825 0.740341
O O15 0.194201 0.000000 0.977791
#
# Coordination Sequence:
#
# PCOD9179071 Si02
#       6
#     8   8   8   8   8   8
#     4  10  21  33  48  71  97 126 159 197 238 284
#     4  10  19  31  48  71  96 124 158 196 239 284
#     4  10  19  33  51  72  98 128 161 197 239 286
#     4   9  19  33  50  73  99 127 159 199 240 280
#     4  10  19  32  51  73  99 128 159 196 240 287
#     4   9  19  33  51  73  97 127 161 198 239 283
#
# _framework density 15.430289999999999
#
# number of rings (size 3 to 8) (size 9 to 14) (size 15 to 20)
#    0.000    2.333    1.667    1.000    2.333    2.000 
#    0.000    0.000    0.000    2.000    0.000    0.000 
#    0.000    0.000    0.000    0.000    0.000    0.000 
#
# Total GULP energy -133746.486891 kJ/mol
# GULP energy per Si atom -5572.770287 kJ/mol
# Density = 1.539517 g / cm^3
# Si number density = 15.430290 Si / 1000 Ang^3
#
#
#
# Elastic Constant Matrix: (Units=GPa)
#
#
# Indices 1 2 3 4 5 6 
#
# 1 135.5976 54.4391 52.4298 0.0001 -8.8216 0.0001
# 2 54.4391 88.9829 39.7264 0.0003 -7.3183 0.0003
# 3 52.4298 39.7264 75.6630 0.0001 -9.5391 0.0002
# 4 0.0001 0.0003 0.0001 20.0814 0.0001 1.5349
# 5 -8.8216 -7.3183 -9.5391 0.0001 21.4691 0.0001
# 6 0.0001 0.0003 0.0002 1.5349 0.0001 19.3553
#
#
#
# Elastic Compliance Matrix: (Units=1/GPa)
#
#
# Indices 1 2 3 4 5 6 
#
# 1 0.011293 -0.004436 -0.005404 0.000000 0.000727 0.000000
# 2 -0.004436 0.016479 -0.005402 0.000000 0.001394 0.000000
# 3 -0.005404 -0.005402 0.020430 0.000000 0.005015 0.000000
# 4 0.000000 0.000000 0.000000 0.050101 0.000000 -0.003973
# 5 0.000727 0.001394 0.005015 0.000000 0.049581 0.000000
# 6 0.000000 0.000000 0.000000 -0.003973 0.000000 0.051981
#
#
# Mechanical properties :
#
#
# Convention : Reuss Voigt Hill
#
# Bulk Modulus (GPa) = 56.44658 65.93711 61.19184
# Shear Modulus (GPa) = 21.16360 22.42436 21.79398
#
# Velocity S-wave (km/s) = 3.70748 3.81631 3.76229
# Velocity P-wave (km/s) = 7.41541 7.88949 7.65612
#
# Compressibility (1/GPa) = 0.01771586
#
# Stress axis : x y z
#
# Youngs Moduli (GPa) = 88.55269 60.68457 48.94754
#
# Poissons Ratio (x) = 0.26921 0.26453
# Poissons Ratio (y) = 0.39284 0.26442
# Poissons Ratio (z) = 0.47857 0.32783
#
# Static dielectric constant tensor:
#      x y z
#    x 1.491560 0.000000 0.014830 
#    y 0.000000 1.515690 0.000000 
#    z 0.014830 0.000000 1.493890 
# 
# From -- ./inp_files/316332.got.cif
#   From: 2010.05.17/outbox.cif.g08.bks.cpg/sg12_159_cif.got.tgz:316332.got - 2010.06.03 13:09:07.
