data_PCOD9179329
_publ_section_title
;
Structure prediction by ZEFSAII (Michael W. Deem and Ramdas Pophale) SiO2 
 PCOD9179329
Probable space group: C 2/M
;
_chemical_formula_sum "Si O2"
_cell_formula_units_Z 64
_cell_length_a 21.763187
_cell_length_b 8.668984
_cell_length_c 26.314469
_cell_angle_alpha 90.000000
_cell_angle_beta 44.468444
_cell_angle_gamma 90.000000
_cell_volume 3477.791729
_symmetry_space_group_name_H-M "C 2/M"
_symmetry_group_IT_number 12
_symmetry_cell_setting 'monoclinic'
loop_
_space_group_symop_operation_xyz
x,y,z
-x,y,-z
-x,-y,-z
x,-y,z
1/2+x,1/2+y,z
1/2-x,1/2+y,-z
1/2-x,1/2-y,-z
1/2+x,1/2-y,z
loop_
_atom_site_type_symbol
_atom_site_label
_atom_site_fract_x
_atom_site_fract_y
_atom_site_fract_z
Si Si1 0.737651 0.321801 0.693175
Si Si2 0.591064 0.185215 0.184592
Si Si3 0.791925 0.814754 0.076385
Si Si4 0.939014 0.827276 0.691242
Si Si5 0.972351 0.314118 0.959118
Si Si6 0.943306 0.685492 0.195105
Si Si7 0.929620 0.186650 0.584060
Si Si8 0.769869 0.326136 0.196709
O O1 0.741466 0.500000 0.677678
O O2 0.647578 0.245501 0.727192
O O3 0.832146 0.244526 0.627326
O O4 0.724531 0.292929 0.760991
O O5 0.693283 0.235602 0.118503
O O6 0.550229 0.234099 0.263143
O O7 0.526406 0.241229 0.178757
O O8 0.593767 0.000000 0.181641
O O9 0.805813 0.741713 0.123875
O O10 0.793375 0.000000 0.077133
O O11 0.877799 0.752036 0.997721
O O12 0.959522 0.760007 0.623076
O O13 0.833939 0.842589 0.750177
O O14 0.977323 0.000000 0.673247
O O15 0.965700 0.500000 0.964863
O O16 0.039882 0.272646 0.874107
O O17 0.000000 0.262326 0.000000
O O18 0.941699 0.500000 0.198385
O O19 0.000000 0.230464 0.500000
O O20 0.925210 0.000000 0.589825
O O21 0.803738 0.500000 0.188123
#
# Coordination Sequence:
#
# PCOD9179329 Si02
#       8
#     8   8   8   8   8   8   8   8
#     4  11  21  32  50  78 108 134 166 213 262 300
#     4   9  19  34  51  72  99 136 178 217 258 304
#     4  10  19  31  49  74 102 129 166 220 273 312
#     4   8  15  28  49  76 102 129 163 204 244 289
#     4  10  21  35  51  71  96 131 175 220 268 322
#     4  10  21  37  53  69  97 139 182 216 253 312
#     4   9  18  34  57  84 112 141 169 197 242 308
#     4   9  16  29  49  71  97 133 172 205 249 309
#
# _framework density 18.402483
#
# number of rings (size 3 to 8) (size 9 to 14) (size 15 to 20)
#    0.000    2.500    0.000    3.375    0.000    6.500 
#    0.000    0.000    0.000    0.750    0.000    0.000 
#    0.000    0.000    0.000    0.000    0.000    0.000 
#
# Total GULP energy -178144.556335 kJ/mol
# GULP energy per Si atom -5567.017385 kJ/mol
# Density = 1.836060 g / cm^3
# Si number density = 18.402483 Si / 1000 Ang^3
#
#
#
# Elastic Constant Matrix: (Units=GPa)
#
#
# Indices 1 2 3 4 5 6 
#
# 1 97.9153 10.7471 45.7127 0.0001 -7.8731 0.0003
# 2 10.7471 16.3394 17.0689 0.0004 -2.7132 -0.0002
# 3 45.7127 17.0689 108.3481 0.0000 -18.6219 0.0000
# 4 0.0001 0.0004 0.0000 19.0084 -0.0001 -1.7752
# 5 -7.8731 -2.7132 -18.6219 -0.0001 23.7611 0.0001
# 6 0.0003 -0.0002 0.0000 -1.7752 0.0001 18.0634
#
#
#
# Elastic Compliance Matrix: (Units=1/GPa)
#
#
# Indices 1 2 3 4 5 6 
#
# 1 0.012869 -0.003343 -0.004895 0.000000 0.000046 0.000000
# 2 -0.003343 0.074139 -0.010406 -0.000001 -0.000797 0.000001
# 3 -0.004895 -0.010406 0.014389 0.000000 0.008467 0.000000
# 4 0.000000 -0.000001 0.000000 0.053096 0.000000 0.005218
# 5 0.000046 -0.000797 0.008467 0.000000 0.048645 0.000000
# 6 0.000000 0.000001 0.000000 0.005218 0.000000 0.055873
#
#
# Mechanical properties :
#
#
# Convention : Reuss Voigt Hill
#
# Bulk Modulus (GPa) = 15.59857 41.07335 28.33596
# Shear Modulus (GPa) = 15.73962 22.10485 18.92224
#
# Velocity S-wave (km/s) = 2.92772 3.46958 3.21010
# Velocity P-wave (km/s) = 4.46357 6.19827 5.40102
#
# Compressibility (1/GPa) = 0.06410846
#
# Stress axis : x y z
#
# Youngs Moduli (GPa) = 77.70764 13.48817 69.49646
#
# Poissons Ratio (x) = 0.04510 0.34017
# Poissons Ratio (y) = 0.25980 0.72319
# Poissons Ratio (z) = 0.38036 0.14036
#
# Static dielectric constant tensor:
#      x y z
#    x 1.691680 0.000000 0.007170 
#    y 0.000000 1.632360 0.000000 
#    z 0.007170 0.000000 1.647850 
# 
# From -- ./inp_files/348508.got.cif
#   From: 2010.05.17/outbox.cif.g08.bks.cpg/sg12_175_cif.got.tgz:348508.got - 2010.06.03 13:09:07.
