data_PCOD9179250
_publ_section_title
;
Structure prediction by ZEFSAII (Michael W. Deem and Ramdas Pophale) SiO2 
 PCOD9179250
Probable space group: C 2/M
;
_chemical_formula_sum "Si O2"
_cell_formula_units_Z 64
_cell_length_a 9.099385
_cell_length_b 14.953242
_cell_length_c 25.885980
_cell_angle_alpha 90.000000
_cell_angle_beta 121.821722
_cell_angle_gamma 90.000000
_cell_volume 2992.774389
_symmetry_space_group_name_H-M "C 2/M"
_symmetry_group_IT_number 12
_symmetry_cell_setting 'monoclinic'
loop_
_space_group_symop_operation_xyz
x,y,z
-x,y,-z
-x,-y,-z
x,-y,z
1/2+x,1/2+y,z
1/2-x,1/2+y,-z
1/2-x,1/2-y,-z
1/2+x,1/2-y,z
loop_
_atom_site_type_symbol
_atom_site_label
_atom_site_fract_x
_atom_site_fract_y
_atom_site_fract_z
Si Si1 0.119177 0.652458 0.697154
Si Si2 0.642661 0.894935 0.819392
Si Si3 0.315518 0.894936 0.819392
Si Si4 0.174338 0.609662 0.061585
Si Si5 0.010417 0.890338 0.061585
Si Si6 0.775194 0.848315 0.565455
Si Si7 0.527710 0.652455 0.302847
Si Si8 0.421172 0.151686 0.565455
O O1 0.141152 0.611382 0.757467
O O2 0.303665 0.656200 0.702441
O O3 0.042345 0.750002 0.694893
O O4 0.982828 0.609611 0.631072
O O5 0.468075 0.855352 0.812049
O O6 0.815614 0.858646 0.877921
O O7 0.644626 0.000000 0.831720
O O8 0.318149 0.858645 0.877921
O O9 0.131255 0.888622 0.757467
O O10 0.350545 0.000000 0.831723
O O11 0.177229 0.500000 0.062222
O O12 0.342363 0.639830 0.061575
O O13 0.000000 0.636364 0.000000
O O14 0.009435 0.000000 0.062220
O O15 0.000000 0.863634 0.000000
O O16 0.716781 0.890773 0.500000
O O17 0.598725 0.838564 0.565816
O O18 0.847649 0.750001 0.565098
O O19 0.910389 0.890390 0.631071
#
# Coordination Sequence:
#
# PCOD9179250 Si02
#       8
#     8   8   8   8   8   8   8   8
#     4  10  19  31  49  72  98 127 159 196 239 287
#     4  10  20  33  49  70  97 128 162 200 240 281
#     4  10  20  33  49  70  97 128 162 200 240 281
#     4   9  16  27  45  69  95 122 155 195 237 279
#     4   9  16  27  45  69  95 122 155 195 237 279
#     4   8  14  25  42  65  91 118 151 192 235 278
#     4  10  19  31  49  72  98 127 159 196 239 287
#     4   8  14  25  42  65  91 118 151 192 235 278
#
# _framework density 21.384840000000001
#
# number of rings (size 3 to 8) (size 9 to 14) (size 15 to 20)
#    0.000    2.750    0.000    2.250    0.000    5.500 
#    0.000    0.000    0.000    1.500    0.000   10.500 
#    0.000    0.000    0.000    0.000    0.000    0.000 
#
# Total GULP energy -178351.359802 kJ/mol
# GULP energy per Si atom -5573.479994 kJ/mol
# Density = 2.133617 g / cm^3
# Si number density = 21.384840 Si / 1000 Ang^3
#
#
#
# Elastic Constant Matrix: (Units=GPa)
#
#
# Indices 1 2 3 4 5 6 
#
# 1 136.7082 7.8740 108.6880 0.0000 1.4316 0.0000
# 2 7.8740 37.0607 9.3148 0.0000 0.0508 0.0000
# 3 108.6880 9.3148 258.6718 0.0000 2.8725 0.0000
# 4 0.0000 0.0000 0.0000 0.1661 0.0000 -0.3845
# 5 1.4316 0.0508 2.8725 0.0000 34.3388 0.0000
# 6 0.0000 0.0000 0.0000 -0.3845 0.0000 11.0765
#
#
#
# Elastic Compliance Matrix: (Units=1/GPa)
#
#
# Indices 1 2 3 4 5 6 
#
# 1 0.011036 -0.001190 -0.004593 0.000000 -0.000074 0.000000
# 2 -0.001190 0.027358 -0.000486 0.000000 0.000050 0.000000
# 3 -0.004593 -0.000486 0.005817 0.000000 -0.000294 0.000000
# 4 0.000000 0.000000 0.000000 6.547545 0.000000 0.227289
# 5 -0.000074 0.000050 -0.000294 0.000000 0.029149 0.000000
# 6 0.000000 0.000000 0.000000 0.227289 0.000000 0.098171
#
#
# Mechanical properties :
#
#
# Convention : Reuss Voigt Hill
#
# Bulk Modulus (GPa) = 31.57364 76.02158 53.79761
# Shear Modulus (GPa) = 0.74160 29.55387 15.14774
#
# Velocity S-wave (km/s) = 0.58953 3.72156 2.66435
# Velocity P-wave (km/s) = 3.90640 7.35480 5.88868
#
# Compressibility (1/GPa) = 0.03167199
#
# Stress axis : x y z
#
# Youngs Moduli (GPa) = 90.61137 36.55292 171.91804
#
# Poissons Ratio (x) = 0.04350 0.78970
# Poissons Ratio (y) = 0.10784 0.08349
# Poissons Ratio (z) = 0.41622 0.01775
#
# Static dielectric constant tensor:
#      x y z
#    x 1.743960 0.000000 0.002620 
#    y 0.000000 1.856690 0.000000 
#    z 0.002620 0.000000 1.818310 
# 
# From -- ./inp_files/333605.got.cif
#   From: 2010.05.17/outbox.cif.g08.bks.cpg/sg12_167_cif.got.tgz:333605.got - 2010.06.03 13:09:07.
