data_PCOD9179945
_publ_section_title
;
Structure prediction by ZEFSAII (Michael W. Deem and Ramdas Pophale) SiO2 
 PCOD9179945
Probable space group: C 2/M
;
_chemical_formula_sum "Si O2"
_cell_formula_units_Z 64
_cell_length_a 33.597353
_cell_length_b 7.711624
_cell_length_c 11.653402
_cell_angle_alpha 90.000000
_cell_angle_beta 91.399327
_cell_angle_gamma 90.000000
_cell_volume 3018.381295
_symmetry_space_group_name_H-M "C 2/M"
_symmetry_group_IT_number 12
_symmetry_cell_setting 'monoclinic'
loop_
_space_group_symop_operation_xyz
x,y,z
-x,y,-z
-x,-y,-z
x,-y,z
1/2+x,1/2+y,z
1/2-x,1/2+y,-z
1/2-x,1/2-y,-z
1/2+x,1/2-y,z
loop_
_atom_site_type_symbol
_atom_site_label
_atom_site_fract_x
_atom_site_fract_y
_atom_site_fract_z
Si Si1 0.885935 0.786662 0.821382
Si Si2 0.271229 0.200741 0.183879
Si Si3 0.123264 0.201762 0.434360
Si Si4 0.921462 0.298479 0.206128
Si Si5 0.456743 0.699882 0.973231
Si Si6 0.457339 0.789422 0.448150
Si Si7 0.343769 0.701758 0.330688
Si Si8 0.806713 0.789071 0.941662
O O1 0.875897 0.723848 0.693053
O O2 0.850250 0.737877 0.903844
O O3 0.887173 0.000000 0.820027
O O4 0.928119 0.724031 0.873578
O O5 0.299358 0.284174 0.280580
O O6 0.227111 0.268113 0.151860
O O7 0.267484 0.000000 0.214292
O O8 0.294317 0.218820 0.064365
O O9 0.078207 0.216532 0.477105
O O10 0.149293 0.276142 0.541204
O O11 0.134816 0.000000 0.422896
O O12 0.930278 0.500000 0.186425
O O13 0.931929 0.203213 0.089819
O O14 0.948072 0.237079 0.316251
O O15 0.875920 0.282972 0.245868
O O16 0.464061 0.500000 0.939489
O O17 0.500000 0.780269 0.000000
O O18 0.500000 0.736969 0.500000
O O19 0.454800 0.000000 0.451209
O O20 0.355108 0.500000 0.335859
O O21 0.804891 0.000000 0.948596
#
# Coordination Sequence:
#
# PCOD9179945 Si02
#       8
#     8   8   8   8   8   8   8   8
#     4   9  18  35  54  72 102 138 172 211 258 308
#     4  10  19  31  52  81 108 133 173 218 257 307
#     4   9  19  34  53  75  96 131 178 215 250 304
#     4  10  20  34  52  74 101 132 171 215 256 306
#     4  10  21  34  51  77 106 137 171 211 261 313
#     4   9  19  34  51  72 100 132 166 210 264 309
#     4  10  19  33  53  76 102 133 169 213 264 308
#     4   9  18  33  54  78 105 142 176 210 258 308
#
# _framework density 21.203417000000002
#
# number of rings (size 3 to 8) (size 9 to 14) (size 15 to 20)
#    0.000    2.500    0.000    1.875    1.750    3.000 
#    0.000    1.875    0.000    0.000    0.000    0.000 
#    0.000    0.000    0.000    0.000    0.000    0.000 
#
# Total GULP energy -178584.402570 kJ/mol
# GULP energy per Si atom -5580.762580 kJ/mol
# Density = 2.115516 g / cm^3
# Si number density = 21.203417 Si / 1000 Ang^3
#
#
#
# Elastic Constant Matrix: (Units=GPa)
#
#
# Indices 1 2 3 4 5 6 
#
# 1 97.6283 -0.2464 28.2920 0.0000 33.9274 0.0000
# 2 -0.2464 34.6567 -3.3569 0.0000 3.4003 0.0000
# 3 28.2920 -3.3569 58.4876 0.0000 13.2693 0.0000
# 4 0.0000 0.0000 0.0000 -59.8643 0.0000 3.3084
# 5 33.9274 3.4003 13.2693 0.0000 28.4638 0.0000
# 6 0.0000 0.0000 0.0000 3.3084 0.0000 14.3906
#
#
#
# Elastic Compliance Matrix: (Units=1/GPa)
#
#
# Indices 1 2 3 4 5 6 
#
# 1 0.018544 0.001713 -0.004262 0.000000 -0.020322 0.000000
# 2 0.001713 0.029758 0.002403 0.000000 -0.006717 0.000000
# 3 -0.004262 0.002403 0.020363 0.000000 -0.004701 0.000000
# 4 0.000000 0.000000 0.000000 -0.016495 0.000000 0.003792
# 5 -0.020322 -0.006717 -0.004701 0.000000 0.062349 0.000000
# 6 0.000000 0.000000 0.000000 0.003792 0.000000 0.068618
#
#
# Mechanical properties :
#
#
# Convention : Reuss Voigt Hill
#
# Bulk Modulus (GPa) = 14.62510 26.68333 20.65422
# Shear Modulus (GPa) = 24.24581 7.67026 15.95804
#
# Velocity S-wave (km/s) = 3.38522 1.90403 2.74636
# Velocity P-wave (km/s) = 4.71085 4.17678 4.45183
#
# Compressibility (1/GPa) = 0.06837559
#
# Stress axis : x y z
#
# Youngs Moduli (GPa) = 53.92441 33.60395 49.10754
#
# Poissons Ratio (x) = -0.05756 0.20928
# Poissons Ratio (y) = -0.09237 -0.11802
# Poissons Ratio (z) = 0.22981 -0.08076
#
# Static dielectric constant tensor:
#      x y z
#    x 1.746220 0.000000 0.042760 
#    y 0.000000 1.748360 0.000000 
#    z 0.042760 0.000000 1.763820 
# 
# From -- ./inp_files/187417.got.cif
#   From: 2010.05.17/outbox.cif.g08.bks.cpg/sg12_94_cif.got.tgz:187417.got - 2010.06.03 13:09:07.
