data_PCOD9179410
_publ_section_title
;
Structure prediction by ZEFSAII (Michael W. Deem and Ramdas Pophale) SiO2 
 PCOD9179410
Probable space group: C 2/M
;
_chemical_formula_sum "Si O2"
_cell_formula_units_Z 64
_cell_length_a 30.113589
_cell_length_b 8.009894
_cell_length_c 13.595196
_cell_angle_alpha 90.000000
_cell_angle_beta 54.517471
_cell_angle_gamma 90.000000
_cell_volume 2670.270287
_symmetry_space_group_name_H-M "C 2/M"
_symmetry_group_IT_number 12
_symmetry_cell_setting 'monoclinic'
loop_
_space_group_symop_operation_xyz
x,y,z
-x,y,-z
-x,-y,-z
x,-y,z
1/2+x,1/2+y,z
1/2-x,1/2+y,-z
1/2-x,1/2-y,-z
1/2+x,1/2-y,z
loop_
_atom_site_type_symbol
_atom_site_label
_atom_site_fract_x
_atom_site_fract_y
_atom_site_fract_z
Si Si1 0.238508 0.198467 0.196980
Si Si2 0.457355 0.201143 0.639831
Si Si3 0.647925 0.691321 0.479039
Si Si4 0.039432 0.698289 0.690386
Si Si5 0.859598 0.800969 0.045153
Si Si6 0.807764 0.682771 0.391619
Si Si7 0.344494 0.698703 0.846567
Si Si8 0.412746 0.690414 0.164203
O O1 0.190129 0.219481 0.337967
O O2 0.295682 0.276147 0.155174
O O3 0.209890 0.267920 0.135103
O O4 0.247969 0.000000 0.174672
O O5 0.500000 0.250754 0.500000
O O6 0.482139 0.248509 0.715188
O O7 0.397159 0.275402 0.710352
O O8 0.452040 0.000000 0.641133
O O9 0.657957 0.500000 0.499815
O O10 0.583294 0.713966 0.561454
O O11 0.662195 0.824626 0.543289
O O12 0.043642 0.500000 0.672873
O O13 0.052877 0.737041 0.787940
O O14 0.904371 0.732188 0.065712
O O15 0.869886 0.000000 0.028870
O O16 0.859026 0.730748 0.935040
O O17 0.803404 0.500000 0.349936
O O18 0.750000 0.750000 0.500000
O O19 0.849149 0.799212 0.279550
O O20 0.336085 0.500000 0.868055
O O21 0.430816 0.500000 0.132103
#
# Coordination Sequence:
#
# PCOD9179410 Si02
#       8
#     8   8   8   8   8   8   8   8
#     4  10  21  35  55  83 114 148 186 230 278 332
#     4  10  22  40  62  89 117 145 181 225 278 339
#     4  10  19  31  49  77 109 141 179 220 269 328
#     4  10  20  35  56  83 114 147 185 231 281 331
#     4  10  22  38  57  81 111 149 191 232 274 328
#     4  11  20  30  45  69 102 140 181 225 271 320
#     4  10  22  40  59  84 114 144 186 233 278 332
#     4  10  20  35  54  77 107 146 189 230 276 327
#
# _framework density 23.967613
#
# number of rings (size 3 to 8) (size 9 to 14) (size 15 to 20)
#    0.000    1.875    0.000    5.625    0.000    6.250 
#    0.000    0.625    0.000    3.750    0.000    0.000 
#    0.000    0.000    0.000    0.000    0.000    0.000 
#
# Total GULP energy -178418.868318 kJ/mol
# GULP energy per Si atom -5575.589635 kJ/mol
# Density = 2.391306 g / cm^3
# Si number density = 23.967613 Si / 1000 Ang^3
#
#
#
# Elastic Constant Matrix: (Units=GPa)
#
#
# Indices 1 2 3 4 5 6 
#
# 1 120.2537 -0.0079 23.2635 0.0000 17.8723 0.0000
# 2 -0.0079 33.2762 2.6056 0.0000 12.2117 -0.0001
# 3 23.2635 2.6056 35.4892 0.0000 15.7888 0.0000
# 4 0.0000 0.0000 0.0000 7.2154 0.0000 8.1846
# 5 17.8723 12.2117 15.7888 0.0000 35.2184 0.0000
# 6 0.0000 -0.0001 0.0000 8.1846 0.0000 -1.7362
#
#
#
# Elastic Compliance Matrix: (Units=1/GPa)
#
#
# Indices 1 2 3 4 5 6 
#
# 1 0.009781 0.001587 -0.005090 0.000000 -0.003232 0.000000
# 2 0.001587 0.035038 0.002686 0.000000 -0.014159 0.000000
# 3 -0.005090 0.002686 0.038202 0.000000 -0.015475 0.000000
# 4 0.000000 0.000000 0.000000 0.021835 0.000000 0.102931
# 5 -0.003232 -0.014159 -0.015475 0.000000 0.041881 0.000000
# 6 0.000000 0.000000 0.000000 0.102931 0.000000 -0.090741
#
#
# Mechanical properties :
#
#
# Convention : Reuss Voigt Hill
#
# Bulk Modulus (GPa) = 12.28712 26.74905 19.51808
# Shear Modulus (GPa) = 58.99196 19.01669 39.00433
#
# Velocity S-wave (km/s) = 4.96655 2.81985 4.03845
# Velocity P-wave (km/s) = 6.16656 4.66763 5.46870
#
# Compressibility (1/GPa) = 0.08138605
#
# Stress axis : x y z
#
# Youngs Moduli (GPa) = 102.24026 28.54084 26.17697
#
# Poissons Ratio (x) = -0.04529 0.13325
# Poissons Ratio (y) = -0.16225 -0.07032
# Poissons Ratio (z) = 0.52042 -0.07667
#
# Static dielectric constant tensor:
#      x y z
#    x 2.169690 0.000000 -0.105440 
#    y 0.000000 1.844800 0.000000 
#    z -0.105440 0.000000 2.118160 
# 
# From -- ./inp_files/249786.got.cif
#   From: 2010.05.17/outbox.cif.g08.bks.cpg/sg12_125_cif.got.tgz:249786.got - 2010.06.03 13:09:07.
