data_PCOD9179645
_publ_section_title
;
Structure prediction by ZEFSAII (Michael W. Deem and Ramdas Pophale) SiO2 
 PCOD9179645
Probable space group: C 2/M
;
_chemical_formula_sum "Si O2"
_cell_formula_units_Z 64
_cell_length_a 32.648636
_cell_length_b 14.348094
_cell_length_c 8.406077
_cell_angle_alpha 90.000000
_cell_angle_beta 113.637069
_cell_angle_gamma 90.000000
_cell_volume 3607.423845
_symmetry_space_group_name_H-M "C 2/M"
_symmetry_group_IT_number 12
_symmetry_cell_setting 'monoclinic'
loop_
_space_group_symop_operation_xyz
x,y,z
-x,y,-z
-x,-y,-z
x,-y,z
1/2+x,1/2+y,z
1/2-x,1/2+y,-z
1/2-x,1/2-y,-z
1/2+x,1/2-y,z
loop_
_atom_site_type_symbol
_atom_site_label
_atom_site_fract_x
_atom_site_fract_y
_atom_site_fract_z
Si Si1 0.754053 0.789601 0.747808
Si Si2 0.026674 0.330557 0.196337
Si Si3 0.175079 0.756292 0.401003
Si Si4 0.611608 0.103031 0.153458
Si Si5 0.136298 0.108260 0.599895
Si Si6 0.549213 0.284828 0.518927
Si Si7 0.942075 0.604101 0.252792
Si Si8 0.232372 0.891546 0.902699
O O1 0.793351 0.803417 0.682064
O O2 0.708025 0.795100 0.577623
O O3 0.755634 0.683747 0.821814
O O4 0.757074 0.858169 0.902220
O O5 0.067681 0.390606 0.196319
O O6 0.044034 0.245378 0.328084
O O7 0.990927 0.386317 0.247295
O O8 0.000000 0.296985 0.000000
O O9 0.144019 0.683108 0.263085
O O10 0.147889 0.830409 0.462990
O O11 0.631687 0.000000 0.196838
O O12 0.593518 0.115957 0.945494
O O13 0.090210 0.145388 0.602324
O O14 0.179303 0.118292 0.782927
O O15 0.132396 0.000000 0.552933
O O16 0.500000 0.316464 0.500000
O O17 0.560791 0.188673 0.629262
O O18 0.937164 0.500000 0.312987
O O19 0.244522 0.000000 0.895322
#
# Coordination Sequence:
#
# PCOD9179645 Si02
#       8
#     8   8   8   8   8   8   8   8
#     4   9  20  36  58  82 108 140 178 223 271 320
#     4   9  17  32  52  75 107 142 176 212 257 323
#     4  10  20  36  56  80 109 144 178 225 274 324
#     4  10  19  31  50  79 110 141 170 212 266 325
#     4  10  21  38  57  79 106 143 190 232 272 317
#     4  10  20  34  55  81 105 147 182 227 275 315
#     4   9  19  32  50  78 110 144 179 214 258 324
#     4   9  19  37  60  82 108 142 178 218 269 331
#
# _framework density 17.741192000000002
#
# number of rings (size 3 to 8) (size 9 to 14) (size 15 to 20)
#    0.000    2.500    1.250    0.375    1.750    6.000 
#    0.000    2.500    0.000    0.375    0.000    0.000 
#    0.000    0.000    0.000    0.000    0.000    0.000 
#
# Total GULP energy -178399.866874 kJ/mol
# GULP energy per Si atom -5574.995840 kJ/mol
# Density = 1.770081 g / cm^3
# Si number density = 17.741192 Si / 1000 Ang^3
#
#
#
# Elastic Constant Matrix: (Units=GPa)
#
#
# Indices 1 2 3 4 5 6 
#
# 1 64.7405 28.6729 18.3388 0.0000 3.7372 0.0000
# 2 28.6729 65.0255 21.3164 0.0000 13.6719 0.0000
# 3 18.3388 21.3164 54.1389 0.0000 3.0128 0.0000
# 4 0.0000 0.0000 0.0000 24.2549 0.0000 5.5826
# 5 3.7372 13.6719 3.0128 0.0000 14.4729 0.0000
# 6 0.0000 0.0000 0.0000 5.5826 0.0000 10.8286
#
#
#
# Elastic Compliance Matrix: (Units=1/GPa)
#
#
# Indices 1 2 3 4 5 6 
#
# 1 0.019979 -0.008336 -0.003679 0.000000 0.003481 0.000000
# 2 -0.008336 0.025343 -0.006012 0.000000 -0.020536 0.000000
# 3 -0.003679 -0.006012 0.021970 0.000000 0.002056 0.000000
# 4 0.000000 0.000000 0.000000 0.046780 0.000000 -0.024117
# 5 0.003481 -0.020536 0.002056 0.000000 0.087168 0.000000
# 6 0.000000 0.000000 0.000000 -0.024117 0.000000 0.104782
#
#
# Mechanical properties :
#
#
# Convention : Reuss Voigt Hill
#
# Bulk Modulus (GPa) = 32.01208 35.61793 33.81501
# Shear Modulus (GPa) = 14.18488 17.61638 15.90063
#
# Velocity S-wave (km/s) = 2.83069 3.15455 2.99700
# Velocity P-wave (km/s) = 5.36347 5.77826 5.57472
#
# Compressibility (1/GPa) = 0.03123821
#
# Stress axis : x y z
#
# Youngs Moduli (GPa) = 50.05167 39.45884 45.51647
#
# Poissons Ratio (x) = 0.32891 0.16747
# Poissons Ratio (y) = 0.41721 0.27364
# Poissons Ratio (z) = 0.18416 0.23723
#
# Static dielectric constant tensor:
#      x y z
#    x 1.614640 0.000000 0.007930 
#    y 0.000000 1.584710 0.000000 
#    z 0.007930 0.000000 1.610470 
# 
# From -- ./inp_files/111677.got.cif
#   From: 2010.05.17/outbox.cif.g08.bks.cpg/sg12_56_cif.got.tgz:111677.got - 2010.06.03 13:09:07.
