data_PCOD9179291
_publ_section_title
;
Structure prediction by ZEFSAII (Michael W. Deem and Ramdas Pophale) SiO2 
 PCOD9179291
Probable space group: C 2/M
;
_chemical_formula_sum "Si O2"
_cell_formula_units_Z 56
_cell_length_a 29.102792
_cell_length_b 9.256424
_cell_length_c 16.454440
_cell_angle_alpha 90.000000
_cell_angle_beta 41.118231
_cell_angle_gamma 90.000000
_cell_volume 2914.960710
_symmetry_space_group_name_H-M "C 2/M"
_symmetry_group_IT_number 12
_symmetry_cell_setting 'monoclinic'
loop_
_space_group_symop_operation_xyz
x,y,z
-x,y,-z
-x,-y,-z
x,-y,z
1/2+x,1/2+y,z
1/2-x,1/2+y,-z
1/2-x,1/2-y,-z
1/2+x,1/2-y,z
loop_
_atom_site_type_symbol
_atom_site_label
_atom_site_fract_x
_atom_site_fract_y
_atom_site_fract_z
Si Si1 0.419328 0.170557 0.776333
Si Si2 0.040072 0.336266 0.859738
Si Si3 0.584108 0.672149 0.056750
Si Si4 0.915005 0.166292 0.618123
Si Si5 0.842884 0.832159 0.209459
Si Si6 0.586637 0.828731 0.543259
Si Si7 0.790180 0.331793 0.516892
O O1 0.391960 0.249843 0.893093
O O2 0.395153 0.245504 0.725198
O O3 0.503936 0.188780 0.665925
O O4 0.404460 0.000000 0.796430
O O5 0.046156 0.500000 0.819544
O O6 0.113529 0.265773 0.785874
O O7 0.990801 0.238551 0.869504
O O8 0.000000 0.342977 0.000000
O O9 0.579072 0.500000 0.074831
O O10 0.634405 0.702098 0.912660
O O11 0.891899 0.243613 0.566269
O O12 0.000000 0.167160 0.500000
O O13 0.892414 0.000000 0.652710
O O14 0.761331 0.819287 0.336718
O O15 0.863279 0.000000 0.196537
O O16 0.633696 0.780262 0.556602
O O17 0.599593 0.000000 0.514544
O O18 0.794688 0.500000 0.488296
O O19 0.750000 0.250000 0.500000
#
# Coordination Sequence:
#
# PCOD9179291 Si02
#       7
#     8   8   8   8   8   8   8
#     4  10  19  31  51  80 109 134 165 208 260 312
#     4   9  17  29  46  68  94 127 167 209 253 301
#     4  10  19  31  49  73 102 134 168 211 261 307
#     4   9  17  31  52  78 105 133 167 206 255 310
#     4   9  19  35  51  69  98 136 174 212 257 305
#     4   9  19  35  53  74 104 137 169 209 258 305
#     4  10  22  38  54  75 102 138 179 216 253 300
#
# _framework density 19.211236
#
# number of rings (size 3 to 8) (size 9 to 14) (size 15 to 20)
#    0.000    2.571    0.000    1.714    2.000    5.714 
#    0.000    0.000    0.000    0.857    0.000    0.000 
#    0.000    0.000    0.000    0.000    0.000    0.000 
#
# Total GULP energy -156245.262510 kJ/mol
# GULP energy per Si atom -5580.187947 kJ/mol
# Density = 1.916751 g / cm^3
# Si number density = 19.211236 Si / 1000 Ang^3
#
#
#
# Elastic Constant Matrix: (Units=GPa)
#
#
# Indices 1 2 3 4 5 6 
#
# 1 76.9283 35.9842 11.9006 0.0005 24.4941 -0.0004
# 2 35.9842 83.0375 30.6071 -0.0016 23.7834 0.0010
# 3 11.9006 30.6071 52.5796 0.0002 17.4274 0.0000
# 4 0.0005 -0.0016 0.0002 20.9440 0.0005 11.1428
# 5 24.4941 23.7834 17.4274 0.0005 33.0509 -0.0003
# 6 -0.0004 0.0010 0.0000 11.1428 -0.0003 30.3082
#
#
#
# Elastic Compliance Matrix: (Units=1/GPa)
#
#
# Indices 1 2 3 4 5 6 
#
# 1 0.018971 -0.006101 0.002984 -0.000001 -0.011243 0.000001
# 2 -0.006101 0.019085 -0.008089 0.000003 -0.004947 -0.000002
# 3 0.002984 -0.008089 0.026484 -0.000001 -0.010356 0.000001
# 4 -0.000001 0.000003 -0.000001 0.059357 -0.000002 -0.021822
# 5 -0.011243 -0.004947 -0.010356 -0.000002 0.047609 0.000001
# 6 0.000001 -0.000002 0.000001 -0.021822 0.000001 0.041017
#
#
# Mechanical properties :
#
#
# Convention : Reuss Voigt Hill
#
# Bulk Modulus (GPa) = 23.73692 41.05880 32.39786
# Shear Modulus (GPa) = 20.08213 25.79751 22.93982
#
# Velocity S-wave (km/s) = 3.23667 3.66845 3.45930
# Velocity P-wave (km/s) = 5.13328 6.27391 5.73204
#
# Compressibility (1/GPa) = 0.04212847
#
# Stress axis : x y z
#
# Youngs Moduli (GPa) = 52.71230 52.39724 37.75797
#
# Poissons Ratio (x) = 0.31966 -0.11267
# Poissons Ratio (y) = 0.32159 0.30543
# Poissons Ratio (z) = -0.15729 0.42385
#
# Static dielectric constant tensor:
#      x y z
#    x 1.653010 0.000000 0.008210 
#    y 0.000000 1.650410 0.000000 
#    z 0.008210 0.000000 1.708540 
# 
# From -- ./inp_files/291823.got.cif
#   From: 2010.05.17/outbox.cif.g08.bks.cpg/sg12_146_cif.got.tgz:291823.got - 2010.06.03 13:09:07.
