data_PCOD9179340
_publ_section_title
;
Structure prediction by ZEFSAII (Michael W. Deem and Ramdas Pophale) SiO2 
 PCOD9179340
Probable space group: C 2/M
;
_chemical_formula_sum "Si O2"
_cell_formula_units_Z 56
_cell_length_a 26.527886
_cell_length_b 8.716530
_cell_length_c 19.681346
_cell_angle_alpha 90.000000
_cell_angle_beta 131.754628
_cell_angle_gamma 90.000000
_cell_volume 3395.017238
_symmetry_space_group_name_H-M "C 2/M"
_symmetry_group_IT_number 12
_symmetry_cell_setting 'monoclinic'
loop_
_space_group_symop_operation_xyz
x,y,z
-x,y,-z
-x,-y,-z
x,-y,z
1/2+x,1/2+y,z
1/2-x,1/2+y,-z
1/2-x,1/2-y,-z
1/2+x,1/2-y,z
loop_
_atom_site_type_symbol
_atom_site_label
_atom_site_fract_x
_atom_site_fract_y
_atom_site_fract_z
Si Si1 0.993960 0.185255 0.787949
Si Si2 0.644428 0.684965 0.890167
Si Si3 0.950102 0.316108 0.893613
Si Si4 0.301554 0.316144 0.789331
Si Si5 0.353741 0.315367 0.600011
Si Si6 0.755621 0.817094 0.394520
Si Si7 0.756616 0.184775 0.898702
O O1 0.066997 0.235851 0.826650
O O2 0.978137 0.252164 0.847848
O O3 0.931307 0.225775 0.682841
O O4 0.995473 0.000000 0.795196
O O5 0.645641 0.500000 0.887529
O O6 0.686807 0.750523 0.865450
O O7 0.685243 0.730842 0.995130
O O8 0.946715 0.500000 0.887126
O O9 0.875549 0.251313 0.840578
O O10 0.000000 0.272261 0.000000
O O11 0.306445 0.500000 0.793362
O O12 0.252438 0.262214 0.685069
O O13 0.275711 0.265101 0.840141
O O14 0.346775 0.500000 0.602136
O O15 0.307410 0.235928 0.615404
O O16 0.321702 0.276006 0.498277
O O17 0.753322 0.000000 0.384077
O O18 0.753388 0.000000 0.896152
#
# Coordination Sequence:
#
# PCOD9179340 Si02
#       7
#     8   8   8   8   8   8   8
#     4  10  19  33  53  75 100 132 168 203 248 305
#     4   9  18  33  53  75  97 126 167 210 249 294
#     4  11  23  34  46  72 106 135 164 202 250 300
#     4  11  21  34  52  73 100 135 172 206 249 303
#     4   9  18  32  50  73 101 134 167 204 250 304
#     4  10  19  31  49  74 103 131 167 209 251 299
#     4   9  19  34  51  72  98 130 168 208 249 296
#
# _framework density 16.494761
#
# number of rings (size 3 to 8) (size 9 to 14) (size 15 to 20)
#    0.000    2.143    1.429    2.143    0.000    4.571 
#    0.000    2.857    0.000    0.857    0.000    6.000 
#    0.000    0.000    0.000    0.000    0.000    0.000 
#
# Total GULP energy -156234.640445 kJ/mol
# GULP energy per Si atom -5579.808587 kJ/mol
# Density = 1.645722 g / cm^3
# Si number density = 16.494761 Si / 1000 Ang^3
#
#
#
# Elastic Constant Matrix: (Units=GPa)
#
#
# Indices 1 2 3 4 5 6 
#
# 1 116.5733 21.0016 65.3006 0.0000 17.4117 0.0000
# 2 21.0016 14.4870 26.5073 0.0000 4.9959 0.0000
# 3 65.3006 26.5073 112.1099 0.0000 16.3932 0.0000
# 4 0.0000 0.0000 0.0000 21.8352 0.0000 -2.8199
# 5 17.4117 4.9959 16.3932 0.0000 23.4847 0.0000
# 6 0.0000 0.0000 0.0000 -2.8199 0.0000 26.1662
#
#
#
# Elastic Compliance Matrix: (Units=1/GPa)
#
#
# Indices 1 2 3 4 5 6 
#
# 1 0.013819 -0.008712 -0.005304 0.000000 -0.004690 0.000000
# 2 -0.008712 0.128039 -0.024680 0.000000 -0.003551 0.000000
# 3 -0.005304 -0.024680 0.018377 0.000000 -0.003646 0.000000
# 4 0.000000 0.000000 0.000000 0.046444 0.000000 0.005005
# 5 -0.004690 -0.003551 -0.003646 0.000000 0.049359 0.000000
# 6 0.000000 0.000000 0.000000 0.005005 0.000000 0.038757
#
#
# Mechanical properties :
#
#
# Convention : Reuss Voigt Hill
#
# Bulk Modulus (GPa) = 12.07073 52.08768 32.07920
# Shear Modulus (GPa) = 12.50622 22.98793 17.74708
#
# Velocity S-wave (km/s) = 2.75652 3.73721 3.28368
# Velocity P-wave (km/s) = 4.17911 7.09008 5.81955
#
# Compressibility (1/GPa) = 0.08284504
#
# Stress axis : x y z
#
# Youngs Moduli (GPa) = 72.36267 7.81011 54.41461
#
# Poissons Ratio (x) = 0.06804 0.28859
# Poissons Ratio (y) = 0.63042 1.34294
# Poissons Ratio (z) = 0.38378 0.19275
#
# Static dielectric constant tensor:
#      x y z
#    x 1.520890 0.000000 0.007220 
#    y 0.000000 1.556590 0.000000 
#    z 0.007220 0.000000 1.569130 
# 
# From -- ./inp_files/287373.got.cif
#   From: 2010.05.17/outbox.cif.g08.bks.cpg/sg12_144_cif.got.tgz:287373.got - 2010.06.03 13:09:07.
