data_PCOD9179797
_publ_section_title
;
Structure prediction by ZEFSAII (Michael W. Deem and Ramdas Pophale) SiO2 
 PCOD9179797
Probable space group: C 2/M
;
_chemical_formula_sum "Si O2"
_cell_formula_units_Z 64
_cell_length_a 26.840689
_cell_length_b 10.742240
_cell_length_c 22.068807
_cell_angle_alpha 90.000000
_cell_angle_beta 31.927875
_cell_angle_gamma 90.000000
_cell_volume 3365.123044
_symmetry_space_group_name_H-M "C 2/M"
_symmetry_group_IT_number 12
_symmetry_cell_setting 'monoclinic'
loop_
_space_group_symop_operation_xyz
x,y,z
-x,y,-z
-x,-y,-z
x,-y,z
1/2+x,1/2+y,z
1/2-x,1/2+y,-z
1/2-x,1/2-y,-z
1/2+x,1/2-y,z
loop_
_atom_site_type_symbol
_atom_site_label
_atom_site_fract_x
_atom_site_fract_y
_atom_site_fract_z
Si Si1 0.547914 0.633529 0.188237
Si Si2 0.430043 0.151079 0.020067
Si Si3 0.600607 0.350354 0.494478
Si Si4 0.749070 0.863543 0.047570
Si Si5 0.898229 0.213627 0.734924
Si Si6 0.252908 0.357372 0.547578
Si Si7 0.038986 0.642521 0.784601
Si Si8 0.720481 0.356441 0.256541
O O1 0.498984 0.500000 0.230858
O O2 0.585282 0.641369 0.218687
O O3 0.486187 0.754162 0.239039
O O4 0.640442 0.634620 0.049475
O O5 0.323993 0.198894 0.138596
O O6 0.426571 0.000000 0.027603
O O7 0.500000 0.196421 0.000000
O O8 0.476525 0.174647 0.907269
O O9 0.577759 0.500000 0.511685
O O10 0.503949 0.274667 0.601076
O O11 0.665792 0.338243 0.486665
O O12 0.658950 0.305925 0.375626
O O13 0.667415 0.831021 0.179336
O O14 0.729188 0.000000 0.041176
O O15 0.750000 0.750000 0.000000
O O16 0.837918 0.147395 0.745253
O O17 0.262316 0.500000 0.513778
O O18 0.250000 0.250000 0.500000
O O19 0.149646 0.352890 0.685339
O O20 0.017515 0.500000 0.787548
O O21 0.735773 0.500000 0.258359
#
# Coordination Sequence:
#
# PCOD9179797 Si02
#       8
#     8   8   8   8   8   8   8   8
#     4  10  20  34  53  79 112 146 177 217 272 330
#     4   9  17  31  52  78 106 135 171 222 281 329
#     4  10  20  34  52  77 111 149 189 233 279 327
#     4   9  20  36  54  78 109 144 181 222 272 329
#     4  11  20  32  52  76 106 143 186 227 269 319
#     4  10  21  37  56  79 110 146 183 226 277 332
#     4  10  20  34  55  83 110 139 179 225 273 327
#     4  10  19  31  51  79 109 142 184 232 276 325
#
# _framework density 19.018622000000001
#
# number of rings (size 3 to 8) (size 9 to 14) (size 15 to 20)
#    0.000    2.125    0.000    3.750    0.000    8.500 
#    0.000    3.125    0.000    2.625    0.000    0.000 
#    0.000    0.000    0.000    0.000    0.000    0.000 
#
# Total GULP energy -178211.467244 kJ/mol
# GULP energy per Si atom -5569.108351 kJ/mol
# Density = 1.897533 g / cm^3
# Si number density = 19.018622 Si / 1000 Ang^3
#
#
#
# Elastic Constant Matrix: (Units=GPa)
#
#
# Indices 1 2 3 4 5 6 
#
# 1 79.3797 20.8340 39.3952 0.0002 -8.9038 0.0000
# 2 20.8340 73.0902 23.5639 0.0012 2.3921 -0.0005
# 3 39.3952 23.5639 150.9585 0.0005 -12.6889 -0.0002
# 4 0.0002 0.0012 0.0005 20.1813 -0.0004 2.4835
# 5 -8.9038 2.3921 -12.6889 -0.0004 28.3099 0.0001
# 6 0.0000 -0.0005 -0.0002 2.4835 0.0001 14.3333
#
#
#
# Elastic Compliance Matrix: (Units=1/GPa)
#
#
# Indices 1 2 3 4 5 6 
#
# 1 0.015524 -0.003521 -0.003186 0.000000 0.003752 0.000000
# 2 -0.003521 0.015352 -0.001746 -0.000001 -0.003187 0.000001
# 3 -0.003186 -0.001746 0.007956 0.000000 0.002711 0.000000
# 4 0.000000 -0.000001 0.000000 0.050631 0.000001 -0.008773
# 5 0.003752 -0.003187 0.002711 0.000001 0.037988 -0.000001
# 6 0.000000 0.000001 0.000000 -0.008773 -0.000001 0.071288
#
#
# Mechanical properties :
#
#
# Convention : Reuss Voigt Hill
#
# Bulk Modulus (GPa) = 45.60465 52.33494 48.96980
# Shear Modulus (GPa) = 22.42631 27.20724 24.81678
#
# Velocity S-wave (km/s) = 3.43764 3.78638 3.61621
# Velocity P-wave (km/s) = 6.30773 6.83323 6.57573
#
# Compressibility (1/GPa) = 0.02192759
#
# Stress axis : x y z
#
# Youngs Moduli (GPa) = 64.41711 65.13689 125.68742
#
# Poissons Ratio (x) = 0.22932 0.40048
# Poissons Ratio (y) = 0.22678 0.21939
# Poissons Ratio (z) = 0.20525 0.11370
#
# Static dielectric constant tensor:
#      x y z
#    x 1.655500 0.000000 -0.007530 
#    y 0.000000 1.662710 0.000000 
#    z -0.007530 0.000000 1.740910 
# 
# From -- ./inp_files/327785.got.cif
#   From: 2010.05.17/outbox.cif.g08.bks.cpg/sg12_164_cif.got.tgz:327785.got - 2010.06.03 13:09:07.
