data_PCOD9179821
_publ_section_title
;
Structure prediction by ZEFSAII (Michael W. Deem and Ramdas Pophale) SiO2 
 PCOD9179821
Probable space group: C 2/M
;
_chemical_formula_sum "Si O2"
_cell_formula_units_Z 64
_cell_length_a 21.045791
_cell_length_b 8.687179
_cell_length_c 25.932621
_cell_angle_alpha 90.000000
_cell_angle_beta 129.645796
_cell_angle_gamma 90.000000
_cell_volume 3650.758803
_symmetry_space_group_name_H-M "C 2/M"
_symmetry_group_IT_number 12
_symmetry_cell_setting 'monoclinic'
loop_
_space_group_symop_operation_xyz
x,y,z
-x,y,-z
-x,-y,-z
x,-y,z
1/2+x,1/2+y,z
1/2-x,1/2+y,-z
1/2-x,1/2-y,-z
1/2+x,1/2-y,z
loop_
_atom_site_type_symbol
_atom_site_label
_atom_site_fract_x
_atom_site_fract_y
_atom_site_fract_z
Si Si1 0.916587 0.185638 0.210486
Si Si2 0.076486 0.685621 0.003170
Si Si3 0.984262 0.814284 0.134757
Si Si4 0.067779 0.315010 0.349931
Si Si5 0.676721 0.315328 0.229693
Si Si6 0.727785 0.184291 0.363847
Si Si7 0.765044 0.313606 0.848797
Si Si8 0.323690 0.815315 0.502661
O O1 0.944632 0.238373 0.168116
O O2 0.824509 0.235632 0.177351
O O3 0.984210 0.242262 0.286238
O O4 0.917575 0.000000 0.210587
O O5 0.075138 0.500000 0.999532
O O6 0.161616 0.733073 0.074402
O O7 0.062689 0.751734 0.939368
O O8 0.000000 0.734006 0.000000
O O9 0.080310 0.766466 0.181914
O O10 0.982182 0.000000 0.132576
O O11 0.061647 0.500000 0.344296
O O12 0.143577 0.269480 0.351033
O O13 0.095019 0.273331 0.422348
O O14 0.679484 0.500000 0.231997
O O15 0.721285 0.250151 0.303335
O O16 0.715622 0.253085 0.197310
O O17 0.804661 0.247420 0.436815
O O18 0.730631 0.000000 0.364660
O O19 0.766311 0.500000 0.846329
O O20 0.250000 0.750000 0.500000
O O21 0.318399 0.000000 0.498116
#
# Coordination Sequence:
#
# PCOD9179821 Si02
#       8
#     8   8   8   8   8   8   8   8
#     4  10  21  37  55  77 109 145 178 221 270 321
#     4  10  20  35  56  79 104 140 179 220 269 320
#     4  10  21  35  54  81 107 137 177 221 271 319
#     4   9  18  31  50  77 109 143 178 218 263 316
#     4  11  21  34  55  81 108 140 179 224 270 318
#     4  10  19  31  51  80 110 142 180 224 269 317
#     4  10  22  39  56  77 107 142 182 221 268 327
#     4   9  17  29  46  75 111 144 179 222 270 316
#
# _framework density 17.530601999999998
#
# number of rings (size 3 to 8) (size 9 to 14) (size 15 to 20)
#    0.000    2.125    2.500    1.875    0.000    5.250 
#    0.000    0.000    0.000    0.750    0.000    5.250 
#    0.000    0.000    0.000    0.000    0.000    0.000 
#
# Total GULP energy -178529.105760 kJ/mol
# GULP energy per Si atom -5579.034555 kJ/mol
# Density = 1.749070 g / cm^3
# Si number density = 17.530602 Si / 1000 Ang^3
#
#
#
# Elastic Constant Matrix: (Units=GPa)
#
#
# Indices 1 2 3 4 5 6 
#
# 1 115.7176 25.5864 82.8746 0.0000 2.7504 0.0000
# 2 25.5864 19.2433 35.3219 0.0000 -0.8139 0.0000
# 3 82.8746 35.3219 198.5663 0.0000 -7.6339 0.0000
# 4 0.0000 0.0000 0.0000 36.1604 0.0000 -3.9418
# 5 2.7504 -0.8139 -7.6339 0.0000 23.8673 0.0000
# 6 0.0000 0.0000 0.0000 -3.9418 0.0000 19.5601
#
#
#
# Elastic Compliance Matrix: (Units=1/GPa)
#
#
# Indices 1 2 3 4 5 6 
#
# 1 0.014128 -0.011684 -0.003945 0.000000 -0.003288 0.000000
# 2 -0.011684 0.086897 -0.010545 0.000000 0.000937 0.000000
# 3 -0.003945 -0.010545 0.008669 0.000000 0.002868 0.000000
# 4 0.000000 0.000000 0.000000 0.028276 0.000000 0.005698
# 5 -0.003288 0.000937 0.002868 0.000000 0.043226 0.000000
# 6 0.000000 0.000000 0.000000 0.005698 0.000000 0.052273
#
#
# Mechanical properties :
#
#
# Convention : Reuss Voigt Hill
#
# Bulk Modulus (GPa) = 17.43788 69.01033 43.22411
# Shear Modulus (GPa) = 16.39710 28.56719 22.48215
#
# Velocity S-wave (km/s) = 3.06165 4.04116 3.58502
# Velocity P-wave (km/s) = 4.73994 7.82469 6.46888
#
# Compressibility (1/GPa) = 0.05734641
#
# Stress axis : x y z
#
# Youngs Moduli (GPa) = 70.77906 11.50789 115.35913
#
# Poissons Ratio (x) = 0.13446 0.45507
# Poissons Ratio (y) = 0.82697 1.21648
# Poissons Ratio (z) = 0.27921 0.12135
#
# Static dielectric constant tensor:
#      x y z
#    x 1.562570 0.000000 0.015670 
#    y 0.000000 1.594570 0.000000 
#    z 0.015670 0.000000 1.590850 
# 
# From -- ./inp_files/346136.got.cif
#   From: 2010.05.17/outbox.cif.g08.bks.cpg/sg12_174_cif.got.tgz:346136.got - 2010.06.03 13:09:07.
