data_PCOD9179037
_publ_section_title
;
Structure prediction by ZEFSAII (Michael W. Deem and Ramdas Pophale) SiO2 
 PCOD9179037
Probable space group: C 2/M
;
_chemical_formula_sum "Si O2"
_cell_formula_units_Z 48
_cell_length_a 18.591775
_cell_length_b 10.603548
_cell_length_c 20.256948
_cell_angle_alpha 90.000000
_cell_angle_beta 135.144922
_cell_angle_gamma 90.000000
_cell_volume 2816.630022
_symmetry_space_group_name_H-M "C 2/M"
_symmetry_group_IT_number 12
_symmetry_cell_setting 'monoclinic'
loop_
_space_group_symop_operation_xyz
x,y,z
-x,y,-z
-x,-y,-z
x,-y,z
1/2+x,1/2+y,z
1/2-x,1/2+y,-z
1/2-x,1/2-y,-z
1/2+x,1/2-y,z
loop_
_atom_site_type_symbol
_atom_site_label
_atom_site_fract_x
_atom_site_fract_y
_atom_site_fract_z
Si Si1 0.007159 0.641113 0.682220
Si Si2 0.721923 0.145800 0.219487
Si Si3 0.377015 0.637858 0.082231
Si Si4 0.458268 0.147356 0.797342
Si Si5 0.462055 0.354657 0.400990
Si Si6 0.273482 0.780558 0.126390
O O1 0.986074 0.500000 0.643201
O O2 0.993342 0.751820 0.620402
O O3 0.125969 0.648083 0.782572
O O4 0.945481 0.661856 0.710096
O O5 0.642869 0.172587 0.226392
O O6 0.839288 0.158341 0.318478
O O7 0.710583 0.233159 0.148200
O O8 0.706286 0.000000 0.189793
O O9 0.425991 0.500000 0.115224
O O10 0.455188 0.753448 0.125565
O O11 0.318533 0.663725 0.113069
O O12 0.295332 0.645414 0.970262
O O13 0.488523 0.000000 0.827678
O O14 0.500000 0.334540 0.500000
O O15 0.486318 0.500000 0.397798
#
# Coordination Sequence:
#
# PCOD9179037 Si02
#       6
#     8   8   8   8   8   8
#     4   9  17  31  50  70  95 125 155 189 233 281
#     4   9  17  32  51  69  92 124 160 194 233 283
#     4  10  19  31  48  70  97 127 163 202 238 275
#     4   9  19  33  48  68  96 129 160 192 232 280
#     4   9  18  33  54  76  94 117 154 197 235 277
#     4   9  18  30  48  70  93 125 164 202 234 269
#
# _framework density 17.041643000000001
#
# number of rings (size 3 to 8) (size 9 to 14) (size 15 to 20)
#    0.000    2.833    0.000    1.000    0.000    9.667 
#    0.000    7.500    0.000    0.000    0.000    0.000 
#    0.000    0.000    0.000    0.000    0.000    0.000 
#
# Total GULP energy -133674.647012 kJ/mol
# GULP energy per Si atom -5569.776959 kJ/mol
# Density = 1.700286 g / cm^3
# Si number density = 17.041643 Si / 1000 Ang^3
#
#
#
# Elastic Constant Matrix: (Units=GPa)
#
#
# Indices 1 2 3 4 5 6 
#
# 1 107.9588 50.8425 8.0239 0.0000 -25.5270 0.0000
# 2 50.8425 101.9391 38.1964 0.0000 -21.1358 0.0000
# 3 8.0239 38.1964 44.0752 0.0000 -19.6316 0.0000
# 4 0.0000 0.0000 0.0000 4.8482 0.0000 4.3699
# 5 -25.5270 -21.1358 -19.6316 0.0000 16.0438 0.0000
# 6 0.0000 0.0000 0.0000 4.3699 0.0000 11.9555
#
#
#
# Elastic Compliance Matrix: (Units=1/GPa)
#
#
# Indices 1 2 3 4 5 6 
#
# 1 0.039114 -0.018520 0.056665 0.000000 0.107174 0.000000
# 2 -0.018520 0.023804 -0.036077 0.000000 -0.042252 0.000000
# 3 0.056665 -0.036077 0.137646 0.000000 0.211060 0.000000
# 4 0.000000 0.000000 0.000000 0.307603 0.000000 -0.112434
# 5 0.107174 -0.042252 0.211060 0.000000 0.435448 0.000000
# 6 0.000000 0.000000 0.000000 -0.112434 0.000000 0.124740
#
#
# Mechanical properties :
#
#
# Convention : Reuss Voigt Hill
#
# Bulk Modulus (GPa) = 4.88516 49.78874 27.33695
# Shear Modulus (GPa) = 4.41519 17.03018 10.72269
#
# Velocity S-wave (km/s) = 1.61135 3.16464 2.51112
# Velocity P-wave (km/s) = 2.51689 6.52937 4.94810
#
# Compressibility (1/GPa) = 0.20470160
#
# Stress axis : x y z
#
# Youngs Moduli (GPa) = 25.56608 42.00954 7.26499
#
# Poissons Ratio (x) = 0.77800 -0.41167
# Poissons Ratio (y) = 0.47347 0.26210
# Poissons Ratio (z) = -1.44871 1.51559
#
# Static dielectric constant tensor:
#      x y z
#    x 1.570350 0.000000 -0.004380 
#    y 0.000000 1.595590 0.000000 
#    z -0.004380 0.000000 1.562340 
# 
# From -- ./inp_files/276719.got.cif
#   From: 2010.05.17/outbox.cif.g08.bks.cpg/sg12_139_cif.got.tgz:276719.got - 2010.06.03 13:09:07.
