data_PCOD9179644
_publ_section_title
;
Structure prediction by ZEFSAII (Michael W. Deem and Ramdas Pophale) SiO2 
 PCOD9179644
Probable space group: C 2/M
;
_chemical_formula_sum "Si O2"
_cell_formula_units_Z 42
_cell_length_a 18.739027
_cell_length_b 8.941211
_cell_length_c 15.887586
_cell_angle_alpha 90.000000
_cell_angle_beta 138.417670
_cell_angle_gamma 90.000000
_cell_volume 1766.730098
_symmetry_space_group_name_H-M "C 2/M"
_symmetry_group_IT_number 12
_symmetry_cell_setting 'monoclinic'
loop_
_space_group_symop_operation_xyz
x,y,z
-x,y,-z
-x,-y,-z
x,-y,z
1/2+x,1/2+y,z
1/2-x,1/2+y,-z
1/2-x,1/2-y,-z
1/2+x,1/2-y,z
loop_
_atom_site_type_symbol
_atom_site_label
_atom_site_fract_x
_atom_site_fract_y
_atom_site_fract_z
Si Si1 0.361116 0.668430 0.990579
Si Si2 0.917805 0.322496 0.812075
Si Si3 0.000000 0.500000 0.500000
Si Si4 0.354342 0.669143 0.189825
Si Si5 0.789771 0.665710 0.368362
Si Si6 0.089328 0.820710 0.379377
O O1 0.377187 0.500000 0.973993
O O2 0.463130 0.768787 0.056394
O O3 0.359409 0.665094 0.092013
O O4 0.242152 0.727063 0.867535
O O5 0.910303 0.500000 0.811620
O O6 0.814944 0.243518 0.764068
O O7 0.907938 0.266095 0.706354
O O8 0.098525 0.627730 0.580225
O O9 0.334177 0.500000 0.201642
O O10 0.473549 0.718676 0.317773
O O11 0.752977 0.500000 0.364598
O O12 0.822942 0.764964 0.477801
O O13 0.090807 0.000000 0.369105
#
# Coordination Sequence:
#
# PCOD9179644 Si02
#       6
#     8   8   2   8   8   8
#     4   9  16  26  41  66 103 142 172 198 240 305
#     4  11  20  30  49  78 108 138 167 208 261 308
#     4   8  24  40  58  68  94 144 174 218 260 302
#     4   8  15  26  40  64 103 141 169 195 238 305
#     4  10  20  37  53  71  95 131 171 214 255 308
#     4  10  19  31  50  79 109 137 166 208 260 308
#
# _framework density 23.772731
#
# number of rings (size 3 to 8) (size 9 to 14) (size 15 to 20)
#    0.571    1.905    0.000    5.143    0.000    5.333 
#    0.000    1.905    0.000    0.000    0.000    2.667 
#    0.000    4.571    0.000    0.000    0.000    0.000 
#
# Total GULP energy -117039.831237 kJ/mol
# GULP energy per Si atom -5573.325297 kJ/mol
# Density = 2.371862 g / cm^3
# Si number density = 23.772731 Si / 1000 Ang^3
#
#
#
# Elastic Constant Matrix: (Units=GPa)
#
#
# Indices 1 2 3 4 5 6 
#
# 1 101.2151 57.9952 35.2510 0.0000 28.2425 0.0000
# 2 57.9952 99.0197 71.2608 0.0000 49.7433 0.0000
# 3 35.2510 71.2608 148.2400 0.0000 60.6144 0.0000
# 4 0.0000 0.0000 0.0000 35.8042 0.0000 28.7863
# 5 28.2425 49.7433 60.6144 0.0000 48.4188 0.0000
# 6 0.0000 0.0000 0.0000 28.7863 0.0000 15.7318
#
#
#
# Elastic Compliance Matrix: (Units=1/GPa)
#
#
# Indices 1 2 3 4 5 6 
#
# 1 0.014975 -0.009277 0.001174 0.000000 -0.000674 0.000000
# 2 -0.009277 0.027115 -0.003382 0.000000 -0.018212 0.000000
# 3 0.001174 -0.003382 0.014242 0.000000 -0.015040 0.000000
# 4 0.000000 0.000000 0.000000 -0.059279 0.000000 0.108470
# 5 -0.000674 -0.018212 -0.015040 0.000000 0.058584 0.000000
# 6 0.000000 0.000000 0.000000 0.108470 0.000000 -0.134914
#
#
# Mechanical properties :
#
#
# Convention : Reuss Voigt Hill
#
# Bulk Modulus (GPa) = 29.97388 75.27655 52.62521
# Shear Modulus (GPa) = -110.65217 32.25549 -39.19834
#
# Velocity S-wave (km/s) = -6.82985 3.68751 -4.06504
# Velocity P-wave (km/s) = 7.03988 7.06145 0.38998
#
# Compressibility (1/GPa) = 0.03336238
#
# Stress axis : x y z
#
# Youngs Moduli (GPa) = 66.77925 36.87956 70.21537
#
# Poissons Ratio (x) = 0.34214 -0.08244
# Poissons Ratio (y) = 0.61952 0.23745
# Poissons Ratio (z) = -0.07841 0.12472
#
# Static dielectric constant tensor:
#      x y z
#    x 1.965570 0.000000 -0.015420 
#    y 0.000000 1.827070 0.000000 
#    z -0.015420 0.000000 1.891630 
# 
# From -- ./inp_files/348655.got.cif
#   From: 2010.05.17/outbox.cif.g08.bks.cpg/sg12_175_cif.got.tgz:348655.got - 2010.06.03 13:09:07.
