data_PCOD9179777
_publ_section_title
;
Structure prediction by ZEFSAII (Michael W. Deem and Ramdas Pophale) SiO2 
 PCOD9179777
Probable space group: C 2/M
;
_chemical_formula_sum "Si O2"
_cell_formula_units_Z 44
_cell_length_a 9.044852
_cell_length_b 19.676861
_cell_length_c 12.534379
_cell_angle_alpha 90.000000
_cell_angle_beta 89.626281
_cell_angle_gamma 90.000000
_cell_volume 2230.749819
_symmetry_space_group_name_H-M "C 2/M"
_symmetry_group_IT_number 12
_symmetry_cell_setting 'monoclinic'
loop_
_space_group_symop_operation_xyz
x,y,z
-x,y,-z
-x,-y,-z
x,-y,z
1/2+x,1/2+y,z
1/2-x,1/2+y,-z
1/2-x,1/2-y,-z
1/2+x,1/2-y,z
loop_
_atom_site_type_symbol
_atom_site_label
_atom_site_fract_x
_atom_site_fract_y
_atom_site_fract_z
Si Si1 0.419687 0.082664 0.339975
Si Si2 0.271134 0.917458 0.553309
Si Si3 0.728893 0.418177 0.149462
Si Si4 0.500000 0.762338 0.000000
Si Si5 0.418876 0.418190 0.259248
Si Si6 0.737971 0.657301 0.923654
O O1 0.582364 0.101742 0.379450
O O2 0.303337 0.104873 0.432432
O O3 0.364601 0.103724 0.224086
O O4 0.417962 0.000000 0.339194
O O5 0.128940 0.895596 0.621945
O O6 0.266625 0.000000 0.548726
O O7 0.731515 0.500000 0.137317
O O8 0.579940 0.399526 0.214540
O O9 0.728246 0.384818 0.033922
O O10 0.612822 0.715308 0.933821
O O11 0.396952 0.807504 0.924674
O O12 0.412889 0.500000 0.257709
O O13 0.300910 0.389262 0.175781
#
# Coordination Sequence:
#
# PCOD9179777 Si02
#       6
#     8   8   8   4   8   8
#     4   8  15  28  45  70 105 138 166 197 242 302
#     4   8  15  28  45  70 105 138 166 197 242 302
#     4  10  19  31  51  78 109 136 160 204 258 304
#     4  10  24  38  56  66  98 136 180 210 244 292
#     4  10  19  31  51  78 109 136 160 204 258 304
#     4  11  21  39  52  77  98 133 170 212 251 303
#
# _framework density 19.724309000000002
#
# number of rings (size 3 to 8) (size 9 to 14) (size 15 to 20)
#    0.000    2.545    1.818    1.636    2.545    2.182 
#    0.000    4.545    0.000    0.000    0.000    7.636 
#    0.000    0.000    0.000    0.000    0.000    0.000 
#
# Total GULP energy -122671.470410 kJ/mol
# GULP energy per Si atom -5575.975928 kJ/mol
# Density = 1.967942 g / cm^3
# Si number density = 19.724309 Si / 1000 Ang^3
#
#
#
# Elastic Constant Matrix: (Units=GPa)
#
#
# Indices 1 2 3 4 5 6 
#
# 1 49.6284 20.0614 17.2198 0.0000 -2.8477 0.0000
# 2 20.0614 11.6911 9.1064 0.0000 -1.1571 0.0000
# 3 17.2198 9.1064 58.1550 0.0000 -14.5081 0.0000
# 4 0.0000 0.0000 0.0000 -10.9660 0.0000 -7.8203
# 5 -2.8477 -1.1571 -14.5081 0.0000 28.5155 0.0000
# 6 0.0000 0.0000 0.0000 -7.8203 0.0000 8.8447
#
#
#
# Elastic Compliance Matrix: (Units=1/GPa)
#
#
# Indices 1 2 3 4 5 6 
#
# 1 0.066023 -0.111814 -0.001750 0.000000 0.001166 0.000000
# 2 -0.111814 0.287259 -0.013459 0.000000 -0.006358 0.000000
# 3 -0.001750 -0.013459 0.022497 0.000000 0.010725 0.000000
# 4 0.000000 0.000000 0.000000 -0.055927 0.000000 -0.049449
# 5 0.001166 -0.006358 0.010725 0.000000 0.040384 0.000000
# 6 0.000000 0.000000 0.000000 -0.049449 0.000000 0.069340
#
#
# Mechanical properties :
#
#
# Convention : Reuss Voigt Hill
#
# Bulk Modulus (GPa) = 8.21478 23.58330 15.89904
# Shear Modulus (GPa) = 6.90418 10.15128 8.52773
#
# Velocity S-wave (km/s) = 1.87295 2.27107 2.08155
# Velocity P-wave (km/s) = 2.97508 4.34274 3.72227
#
# Compressibility (1/GPa) = 0.12173180
#
# Stress axis : x y z
#
# Youngs Moduli (GPa) = 15.14630 3.48118 44.45099
#
# Poissons Ratio (x) = 0.38925 0.07778
# Poissons Ratio (y) = 1.69357 0.59827
# Poissons Ratio (z) = 0.02650 0.04685
#
# Static dielectric constant tensor:
#      x y z
#    x 1.738900 0.000000 -0.006340 
#    y 0.000000 1.676980 0.000000 
#    z -0.006340 0.000000 1.690810 
# 
# From -- ./inp_files/120830.got.cif
#   From: 2010.05.17/outbox.cif.g08.bks.cpg/sg12_61_cif.got.tgz:120830.got - 2010.06.03 13:09:07.
