data_PCOD9179661
_publ_section_title
;
Structure prediction by ZEFSAII (Michael W. Deem and Ramdas Pophale) SiO2 
 PCOD9179661
Probable space group: C 2/M
;
_chemical_formula_sum "Si O2"
_cell_formula_units_Z 64
_cell_length_a 30.034097
_cell_length_b 9.182809
_cell_length_c 23.802023
_cell_angle_alpha 90.000000
_cell_angle_beta 148.987636
_cell_angle_gamma 90.000000
_cell_volume 3382.199888
_symmetry_space_group_name_H-M "C 2/M"
_symmetry_group_IT_number 12
_symmetry_cell_setting 'monoclinic'
loop_
_space_group_symop_operation_xyz
x,y,z
-x,y,-z
-x,-y,-z
x,-y,z
1/2+x,1/2+y,z
1/2-x,1/2+y,-z
1/2-x,1/2-y,-z
1/2+x,1/2-y,z
loop_
_atom_site_type_symbol
_atom_site_label
_atom_site_fract_x
_atom_site_fract_y
_atom_site_fract_z
Si Si1 0.402320 0.326361 0.910362
Si Si2 0.340453 0.672636 0.610121
Si Si3 0.043761 0.338620 0.689543
Si Si4 0.595853 0.836334 0.619121
Si Si5 0.762671 0.325998 0.832165
Si Si6 0.119276 0.172913 0.466376
Si Si7 0.201232 0.172169 0.315959
Si Si8 0.794883 0.826768 0.101259
O O1 0.404000 0.500000 0.924799
O O2 0.351033 0.243716 0.904153
O O3 0.346641 0.303323 0.793771
O O4 0.500000 0.281394 0.000000
O O5 0.327181 0.500000 0.591432
O O6 0.250000 0.750000 0.500000
O O7 0.398031 0.709264 0.618579
O O8 0.360319 0.703985 0.696496
O O9 0.034088 0.500000 0.704099
O O10 0.088185 0.354251 0.677489
O O11 0.107249 0.233276 0.791746
O O12 0.952663 0.263213 0.579678
O O13 0.500000 0.777938 0.500000
O O14 0.682367 0.740223 0.708384
O O15 0.605503 0.000000 0.603981
O O16 0.762925 0.500000 0.825682
O O17 0.747270 0.295873 0.882408
O O18 0.213448 0.231158 0.584668
O O19 0.112840 0.000000 0.468068
O O20 0.224913 0.000000 0.344682
O O21 0.793707 0.000000 0.092947
O O22 0.750000 0.750000 0.000000
#
# Coordination Sequence:
#
# PCOD9179661 Si02
#       8
#     8   8   8   8   8   8   8   8
#     4  10  22  40  60  83 112 150 201 248 286 342
#     4   8  15  29  48  70 100 137 176 221 269 324
#     4  10  20  34  53  81 116 149 185 229 276 331
#     4   9  19  35  56  82 113 151 192 229 271 335
#     4  10  22  39  60  87 119 151 186 238 298 347
#     4  10  19  31  50  80 115 144 181 229 285 345
#     4   9  18  34  55  75 103 144 190 235 283 338
#     4  10  21  40  63  86 115 150 190 234 285 343
#
# _framework density 18.922595999999999
#
# number of rings (size 3 to 8) (size 9 to 14) (size 15 to 20)
#    0.000    2.500    0.000    1.500    1.750    3.500 
#    2.250    0.000    0.000    0.000    0.000    0.000 
#    0.000    0.000    0.000    0.000    0.000    0.000 
#
# Total GULP energy -178160.687425 kJ/mol
# GULP energy per Si atom -5567.521482 kJ/mol
# Density = 1.887953 g / cm^3
# Si number density = 18.922596 Si / 1000 Ang^3
#
#
#
# Elastic Constant Matrix: (Units=GPa)
#
#
# Indices 1 2 3 4 5 6 
#
# 1 73.7929 52.3271 28.2086 0.0000 14.9454 0.0000
# 2 52.3271 76.6261 43.8519 0.0000 9.0512 0.0000
# 3 28.2086 43.8519 77.3049 0.0000 11.8963 0.0000
# 4 0.0000 0.0000 0.0000 20.8882 0.0000 1.4980
# 5 14.9454 9.0512 11.8963 0.0000 29.7424 0.0000
# 6 0.0000 0.0000 0.0000 1.4980 0.0000 25.2455
#
#
#
# Elastic Compliance Matrix: (Units=1/GPa)
#
#
# Indices 1 2 3 4 5 6 
#
# 1 0.028493 -0.019590 0.002133 0.000000 -0.009209 0.000000
# 2 -0.019590 0.032864 -0.012222 0.000000 0.004731 0.000000
# 3 0.002133 -0.012222 0.019908 0.000000 -0.005315 0.000000
# 4 0.000000 0.000000 0.000000 0.048078 0.000000 -0.002853
# 5 -0.009209 0.004731 -0.005315 0.000000 0.038936 0.000000
# 6 0.000000 0.000000 0.000000 -0.002853 0.000000 0.039780
#
#
# Mechanical properties :
#
#
# Convention : Reuss Voigt Hill
#
# Bulk Modulus (GPa) = 45.64861 52.94433 49.29647
# Shear Modulus (GPa) = 18.20033 22.06432 20.13232
#
# Velocity S-wave (km/s) = 3.10470 3.41842 3.26533
# Velocity P-wave (km/s) = 6.08510 6.60462 6.35018
#
# Compressibility (1/GPa) = 0.02190647
#
# Stress axis : x y z
#
# Youngs Moduli (GPa) = 35.09659 30.42851 50.22985
#
# Poissons Ratio (x) = 0.59610 -0.10713
# Poissons Ratio (y) = 0.68755 0.61391
# Poissons Ratio (z) = -0.07486 0.37190
#
# Static dielectric constant tensor:
#      x y z
#    x 1.722980 0.000000 -0.012870 
#    y 0.000000 1.656140 0.000000 
#    z -0.012870 0.000000 1.648860 
# 
# From -- ./inp_files/353441.got.cif
#   From: 2010.05.17/outbox.cif.g08.bks.cpg/sg12_177_cif.got.tgz:353441.got - 2010.06.03 13:09:07.
