data_PCOD9179459
_publ_section_title
;
Structure prediction by ZEFSAII (Michael W. Deem and Ramdas Pophale) SiO2 
 PCOD9179459
Probable space group: C 2/M
;
_chemical_formula_sum "Si O2"
_cell_formula_units_Z 48
_cell_length_a 21.634254
_cell_length_b 22.596077
_cell_length_c 11.755938
_cell_angle_alpha 90.000000
_cell_angle_beta 22.618936
_cell_angle_gamma 90.000000
_cell_volume 2210.253107
_symmetry_space_group_name_H-M "C 2/M"
_symmetry_group_IT_number 12
_symmetry_cell_setting 'monoclinic'
loop_
_space_group_symop_operation_xyz
x,y,z
-x,y,-z
-x,-y,-z
x,-y,z
1/2+x,1/2+y,z
1/2-x,1/2+y,-z
1/2-x,1/2-y,-z
1/2+x,1/2-y,z
loop_
_atom_site_type_symbol
_atom_site_label
_atom_site_fract_x
_atom_site_fract_y
_atom_site_fract_z
Si Si1 0.259268 0.685365 0.837552
Si Si2 0.299609 0.067940 0.455592
Si Si3 0.169218 0.685891 0.246538
Si Si4 0.174900 0.569965 0.857867
Si Si5 0.541017 0.226962 0.802358
Si Si6 0.660117 0.332628 0.822367
O O1 0.358464 0.747056 0.655620
O O2 0.276266 0.619795 0.754493
O O3 0.090643 0.704389 0.064702
O O4 0.260348 0.683080 0.972220
O O5 0.293078 0.076166 0.331114
O O6 0.170922 0.108284 0.734343
O O7 0.271579 0.000000 0.527614
O O8 0.480950 0.081720 0.193554
O O9 0.263463 0.654111 0.185232
O O10 0.000000 0.659074 0.500000
O O11 0.201170 0.500000 0.843549
O O12 0.502094 0.296804 0.878078
O O13 0.500000 0.203249 0.000000
O O14 0.714421 0.210333 0.459633
#
# Coordination Sequence:
#
# PCOD9179459 Si02
#       6
#     8   8   8   8   8   8
#     4  10  19  31  50  73 107 139 174 219 265 322
#     4   9  17  31  52  78 109 142 175 222 272 319
#     4  10  19  33  49  71 105 146 174 212 268 318
#     4   9  16  29  51  76 104 136 176 223 267 310
#     4  11  21  33  51  80 111 138 174 224 275 321
#     4  11  21  34  54  79 111 143 181 219 270 329
#
# _framework density 21.71697
#
# number of rings (size 3 to 8) (size 9 to 14) (size 15 to 20)
#    0.000    2.000    3.333    2.500    0.000    1.333 
#    0.000    0.833    0.000    4.000    0.000    5.833 
#    0.000    0.000    0.000    0.000    0.000    0.000 
#
# Total GULP energy -133827.135142 kJ/mol
# GULP energy per Si atom -5576.130631 kJ/mol
# Density = 2.166754 g / cm^3
# Si number density = 21.716970 Si / 1000 Ang^3
#
#
#
# Elastic Constant Matrix: (Units=GPa)
#
#
# Indices 1 2 3 4 5 6 
#
# 1 109.7414 41.7258 43.8952 0.0068 6.1797 -0.0033
# 2 41.7258 124.0617 11.0210 0.0034 12.9343 -0.0009
# 3 43.8952 11.0210 39.0336 0.0202 6.2988 -0.0054
# 4 0.0068 0.0034 0.0202 24.6119 -0.0046 4.3513
# 5 6.1797 12.9343 6.2988 -0.0046 30.5494 0.0021
# 6 -0.0033 -0.0009 -0.0054 4.3513 0.0021 17.7609
#
#
#
# Elastic Compliance Matrix: (Units=1/GPa)
#
#
# Indices 1 2 3 4 5 6 
#
# 1 0.018936 -0.004813 -0.020323 0.000014 0.002398 -0.000007
# 2 -0.004813 0.009790 0.003269 -0.000004 -0.003845 0.000002
# 3 -0.020323 0.003269 0.048731 -0.000040 -0.007321 0.000022
# 4 0.000014 -0.000004 -0.000040 0.042470 0.000014 -0.010405
# 5 0.002398 -0.003845 -0.007321 0.000014 0.035386 -0.000010
# 6 -0.000007 0.000002 0.000022 -0.010405 -0.000010 0.058853
#
#
# Mechanical properties :
#
#
# Convention : Reuss Voigt Hill
#
# Bulk Modulus (GPa) = 29.65270 51.79121 40.72196
# Shear Modulus (GPa) = 18.57758 26.33074 22.45416
#
# Velocity S-wave (km/s) = 2.92796 3.48580 3.21899
# Velocity P-wave (km/s) = 5.01143 6.33255 5.71032
#
# Compressibility (1/GPa) = 0.03372375
#
# Stress axis : x y z
#
# Youngs Moduli (GPa) = 52.80855 102.14606 20.52078
#
# Poissons Ratio (x) = 0.49168 0.41704
# Poissons Ratio (y) = 0.25419 -0.06709
# Poissons Ratio (z) = 1.07321 -0.33395
#
# Static dielectric constant tensor:
#      x y z
#    x 1.842830 0.000000 -0.019130 
#    y 0.000000 1.836450 0.000000 
#    z -0.019130 0.000000 1.889320 
# 
# From -- ./inp_files/177684.got.cif
#   From: 2010.05.17/outbox.cif.g08.bks.cpg/sg12_89_cif.got.tgz:177684.got - 2010.06.03 13:09:07.
