data_PCOD9179325
_publ_section_title
;
Structure prediction by ZEFSAII (Michael W. Deem and Ramdas Pophale) SiO2 
 PCOD9179325
Probable space group: C 2/M
;
_chemical_formula_sum "Si O2"
_cell_formula_units_Z 48
_cell_length_a 28.776657
_cell_length_b 8.849646
_cell_length_c 20.378164
_cell_angle_alpha 90.000000
_cell_angle_beta 33.916589
_cell_angle_gamma 90.000000
_cell_volume 2895.703749
_symmetry_space_group_name_H-M "C 2/M"
_symmetry_group_IT_number 12
_symmetry_cell_setting 'monoclinic'
loop_
_space_group_symop_operation_xyz
x,y,z
-x,y,-z
-x,-y,-z
x,-y,z
1/2+x,1/2+y,z
1/2-x,1/2+y,-z
1/2-x,1/2-y,-z
1/2+x,1/2-y,z
loop_
_atom_site_type_symbol
_atom_site_label
_atom_site_fract_x
_atom_site_fract_y
_atom_site_fract_z
Si Si1 0.656681 0.818803 0.465473
Si Si2 0.702717 0.681802 0.150477
Si Si3 0.805878 0.181212 0.376137
Si Si4 0.549745 0.180913 0.720354
Si Si5 0.405370 0.682361 0.597332
Si Si6 0.628586 0.680370 0.095743
O O1 0.751751 0.780923 0.375090
O O2 0.596837 0.775798 0.596916
O O3 0.627521 0.743115 0.433027
O O4 0.651559 0.000000 0.465094
O O5 0.714192 0.500000 0.137979
O O6 0.653468 0.728416 0.273220
O O7 0.649081 0.717432 0.148017
O O8 0.791728 0.760462 0.037712
O O9 0.750000 0.250000 0.500000
O O10 0.896454 0.249610 0.283101
O O11 0.808638 0.000000 0.378734
O O12 0.456554 0.242164 0.826403
O O13 0.551417 0.000000 0.722845
O O14 0.500000 0.732819 0.500000
O O15 0.405723 0.500000 0.594814
O O16 0.621393 0.500000 0.098514
#
# Coordination Sequence:
#
# PCOD9179325 Si02
#       6
#     8   8   8   8   8   8
#     4   9  19  32  47  71 101 130 159 196 240 285
#     4   9  19  34  49  70 100 130 162 199 240 287
#     4   9  17  30  47  70  99 128 161 200 243 288
#     4  10  19  31  49  74 101 128 161 201 245 290
#     4  10  20  33  50  72  99 131 163 195 234 284
#     4  10  19  32  52  73  95 127 164 203 244 285
#
# _framework density 16.576281000000002
#
# number of rings (size 3 to 8) (size 9 to 14) (size 15 to 20)
#    0.000    2.500    0.000    3.500    0.000    7.000 
#    0.000    0.000    0.000    1.000    0.000    7.000 
#    0.000    0.000    0.000    0.000    0.000    0.000 
#
# Total GULP energy -133810.532931 kJ/mol
# GULP energy per Si atom -5575.438872 kJ/mol
# Density = 1.653855 g / cm^3
# Si number density = 16.576281 Si / 1000 Ang^3
#
#
#
# Elastic Constant Matrix: (Units=GPa)
#
#
# Indices 1 2 3 4 5 6 
#
# 1 151.7158 49.8837 81.9034 -0.0064 -24.8608 0.0026
# 2 49.8837 40.1276 38.8691 -0.0128 -12.4327 0.0064
# 3 81.9034 38.8691 96.8185 -0.0139 -17.2931 0.0050
# 4 -0.0064 -0.0128 -0.0139 21.0867 0.0049 -1.5433
# 5 -24.8608 -12.4327 -17.2931 0.0049 33.4103 -0.0003
# 6 0.0026 0.0064 0.0050 -1.5433 -0.0003 29.9380
#
#
#
# Elastic Compliance Matrix: (Units=1/GPa)
#
#
# Indices 1 2 3 4 5 6 
#
# 1 0.014446 -0.009302 -0.007917 -0.000007 0.003191 0.000002
# 2 -0.009302 0.048490 -0.010591 0.000018 0.005641 -0.000007
# 3 -0.007917 -0.010591 0.021510 0.000005 0.001302 0.000000
# 4 -0.000007 0.000018 0.000005 0.047603 -0.000003 0.002454
# 5 0.003191 0.005641 0.001302 -0.000003 0.035078 -0.000002
# 6 0.000002 -0.000007 0.000000 0.002454 -0.000002 0.033529
#
#
# Mechanical properties :
#
#
# Convention : Reuss Voigt Hill
#
# Bulk Modulus (GPa) = 34.68820 69.99713 52.34266
# Shear Modulus (GPa) = 18.80526 24.75403 21.77964
#
# Velocity S-wave (km/s) = 3.37184 3.86857 3.62871
# Velocity P-wave (km/s) = 6.01090 7.89135 7.01442
#
# Compressibility (1/GPa) = 0.02882825
#
# Stress axis : x y z
#
# Youngs Moduli (GPa) = 69.22248 20.62283 46.49022
#
# Poissons Ratio (x) = 0.19183 0.36804
# Poissons Ratio (y) = 0.64388 0.49236
# Poissons Ratio (z) = 0.54801 0.21841
#
# Static dielectric constant tensor:
#      x y z
#    x 1.558900 0.000000 -0.015780 
#    y 0.000000 1.554920 0.000000 
#    z -0.015780 0.000000 1.554910 
# 
# From -- ./inp_files/229974.got.cif
#   From: 2010.05.17/outbox.cif.g08.bks.cpg/sg12_115_cif.got.tgz:229974.got - 2010.06.03 13:09:07.
