data_PCOD9179549
_publ_section_title
;
Structure prediction by ZEFSAII (Michael W. Deem and Ramdas Pophale) SiO2 
 PCOD9179549
Probable space group: C 2/M
;
_chemical_formula_sum "Si O2"
_cell_formula_units_Z 64
_cell_length_a 19.660051
_cell_length_b 15.130015
_cell_length_c 12.822104
_cell_angle_alpha 90.000000
_cell_angle_beta 71.180086
_cell_angle_gamma 90.000000
_cell_volume 3610.114516
_symmetry_space_group_name_H-M "C 2/M"
_symmetry_group_IT_number 12
_symmetry_cell_setting 'monoclinic'
loop_
_space_group_symop_operation_xyz
x,y,z
-x,y,-z
-x,-y,-z
x,-y,z
1/2+x,1/2+y,z
1/2-x,1/2+y,-z
1/2-x,1/2-y,-z
1/2+x,1/2-y,z
loop_
_atom_site_type_symbol
_atom_site_label
_atom_site_fract_x
_atom_site_fract_y
_atom_site_fract_z
Si Si1 0.416219 0.234931 0.062984
Si Si2 0.013258 0.898958 0.371282
Si Si3 0.734079 0.397780 0.691903
Si Si4 0.677635 0.603272 0.952467
Si Si5 0.713612 0.105125 0.912965
Si Si6 0.178217 0.734338 0.470689
Si Si7 0.325100 0.600401 0.675080
Si Si8 0.902499 0.785301 0.306892
O O1 0.387908 0.328048 0.028028
O O2 0.358839 0.162216 0.051880
O O3 0.409597 0.240873 0.191615
O O4 0.500000 0.218588 0.000000
O O5 0.097999 0.898393 0.305744
O O6 0.000000 0.873811 0.500000
O O7 0.971501 0.837774 0.312194
O O8 0.986909 0.000000 0.375669
O O9 0.740019 0.500000 0.660818
O O10 0.721329 0.390032 0.822041
O O11 0.802824 0.343096 0.618663
O O12 0.662861 0.355126 0.675600
O O13 0.655219 0.500000 0.976015
O O14 0.731836 0.626390 0.019365
O O15 0.759416 0.121425 0.784537
O O16 0.698464 0.000000 0.925868
O O17 0.250000 0.750000 0.500000
O O18 0.166655 0.825548 0.415882
O O19 0.118313 0.720328 0.587905
O O20 0.315701 0.500000 0.639028
#
# Coordination Sequence:
#
# PCOD9179549 Si02
#       8
#     8   8   8   8   8   8   8   8
#     4  11  24  39  57  84 114 150 189 232 284 337
#     4  10  19  32  52  80 112 145 180 215 273 346
#     4   9  18  33  54  80 108 143 182 221 270 324
#     4   9  19  37  59  85 115 147 183 231 285 336
#     4  10  21  39  61  83 112 147 194 240 273 324
#     4  10  19  31  50  75 107 141 178 221 268 328
#     4  10  20  33  54  83 110 140 178 225 274 327
#     4  10  20  35  50  77 114 144 175 223 278 330
#
# _framework density 17.727969999999999
#
# number of rings (size 3 to 8) (size 9 to 14) (size 15 to 20)
#    0.000    2.125    1.250    3.000    1.750    3.000 
#    0.000    0.625    0.000    0.000    0.000    1.750 
#    0.000    0.000    0.000    0.000    0.000    0.000 
#
# Total GULP energy -178376.873643 kJ/mol
# GULP energy per Si atom -5574.277301 kJ/mol
# Density = 1.768762 g / cm^3
# Si number density = 17.727970 Si / 1000 Ang^3
#
#
#
# Elastic Constant Matrix: (Units=GPa)
#
#
# Indices 1 2 3 4 5 6 
#
# 1 85.1284 29.9864 29.0672 0.0000 -10.3388 0.0000
# 2 29.9864 44.0824 28.0710 0.0000 -11.3033 0.0000
# 3 29.0672 28.0710 48.9796 0.0000 -6.1114 0.0000
# 4 0.0000 0.0000 0.0000 16.3465 0.0000 3.9164
# 5 -10.3388 -11.3033 -6.1114 0.0000 26.4815 0.0000
# 6 0.0000 0.0000 0.0000 3.9164 0.0000 26.8892
#
#
#
# Elastic Compliance Matrix: (Units=1/GPa)
#
#
# Indices 1 2 3 4 5 6 
#
# 1 0.016353 -0.007205 -0.005316 0.000000 0.002082 0.000000
# 2 -0.007205 0.042194 -0.018544 0.000000 0.010917 0.000000
# 3 -0.005316 -0.018544 0.033929 0.000000 -0.002160 0.000000
# 4 0.000000 0.000000 0.000000 0.063387 0.000000 -0.009232
# 5 0.002082 0.010917 -0.002160 0.000000 0.042737 0.000000
# 6 0.000000 0.000000 0.000000 -0.009232 0.000000 0.038534
#
#
# Mechanical properties :
#
#
# Convention : Reuss Voigt Hill
#
# Bulk Modulus (GPa) = 32.95201 39.15996 36.05598
# Shear Modulus (GPa) = 16.16145 20.01449 18.08797
#
# Velocity S-wave (km/s) = 3.02261 3.36367 3.19769
# Velocity P-wave (km/s) = 5.55063 6.10107 5.83235
#
# Compressibility (1/GPa) = 0.03034717
#
# Stress axis : x y z
#
# Youngs Moduli (GPa) = 61.15158 23.70029 29.47298
#
# Poissons Ratio (x) = 0.17076 0.15667
# Poissons Ratio (y) = 0.44060 0.54654
# Poissons Ratio (z) = 0.32505 0.43949
#
# Static dielectric constant tensor:
#      x y z
#    x 1.578950 0.000000 -0.020360 
#    y 0.000000 1.603770 0.000000 
#    z -0.020360 0.000000 1.627000 
# 
# From -- ./inp_files/167223.got.cif
#   From: 2010.05.17/outbox.cif.g08.bks.cpg/sg12_84_cif.got.tgz:167223.got - 2010.06.03 13:09:07.
