data_PCOD9179772
_publ_section_title
;
Structure prediction by ZEFSAII (Michael W. Deem and Ramdas Pophale) SiO2 
 PCOD9179772
Probable space group: C 2/M
;
_chemical_formula_sum "Si O2"
_cell_formula_units_Z 56
_cell_length_a 19.454831
_cell_length_b 8.933126
_cell_length_c 28.537309
_cell_angle_alpha 90.000000
_cell_angle_beta 140.688821
_cell_angle_gamma 90.000000
_cell_volume 3142.044921
_symmetry_space_group_name_H-M "C 2/M"
_symmetry_group_IT_number 12
_symmetry_cell_setting 'monoclinic'
loop_
_space_group_symop_operation_xyz
x,y,z
-x,y,-z
-x,-y,-z
x,-y,z
1/2+x,1/2+y,z
1/2-x,1/2+y,-z
1/2-x,1/2-y,-z
1/2+x,1/2-y,z
loop_
_atom_site_type_symbol
_atom_site_label
_atom_site_fract_x
_atom_site_fract_y
_atom_site_fract_z
Si Si1 0.365323 0.178035 0.293237
Si Si2 0.610701 0.821194 0.584221
Si Si3 0.338026 0.176621 0.692369
Si Si4 0.088263 0.177974 0.941031
Si Si5 0.816527 0.677997 0.103638
Si Si6 0.034546 0.821890 0.741076
Si Si7 0.864531 0.677377 0.818005
O O1 0.395536 0.207344 0.363333
O O2 0.446960 0.255832 0.300610
O O3 0.245020 0.244835 0.222098
O O4 0.363851 0.000000 0.284944
O O5 0.500000 0.778162 0.500000
O O6 0.716270 0.735803 0.621271
O O7 0.626804 0.000000 0.586563
O O8 0.424180 0.263839 0.706458
O O9 0.365467 0.200692 0.761935
O O10 0.345679 0.000000 0.687225
O O11 0.126948 0.254655 0.912981
O O12 0.974279 0.249537 0.895188
O O13 0.076140 0.000000 0.927189
O O14 0.187803 0.201567 0.029334
O O15 0.837674 0.500000 0.116605
O O16 0.868749 0.757267 0.175600
O O17 0.037461 0.000000 0.742234
O O18 0.861276 0.500000 0.825032
#
# Coordination Sequence:
#
# PCOD9179772 Si02
#       7
#     8   8   8   8   8   8   8
#     4  10  21  37  58  81 112 146 179 223 277 331
#     4   9  19  38  63  89 114 142 178 220 268 325
#     4  10  20  34  56  84 112 145 184 224 269 322
#     4  10  19  31  51  78 107 142 186 232 279 325
#     4  10  20  33  50  76 109 144 184 232 280 325
#     4  12  23  36  55  80 112 147 187 229 275 329
#     4  10  19  33  54  79 109 143 186 233 273 324
#
# _framework density 17.822787000000002
#
# number of rings (size 3 to 8) (size 9 to 14) (size 15 to 20)
#    0.000    1.857    1.429    3.429    0.000    3.714 
#    0.000    1.429    0.000    4.286    0.000    0.000 
#    0.000    0.000    0.000    0.000    0.000    0.000 
#
# Total GULP energy -156392.541390 kJ/mol
# GULP energy per Si atom -5585.447907 kJ/mol
# Density = 1.778222 g / cm^3
# Si number density = 17.822787 Si / 1000 Ang^3
#
#
#
# Elastic Constant Matrix: (Units=GPa)
#
#
# Indices 1 2 3 4 5 6 
#
# 1 80.9528 64.3826 34.9079 0.0000 7.3028 0.0000
# 2 64.3826 109.7599 56.0778 0.0000 10.1508 -0.0001
# 3 34.9079 56.0778 93.4870 0.0000 20.2264 0.0000
# 4 0.0000 0.0000 0.0000 25.1276 0.0000 4.5209
# 5 7.3028 10.1508 20.2264 0.0000 16.1752 0.0000
# 6 0.0000 -0.0001 0.0000 4.5209 0.0000 32.1889
#
#
#
# Elastic Compliance Matrix: (Units=1/GPa)
#
#
# Indices 1 2 3 4 5 6 
#
# 1 0.023224 -0.013299 -0.000317 0.000000 -0.001742 0.000000
# 2 -0.013299 0.020811 -0.008213 0.000000 0.003214 0.000000
# 3 -0.000317 -0.008213 0.020008 0.000000 -0.019723 0.000000
# 4 0.000000 0.000000 0.000000 0.040829 0.000000 -0.005734
# 5 -0.001742 0.003214 -0.019723 0.000000 0.085255 0.000000
# 6 0.000000 0.000000 0.000000 -0.005734 0.000000 0.031872
#
#
# Mechanical properties :
#
#
# Convention : Reuss Voigt Hill
#
# Bulk Modulus (GPa) = 49.05644 66.10403 57.58024
# Shear Modulus (GPa) = 18.35185 23.28710 20.81948
#
# Velocity S-wave (km/s) = 3.21235 3.61860 3.42151
# Velocity P-wave (km/s) = 6.42987 7.39115 6.92721
#
# Compressibility (1/GPa) = 0.02038468
#
# Stress axis : x y z
#
# Youngs Moduli (GPa) = 43.05877 48.05241 49.97887
#
# Poissons Ratio (x) = 0.63907 0.01586
# Poissons Ratio (y) = 0.57266 0.41045
# Poissons Ratio (z) = 0.01366 0.39463
#
# Static dielectric constant tensor:
#      x y z
#    x 1.597050 0.000000 -0.000400 
#    y 0.000000 1.589110 0.000000 
#    z -0.000400 0.000000 1.602500 
# 
# From -- ./inp_files/342347.got.cif
#   From: 2010.05.17/outbox.cif.g08.bks.cpg/sg12_172_cif.got.tgz:342347.got - 2010.06.03 13:09:07.
