data_PCOD9179692
_publ_section_title
;
Structure prediction by ZEFSAII (Michael W. Deem and Ramdas Pophale) SiO2 
 PCOD9179692
Probable space group: C 2/M
;
_chemical_formula_sum "Si O2"
_cell_formula_units_Z 64
_cell_length_a 26.165954
_cell_length_b 13.628161
_cell_length_c 16.471816
_cell_angle_alpha 90.000000
_cell_angle_beta 142.514337
_cell_angle_gamma 90.000000
_cell_volume 3574.545074
_symmetry_space_group_name_H-M "C 2/M"
_symmetry_group_IT_number 12
_symmetry_cell_setting 'monoclinic'
loop_
_space_group_symop_operation_xyz
x,y,z
-x,y,-z
-x,-y,-z
x,-y,z
1/2+x,1/2+y,z
1/2-x,1/2+y,-z
1/2-x,1/2-y,-z
1/2+x,1/2-y,z
loop_
_atom_site_type_symbol
_atom_site_label
_atom_site_fract_x
_atom_site_fract_y
_atom_site_fract_z
Si Si1 0.599885 0.212027 0.638798
Si Si2 0.763725 0.386181 0.297511
Si Si3 0.214429 0.884807 0.820069
Si Si4 0.971845 0.387239 0.142529
Si Si5 0.858470 0.317292 0.696280
Si Si6 0.842806 0.383871 0.120803
Si Si7 0.649683 0.794381 0.125385
Si Si8 0.204298 0.110976 0.405659
O O1 0.500000 0.203671 0.500000
O O2 0.650984 0.161533 0.629256
O O3 0.632638 0.322911 0.693448
O O4 0.636575 0.161148 0.766405
O O5 0.756728 0.500000 0.263374
O O6 0.688778 0.314970 0.172257
O O7 0.754598 0.383076 0.383445
O O8 0.282042 0.861742 0.834657
O O9 0.198532 0.000000 0.805728
O O10 0.262536 0.852143 0.964282
O O11 0.951303 0.500000 0.093718
O O12 0.924383 0.367988 0.166702
O O13 0.070602 0.372923 0.264367
O O14 0.934481 0.311276 0.030752
O O15 0.865738 0.325867 0.801961
O O16 0.860322 0.201053 0.678600
O O17 0.769358 0.361639 0.557898
O O18 0.832140 0.500000 0.118394
O O19 0.171691 0.000000 0.372409
#
# Coordination Sequence:
#
# PCOD9179692 Si02
#       8
#     8   8   8   8   8   8   8   8
#     4  11  22  33  53  81 106 132 169 219 262 303
#     4   9  19  35  52  72 101 133 166 202 251 307
#     4   9  19  37  56  73 102 141 174 207 254 312
#     4  10  20  32  51  77 104 130 163 211 256 291
#     4  10  19  31  51  75 101 131 168 207 248 298
#     4   9  19  35  54  76 102 135 171 210 259 308
#     4   9  18  33  52  77 100 127 166 211 249 293
#     4   9  19  34  50  70 100 137 168 200 248 304
#
# _framework density 17.904377
#
# number of rings (size 3 to 8) (size 9 to 14) (size 15 to 20)
#    0.000    2.500    0.000    2.625    1.750    3.750 
#    0.000    0.625    0.000    3.750    0.000    0.000 
#    0.000    0.000    0.000    0.000    0.000    0.000 
#
# Total GULP energy -178268.153281 kJ/mol
# GULP energy per Si atom -5570.879790 kJ/mol
# Density = 1.786363 g / cm^3
# Si number density = 17.904377 Si / 1000 Ang^3
#
#
#
# Elastic Constant Matrix: (Units=GPa)
#
#
# Indices 1 2 3 4 5 6 
#
# 1 18.9242 16.1008 -0.5294 0.0000 5.5551 0.0000
# 2 16.1008 78.0141 6.0348 0.0000 -8.2097 0.0000
# 3 -0.5294 6.0348 20.7715 0.0000 2.9672 0.0000
# 4 0.0000 0.0000 0.0000 16.9569 0.0000 0.0344
# 5 5.5551 -8.2097 2.9672 0.0000 15.9347 0.0000
# 6 0.0000 0.0000 0.0000 0.0344 0.0000 20.9882
#
#
#
# Elastic Compliance Matrix: (Units=1/GPa)
#
#
# Indices 1 2 3 4 5 6 
#
# 1 0.087098 -0.023995 0.015713 0.000000 -0.045652 0.000000
# 2 -0.023995 0.020704 -0.009601 0.000000 0.020820 0.000000
# 3 0.015713 -0.009601 0.054265 0.000000 -0.020529 0.000000
# 4 0.000000 0.000000 0.000000 0.058973 0.000000 -0.000097
# 5 -0.045652 0.020820 -0.020529 0.000000 0.093220 0.000000
# 6 0.000000 0.000000 0.000000 -0.000097 0.000000 0.047646
#
#
# Mechanical properties :
#
#
# Convention : Reuss Voigt Hill
#
# Bulk Modulus (GPa) = 7.91760 17.88023 12.89892
# Shear Modulus (GPa) = 11.36948 17.18287 14.27617
#
# Velocity S-wave (km/s) = 2.52268 3.10127 2.82681
# Velocity P-wave (km/s) = 3.59402 4.77828 4.22782
#
# Compressibility (1/GPa) = 0.12630083
#
# Stress axis : x y z
#
# Youngs Moduli (GPa) = 11.48128 48.29988 18.42802
#
# Poissons Ratio (x) = 1.15896 -0.28955
# Poissons Ratio (y) = 0.27550 0.17692
# Poissons Ratio (z) = -0.18040 0.46372
#
# Static dielectric constant tensor:
#      x y z
#    x 1.608100 0.000000 -0.002610 
#    y 0.000000 1.630020 0.000000 
#    z -0.002610 0.000000 1.615410 
# 
# From -- ./inp_files/240725.got.cif
#   From: 2010.05.17/outbox.cif.g08.bks.cpg/sg12_121_cif.got.tgz:240725.got - 2010.06.03 13:09:07.
