data_PCOD9179513
_publ_section_title
;
Structure prediction by ZEFSAII (Michael W. Deem and Ramdas Pophale) SiO2 
 PCOD9179513
Probable space group: C 2/M
;
_chemical_formula_sum "Si O2"
_cell_formula_units_Z 64
_cell_length_a 18.328937
_cell_length_b 9.291992
_cell_length_c 29.062664
_cell_angle_alpha 90.000000
_cell_angle_beta 38.525209
_cell_angle_gamma 90.000000
_cell_volume 3082.983546
_symmetry_space_group_name_H-M "C 2/M"
_symmetry_group_IT_number 12
_symmetry_cell_setting 'monoclinic'
loop_
_space_group_symop_operation_xyz
x,y,z
-x,y,-z
-x,-y,-z
x,-y,z
1/2+x,1/2+y,z
1/2-x,1/2+y,-z
1/2-x,1/2-y,-z
1/2+x,1/2-y,z
loop_
_atom_site_type_symbol
_atom_site_label
_atom_site_fract_x
_atom_site_fract_y
_atom_site_fract_z
Si Si1 0.353404 0.337215 0.608020
Si Si2 0.944541 0.326729 0.318097
Si Si3 0.859107 0.667128 0.080278
Si Si4 0.699482 0.830769 0.453184
Si Si5 0.303301 0.334169 0.017892
Si Si6 0.419928 0.162493 0.231938
Si Si7 0.919312 0.836983 0.138736
Si Si8 0.016308 0.667976 0.378746
O O1 0.393716 0.500000 0.581635
O O2 0.370640 0.241410 0.554334
O O3 0.214354 0.342647 0.685277
O O4 0.408996 0.266595 0.625158
O O5 0.923855 0.500000 0.327956
O O6 0.824310 0.246664 0.390537
O O7 0.984453 0.287420 0.246857
O O8 0.029664 0.297074 0.318579
O O9 0.823793 0.500000 0.100278
O O10 0.792378 0.748909 0.071661
O O11 0.851429 0.747587 0.133076
O O12 0.000000 0.668727 0.000000
O O13 0.618817 0.813914 0.537927
O O14 0.715460 0.000000 0.437111
O O15 0.259571 0.500000 0.041634
O O16 0.250000 0.250000 0.000000
O O17 0.443599 0.342029 0.942252
O O18 0.421089 0.262689 0.187425
O O19 0.457856 0.000000 0.200976
O O20 0.873917 0.000000 0.163353
O O21 0.045265 0.500000 0.372020
#
# Coordination Sequence:
#
# PCOD9179513 Si02
#       8
#     8   8   8   8   8   8   8   8
#     4  10  21  35  51  72  99 132 169 211 257 305
#     4   9  19  35  52  72 101 134 168 209 256 307
#     4   9  17  31  53  79 106 137 170 205 247 292
#     4  10  19  31  50  75 100 129 167 209 257 314
#     4  10  20  34  53  81 114 142 171 208 253 301
#     4   9  19  36  54  71  95 133 177 213 250 301
#     4  10  20  34  55  80 104 135 174 212 248 295
#     4  10  20  33  50  74 102 130 164 211 264 313
#
# _framework density 20.759111999999998
#
# number of rings (size 3 to 8) (size 9 to 14) (size 15 to 20)
#    0.000    2.375    0.000    3.375    0.000    8.500 
#    0.000    1.250    0.000    6.000    0.000    0.000 
#    0.000    0.000    0.000    0.000    0.000    0.000 
#
# Total GULP energy -178573.028801 kJ/mol
# GULP energy per Si atom -5580.407150 kJ/mol
# Density = 2.071186 g / cm^3
# Si number density = 20.759112 Si / 1000 Ang^3
#
#
#
# Elastic Constant Matrix: (Units=GPa)
#
#
# Indices 1 2 3 4 5 6 
#
# 1 144.5987 83.3887 23.6583 0.0000 49.4981 0.0001
# 2 83.3887 116.2949 27.4670 0.0000 41.0885 0.0003
# 3 23.6583 27.4670 34.2214 0.0000 24.2754 0.0000
# 4 0.0000 0.0000 0.0000 22.0241 0.0000 2.7880
# 5 49.4981 41.0885 24.2754 0.0000 44.4213 0.0000
# 6 0.0001 0.0003 0.0000 2.7880 0.0000 27.5534
#
#
#
# Elastic Compliance Matrix: (Units=1/GPa)
#
#
# Indices 1 2 3 4 5 6 
#
# 1 0.014337 -0.007144 0.004029 0.000000 -0.011569 0.000000
# 2 -0.007144 0.016532 -0.005111 0.000000 -0.004538 0.000000
# 3 0.004029 -0.005111 0.049595 0.000000 -0.026865 0.000000
# 4 0.000000 0.000000 0.000000 0.045994 0.000000 -0.004654
# 5 -0.011569 -0.004538 -0.026865 0.000000 0.054281 0.000000
# 6 0.000000 0.000000 0.000000 -0.004654 0.000000 0.036764
#
#
# Mechanical properties :
#
#
# Convention : Reuss Voigt Hill
#
# Bulk Modulus (GPa) = 15.62206 62.68255 39.15230
# Shear Modulus (GPa) = 19.58536 29.50647 24.54591
#
# Velocity S-wave (km/s) = 3.07491 3.77420 3.44236
# Velocity P-wave (km/s) = 4.48871 7.01809 5.89076
#
# Compressibility (1/GPa) = 0.06401204
#
# Stress axis : x y z
#
# Youngs Moduli (GPa) = 69.75124 60.48872 20.16320
#
# Poissons Ratio (x) = 0.43215 -0.08125
# Poissons Ratio (y) = 0.49832 0.10306
# Poissons Ratio (z) = -0.28105 0.30916
#
# Static dielectric constant tensor:
#      x y z
#    x 1.769730 0.000000 -0.006440 
#    y 0.000000 1.712280 0.000000 
#    z -0.006440 0.000000 1.772240 
# 
# From -- ./inp_files/378169.got.cif
#   From: 2010.05.17/outbox.cif.g08.bks.cpg/sg12_190_cif.got.tgz:378169.got - 2010.06.03 13:09:07.
