data_PCOD9179047
_publ_section_title
;
Structure prediction by ZEFSAII (Michael W. Deem and Ramdas Pophale) SiO2 
 PCOD9179047
Probable space group: C 2/M
;
_chemical_formula_sum "Si O2"
_cell_formula_units_Z 64
_cell_length_a 9.137215
_cell_length_b 29.292785
_cell_length_c 12.289434
_cell_angle_alpha 90.000000
_cell_angle_beta 80.416691
_cell_angle_gamma 90.000000
_cell_volume 3243.418120
_symmetry_space_group_name_H-M "C 2/M"
_symmetry_group_IT_number 12
_symmetry_cell_setting 'monoclinic'
loop_
_space_group_symop_operation_xyz
x,y,z
-x,y,-z
-x,-y,-z
x,-y,z
1/2+x,1/2+y,z
1/2-x,1/2+y,-z
1/2-x,1/2-y,-z
1/2+x,1/2-y,z
loop_
_atom_site_type_symbol
_atom_site_label
_atom_site_fract_x
_atom_site_fract_y
_atom_site_fract_z
Si Si1 0.252389 0.446716 0.161201
Si Si2 0.248914 0.141741 0.561677
Si Si3 0.187098 0.306357 0.673909
Si Si4 0.239603 0.445941 0.689367
Si Si5 0.014514 0.216169 0.629130
Si Si6 0.582356 0.552953 0.640486
Si Si7 0.491022 0.117256 0.700228
Si Si8 0.334637 0.945172 0.055728
O O1 0.201196 0.500000 0.172379
O O2 0.382642 0.443428 0.234049
O O3 0.123936 0.412903 0.217272
O O4 0.276096 0.435906 0.031325
O O5 0.280384 0.166959 0.444187
O O6 0.120326 0.172658 0.631888
O O7 0.183907 0.090529 0.570811
O O8 0.394372 0.140543 0.617937
O O9 0.095163 0.260604 0.664936
O O10 0.350519 0.293519 0.695303
O O11 0.083291 0.342760 0.747985
O O12 0.216115 0.500000 0.682953
O O13 0.410399 0.437039 0.640512
O O14 0.215091 0.430851 0.818495
O O15 0.112494 0.418811 0.642193
O O16 0.000000 0.223297 0.500000
O O17 0.613575 0.500000 0.605652
O O18 0.343648 0.000000 0.063395
O O19 0.500000 0.929431 0.000000
#
# Coordination Sequence:
#
# PCOD9179047 Si02
#       8
#     8   8   8   8   8   8   8   8
#     4   9  17  30  47  68  98 135 167 208 250 286
#     4  10  20  34  50  71  99 131 165 201 242 290
#     4  11  21  34  54  77  99 126 158 200 250 295
#     4  10  19  31  48  70  98 133 169 208 247 290
#     4  10  19  34  54  74  97 120 155 203 254 293
#     4   9  19  33  47  68 102 137 168 201 243 287
#     4  11  19  29  47  70  99 129 164 199 243 293
#     4   9  15  26  46  70  95 124 166 209 250 290
#
# _framework density 19.732268999999999
#
# number of rings (size 3 to 8) (size 9 to 14) (size 15 to 20)
#    0.000    2.125    1.250    4.500    0.000    1.000 
#    0.000    3.750    0.000   10.125    0.000    0.000 
#    0.000   38.000    0.000    0.000    0.000    0.125 
#
# Total GULP energy -178544.821976 kJ/mol
# GULP energy per Si atom -5579.525687 kJ/mol
# Density = 1.968736 g / cm^3
# Si number density = 19.732269 Si / 1000 Ang^3
#
#
#
# Elastic Constant Matrix: (Units=GPa)
#
#
# Indices 1 2 3 4 5 6 
#
# 1 116.8255 47.8190 7.2997 0.0000 5.3912 0.0000
# 2 47.8190 74.2817 10.6794 0.0000 -0.4752 0.0000
# 3 7.2997 10.6794 35.1989 0.0000 9.3560 0.0000
# 4 0.0000 0.0000 0.0000 9.1641 0.0000 1.2001
# 5 5.3912 -0.4752 9.3560 0.0000 22.3441 0.0000
# 6 0.0000 0.0000 0.0000 1.2001 0.0000 44.4884
#
#
#
# Elastic Compliance Matrix: (Units=1/GPa)
#
#
# Indices 1 2 3 4 5 6 
#
# 1 0.011840 -0.007757 0.000789 0.000000 -0.003352 0.000000
# 2 -0.007757 0.019269 -0.005451 0.000000 0.004564 0.000000
# 3 0.000789 -0.005451 0.033736 0.000000 -0.014433 0.000000
# 4 0.000000 0.000000 0.000000 0.109509 0.000000 -0.002954
# 5 -0.003352 0.004564 -0.014433 0.000000 0.051704 0.000000
# 6 0.000000 0.000000 0.000000 -0.002954 0.000000 0.022557
#
#
# Mechanical properties :
#
#
# Convention : Reuss Voigt Hill
#
# Bulk Modulus (GPa) = 24.99489 39.76691 32.38090
# Shear Modulus (GPa) = 17.43448 25.89985 21.66716
#
# Velocity S-wave (km/s) = 2.97568 3.62686 3.31729
# Velocity P-wave (km/s) = 4.94983 6.14295 5.57838
#
# Compressibility (1/GPa) = 0.04000818
#
# Stress axis : x y z
#
# Youngs Moduli (GPa) = 84.45728 51.89760 29.64171
#
# Poissons Ratio (x) = 0.40258 -0.02339
# Poissons Ratio (y) = 0.65514 0.16156
# Poissons Ratio (z) = -0.06664 0.28287
#
# Static dielectric constant tensor:
#      x y z
#    x 1.732360 0.000000 0.008120 
#    y 0.000000 1.699830 0.000000 
#    z 0.008120 0.000000 1.747230 
# 
# From -- ./inp_files/199822.got.cif
#   From: 2010.05.17/outbox.cif.g08.bks.cpg/sg12_100_cif.got.tgz:199822.got - 2010.06.03 13:09:07.
