data_PCOD9179665
_publ_section_title
;
Structure prediction by ZEFSAII (Michael W. Deem and Ramdas Pophale) SiO2 
 PCOD9179665
Probable space group: C 2/M
;
_chemical_formula_sum "Si O2"
_cell_formula_units_Z 64
_cell_length_a 27.063777
_cell_length_b 20.130805
_cell_length_c 15.991333
_cell_angle_alpha 90.000000
_cell_angle_beta 157.505340
_cell_angle_gamma 90.000000
_cell_volume 3333.313369
_symmetry_space_group_name_H-M "C 2/M"
_symmetry_group_IT_number 12
_symmetry_cell_setting 'monoclinic'
loop_
_space_group_symop_operation_xyz
x,y,z
-x,y,-z
-x,-y,-z
x,-y,z
1/2+x,1/2+y,z
1/2-x,1/2+y,-z
1/2-x,1/2-y,-z
1/2+x,1/2-y,z
loop_
_atom_site_type_symbol
_atom_site_label
_atom_site_fract_x
_atom_site_fract_y
_atom_site_fract_z
Si Si1 0.560255 0.780140 0.214235
Si Si2 0.073889 0.677198 0.703297
Si Si3 0.003240 0.924196 0.781672
Si Si4 0.785064 0.256058 0.801861
Si Si5 0.126883 0.075891 0.155260
Si Si6 0.774454 0.163473 0.437655
Si Si7 0.645240 0.304855 0.912902
Si Si8 0.394899 0.144025 0.557463
O O1 0.637484 0.823969 0.268107
O O2 0.644533 0.721921 0.388762
O O3 0.531928 0.829842 0.246688
O O4 0.426138 0.745999 0.980760
O O5 0.074027 0.752285 0.741690
O O6 0.000000 0.675136 0.500000
O O7 0.002032 0.627525 0.655404
O O8 0.225831 0.665117 0.926732
O O9 0.857994 0.902528 0.580556
O O10 0.056414 0.864933 0.806261
O O11 0.006103 0.000000 0.754093
O O12 0.094221 0.921869 0.005780
O O13 0.739776 0.322814 0.684023
O O14 0.683608 0.202893 0.610777
O O15 0.805950 0.240118 0.931748
O O16 0.272506 0.100954 0.395419
O O17 0.128601 0.000000 0.187521
O O18 0.000000 0.108163 0.000000
#
# Coordination Sequence:
#
# PCOD9179665 Si02
#       8
#     8   8   8   8   8   8   8   8
#     4  10  19  31  50  81 115 141 176 234 277 332
#     4  11  21  34  58  81 109 140 173 245 288 334
#     4  11  21  38  57  77 117 153 189 230 262 342
#     4  11  18  32  53  79 116 136 173 237 274 336
#     4  10  20  33  52  77 107 147 185 221 267 325
#     4  10  20  31  52  84 110 148 185 214 287 328
#     4  11  21  36  53  87 107 140 191 221 296 328
#     4  11  19  32  52  76 112 141 179 226 280 335
#
# _framework density 19.200115
#
# number of rings (size 3 to 8) (size 9 to 14) (size 15 to 20)
#    0.000    1.375    5.000    1.875    0.000    2.000 
#    0.000    0.625    0.000    4.875    0.000    0.000 
#    0.000    0.000    0.000    0.000    0.000    0.000 
#
# Total GULP energy -178140.915455 kJ/mol
# GULP energy per Si atom -5566.903608 kJ/mol
# Density = 1.915641 g / cm^3
# Si number density = 19.200115 Si / 1000 Ang^3
#
#
#
# Elastic Constant Matrix: (Units=GPa)
#
#
# Indices 1 2 3 4 5 6 
#
# 1 80.6769 20.8308 18.7297 0.0000 18.3941 0.0000
# 2 20.8308 39.2466 6.0650 0.0000 6.3935 0.0000
# 3 18.7297 6.0650 60.7465 0.0000 27.9121 0.0000
# 4 0.0000 0.0000 0.0000 11.9184 0.0000 6.7044
# 5 18.3941 6.3935 27.9121 0.0000 41.6381 0.0000
# 6 0.0000 0.0000 0.0000 6.7044 0.0000 19.3208
#
#
#
# Elastic Compliance Matrix: (Units=1/GPa)
#
#
# Indices 1 2 3 4 5 6 
#
# 1 0.015788 -0.007332 -0.002093 0.000000 -0.004445 0.000000
# 2 -0.007332 0.029590 -0.000136 0.000000 -0.001213 0.000000
# 3 -0.002093 -0.000136 0.024114 0.000000 -0.015219 0.000000
# 4 0.000000 0.000000 0.000000 0.104254 0.000000 -0.036177
# 5 -0.004445 -0.001213 -0.015219 0.000000 0.036369 0.000000
# 6 0.000000 0.000000 0.000000 -0.036177 0.000000 0.064311
#
#
# Mechanical properties :
#
#
# Convention : Reuss Voigt Hill
#
# Bulk Modulus (GPa) = 19.85343 30.21345 25.03344
# Shear Modulus (GPa) = 16.11147 23.57842 19.84494
#
# Velocity S-wave (km/s) = 2.89992 3.50814 3.21843
# Velocity P-wave (km/s) = 4.64494 5.67271 5.18435
#
# Compressibility (1/GPa) = 0.05036914
#
# Stress axis : x y z
#
# Youngs Moduli (GPa) = 63.34039 33.79495 41.47017
#
# Poissons Ratio (x) = 0.24778 0.08680
# Poissons Ratio (y) = 0.46441 0.00565
# Poissons Ratio (z) = 0.13258 0.00460
#
# Static dielectric constant tensor:
#      x y z
#    x 1.777410 0.000000 0.033230 
#    y 0.000000 1.680890 0.000000 
#    z 0.033230 0.000000 1.716270 
# 
# From -- ./inp_files/297109.got.cif
#   From: 2010.05.17/outbox.cif.g08.bks.cpg/sg12_149_cif.got.tgz:297109.got - 2010.06.03 13:09:07.
