data_PCOD9179774
_publ_section_title
;
Structure prediction by ZEFSAII (Michael W. Deem and Ramdas Pophale) SiO2 
 PCOD9179774
Probable space group: C 2/M
;
_chemical_formula_sum "Si O2"
_cell_formula_units_Z 56
_cell_length_a 31.372195
_cell_length_b 13.112980
_cell_length_c 8.965686
_cell_angle_alpha 90.000000
_cell_angle_beta 60.258359
_cell_angle_gamma 90.000000
_cell_volume 3202.471143
_symmetry_space_group_name_H-M "C 2/M"
_symmetry_group_IT_number 12
_symmetry_cell_setting 'monoclinic'
loop_
_space_group_symop_operation_xyz
x,y,z
-x,y,-z
-x,-y,-z
x,-y,z
1/2+x,1/2+y,z
1/2-x,1/2+y,-z
1/2-x,1/2-y,-z
1/2+x,1/2-y,z
loop_
_atom_site_type_symbol
_atom_site_label
_atom_site_fract_x
_atom_site_fract_y
_atom_site_fract_z
Si Si1 0.811161 0.878303 0.929850
Si Si2 0.843839 0.614484 0.434072
Si Si3 0.180802 0.614905 0.847971
Si Si4 0.105721 0.728424 0.154446
Si Si5 0.525878 0.880767 0.115897
Si Si6 0.934928 0.384215 0.495154
Si Si7 0.232607 0.740979 0.255928
O O1 0.864314 0.834801 0.893068
O O2 0.797759 0.810409 0.808061
O O3 0.811954 0.000000 0.906195
O O4 0.766238 0.845167 0.116934
O O5 0.824369 0.500000 0.492458
O O6 0.851602 0.624237 0.244519
O O7 0.893401 0.623471 0.440753
O O8 0.804602 0.692476 0.564578
O O9 0.196875 0.500000 0.839927
O O10 0.227429 0.685057 0.742338
O O11 0.150595 0.650422 0.043866
O O12 0.078722 0.696550 0.353781
O O13 0.066928 0.701579 0.091410
O O14 0.485694 0.873515 0.318466
O O15 0.544038 0.000000 0.083444
O O16 0.500000 0.863998 0.000000
O O17 0.933294 0.500000 0.561986
#
# Coordination Sequence:
#
# PCOD9179774 Si02
#       7
#     8   8   8   8   8   8   8
#     4  10  21  35  53  78 105 136 181 228 264 305
#     4  10  19  32  49  76 109 139 170 210 258 312
#     4  10  20  31  49  76 108 141 174 209 254 313
#     4  11  20  34  53  77 105 140 172 212 265 315
#     4  10  20  34  54  82 111 137 168 211 266 322
#     4  10  19  31  51  78 108 137 170 211 257 315
#     4  10  19  34  52  75 102 143 178 217 264 306
#
# _framework density 17.486495999999999
#
# number of rings (size 3 to 8) (size 9 to 14) (size 15 to 20)
#    0.000    1.857    1.429    3.857    0.000    3.429 
#    0.000    0.000    0.000    3.000    0.000    0.000 
#    0.000    0.000    0.000    0.000    0.000    0.000 
#
# Total GULP energy -156088.509418 kJ/mol
# GULP energy per Si atom -5574.589622 kJ/mol
# Density = 1.744670 g / cm^3
# Si number density = 17.486496 Si / 1000 Ang^3
#
#
#
# Elastic Constant Matrix: (Units=GPa)
#
#
# Indices 1 2 3 4 5 6 
#
# 1 78.6068 34.1614 9.9731 0.0000 4.0464 0.0000
# 2 34.1614 89.0942 36.9420 0.0000 -4.1683 0.0000
# 3 9.9731 36.9420 56.1248 0.0000 -10.1388 0.0000
# 4 0.0000 0.0000 0.0000 16.0873 0.0000 0.5817
# 5 4.0464 -4.1683 -10.1388 0.0000 25.3669 0.0000
# 6 0.0000 0.0000 0.0000 0.5817 0.0000 22.8799
#
#
#
# Elastic Compliance Matrix: (Units=1/GPa)
#
#
# Indices 1 2 3 4 5 6 
#
# 1 0.015600 -0.006523 0.000947 0.000000 -0.003182 0.000000
# 2 -0.006523 0.018228 -0.010897 0.000000 -0.000319 0.000000
# 3 0.000947 -0.010897 0.026375 0.000000 0.008600 0.000000
# 4 0.000000 0.000000 0.000000 0.062218 0.000000 -0.001582
# 5 -0.003182 -0.000319 0.008600 0.000000 0.043314 0.000000
# 6 0.000000 0.000000 0.000000 -0.001582 0.000000 0.043747
#
#
# Mechanical properties :
#
#
# Convention : Reuss Voigt Hill
#
# Bulk Modulus (GPa) = 36.68718 42.88656 39.78687
# Shear Modulus (GPa) = 19.87956 22.38342 21.13149
#
# Velocity S-wave (km/s) = 3.37538 3.58165 3.48004
# Velocity P-wave (km/s) = 6.01804 6.45624 6.24099
#
# Compressibility (1/GPa) = 0.02725748
#
# Stress axis : x y z
#
# Youngs Moduli (GPa) = 64.10255 54.85929 37.91430
#
# Poissons Ratio (x) = 0.35784 -0.03589
# Poissons Ratio (y) = 0.41813 0.41315
# Poissons Ratio (z) = -0.06068 0.59779
#
# Static dielectric constant tensor:
#      x y z
#    x 1.652140 0.000000 0.015110 
#    y 0.000000 1.571130 0.000000 
#    z 0.015110 0.000000 1.602810 
# 
# From -- ./inp_files/103116.got.cif
#   From: 2010.05.17/outbox.cif.g08.bks.cpg/sg12_52_cif.got.tgz:103116.got - 2010.06.03 13:09:07.
