data_PCOD9179167
_publ_section_title
;
Structure prediction by ZEFSAII (Michael W. Deem and Ramdas Pophale) SiO2 
 PCOD9179167
Probable space group: C 2/M
;
_chemical_formula_sum "Si O2"
_cell_formula_units_Z 56
_cell_length_a 22.895719
_cell_length_b 9.603906
_cell_length_c 21.755355
_cell_angle_alpha 90.000000
_cell_angle_beta 130.628828
_cell_angle_gamma 90.000000
_cell_volume 3630.596349
_symmetry_space_group_name_H-M "C 2/M"
_symmetry_group_IT_number 12
_symmetry_cell_setting 'monoclinic'
loop_
_space_group_symop_operation_xyz
x,y,z
-x,y,-z
-x,-y,-z
x,-y,z
1/2+x,1/2+y,z
1/2-x,1/2+y,-z
1/2-x,1/2-y,-z
1/2+x,1/2-y,z
loop_
_atom_site_type_symbol
_atom_site_label
_atom_site_fract_x
_atom_site_fract_y
_atom_site_fract_z
Si Si1 0.003866 0.333057 0.258083
Si Si2 0.243109 0.160382 0.589414
Si Si3 0.351404 0.664830 0.124441
Si Si4 0.865975 0.339970 0.560741
Si Si5 0.414897 0.334616 0.917908
Si Si6 0.125158 0.666890 0.231298
Si Si7 0.797605 0.162794 0.948906
O O1 0.989185 0.500000 0.250209
O O2 0.054481 0.294995 0.352830
O O3 0.058538 0.307686 0.236316
O O4 0.926915 0.244980 0.198626
O O5 0.170400 0.248928 0.518076
O O6 0.304051 0.162488 0.574405
O O7 0.293598 0.209720 0.681909
O O8 0.221293 0.000000 0.584258
O O9 0.354695 0.500000 0.139544
O O10 0.275729 0.736633 0.101031
O O11 0.341750 0.682406 0.043976
O O12 0.873551 0.500000 0.546394
O O13 0.415283 0.500000 0.903937
O O14 0.392775 0.247966 0.842855
O O15 0.354405 0.310986 0.931305
O O16 0.500000 0.297278 0.000000
O O17 0.127979 0.500000 0.223552
O O18 0.773075 0.000000 0.930277
#
# Coordination Sequence:
#
# PCOD9179167 Si02
#       7
#     8   8   8   8   8   8   8
#     4   9  17  29  44  65  95 124 148 181 226 268
#     4   8  14  25  39  58  87 118 147 181 218 256
#     4  10  19  31  49  69  87 113 152 191 223 263
#     4   8  14  24  39  60  86 117 149 178 214 263
#     4  10  20  33  48  67  92 120 150 185 222 261
#     4   9  18  30  44  65  93 124 154 183 220 266
#     4   9  19  34  48  64  90 120 147 182 228 267
#
# _framework density 15.424464
#
# number of rings (size 3 to 8) (size 9 to 14) (size 15 to 20)
#    0.000    3.000    0.000    3.000    0.000    4.286 
#    0.000    2.857    0.000    0.000    0.000    1.000 
#    0.000    8.000    0.000    0.000    0.000    0.000 
#
# Total GULP energy -155954.285087 kJ/mol
# GULP energy per Si atom -5569.795896 kJ/mol
# Density = 1.538936 g / cm^3
# Si number density = 15.424464 Si / 1000 Ang^3
#
#
#
# Elastic Constant Matrix: (Units=GPa)
#
#
# Indices 1 2 3 4 5 6 
#
# 1 52.5734 46.8588 61.6212 0.0000 11.7503 0.0000
# 2 46.8588 70.6276 87.6078 0.0000 17.2447 0.0000
# 3 61.6212 87.6078 158.1986 0.0000 21.2411 0.0000
# 4 0.0000 0.0000 0.0000 34.3474 0.0000 1.8091
# 5 11.7503 17.2447 21.2411 0.0000 23.6556 0.0000
# 6 0.0000 0.0000 0.0000 1.8091 0.0000 16.3598
#
#
#
# Elastic Compliance Matrix: (Units=1/GPa)
#
#
# Indices 1 2 3 4 5 6 
#
# 1 0.047098 -0.026931 -0.003328 0.000000 -0.000774 0.000000
# 2 -0.026931 0.063785 -0.023180 0.000000 -0.012307 0.000000
# 3 -0.003328 -0.023180 0.020426 0.000000 0.000210 0.000000
# 4 0.000000 0.000000 0.000000 0.029285 0.000000 -0.003238
# 5 -0.000774 -0.012307 0.000210 0.000000 0.051441 0.000000
# 6 0.000000 0.000000 0.000000 -0.003238 0.000000 0.061483
#
#
# Mechanical properties :
#
#
# Convention : Reuss Voigt Hill
#
# Bulk Modulus (GPa) = 40.93209 74.84168 57.88689
# Shear Modulus (GPa) = 12.86868 20.56003 16.71436
#
# Velocity S-wave (km/s) = 2.89156 3.65492 3.29542
# Velocity P-wave (km/s) = 6.14353 8.15095 7.21737
#
# Compressibility (1/GPa) = 0.02443071
#
# Stress axis : x y z
#
# Youngs Moduli (GPa) = 21.23225 15.67769 48.95715
#
# Poissons Ratio (x) = 0.42222 0.16291
# Poissons Ratio (y) = 0.57181 1.13485
# Poissons Ratio (z) = 0.07065 0.36342
#
# Static dielectric constant tensor:
#      x y z
#    x 1.490590 0.000000 0.006100 
#    y 0.000000 1.511940 0.000000 
#    z 0.006100 0.000000 1.512310 
# 
# From -- ./inp_files/295065.got.cif
#   From: 2010.05.17/outbox.cif.g08.bks.cpg/sg12_148_cif.got.tgz:295065.got - 2010.06.03 13:09:07.
