data_PCOD9179815
_publ_section_title
;
Structure prediction by ZEFSAII (Michael W. Deem and Ramdas Pophale) SiO2 
 PCOD9179815
Probable space group: C 2/M
;
_chemical_formula_sum "Si O2"
_cell_formula_units_Z 56
_cell_length_a 30.824075
_cell_length_b 7.555861
_cell_length_c 20.415425
_cell_angle_alpha 90.000000
_cell_angle_beta 148.069927
_cell_angle_gamma 90.000000
_cell_volume 2514.738062
_symmetry_space_group_name_H-M "C 2/M"
_symmetry_group_IT_number 12
_symmetry_cell_setting 'monoclinic'
loop_
_space_group_symop_operation_xyz
x,y,z
-x,y,-z
-x,-y,-z
x,-y,z
1/2+x,1/2+y,z
1/2-x,1/2+y,-z
1/2-x,1/2-y,-z
1/2+x,1/2-y,z
loop_
_atom_site_type_symbol
_atom_site_label
_atom_site_fract_x
_atom_site_fract_y
_atom_site_fract_z
Si Si1 0.077321 0.715951 0.143642
Si Si2 0.601790 0.207639 0.449694
Si Si3 0.482101 0.214461 0.791747
Si Si4 0.651637 0.706825 0.949471
Si Si5 0.236413 0.297643 0.273334
Si Si6 0.066625 0.785191 0.706004
Si Si7 0.695543 0.703013 0.772929
O O1 0.081462 0.500000 0.152192
O O2 0.059816 0.775562 0.195153
O O3 0.159952 0.780560 0.214612
O O4 0.000000 0.762719 0.000000
O O5 0.566712 0.274642 0.335419
O O6 0.684006 0.298295 0.578932
O O7 0.527210 0.230759 0.405208
O O8 0.619580 0.000000 0.465839
O O9 0.576294 0.272042 0.903702
O O10 0.483008 0.000000 0.792200
O O11 0.670626 0.500000 0.966259
O O12 0.616019 0.774437 0.834614
O O13 0.732655 0.796926 0.080821
O O14 0.211152 0.500000 0.224561
O O15 0.266209 0.213064 0.243277
O O16 0.115080 0.720379 0.704398
O O17 0.068614 0.000000 0.708771
O O18 0.674306 0.500000 0.728214
#
# Coordination Sequence:
#
# PCOD9179815 Si02
#       7
#     8   8   8   8   8   8   8
#     4   9  17  32  56  82 103 128 168 212 252 301
#     4  10  21  36  53  75 104 137 173 214 258 302
#     4   9  18  34  55  76 102 138 175 210 252 304
#     4  10  19  31  51  80 109 135 167 211 260 307
#     4  10  21  36  55  77 102 135 174 215 255 301
#     4   9  19  35  54  76 103 136 174 213 254 305
#     4  10  20  34  53  76 103 138 175 212 257 306
#
# _framework density 22.268720999999999
#
# number of rings (size 3 to 8) (size 9 to 14) (size 15 to 20)
#    0.000    2.429    0.000    2.143    0.000    5.714 
#    0.000    3.571    0.000    1.714    0.000    0.000 
#    0.000    0.000    0.000    0.000    0.000    0.000 
#
# Total GULP energy -156419.722739 kJ/mol
# GULP energy per Si atom -5586.418669 kJ/mol
# Density = 2.221804 g / cm^3
# Si number density = 22.268721 Si / 1000 Ang^3
#
#
#
# Elastic Constant Matrix: (Units=GPa)
#
#
# Indices 1 2 3 4 5 6 
#
# 1 183.1418 1.3231 42.2205 0.0000 35.5178 0.0000
# 2 1.3231 58.6459 -9.8749 0.0000 -2.8972 0.0000
# 3 42.2205 -9.8749 78.6890 0.0000 27.3252 0.0000
# 4 0.0000 0.0000 0.0000 18.3549 0.0000 1.3325
# 5 35.5178 -2.8972 27.3252 0.0000 21.2630 0.0000
# 6 0.0000 0.0000 0.0000 1.3325 0.0000 8.9909
#
#
#
# Elastic Compliance Matrix: (Units=1/GPa)
#
#
# Indices 1 2 3 4 5 6 
#
# 1 0.008131 -0.000805 0.000525 0.000000 -0.014367 0.000000
# 2 -0.000805 0.017507 0.002408 0.000000 0.000635 0.000000
# 3 0.000525 0.002408 0.023331 0.000000 -0.030532 0.000000
# 4 0.000000 0.000000 0.000000 0.055074 0.000000 -0.008162
# 5 -0.014367 0.000635 -0.030532 0.000000 0.110353 0.000000
# 6 0.000000 0.000000 0.000000 -0.008162 0.000000 0.112433
#
#
# Mechanical properties :
#
#
# Convention : Reuss Voigt Hill
#
# Bulk Modulus (GPa) = 18.78751 43.09045 30.93898
# Shear Modulus (GPa) = 14.69233 28.84229 21.76731
#
# Velocity S-wave (km/s) = 2.57139 3.60278 3.12987
# Velocity P-wave (km/s) = 4.15585 6.05797 5.19471
#
# Compressibility (1/GPa) = 0.05322685
#
# Stress axis : x y z
#
# Youngs Moduli (GPa) = 122.98155 57.12152 42.86098
#
# Poissons Ratio (x) = 0.04597 -0.02251
# Poissons Ratio (y) = 0.09897 -0.10322
# Poissons Ratio (z) = -0.06460 -0.13757
#
# Static dielectric constant tensor:
#      x y z
#    x 1.842650 0.000000 -0.014450 
#    y 0.000000 1.593910 0.000000 
#    z -0.014450 0.000000 1.763960 
# 
# From -- ./inp_files/281601.got.cif
#   From: 2010.05.17/outbox.cif.g08.bks.cpg/sg12_141_cif.got.tgz:281601.got - 2010.06.03 13:09:07.
