data_PCOD9179782
_publ_section_title
;
Structure prediction by ZEFSAII (Michael W. Deem and Ramdas Pophale) SiO2 
 PCOD9179782
Probable space group: C 2/M
;
_chemical_formula_sum "Si O2"
_cell_formula_units_Z 48
_cell_length_a 18.005106
_cell_length_b 13.851017
_cell_length_c 13.187045
_cell_angle_alpha 90.000000
_cell_angle_beta 122.537595
_cell_angle_gamma 90.000000
_cell_volume 2772.505080
_symmetry_space_group_name_H-M "C 2/M"
_symmetry_group_IT_number 12
_symmetry_cell_setting 'monoclinic'
loop_
_space_group_symop_operation_xyz
x,y,z
-x,y,-z
-x,-y,-z
x,-y,z
1/2+x,1/2+y,z
1/2-x,1/2+y,-z
1/2-x,1/2-y,-z
1/2+x,1/2-y,z
loop_
_atom_site_type_symbol
_atom_site_label
_atom_site_fract_x
_atom_site_fract_y
_atom_site_fract_z
Si Si1 0.893565 0.889274 0.406175
Si Si2 0.069190 0.882784 0.783507
Si Si3 0.081896 0.611978 0.492854
Si Si4 0.223682 0.886570 0.302068
Si Si5 0.880828 0.788891 0.601256
Si Si6 0.904316 0.883037 0.971741
O O1 0.879792 0.852975 0.281483
O O2 0.856038 0.830429 0.472214
O O3 0.000000 0.889007 0.500000
O O4 0.863944 0.000000 0.392046
O O5 0.970679 0.841385 0.702589
O O6 0.063477 0.000000 0.775446
O O7 0.107484 0.852854 0.920211
O O8 0.065631 0.500000 0.455165
O O9 0.171119 0.616660 0.624193
O O10 0.097509 0.677751 0.405907
O O11 0.000000 0.648537 0.500000
O O12 0.190515 0.819428 0.369069
O O13 0.172468 0.856775 0.162875
O O14 0.199865 0.000000 0.306325
O O15 0.906892 0.000000 0.975113
O O16 0.000000 0.850916 0.000000
#
# Coordination Sequence:
#
# PCOD9179782 Si02
#       6
#     8   8   8   8   8   8
#     4   8  14  22  37  65  99 130 151 178 234 303
#     4   9  15  24  42  73 107 131 150 180 244 317
#     4  10  22  37  49  65  95 137 179 208 231 270
#     4  10  19  31  51  79 104 125 156 200 249 299
#     4  11  17  28  49  72  98 124 159 202 251 290
#     4   9  15  25  43  72 106 130 148 186 247 308
#
# _framework density 17.312861999999999
#
# number of rings (size 3 to 8) (size 9 to 14) (size 15 to 20)
#    0.000    2.500    1.667    4.500    0.000    0.000 
#    0.000    0.000    0.000    4.000    0.000    2.333 
#    0.000    0.000    0.000    2.333    0.000    0.000 
#
# Total GULP energy -133732.584108 kJ/mol
# GULP energy per Si atom -5572.191005 kJ/mol
# Density = 1.727346 g / cm^3
# Si number density = 17.312862 Si / 1000 Ang^3
#
#
#
# Elastic Constant Matrix: (Units=GPa)
#
#
# Indices 1 2 3 4 5 6 
#
# 1 66.4830 20.0426 50.6687 0.0000 -3.8073 0.0000
# 2 20.0426 50.9268 24.4932 0.0000 -7.1029 0.0000
# 3 50.6687 24.4932 123.4894 0.0000 -23.3640 0.0000
# 4 0.0000 0.0000 0.0000 8.4167 0.0000 -2.4007
# 5 -3.8073 -7.1029 -23.3640 0.0000 22.9334 0.0000
# 6 0.0000 0.0000 0.0000 -2.4007 0.0000 15.3126
#
#
#
# Elastic Compliance Matrix: (Units=1/GPa)
#
#
# Indices 1 2 3 4 5 6 
#
# 1 0.024180 -0.005690 -0.010364 0.000000 -0.008307 0.000000
# 2 -0.005690 0.023202 -0.001346 0.000000 0.004870 0.000000
# 3 -0.010364 -0.001346 0.015129 0.000000 0.013276 0.000000
# 4 0.000000 0.000000 0.000000 0.124374 0.000000 0.019499
# 5 -0.008307 0.004870 0.013276 0.000000 0.057259 0.000000
# 6 0.000000 0.000000 0.000000 0.019499 0.000000 0.068363
#
#
# Mechanical properties :
#
#
# Convention : Reuss Voigt Hill
#
# Bulk Modulus (GPa) = 36.08721 47.92314 42.00518
# Shear Modulus (GPa) = 14.02351 19.04552 16.53452
#
# Velocity S-wave (km/s) = 2.84915 3.32034 3.09373
# Velocity P-wave (km/s) = 5.63142 6.51462 6.08906
#
# Compressibility (1/GPa) = 0.02771065
#
# Stress axis : x y z
#
# Youngs Moduli (GPa) = 41.35621 43.09984 66.09763
#
# Poissons Ratio (x) = 0.24524 0.68506
# Poissons Ratio (y) = 0.23532 0.08895
# Poissons Ratio (z) = 0.42863 0.05800
#
# Static dielectric constant tensor:
#      x y z
#    x 1.608150 0.000000 -0.010310 
#    y 0.000000 1.617300 0.000000 
#    z -0.010310 0.000000 1.602850 
# 
# From -- ./inp_files/155478.got.cif
#   From: 2010.05.17/outbox.cif.g08.bks.cpg/sg12_78_cif.got.tgz:155478.got - 2010.06.03 13:09:07.
