data_PCOD9179781
_publ_section_title
;
Structure prediction by ZEFSAII (Michael W. Deem and Ramdas Pophale) SiO2 
 PCOD9179781
Probable space group: C 2/M
;
_chemical_formula_sum "Si O2"
_cell_formula_units_Z 64
_cell_length_a 25.623555
_cell_length_b 13.121412
_cell_length_c 9.650351
_cell_angle_alpha 90.000000
_cell_angle_beta 116.084975
_cell_angle_gamma 90.000000
_cell_volume 2914.127253
_symmetry_space_group_name_H-M "C 2/M"
_symmetry_group_IT_number 12
_symmetry_cell_setting 'monoclinic'
loop_
_space_group_symop_operation_xyz
x,y,z
-x,y,-z
-x,-y,-z
x,-y,z
1/2+x,1/2+y,z
1/2-x,1/2+y,-z
1/2-x,1/2-y,-z
1/2+x,1/2-y,z
loop_
_atom_site_type_symbol
_atom_site_label
_atom_site_fract_x
_atom_site_fract_y
_atom_site_fract_z
Si Si1 0.200844 0.608839 0.694743
Si Si2 0.362534 0.386569 0.268472
Si Si3 0.651395 0.386516 0.419713
Si Si4 0.376090 0.176030 0.160808
Si Si5 0.931194 0.106633 0.921033
Si Si6 0.824895 0.337166 0.646559
Si Si7 0.739242 0.180378 0.160818
Si Si8 0.932948 0.335111 0.965020
O O1 0.229337 0.500000 0.756147
O O2 0.143165 0.619070 0.722031
O O3 0.184691 0.615959 0.514445
O O4 0.239851 0.704952 0.782883
O O5 0.384252 0.500000 0.262727
O O6 0.362313 0.371510 0.435032
O O7 0.392134 0.290294 0.230554
O O8 0.293576 0.376948 0.157144
O O9 0.678404 0.500000 0.432658
O O10 0.592178 0.390066 0.262483
O O11 0.680507 0.285475 0.389478
O O12 0.316619 0.179330 0.000870
O O13 0.420283 0.124486 0.104484
O O14 0.916290 0.215182 0.966202
O O15 0.908355 0.000000 0.956569
O O16 0.000000 0.103217 0.000000
O O17 0.778502 0.365348 0.710702
O O18 0.887043 0.364833 0.790992
O O19 0.000000 0.347012 0.000000
#
# Coordination Sequence:
#
# PCOD9179781 Si02
#       8
#     8   8   8   8   8   8   8   8
#     4  11  22  36  56  81 113 148 182 222 273 325
#     4  10  19  31  51  78 114 149 177 212 265 327
#     4   9  16  27  48  75 106 144 176 211 264 316
#     4  10  21  37  55  79 112 143 181 227 270 319
#     4   8  14  26  47  75 105 135 173 217 258 311
#     4  10  19  36  56  81 115 140 181 232 267 314
#     4  10  21  35  53  81 113 148 182 221 264 315
#     4   9  19  36  60  81 103 142 183 226 280 327
#
# _framework density 21.961978999999999
#
# number of rings (size 3 to 8) (size 9 to 14) (size 15 to 20)
#    0.000    2.375    2.500    1.875    0.000    3.500 
#    0.000    5.000    0.000    2.250    0.000    7.875 
#    0.000    0.000    0.000    0.000    0.000    0.000 
#
# Total GULP energy -178439.632982 kJ/mol
# GULP energy per Si atom -5576.238531 kJ/mol
# Density = 2.191199 g / cm^3
# Si number density = 21.961979 Si / 1000 Ang^3
#
#
#
# Elastic Constant Matrix: (Units=GPa)
#
#
# Indices 1 2 3 4 5 6 
#
# 1 72.5590 -2.8373 35.6129 0.0000 -16.4527 0.0000
# 2 -2.8373 86.8188 7.8837 0.0000 -1.1345 0.0000
# 3 35.6129 7.8837 81.7132 0.0000 -27.2983 0.0000
# 4 0.0000 0.0000 0.0000 8.1758 0.0000 5.9991
# 5 -16.4527 -1.1345 -27.2983 0.0000 35.3389 0.0000
# 6 0.0000 0.0000 0.0000 5.9991 0.0000 -5.2690
#
#
#
# Elastic Compliance Matrix: (Units=1/GPa)
#
#
# Indices 1 2 3 4 5 6 
#
# 1 0.017913 0.001253 -0.006912 0.000000 0.003041 0.000000
# 2 0.001253 0.011719 -0.001828 0.000000 -0.000452 0.000000
# 3 -0.006912 -0.001828 0.019317 0.000000 0.011645 0.000000
# 4 0.000000 0.000000 0.000000 0.066640 0.000000 0.075873
# 5 0.003041 -0.000452 0.011645 0.000000 0.038694 0.000000
# 6 0.000000 0.000000 0.000000 0.075873 0.000000 -0.103403
#
#
# Mechanical properties :
#
#
# Convention : Reuss Voigt Hill
#
# Bulk Modulus (GPa) = 29.43334 35.82330 32.62832
# Shear Modulus (GPa) = 64.78444 21.01124 42.89784
#
# Velocity S-wave (km/s) = 5.43714 3.09643 4.42438
# Velocity P-wave (km/s) = 7.26964 5.39729 6.40228
#
# Compressibility (1/GPa) = 0.03397508
#
# Stress axis : x y z
#
# Youngs Moduli (GPa) = 55.82586 85.32963 51.76765
#
# Poissons Ratio (x) = -0.10690 0.35782
# Poissons Ratio (y) = -0.06994 0.09462
# Poissons Ratio (z) = 0.38587 0.15597
#
# Static dielectric constant tensor:
#      x y z
#    x 1.811540 0.000000 -0.024210 
#    y 0.000000 1.910220 0.000000 
#    z -0.024210 0.000000 1.816460 
# 
# From -- ./inp_files/104696.got.cif
#   From: 2010.05.17/outbox.cif.g08.bks.cpg/sg12_53_cif.got.tgz:104696.got - 2010.06.03 13:09:07.
