data_PCOD9179988
_publ_section_title
;
Structure prediction by ZEFSAII (Michael W. Deem and Ramdas Pophale) SiO2 
 PCOD9179988
Probable space group: C 2/M
;
_chemical_formula_sum "Si O2"
_cell_formula_units_Z 64
_cell_length_a 23.600995
_cell_length_b 9.056675
_cell_length_c 15.266851
_cell_angle_alpha 90.000000
_cell_angle_beta 96.001761
_cell_angle_gamma 90.000000
_cell_volume 3245.349762
_symmetry_space_group_name_H-M "C 2/M"
_symmetry_group_IT_number 12
_symmetry_cell_setting 'monoclinic'
loop_
_space_group_symop_operation_xyz
x,y,z
-x,y,-z
-x,-y,-z
x,-y,z
1/2+x,1/2+y,z
1/2-x,1/2+y,-z
1/2-x,1/2-y,-z
1/2+x,1/2-y,z
loop_
_atom_site_type_symbol
_atom_site_label
_atom_site_fract_x
_atom_site_fract_y
_atom_site_fract_z
Si Si1 0.588589 0.169832 0.949648
Si Si2 0.499318 0.169397 0.774410
Si Si3 0.786249 0.829612 0.814253
Si Si4 0.895482 0.677949 0.322034
Si Si5 0.338206 0.671556 0.473941
Si Si6 0.289198 0.829122 0.628946
Si Si7 0.176696 0.175581 0.846839
Si Si8 0.081684 0.831218 0.122453
O O1 0.541666 0.175098 0.865316
O O2 0.640223 0.270277 0.923527
O O3 0.606836 0.000000 0.961605
O O4 0.565922 0.230344 0.037462
O O5 0.540295 0.211666 0.700468
O O6 0.447308 0.271800 0.793688
O O7 0.480533 0.000000 0.760025
O O8 0.788089 0.764220 0.716982
O O9 0.740919 0.733905 0.860381
O O10 0.850264 0.823717 0.859520
O O11 0.767222 0.000000 0.809981
O O12 0.888808 0.500000 0.319789
O O13 0.879350 0.745835 0.412703
O O14 0.853095 0.749115 0.242986
O O15 0.353968 0.500000 0.488445
O O16 0.330736 0.756581 0.564109
O O17 0.274903 0.673951 0.420584
O O18 0.303901 0.000000 0.648267
O O19 0.174688 0.000000 0.837383
O O20 0.064001 0.000000 0.104526
#
# Coordination Sequence:
#
# PCOD9179988 Si02
#       8
#     8   8   8   8   8   8   8   8
#     4  10  21  38  59  81 107 140 177 225 277 322
#     4   9  20  37  57  81 107 140 180 223 272 319
#     4  11  23  38  54  75 111 149 181 219 267 324
#     4  10  19  33  55  82 113 144 176 220 271 320
#     4  10  19  31  52  83 114 143 178 218 265 317
#     4  10  20  33  52  80 111 145 181 217 264 318
#     4  11  21  34  54  81 109 141 180 221 270 322
#     4  11  24  38  55  80 106 142 185 225 271 319
#
# _framework density 19.720524000000001
#
# number of rings (size 3 to 8) (size 9 to 14) (size 15 to 20)
#    0.000    1.750    1.250    4.500    0.000    8.000 
#    0.000    0.000    0.000    0.750    0.000    5.250 
#    0.000    0.000    0.000    0.000    0.000    0.000 
#
# Total GULP energy -178794.090468 kJ/mol
# GULP energy per Si atom -5587.315327 kJ/mol
# Density = 1.967564 g / cm^3
# Si number density = 19.720524 Si / 1000 Ang^3
#
#
#
# Elastic Constant Matrix: (Units=GPa)
#
#
# Indices 1 2 3 4 5 6 
#
# 1 63.6937 35.4589 14.4480 0.0000 -33.5460 0.0000
# 2 35.4589 113.9727 15.6887 0.0000 -19.2943 0.0000
# 3 14.4480 15.6887 40.2047 0.0000 -29.3645 0.0000
# 4 0.0000 0.0000 0.0000 25.8055 0.0000 -9.0105
# 5 -33.5460 -19.2943 -29.3645 0.0000 35.3995 0.0000
# 6 0.0000 0.0000 0.0000 -9.0105 0.0000 26.3116
#
#
#
# Elastic Compliance Matrix: (Units=1/GPa)
#
#
# Indices 1 2 3 4 5 6 
#
# 1 0.056038 -0.009159 0.047130 0.000000 0.087207 0.000000
# 2 -0.009159 0.011163 -0.007510 0.000000 -0.008824 0.000000
# 3 0.047130 -0.007510 0.102747 0.000000 0.125799 0.000000
# 4 0.000000 0.000000 0.000000 0.044014 0.000000 0.015073
# 5 0.087207 -0.008824 0.125799 0.000000 0.210432 0.000000
# 6 0.000000 0.000000 0.000000 0.015073 0.000000 0.043168
#
#
# Mechanical properties :
#
#
# Convention : Reuss Voigt Hill
#
# Bulk Modulus (GPa) = 4.33144 38.78472 21.55808
# Shear Modulus (GPa) = 10.33917 27.65501 18.99709
#
# Velocity S-wave (km/s) = 2.29221 3.74885 3.10710
# Velocity P-wave (km/s) = 3.03427 6.20068 4.88135
#
# Compressibility (1/GPa) = 0.23086996
#
# Stress axis : x y z
#
# Youngs Moduli (GPa) = 17.84503 89.57835 9.73265
#
# Poissons Ratio (x) = 0.82043 -0.45870
# Poissons Ratio (y) = 0.16344 0.07309
# Poissons Ratio (z) = -0.84103 0.67273
#
# Static dielectric constant tensor:
#      x y z
#    x 1.710510 0.000000 -0.002020 
#    y 0.000000 1.667730 0.000000 
#    z -0.002020 0.000000 1.676750 
# 
# From -- ./inp_files/238567.got.cif
#   From: 2010.05.17/outbox.cif.g08.bks.cpg/sg12_120_cif.got.tgz:238567.got - 2010.06.03 13:09:07.
