data_PCOD9179829
_publ_section_title
;
Structure prediction by ZEFSAII (Michael W. Deem and Ramdas Pophale) SiO2 
 PCOD9179829
Probable space group: C 2/M
;
_chemical_formula_sum "Si O2"
_cell_formula_units_Z 58
_cell_length_a 20.402274
_cell_length_b 7.993432
_cell_length_c 17.304247
_cell_angle_alpha 90.000000
_cell_angle_beta 106.987515
_cell_angle_gamma 90.000000
_cell_volume 2698.918705
_symmetry_space_group_name_H-M "C 2/M"
_symmetry_group_IT_number 12
_symmetry_cell_setting 'monoclinic'
loop_
_space_group_symop_operation_xyz
x,y,z
-x,y,-z
-x,-y,-z
x,-y,z
1/2+x,1/2+y,z
1/2-x,1/2+y,-z
1/2-x,1/2-y,-z
1/2+x,1/2-y,z
loop_
_atom_site_type_symbol
_atom_site_label
_atom_site_fract_x
_atom_site_fract_y
_atom_site_fract_z
Si Si1 0.855270 0.802537 0.910102
Si Si2 0.023515 0.303664 0.141762
Si Si3 0.368325 0.693072 0.246489
Si Si4 0.866286 0.300808 0.078124
Si Si5 0.000000 0.000000 0.500000
Si Si6 0.892929 0.194665 0.681590
Si Si7 0.233653 0.797368 0.267075
Si Si8 0.991111 0.313434 0.380751
O O1 0.928398 0.718949 0.916382
O O2 0.804399 0.743187 0.825166
O O3 0.863666 0.000000 0.902789
O O4 0.832029 0.768518 0.989035
O O5 0.021458 0.500000 0.160947
O O6 0.062151 0.209619 0.224574
O O7 0.946146 0.243740 0.104134
O O8 0.386648 0.500000 0.248473
O O9 0.340462 0.748174 0.153227
O O10 0.309291 0.724461 0.289256
O O11 0.435232 0.796081 0.293057
O O12 0.864061 0.500000 0.072414
O O13 0.019741 0.848308 0.569110
O O14 0.817050 0.251598 0.680739
O O15 0.933440 0.294053 0.630386
O O16 0.890072 0.000000 0.657467
O O17 0.238025 0.000000 0.268619
O O18 0.982720 0.500000 0.410887
#
# Coordination Sequence:
#
# PCOD9179829 Si02
#       8
#     8   8   8   8   2   8   8   8
#     4  10  21  35  51  77 117 166 218 279 333 378
#     4  10  19  31  51  80 116 161 215 270 326 380
#     4  12  24  40  63  94 128 169 222 269 322 390
#     4  11  22  34  52  79 118 166 218 275 331 384
#     4  12  26  48  72 114 140 166 210 254 322 402
#     4  10  19  37  64  96 129 167 219 269 312 385
#     4   9  21  39  60  88 126 174 224 273 326 379
#     4  12  24  44  74 106 140 172 207 261 320 384
#
# _framework density 21.490088
#
# number of rings (size 3 to 8) (size 9 to 14) (size 15 to 20)
#    0.000    1.379    2.759    4.345    0.000    7.172 
#    0.000    0.000    0.000    0.828    0.000    0.000 
#    0.000    0.000    0.000    0.000    0.000    0.000 
#
# Total GULP energy -161784.045740 kJ/mol
# GULP energy per Si atom -5578.760198 kJ/mol
# Density = 2.144118 g / cm^3
# Si number density = 21.490088 Si / 1000 Ang^3
#
#
#
# Elastic Constant Matrix: (Units=GPa)
#
#
# Indices 1 2 3 4 5 6 
#
# 1 78.5690 9.0143 -19.2652 0.0000 9.5303 0.0000
# 2 9.0143 98.8770 12.7504 0.0000 -1.1928 0.0000
# 3 -19.2652 12.7504 27.6164 0.0000 6.9993 0.0000
# 4 0.0000 0.0000 0.0000 4.6930 0.0000 5.7110
# 5 9.5303 -1.1928 6.9993 0.0000 -15.7780 0.0000
# 6 0.0000 0.0000 0.0000 5.7110 0.0000 19.7701
#
#
#
# Elastic Compliance Matrix: (Units=1/GPa)
#
#
# Indices 1 2 3 4 5 6 
#
# 1 0.013369 -0.002028 0.007351 0.000000 0.011489 0.000000
# 2 -0.002028 0.010934 -0.005342 0.000000 -0.004422 0.000000
# 3 0.007351 -0.005342 0.038274 0.000000 0.021823 0.000000
# 4 0.000000 0.000000 0.000000 0.328599 0.000000 -0.094922
# 5 0.011489 -0.004422 0.021823 0.000000 -0.046424 0.000000
# 6 0.000000 0.000000 0.000000 -0.094922 0.000000 0.078002
#
#
# Mechanical properties :
#
#
# Convention : Reuss Voigt Hill
#
# Bulk Modulus (GPa) = 15.99039 23.34013 19.66526
# Shear Modulus (GPa) = 11.27043 15.24120 13.25581
#
# Velocity S-wave (km/s) = 2.29257 2.66601 2.48631
# Velocity P-wave (km/s) = 3.80326 4.51234 4.17289
#
# Compressibility (1/GPa) = 0.06253755
#
# Stress axis : x y z
#
# Youngs Moduli (GPa) = 74.79928 91.45746 26.12745
#
# Poissons Ratio (x) = 0.18548 -0.19206
# Poissons Ratio (y) = 0.15170 0.13958
# Poissons Ratio (z) = -0.54983 0.48860
#
# Static dielectric constant tensor:
#      x y z
#    x 1.814160 0.000000 -0.017440 
#    y 0.000000 1.747840 0.000000 
#    z -0.017440 0.000000 1.790980 
# 
# From -- ./inp_files/281579.got.cif
#   From: 2010.05.17/outbox.cif.g08.bks.cpg/sg12_141_cif.got.tgz:281579.got - 2010.06.03 13:09:07.
