data_PCOD9179364
_publ_section_title
;
Structure prediction by ZEFSAII (Michael W. Deem and Ramdas Pophale) SiO2 
 PCOD9179364
Probable space group: C 2/M
;
_chemical_formula_sum "Si O2"
_cell_formula_units_Z 56
_cell_length_a 8.193727
_cell_length_b 14.662900
_cell_length_c 20.845410
_cell_angle_alpha 90.000000
_cell_angle_beta 101.334411
_cell_angle_gamma 90.000000
_cell_volume 2455.602034
_symmetry_space_group_name_H-M "C 2/M"
_symmetry_group_IT_number 12
_symmetry_cell_setting 'monoclinic'
loop_
_space_group_symop_operation_xyz
x,y,z
-x,y,-z
-x,-y,-z
x,-y,z
1/2+x,1/2+y,z
1/2-x,1/2+y,-z
1/2-x,1/2-y,-z
1/2+x,1/2-y,z
loop_
_atom_site_type_symbol
_atom_site_label
_atom_site_fract_x
_atom_site_fract_y
_atom_site_fract_z
Si Si1 0.604708 0.894826 0.352356
Si Si2 0.752355 0.105174 0.647644
Si Si3 0.538114 0.388145 0.576224
Si Si4 0.658721 0.144260 0.211511
Si Si5 0.447211 0.355741 0.788489
Si Si6 0.909814 0.644218 0.930882
Si Si7 0.478934 0.355784 0.069118
O O1 0.431744 0.852672 0.363492
O O2 0.779838 0.854426 0.388529
O O3 0.605975 0.895738 0.275223
O O4 0.605979 0.000000 0.374365
O O5 0.891314 0.145574 0.611472
O O6 0.830753 0.104261 0.724777
O O7 0.731616 0.000000 0.625634
O O8 0.500000 0.365538 0.500000
O O9 0.541077 0.500000 0.582151
O O10 0.605840 0.250000 0.211680
O O11 0.858900 0.135614 0.217802
O O12 0.572413 0.106974 0.139946
O O13 0.432467 0.393027 0.860053
O O14 0.715342 0.642021 0.930686
O O15 0.965652 0.750001 0.931308
O O16 0.000000 0.603806 0.000000
O O17 0.500000 0.396196 0.000000
#
# Coordination Sequence:
#
# PCOD9179364 Si02
#       7
#     8   8   8   8   8   8   8
#     4  10  20  34  54  80 106 135 171 210 254 302
#     4  10  20  34  54  80 106 135 171 210 254 302
#     4   9  18  34  56  80 106 133 165 209 253 300
#     4  10  19  31  49  75 103 136 174 214 259 304
#     4  10  19  31  49  75 103 136 174 214 259 304
#     4   9  16  25  40  63  94 128 165 210 254 297
#     4   9  16  25  40  63  94 128 165 210 254 297
#
# _framework density 22.804997
#
# number of rings (size 3 to 8) (size 9 to 14) (size 15 to 20)
#    0.000    2.429    1.429    2.571    0.000    4.000 
#    0.000    2.857    0.000    1.714    0.000    0.000 
#    0.000    0.000    0.000    0.000    0.000    0.000 
#
# Total GULP energy -156267.066532 kJ/mol
# GULP energy per Si atom -5580.966662 kJ/mol
# Density = 2.275309 g / cm^3
# Si number density = 22.804997 Si / 1000 Ang^3
#
#
#
# Elastic Constant Matrix: (Units=GPa)
#
#
# Indices 1 2 3 4 5 6 
#
# 1 174.2778 9.9971 98.3623 0.0000 -1.4907 0.0000
# 2 9.9971 61.8578 1.3094 0.0000 -0.2967 0.0000
# 3 98.3623 1.3094 162.6462 0.0000 1.0947 0.0000
# 4 0.0000 0.0000 0.0000 18.7656 0.0000 0.3398
# 5 -1.4907 -0.2967 1.0947 0.0000 16.2680 0.0000
# 6 0.0000 0.0000 0.0000 0.3398 0.0000 8.8261
#
#
#
# Elastic Compliance Matrix: (Units=1/GPa)
#
#
# Indices 1 2 3 4 5 6 
#
# 1 0.008838 -0.001310 -0.005342 0.000000 0.001145 0.000000
# 2 -0.001310 0.016364 0.000659 0.000000 0.000134 0.000000
# 3 -0.005342 0.000659 0.009381 0.000000 -0.001109 0.000000
# 4 0.000000 0.000000 0.000000 0.053326 0.000000 -0.002053
# 5 0.001145 0.000134 -0.001109 0.000000 0.061652 0.000000
# 6 0.000000 0.000000 0.000000 -0.002053 0.000000 0.113380
#
#
# Mechanical properties :
#
#
# Convention : Reuss Voigt Hill
#
# Bulk Modulus (GPa) = 44.25003 68.67993 56.46498
# Shear Modulus (GPa) = 17.70167 28.04614 22.87391
#
# Velocity S-wave (km/s) = 2.78909 3.51069 3.17049
# Velocity P-wave (km/s) = 5.46057 6.82750 6.18194
#
# Compressibility (1/GPa) = 0.02259886
#
# Stress axis : x y z
#
# Youngs Moduli (GPa) = 113.14885 61.10802 106.59722
#
# Poissons Ratio (x) = 0.08004 0.56944
# Poissons Ratio (y) = 0.14820 -0.07030
# Poissons Ratio (z) = 0.60444 -0.04030
#
# Static dielectric constant tensor:
#      x y z
#    x 1.832710 0.000000 0.000680 
#    y 0.000000 8.696690 0.000000 
#    z 0.000680 0.000000 1.852620 
# 
# From -- ./inp_files/257674.got.cif
#   From: 2010.05.17/outbox.cif.g08.bks.cpg/sg12_129_cif.got.tgz:257674.got - 2010.06.03 13:09:07.
