data_PCOD9179218
_publ_section_title
;
Structure prediction by ZEFSAII (Michael W. Deem and Ramdas Pophale) SiO2 
 PCOD9179218
Probable space group: C 2/M
;
_chemical_formula_sum "Si O2"
_cell_formula_units_Z 56
_cell_length_a 23.351625
_cell_length_b 9.387676
_cell_length_c 15.045343
_cell_angle_alpha 90.000000
_cell_angle_beta 91.309622
_cell_angle_gamma 90.000000
_cell_volume 3297.340783
_symmetry_space_group_name_H-M "C 2/M"
_symmetry_group_IT_number 12
_symmetry_cell_setting 'monoclinic'
loop_
_space_group_symop_operation_xyz
x,y,z
-x,y,-z
-x,-y,-z
x,-y,z
1/2+x,1/2+y,z
1/2-x,1/2+y,-z
1/2-x,1/2-y,-z
1/2+x,1/2-y,z
loop_
_atom_site_type_symbol
_atom_site_label
_atom_site_fract_x
_atom_site_fract_y
_atom_site_fract_z
Si Si1 0.562844 0.667746 0.763105
Si Si2 0.631405 0.170217 0.026688
Si Si3 0.801866 0.170361 0.815251
Si Si4 0.887751 0.336516 0.702668
Si Si5 0.523694 0.161674 0.126802
Si Si6 0.332574 0.831933 0.174583
Si Si7 0.477179 0.331096 0.596901
O O1 0.568517 0.500000 0.776126
O O2 0.525985 0.735515 0.842197
O O3 0.624168 0.742310 0.764295
O O4 0.526752 0.693334 0.671978
O O5 0.670001 0.260318 0.095812
O O6 0.564533 0.201585 0.045801
O O7 0.638451 0.000000 0.044670
O O8 0.650747 0.198105 0.927335
O O9 0.834142 0.244557 0.734218
O O10 0.734142 0.198460 0.812777
O O11 0.811246 0.000000 0.815433
O O12 0.872847 0.500000 0.682149
O O13 0.931176 0.339149 0.788966
O O14 0.922854 0.260655 0.625724
O O15 0.501707 0.000000 0.114534
O O16 0.342046 0.000000 0.189777
O O17 0.500000 0.295978 0.500000
O O18 0.463168 0.500000 0.599178
#
# Coordination Sequence:
#
# PCOD9179218 Si02
#       7
#     8   8   8   8   8   8   8
#     4  10  20  32  48  71  97 126 159 195 240 292
#     4   9  18  32  49  69  93 127 170 210 246 281
#     4  10  19  31  49  71  96 130 169 206 242 279
#     4   9  17  30  50  75 100 127 159 196 238 285
#     4   8  15  29  47  65  91 126 159 195 239 285
#     4  10  21  34  47  66  97 135 168 201 244 288
#     4   9  18  34  56  80 103 124 150 192 245 296
#
# _framework density 16.983384000000001
#
# number of rings (size 3 to 8) (size 9 to 14) (size 15 to 20)
#    0.000    2.714    0.000    2.571    0.000    6.571 
#    0.000    2.857    0.000    0.857    0.000    0.000 
#    0.000    0.000    0.000    0.000    0.000    0.000 
#
# Total GULP energy -156195.013417 kJ/mol
# GULP energy per Si atom -5578.393336 kJ/mol
# Density = 1.694473 g / cm^3
# Si number density = 16.983384 Si / 1000 Ang^3
#
#
#
# Elastic Constant Matrix: (Units=GPa)
#
#
# Indices 1 2 3 4 5 6 
#
# 1 116.0940 77.1901 47.0179 0.0000 -14.6790 0.0000
# 2 77.1901 83.2505 53.1883 0.0000 -10.1422 0.0000
# 3 47.0179 53.1883 83.0811 0.0000 -25.1051 0.0000
# 4 0.0000 0.0000 0.0000 20.1451 0.0000 -1.1005
# 5 -14.6790 -10.1422 -25.1051 0.0000 20.2305 0.0000
# 6 0.0000 0.0000 0.0000 -1.1005 0.0000 32.2249
#
#
#
# Elastic Compliance Matrix: (Units=1/GPa)
#
#
# Indices 1 2 3 4 5 6 
#
# 1 0.024243 -0.024709 0.005874 0.000000 0.012492 0.000000
# 2 -0.024709 0.046727 -0.022831 0.000000 -0.022835 0.000000
# 3 0.005874 -0.022831 0.033852 0.000000 0.034825 0.000000
# 4 0.000000 0.000000 0.000000 0.049733 0.000000 0.001698
# 5 0.012492 -0.022835 0.034825 0.000000 0.090262 0.000000
# 6 0.000000 0.000000 0.000000 0.001698 0.000000 0.031090
#
#
# Mechanical properties :
#
#
# Convention : Reuss Voigt Hill
#
# Bulk Modulus (GPa) = 46.53605 70.80199 58.66902
# Shear Modulus (GPa) = 13.64613 21.52207 17.58410
#
# Velocity S-wave (km/s) = 2.83768 3.56370 3.22121
# Velocity P-wave (km/s) = 6.18037 7.66242 6.96095
#
# Compressibility (1/GPa) = 0.02148872
#
# Stress axis : x y z
#
# Youngs Moduli (GPa) = 41.24821 21.40077 29.54028
#
# Poissons Ratio (x) = 0.52880 -0.17351
# Poissons Ratio (y) = 1.01922 0.67444
# Poissons Ratio (z) = -0.24227 0.48861
#
# Static dielectric constant tensor:
#      x y z
#    x 1.575230 0.000000 0.001480 
#    y 0.000000 1.567100 0.000000 
#    z 0.001480 0.000000 1.569920 
# 
# From -- ./inp_files/230956.got.cif
#   From: 2010.05.17/outbox.cif.g08.bks.cpg/sg12_116_cif.got.tgz:230956.got - 2010.06.03 13:09:07.
