data_PCOD9179902
_publ_section_title
;
Structure prediction by ZEFSAII (Michael W. Deem and Ramdas Pophale) SiO2 
 PCOD9179902
Probable space group: C 2/M
;
_chemical_formula_sum "Si O2"
_cell_formula_units_Z 64
_cell_length_a 20.636138
_cell_length_b 7.639472
_cell_length_c 21.737311
_cell_angle_alpha 90.000000
_cell_angle_beta 136.049037
_cell_angle_gamma 90.000000
_cell_volume 2378.393060
_symmetry_space_group_name_H-M "C 2/M"
_symmetry_group_IT_number 12
_symmetry_cell_setting 'monoclinic'
loop_
_space_group_symop_operation_xyz
x,y,z
-x,y,-z
-x,-y,-z
x,-y,z
1/2+x,1/2+y,z
1/2-x,1/2+y,-z
1/2-x,1/2-y,-z
1/2+x,1/2-y,z
loop_
_atom_site_type_symbol
_atom_site_label
_atom_site_fract_x
_atom_site_fract_y
_atom_site_fract_z
Si Si1 0.878542 0.284326 0.545177
Si Si2 0.553547 0.292272 0.098103
Si Si3 0.771241 0.707156 0.349889
Si Si4 0.941722 0.706379 0.395785
Si Si5 0.107178 0.211389 0.813818
Si Si6 0.391175 0.206050 0.685755
Si Si7 0.375733 0.286955 0.041644
Si Si8 0.763809 0.298224 0.841319
O O1 0.878716 0.500000 0.545488
O O2 0.817082 0.226847 0.445282
O O3 0.849139 0.222119 0.592503
O O4 0.984552 0.221279 0.602925
O O5 0.543408 0.500000 0.092560
O O6 0.483863 0.228305 0.103643
O O7 0.663334 0.266782 0.160121
O O8 0.500000 0.226032 0.000000
O O9 0.786697 0.500000 0.357013
O O10 0.838699 0.779347 0.341906
O O11 0.661802 0.726575 0.289995
O O12 0.933603 0.500000 0.377109
O O13 0.000000 0.719591 0.500000
O O14 0.152015 0.272972 0.909297
O O15 0.163871 0.281413 0.793401
O O16 0.999782 0.257749 0.749455
O O17 0.113528 0.000000 0.816112
O O18 0.377695 0.000000 0.678721
O O19 0.371280 0.500000 0.037539
O O20 0.318402 0.220949 0.944063
O O21 0.751726 0.500000 0.819811
#
# Coordination Sequence:
#
# PCOD9179902 Si02
#       8
#     8   8   8   8   8   8   8   8
#     4   8  15  29  50  76  99 122 160 203 240 283
#     4   8  15  29  50  75 100 125 156 196 239 284
#     4   9  16  30  54  76  96 125 159 200 245 287
#     4   7  11  23  47  75  95 116 155 201 237 276
#     4  10  22  38  51  67  96 133 170 202 237 285
#     4  11  22  33  47  70 101 132 162 200 242 287
#     4   9  18  34  55  75  96 126 164 202 237 282
#     4  10  19  31  52  79 102 125 156 199 247 292
#
# _framework density 26.908923999999999
#
# number of rings (size 3 to 8) (size 9 to 14) (size 15 to 20)
#    0.000    3.000    0.000    3.750    0.000    3.750 
#    0.000    1.875    0.000   10.875    0.000    0.000 
#    0.000    0.000    0.000    0.000    0.000    0.000 
#
# Total GULP energy -178731.388575 kJ/mol
# GULP energy per Si atom -5585.355893 kJ/mol
# Density = 2.684768 g / cm^3
# Si number density = 26.908924 Si / 1000 Ang^3
#
#
#
# Elastic Constant Matrix: (Units=GPa)
#
#
# Indices 1 2 3 4 5 6 
#
# 1 263.9797 16.2145 24.8738 0.0000 2.5040 0.0000
# 2 16.2145 63.4001 -3.1219 0.0000 -10.7841 0.0000
# 3 24.8738 -3.1219 71.2638 0.0000 19.7373 0.0000
# 4 0.0000 0.0000 0.0000 13.3685 0.0000 -1.4503
# 5 2.5040 -10.7841 19.7373 0.0000 57.9396 0.0000
# 6 0.0000 0.0000 0.0000 -1.4503 0.0000 13.6794
#
#
#
# Elastic Compliance Matrix: (Units=1/GPa)
#
#
# Indices 1 2 3 4 5 6 
#
# 1 0.003992 -0.001071 -0.001477 0.000000 0.000131 0.000000
# 2 -0.001071 0.016577 0.000257 0.000000 0.003044 0.000000
# 3 -0.001477 0.000257 0.016042 0.000000 -0.005353 0.000000
# 4 0.000000 0.000000 0.000000 0.075673 0.000000 0.008023
# 5 0.000131 0.003044 -0.005353 0.000000 0.019644 0.000000
# 6 0.000000 0.000000 0.000000 0.008023 0.000000 0.073953
#
#
# Mechanical properties :
#
#
# Convention : Reuss Voigt Hill
#
# Bulk Modulus (GPa) = 31.22167 52.73069 41.97618
# Shear Modulus (GPa) = 22.61023 41.04264 31.82644
#
# Velocity S-wave (km/s) = 2.90185 3.90967 3.44284
# Velocity P-wave (km/s) = 4.78075 6.32608 5.60691
#
# Compressibility (1/GPa) = 0.03202903
#
# Stress axis : x y z
#
# Youngs Moduli (GPa) = 250.50973 60.32346 62.33801
#
# Poissons Ratio (x) = 0.06463 0.09205
# Poissons Ratio (y) = 0.26838 -0.01602
# Poissons Ratio (z) = 0.36989 -0.01550
#
# Static dielectric constant tensor:
#      x y z
#    x 2.219680 0.000000 0.051810 
#    y 0.000000 1.952300 0.000000 
#    z 0.051810 0.000000 2.260200 
# 
# From -- ./inp_files/365244.got.cif
#   From: 2010.05.17/outbox.cif.g08.bks.cpg/sg12_183_cif.got.tgz:365244.got - 2010.06.03 13:09:07.
