data_PCOD9179879
_publ_section_title
;
Structure prediction by ZEFSAII (Michael W. Deem and Ramdas Pophale) SiO2 
 PCOD9179879
Probable space group: C 2/M
;
_chemical_formula_sum "Si O2"
_cell_formula_units_Z 64
_cell_length_a 23.927539
_cell_length_b 15.418472
_cell_length_c 16.047747
_cell_angle_alpha 90.000000
_cell_angle_beta 41.169430
_cell_angle_gamma 90.000000
_cell_volume 3897.349218
_symmetry_space_group_name_H-M "C 2/M"
_symmetry_group_IT_number 12
_symmetry_cell_setting 'monoclinic'
loop_
_space_group_symop_operation_xyz
x,y,z
-x,y,-z
-x,-y,-z
x,-y,z
1/2+x,1/2+y,z
1/2-x,1/2+y,-z
1/2-x,1/2-y,-z
1/2+x,1/2-y,z
loop_
_atom_site_type_symbol
_atom_site_label
_atom_site_fract_x
_atom_site_fract_y
_atom_site_fract_z
Si Si1 0.132109 0.323006 0.147825
Si Si2 0.945699 0.752711 0.145202
Si Si3 0.961452 0.168002 0.671589
Si Si4 0.970293 0.098241 0.847034
Si Si5 0.298985 0.190264 0.204042
Si Si6 0.205958 0.178951 0.935754
Si Si7 0.938702 0.598232 0.931125
Si Si8 0.623803 0.603226 0.393008
O O1 0.065642 0.266553 0.276514
O O2 0.208937 0.357659 0.118132
O O3 0.092310 0.391599 0.129287
O O4 0.170841 0.250750 0.040806
O O5 0.851055 0.730920 0.222181
O O6 0.966366 0.832489 0.182372
O O7 0.986131 0.666527 0.139723
O O8 0.000000 0.769750 0.000000
O O9 0.965357 0.116604 0.753951
O O10 0.891835 0.128077 0.686472
O O11 0.050989 0.153576 0.525617
O O12 0.995298 0.000000 0.835909
O O13 0.874421 0.116779 0.987224
O O14 0.274052 0.268882 0.170475
O O15 0.216104 0.134970 0.316846
O O16 0.364445 0.130693 0.077104
O O17 0.961949 0.500000 0.924225
O O18 0.612554 0.500000 0.415555
#
# Coordination Sequence:
#
# PCOD9179879 Si02
#       8
#     8   8   8   8   8   8   8   8
#     4   9  16  30  51  69 102 132 168 201 259 311
#     4  10  19  35  50  73 107 136 176 212 252 314
#     4  10  19  35  52  76 108 139 164 212 262 313
#     4  11  20  33  55  77 107 141 170 214 263 307
#     4  10  19  33  48  71 107 139 166 211 256 301
#     4   9  16  30  47  72 100 134 163 202 251 318
#     4  10  19  31  52  77 103 135 169 209 260 315
#     4  11  21  32  51  82 107 133 175 211 259 321
#
# _framework density 16.421417999999999
#
# number of rings (size 3 to 8) (size 9 to 14) (size 15 to 20)
#    0.000    2.000    6.250    1.875    1.750    3.500 
#    0.000    0.625    0.000    0.000    0.000    2.625 
#    0.000    0.000    0.000    0.000    0.000    0.000 
#
# Total GULP energy -178304.125189 kJ/mol
# GULP energy per Si atom -5572.003912 kJ/mol
# Density = 1.638404 g / cm^3
# Si number density = 16.421418 Si / 1000 Ang^3
#
#
#
# Elastic Constant Matrix: (Units=GPa)
#
#
# Indices 1 2 3 4 5 6 
#
# 1 102.8876 37.3277 20.8351 0.0000 -13.0751 0.0000
# 2 37.3277 76.4883 17.3895 0.0000 0.2595 0.0000
# 3 20.8351 17.3895 36.9363 0.0000 -6.4679 0.0000
# 4 0.0000 0.0000 0.0000 14.9507 0.0000 2.7679
# 5 -13.0751 0.2595 -6.4679 0.0000 18.7896 0.0000
# 6 0.0000 0.0000 0.0000 2.7679 0.0000 5.9394
#
#
#
# Elastic Compliance Matrix: (Units=1/GPa)
#
#
# Indices 1 2 3 4 5 6 
#
# 1 0.013618 -0.005892 -0.003442 0.000000 0.008373 0.000000
# 2 -0.005892 0.017324 -0.005951 0.000000 -0.006388 0.000000
# 3 -0.003442 -0.005951 0.033427 0.000000 0.009194 0.000000
# 4 0.000000 0.000000 0.000000 0.073202 0.000000 -0.034114
# 5 0.008373 -0.006388 0.009194 0.000000 0.062300 0.000000
# 6 0.000000 0.000000 0.000000 -0.034114 0.000000 0.184266
#
#
# Mechanical properties :
#
#
# Convention : Reuss Voigt Hill
#
# Bulk Modulus (GPa) = 29.58631 40.82409 35.20520
# Shear Modulus (GPa) = 11.73786 17.31993 14.52890
#
# Velocity S-wave (km/s) = 2.67646 3.25116 2.97771
# Velocity P-wave (km/s) = 5.25426 6.24561 5.77126
#
# Compressibility (1/GPa) = 0.03379941
#
# Stress axis : x y z
#
# Youngs Moduli (GPa) = 73.43305 57.72398 29.91625
#
# Poissons Ratio (x) = 0.34009 0.10296
# Poissons Ratio (y) = 0.43265 0.17804
# Poissons Ratio (z) = 0.25273 0.34352
#
# Static dielectric constant tensor:
#      x y z
#    x 1.589970 0.000000 0.000890 
#    y 0.000000 1.548600 0.000000 
#    z 0.000890 0.000000 1.550190 
# 
# From -- ./inp_files/240696.got.cif
#   From: 2010.05.17/outbox.cif.g08.bks.cpg/sg12_121_cif.got.tgz:240696.got - 2010.06.03 13:09:07.
