data_PCOD9179077
_publ_section_title
;
Structure prediction by ZEFSAII (Michael W. Deem and Ramdas Pophale) SiO2 
 PCOD9179077
Probable space group: C 2/M
;
_chemical_formula_sum "Si O2"
_cell_formula_units_Z 32
_cell_length_a 19.163688
_cell_length_b 22.076722
_cell_length_c 15.291389
_cell_angle_alpha 90.000000
_cell_angle_beta 18.983000
_cell_angle_gamma 90.000000
_cell_volume 2104.399181
_symmetry_space_group_name_H-M "C 2/M"
_symmetry_group_IT_number 12
_symmetry_cell_setting 'monoclinic'
loop_
_space_group_symop_operation_xyz
x,y,z
-x,y,-z
-x,-y,-z
x,-y,z
1/2+x,1/2+y,z
1/2-x,1/2+y,-z
1/2-x,1/2-y,-z
1/2+x,1/2-y,z
loop_
_atom_site_type_symbol
_atom_site_label
_atom_site_fract_x
_atom_site_fract_y
_atom_site_fract_z
Si Si1 0.095564 0.169908 0.614228
Si Si2 0.445545 0.929059 0.167559
Si Si3 0.974357 0.235937 0.129827
Si Si4 0.698804 0.660070 0.198705
O O1 0.231018 0.108464 0.442426
O O2 0.035912 0.184400 0.784634
O O3 0.257593 0.223851 0.393278
O O4 0.896241 0.169693 0.784794
O O5 0.427193 0.000000 0.208089
O O6 0.500000 0.921469 0.000000
O O7 0.640089 0.896546 0.987396
O O8 0.000000 0.215036 0.000000
O O9 0.164786 0.282327 0.929832
O O10 0.500000 0.650373 0.500000
#
# Coordination Sequence:
#
# PCOD9179077 Si02
#       4
#     8   8   8   8
#     4  10  19  32  48  69  98 126 154 192 233 275
#     4  10  20  32  47  69  96 126 159 191 228 277
#     4  10  19  31  48  71  97 125 156 189 231 282
#     4  11  17  30  48  72 100 125 150 186 235 283
#
# _framework density 15.206241
#
# number of rings (size 3 to 8) (size 9 to 14) (size 15 to 20)
#    0.000    1.750    5.000    2.250    0.000    1.500 
#    0.000    0.000    0.000    0.750    0.000    1.750 
#    0.000    0.000    0.000    0.000    0.000    0.000 
#
# Total GULP energy -89258.935278 kJ/mol
# GULP energy per Si atom -5578.683455 kJ/mol
# Density = 1.517163 g / cm^3
# Si number density = 15.206241 Si / 1000 Ang^3
#
#
#
# Elastic Constant Matrix: (Units=GPa)
#
#
# Indices 1 2 3 4 5 6 
#
# 1 150.8683 54.0822 47.4464 -0.0067 -0.2186 0.0052
# 2 54.0822 79.0535 17.0793 0.0670 4.3730 0.0063
# 3 47.4464 17.0793 33.4632 0.1018 -2.7358 -0.0114
# 4 -0.0067 0.0670 0.1018 6.7820 -0.0056 7.1870
# 5 -0.2186 4.3730 -2.7358 -0.0056 34.8568 -0.0003
# 6 0.0052 0.0063 -0.0114 7.1870 -0.0003 15.8459
#
#
#
# Elastic Compliance Matrix: (Units=1/GPa)
#
#
# Indices 1 2 3 4 5 6 
#
# 1 0.014112 -0.005951 -0.017014 0.000660 -0.000500 -0.000314
# 2 -0.005951 0.016924 -0.000378 -0.000315 -0.002190 0.000138
# 3 -0.017014 -0.000378 0.054551 -0.001687 0.004222 0.000810
# 4 0.000660 -0.000315 -0.001687 0.283966 -0.000044 -0.128797
# 5 -0.000500 -0.002190 0.004222 -0.000044 0.029292 0.000025
# 6 -0.000314 0.000138 0.000810 -0.128797 0.000025 0.121525
#
#
# Mechanical properties :
#
#
# Convention : Reuss Voigt Hill
#
# Bulk Modulus (GPa) = 25.70685 55.62231 40.66458
# Shear Modulus (GPa) = 8.62035 21.14875 14.88455
#
# Velocity S-wave (km/s) = 2.38354 3.73338 3.13204
# Velocity P-wave (km/s) = 4.95148 7.43251 6.31504
#
# Compressibility (1/GPa) = 0.03890014
#
# Stress axis : x y z
#
# Youngs Moduli (GPa) = 70.86315 59.08752 18.33148
#
# Poissons Ratio (x) = 0.35164 0.31189
# Poissons Ratio (y) = 0.42172 0.00693
# Poissons Ratio (z) = 1.20568 0.02233
#
# Static dielectric constant tensor:
#      x y z
#    x 1.507620 -0.000010 -0.002480 
#    y -0.000010 1.483540 0.000020 
#    z -0.002480 0.000020 1.507520 
# 
# From -- ./inp_files/6060.got.cif
#   From: 2010.05.17/outbox.cif.g08.bks.cpg/sg12_4_cif.got.tgz:6060.got - 2010.06.03 13:09:07.
