data_PCOD9179658
_publ_section_title
;
Structure prediction by ZEFSAII (Michael W. Deem and Ramdas Pophale) SiO2 
 PCOD9179658
Probable space group: C 2/M
;
_chemical_formula_sum "Si O2"
_cell_formula_units_Z 64
_cell_length_a 29.753411
_cell_length_b 11.724613
_cell_length_c 10.010397
_cell_angle_alpha 90.000000
_cell_angle_beta 96.709240
_cell_angle_gamma 90.000000
_cell_volume 3468.184739
_symmetry_space_group_name_H-M "C 2/M"
_symmetry_group_IT_number 12
_symmetry_cell_setting 'monoclinic'
loop_
_space_group_symop_operation_xyz
x,y,z
-x,y,-z
-x,-y,-z
x,-y,z
1/2+x,1/2+y,z
1/2-x,1/2+y,-z
1/2-x,1/2-y,-z
1/2+x,1/2-y,z
loop_
_atom_site_type_symbol
_atom_site_label
_atom_site_fract_x
_atom_site_fract_y
_atom_site_fract_z
Si Si1 0.221944 0.628950 0.641233
Si Si2 0.819161 0.211124 0.601775
Si Si3 0.145008 0.373587 0.153553
Si Si4 0.967759 0.867601 0.705505
Si Si5 0.550966 0.784138 0.043478
Si Si6 0.098803 0.131742 0.534404
Si Si7 0.571892 0.368150 0.795172
Si Si8 0.219761 0.363198 0.951858
O O1 0.209499 0.500000 0.604894
O O2 0.199288 0.708927 0.523634
O O3 0.276072 0.645230 0.645116
O O4 0.209661 0.651102 0.791155
O O5 0.841648 0.282582 0.729226
O O6 0.857212 0.137818 0.541716
O O7 0.154994 0.500000 0.209979
O O8 0.092391 0.364967 0.096013
O O9 0.176533 0.356450 0.034394
O O10 0.955181 0.801473 0.834651
O O11 0.941451 0.817654 0.569390
O O12 0.021691 0.866284 0.712857
O O13 0.954027 0.000000 0.715309
O O14 0.500000 0.831539 0.000000
O O15 0.567765 0.711261 0.922070
O O16 0.103639 0.177497 0.686680
O O17 0.087092 0.000000 0.555538
O O18 0.582347 0.500000 0.837749
O O19 0.236445 0.500000 0.971689
O O20 0.250000 0.250000 0.000000
#
# Coordination Sequence:
#
# PCOD9179658 Si02
#       8
#     8   8   8   8   8   8   8   8
#     4  10  22  39  60  83 113 150 188 235 289 347
#     4  11  21  37  59  81 114 144 190 232 287 342
#     4  11  23  39  60  83 110 148 197 241 293 349
#     4   9  16  30  52  77 108 145 181 222 278 337
#     4  10  20  35  55  81 111 150 192 238 283 335
#     4  10  19  31  50  80 111 144 182 226 273 338
#     4   9  18  31  49  78 114 146 178 222 278 337
#     4  10  21  41  64  91 121 154 196 242 299 359
#
# _framework density 18.453458999999999
#
# number of rings (size 3 to 8) (size 9 to 14) (size 15 to 20)
#    0.000    2.000    2.500    1.500    1.750    3.250 
#    0.000    1.875    0.000    0.000    0.000    1.750 
#    0.000    0.000    0.000    0.000    0.000    0.000 
#
# Total GULP energy -178184.915081 kJ/mol
# GULP energy per Si atom -5568.278596 kJ/mol
# Density = 1.841146 g / cm^3
# Si number density = 18.453459 Si / 1000 Ang^3
#
#
#
# Elastic Constant Matrix: (Units=GPa)
#
#
# Indices 1 2 3 4 5 6 
#
# 1 51.8980 14.8415 22.3955 0.0000 -8.5371 0.0000
# 2 14.8415 46.6757 21.3667 0.0000 -1.2432 0.0000
# 3 22.3955 21.3667 105.4797 0.0000 -20.1742 0.0000
# 4 0.0000 0.0000 0.0000 17.9269 0.0000 -4.5283
# 5 -8.5371 -1.2432 -20.1742 0.0000 30.9657 0.0000
# 6 0.0000 0.0000 0.0000 -4.5283 0.0000 62.1589
#
#
#
# Elastic Compliance Matrix: (Units=1/GPa)
#
#
# Indices 1 2 3 4 5 6 
#
# 1 0.022869 -0.005847 -0.002868 0.000000 0.004202 0.000000
# 2 -0.005847 0.025277 -0.004561 0.000000 -0.003569 0.000000
# 3 -0.002868 -0.004561 0.012368 0.000000 0.007084 0.000000
# 4 0.000000 0.000000 0.000000 0.056828 0.000000 0.004140
# 5 0.004202 -0.003569 0.007084 0.000000 0.037924 0.000000
# 6 0.000000 0.000000 0.000000 0.004140 0.000000 0.016389
#
#
# Mechanical properties :
#
#
# Convention : Reuss Voigt Hill
#
# Bulk Modulus (GPa) = 29.44453 35.69564 32.57008
# Shear Modulus (GPa) = 23.86312 31.90696 27.88504
#
# Velocity S-wave (km/s) = 3.59994 4.16270 3.89151
# Velocity P-wave (km/s) = 5.76803 6.51841 6.15467
#
# Compressibility (1/GPa) = 0.03396217
#
# Stress axis : x y z
#
# Youngs Moduli (GPa) = 43.72670 39.56222 80.85226
#
# Poissons Ratio (x) = 0.23133 0.23184
# Poissons Ratio (y) = 0.25568 0.36879
# Poissons Ratio (z) = 0.12539 0.18046
#
# Static dielectric constant tensor:
#      x y z
#    x 1.654140 0.000000 0.001750 
#    y 0.000000 1.631920 0.000000 
#    z 0.001750 0.000000 1.635990 
# 
# From -- ./inp_files/110479.got.cif
#   From: 2010.05.17/outbox.cif.g08.bks.cpg/sg12_56_cif.got.tgz:110479.got - 2010.06.03 13:09:07.
