data_PCOD9179860
_publ_section_title
;
Structure prediction by ZEFSAII (Michael W. Deem and Ramdas Pophale) SiO2 
 PCOD9179860
Probable space group: C 2/M
;
_chemical_formula_sum "Si O2"
_cell_formula_units_Z 56
_cell_length_a 8.444661
_cell_length_b 17.007968
_cell_length_c 19.244590
_cell_angle_alpha 90.000000
_cell_angle_beta 70.937915
_cell_angle_gamma 90.000000
_cell_volume 2612.468448
_symmetry_space_group_name_H-M "C 2/M"
_symmetry_group_IT_number 12
_symmetry_cell_setting 'monoclinic'
loop_
_space_group_symop_operation_xyz
x,y,z
-x,y,-z
-x,-y,-z
x,-y,z
1/2+x,1/2+y,z
1/2-x,1/2+y,-z
1/2-x,1/2-y,-z
1/2+x,1/2-y,z
loop_
_atom_site_type_symbol
_atom_site_label
_atom_site_fract_x
_atom_site_fract_y
_atom_site_fract_z
Si Si1 0.691359 0.852612 0.178144
Si Si2 0.882877 0.614620 0.307100
Si Si3 0.595794 0.587244 0.240472
Si Si4 0.431810 0.592318 0.907326
Si Si5 0.055873 0.587639 0.413406
Si Si6 0.204503 0.207020 0.699435
Si Si7 0.633844 0.095323 0.042740
O O1 0.560710 0.902832 0.243396
O O2 0.728980 0.785263 0.230022
O O3 0.602969 0.851984 0.115662
O O4 0.877597 0.881771 0.132336
O O5 0.737248 0.585597 0.278065
O O6 0.848908 0.707757 0.317061
O O7 0.899859 0.584693 0.382526
O O8 0.517852 0.500000 0.246902
O O9 0.661134 0.604226 0.153282
O O10 0.455342 0.650470 0.276314
O O11 0.439733 0.500000 0.920075
O O12 0.312699 0.622700 0.985144
O O13 0.136936 0.500000 0.398843
O O14 0.166172 0.659369 0.367464
O O15 0.000000 0.601554 0.500000
O O16 0.637687 0.000000 0.059913
O O17 0.500000 0.103648 0.000000
#
# Coordination Sequence:
#
# PCOD9179860 Si02
#       7
#     8   8   8   8   8   8   8
#     4  10  20  33  55  77 108 152 200 243 291 347
#     4  11  22  38  60  86 118 157 199 242 290 351
#     4  10  19  33  56  84 113 148 198 254 296 336
#     4   9  18  31  50  80 116 153 197 250 306 360
#     4  10  22  41  65  94 126 157 193 238 289 350
#     4  10  22  40  60  84 119 160 197 236 291 360
#     4  10  19  31  51  83 119 154 200 257 309 357
#
# _framework density 21.435665
#
# number of rings (size 3 to 8) (size 9 to 14) (size 15 to 20)
#    0.000    2.000    0.000    4.286    0.000   10.286 
#    0.000    0.714    0.000   24.000    0.000    0.000 
#    0.000    0.000    0.000    0.000    0.000    0.714 
#
# Total GULP energy -156037.984187 kJ/mol
# GULP energy per Si atom -5572.785150 kJ/mol
# Density = 2.138688 g / cm^3
# Si number density = 21.435665 Si / 1000 Ang^3
#
#
#
# Elastic Constant Matrix: (Units=GPa)
#
#
# Indices 1 2 3 4 5 6 
#
# 1 86.2072 13.2662 44.1478 0.0000 17.5637 0.0000
# 2 13.2662 97.3289 41.5761 0.0000 -5.5721 0.0000
# 3 44.1478 41.5761 156.3271 0.0000 27.9302 0.0000
# 4 0.0000 0.0000 0.0000 13.2238 0.0000 5.5602
# 5 17.5637 -5.5721 27.9302 0.0000 32.3415 0.0000
# 6 0.0000 0.0000 0.0000 5.5602 0.0000 23.4242
#
#
#
# Elastic Compliance Matrix: (Units=1/GPa)
#
#
# Indices 1 2 3 4 5 6 
#
# 1 0.014317 -0.001095 -0.002754 0.000000 -0.005585 0.000000
# 2 -0.001095 0.012569 -0.004170 0.000000 0.006362 0.000000
# 3 -0.002754 -0.004170 0.009631 0.000000 -0.007540 0.000000
# 4 0.000000 0.000000 0.000000 0.084005 0.000000 -0.019940
# 5 -0.005585 0.006362 -0.007540 0.000000 0.041561 0.000000
# 6 0.000000 0.000000 0.000000 -0.019940 0.000000 0.047424
#
#
# Mechanical properties :
#
#
# Convention : Reuss Voigt Hill
#
# Bulk Modulus (GPa) = 48.83132 59.76038 54.29585
# Shear Modulus (GPa) = 21.51725 29.85611 25.68668
#
# Velocity S-wave (km/s) = 3.17173 3.73610 3.46542
# Velocity P-wave (km/s) = 6.02022 6.82281 6.43404
#
# Compressibility (1/GPa) = 0.02047866
#
# Stress axis : x y z
#
# Youngs Moduli (GPa) = 69.84833 79.55903 103.83245
#
# Poissons Ratio (x) = 0.08709 0.28597
# Poissons Ratio (y) = 0.07646 0.43301
# Poissons Ratio (z) = 0.19237 0.33179
#
# Static dielectric constant tensor:
#      x y z
#    x 1.846410 0.000000 0.023780 
#    y 0.000000 1.794540 0.000000 
#    z 0.023780 0.000000 1.760150 
# 
# From -- ./inp_files/257002.got.cif
#   From: 2010.05.17/outbox.cif.g08.bks.cpg/sg12_129_cif.got.tgz:257002.got - 2010.06.03 13:09:07.
