data_PCOD9179471
_publ_section_title
;
Structure prediction by ZEFSAII (Michael W. Deem and Ramdas Pophale) SiO2 
 PCOD9179471
Probable space group: C 2/M
;
_chemical_formula_sum "Si O2"
_cell_formula_units_Z 56
_cell_length_a 19.671618
_cell_length_b 7.408066
_cell_length_c 20.165542
_cell_angle_alpha 90.000000
_cell_angle_beta 53.903278
_cell_angle_gamma 90.000000
_cell_volume 2374.536586
_symmetry_space_group_name_H-M "C 2/M"
_symmetry_group_IT_number 12
_symmetry_cell_setting 'monoclinic'
loop_
_space_group_symop_operation_xyz
x,y,z
-x,y,-z
-x,-y,-z
x,-y,z
1/2+x,1/2+y,z
1/2-x,1/2+y,-z
1/2-x,1/2-y,-z
1/2+x,1/2-y,z
loop_
_atom_site_type_symbol
_atom_site_label
_atom_site_fract_x
_atom_site_fract_y
_atom_site_fract_z
Si Si1 0.859386 0.795287 0.776771
Si Si2 0.443227 0.792770 0.120591
Si Si3 0.539456 0.710102 0.648364
Si Si4 0.186876 0.287000 0.474660
Si Si5 0.615910 0.780542 0.085050
Si Si6 0.316737 0.778583 0.089992
Si Si7 0.335865 0.719767 0.306237
O O1 0.870847 0.797354 0.850045
O O2 0.766631 0.712439 0.824631
O O3 0.945578 0.711410 0.699326
O O4 0.853288 0.000000 0.754252
O O5 0.525181 0.718006 0.109371
O O6 0.401145 0.717091 0.078634
O O7 0.369412 0.786306 0.217409
O O8 0.465659 0.000000 0.093082
O O9 0.526960 0.500000 0.671854
O O10 0.596334 0.718117 0.549785
O O11 0.597480 0.782348 0.675211
O O12 0.177284 0.500000 0.473032
O O13 0.250000 0.250000 0.500000
O O14 0.242046 0.220251 0.381036
O O15 0.616285 0.000000 0.091562
O O16 0.679134 0.728215 0.989548
O O17 0.315933 0.000000 0.092361
O O18 0.336232 0.500000 0.306371
#
# Coordination Sequence:
#
# PCOD9179471 Si02
#       7
#     8   8   8   8   8   8   8
#     4  10  19  33  52  71  98 132 164 201 245 293
#     4  10  19  31  50  73  97 129 166 202 241 289
#     4   9  17  29  46  70  97 125 159 199 242 285
#     4   9  17  28  45  70  99 127 156 195 241 287
#     4  10  19  32  51  74  98 125 164 210 248 287
#     4   9  19  34  50  70  98 132 166 202 245 290
#     4   9  17  30  46  69  99 125 155 196 243 288
#
# _framework density 23.583549999999999
#
# number of rings (size 3 to 8) (size 9 to 14) (size 15 to 20)
#    0.000    2.571    1.429    2.143    0.000    5.143 
#    0.000    1.429    0.000    2.571    0.000    6.000 
#    0.000    0.000    0.000    0.000    0.000    0.000 
#
# Total GULP energy -156251.175578 kJ/mol
# GULP energy per Si atom -5580.399128 kJ/mol
# Density = 2.352987 g / cm^3
# Si number density = 23.583550 Si / 1000 Ang^3
#
#
#
# Elastic Constant Matrix: (Units=GPa)
#
#
# Indices 1 2 3 4 5 6 
#
# 1 66.4492 -5.4396 -4.0167 0.0014 -24.4774 0.0004
# 2 -5.4396 83.0829 -7.6864 0.0017 -2.6170 -0.0002
# 3 -4.0167 -7.6864 107.4424 0.0008 -33.9325 -0.0013
# 4 0.0014 0.0017 0.0008 11.7745 -0.0004 5.2738
# 5 -24.4774 -2.6170 -33.9325 -0.0004 41.3643 0.0003
# 6 0.0004 -0.0002 -0.0013 5.2738 0.0003 -0.7827
#
#
#
# Elastic Compliance Matrix: (Units=1/GPa)
#
#
# Indices 1 2 3 4 5 6 
#
# 1 0.023012 0.002807 0.007312 -0.000002 0.019793 -0.000003
# 2 0.002807 0.012582 0.002404 0.000000 0.004429 -0.000005
# 3 0.007312 0.002404 0.015072 0.000001 0.016843 -0.000007
# 4 -0.000002 0.000000 0.000001 0.021137 -0.000001 0.142425
# 5 0.019793 0.004429 0.016843 -0.000001 0.049985 -0.000004
# 6 -0.000003 -0.000005 -0.000007 0.142425 -0.000004 -0.317985
#
#
# Mechanical properties :
#
#
# Convention : Reuss Voigt Hill
#
# Bulk Modulus (GPa) = 13.20814 24.74324 18.97569
# Shear Modulus (GPa) = -25.50955 28.74572 1.61808
#
# Velocity S-wave (km/s) = -3.29244 3.49505 0.82921
# Velocity P-wave (km/s) = 2.97335 5.17703 2.99673
#
# Compressibility (1/GPa) = 0.07571087
#
# Stress axis : x y z
#
# Youngs Moduli (GPa) = 43.45562 79.47991 66.34797
#
# Poissons Ratio (x) = -0.22307 -0.48515
# Poissons Ratio (y) = -0.12196 -0.15948
# Poissons Ratio (z) = -0.31776 -0.19104
#
# Static dielectric constant tensor:
#      x y z
#    x 1.888530 0.000000 -0.056120 
#    y 0.000000 1.929740 0.000000 
#    z -0.056120 0.000000 1.913900 
# 
# From -- ./inp_files/281749.got.cif
#   From: 2010.05.17/outbox.cif.g08.bks.cpg/sg12_141_cif.got.tgz:281749.got - 2010.06.03 13:09:07.
