data_PCOD9179467
_publ_section_title
;
Structure prediction by ZEFSAII (Michael W. Deem and Ramdas Pophale) SiO2 
 PCOD9179467
Probable space group: C 2/M
;
_chemical_formula_sum "Si O2"
_cell_formula_units_Z 64
_cell_length_a 29.606068
_cell_length_b 8.868707
_cell_length_c 16.192870
_cell_angle_alpha 90.000000
_cell_angle_beta 117.081528
_cell_angle_gamma 90.000000
_cell_volume 3785.561678
_symmetry_space_group_name_H-M "C 2/M"
_symmetry_group_IT_number 12
_symmetry_cell_setting 'monoclinic'
loop_
_space_group_symop_operation_xyz
x,y,z
-x,y,-z
-x,-y,-z
x,-y,z
1/2+x,1/2+y,z
1/2-x,1/2+y,-z
1/2-x,1/2-y,-z
1/2+x,1/2-y,z
loop_
_atom_site_type_symbol
_atom_site_label
_atom_site_fract_x
_atom_site_fract_y
_atom_site_fract_z
Si Si1 0.228922 0.318559 0.107259
Si Si2 0.068541 0.318162 0.729886
Si Si3 0.357216 0.680694 0.640793
Si Si4 0.962581 0.179483 0.644550
Si Si5 0.674374 0.181835 0.893884
Si Si6 0.586033 0.178980 0.554789
Si Si7 0.706268 0.180849 0.274492
Si Si8 0.805902 0.679139 0.439419
O O1 0.233902 0.500000 0.109781
O O2 0.283598 0.247524 0.133163
O O3 0.208605 0.275404 0.180171
O O4 0.192243 0.274260 0.000822
O O5 0.066012 0.500000 0.730178
O O6 0.117961 0.269689 0.822313
O O7 0.076591 0.273506 0.640708
O O8 0.015469 0.251451 0.715172
O O9 0.352304 0.500000 0.635428
O O10 0.414528 0.721157 0.661827
O O11 0.339792 0.746611 0.713321
O O12 0.320940 0.751146 0.540154
O O13 0.948140 0.237434 0.540969
O O14 0.966716 0.000000 0.646943
O O15 0.676141 0.000000 0.889826
O O16 0.644588 0.201871 0.577212
O O17 0.575451 0.000000 0.539501
O O18 0.757528 0.241046 0.359960
O O19 0.704157 0.000000 0.278775
O O20 0.796961 0.500000 0.440027
#
# Coordination Sequence:
#
# PCOD9179467 Si02
#       8
#     8   8   8   8   8   8   8   8
#     4   9  19  34  52  76 104 129 156 196 241 286
#     4  10  19  31  50  73  97 127 162 197 234 284
#     4  10  21  36  50  67  95 130 167 205 243 284
#     4  10  21  34  48  68  95 127 163 203 242 280
#     4   9  18  34  54  76 102 130 159 192 237 291
#     4   9  18  31  47  70  99 130 162 193 230 282
#     4  11  21  32  49  73  99 128 163 201 242 287
#     4  10  19  32  50  72 100 132 164 198 238 286
#
# _framework density 16.906341000000001
#
# number of rings (size 3 to 8) (size 9 to 14) (size 15 to 20)
#    0.000    2.250    0.000    3.000    0.000    6.500 
#    0.000    0.000    0.000    0.750    0.000    5.250 
#    0.000    0.000    0.000    0.000    0.000    0.000 
#
# Total GULP energy -178644.070971 kJ/mol
# GULP energy per Si atom -5582.627218 kJ/mol
# Density = 1.686786 g / cm^3
# Si number density = 16.906341 Si / 1000 Ang^3
#
#
#
# Elastic Constant Matrix: (Units=GPa)
#
#
# Indices 1 2 3 4 5 6 
#
# 1 109.4805 37.7980 83.1967 0.0000 0.9120 0.0000
# 2 37.7980 29.4930 30.9889 0.0000 -1.3618 0.0000
# 3 83.1967 30.9889 92.2470 0.0000 1.3351 0.0000
# 4 0.0000 0.0000 0.0000 16.7774 0.0000 2.6293
# 5 0.9120 -1.3618 1.3351 0.0000 32.6014 0.0000
# 6 0.0000 0.0000 0.0000 2.6293 0.0000 29.5913
#
#
#
# Elastic Compliance Matrix: (Units=1/GPa)
#
#
# Indices 1 2 3 4 5 6 
#
# 1 0.034072 -0.017650 -0.024790 0.000000 -0.000675 0.000000
# 2 -0.017650 0.061824 -0.004898 0.000000 0.003277 0.000000
# 3 -0.024790 -0.004898 0.034857 0.000000 -0.000939 0.000000
# 4 0.000000 0.000000 0.000000 0.060446 0.000000 -0.005371
# 5 -0.000675 0.003277 -0.000939 0.000000 0.030868 0.000000
# 6 0.000000 0.000000 0.000000 -0.005371 0.000000 0.034271
#
#
# Mechanical properties :
#
#
# Convention : Reuss Voigt Hill
#
# Bulk Modulus (GPa) = 27.71818 59.46531 43.59175
# Shear Modulus (GPa) = 13.77261 21.07649 17.42455
#
# Velocity S-wave (km/s) = 2.85729 3.53464 3.21386
# Velocity P-wave (km/s) = 5.22649 7.20472 6.29381
#
# Compressibility (1/GPa) = 0.03607740
#
# Stress axis : x y z
#
# Youngs Moduli (GPa) = 29.34978 16.17492 28.68835
#
# Poissons Ratio (x) = 0.28549 0.71119
# Poissons Ratio (y) = 0.51802 0.14051
# Poissons Ratio (z) = 0.72758 0.07922
#
# Static dielectric constant tensor:
#      x y z
#    x 1.576650 0.000000 -0.004500 
#    y 0.000000 1.564170 0.000000 
#    z -0.004500 0.000000 1.556740 
# 
# From -- ./inp_files/249132.got.cif
#   From: 2010.05.17/outbox.cif.g08.bks.cpg/sg12_125_cif.got.tgz:249132.got - 2010.06.03 13:09:07.
