data_PCOD9179623
_publ_section_title
;
Structure prediction by ZEFSAII (Michael W. Deem and Ramdas Pophale) SiO2 
 PCOD9179623
Probable space group: C 2/M
;
_chemical_formula_sum "Si O2"
_cell_formula_units_Z 56
_cell_length_a 25.751598
_cell_length_b 8.755276
_cell_length_c 26.284229
_cell_angle_alpha 90.000000
_cell_angle_beta 145.373737
_cell_angle_gamma 90.000000
_cell_volume 3367.336680
_symmetry_space_group_name_H-M "C 2/M"
_symmetry_group_IT_number 12
_symmetry_cell_setting 'monoclinic'
loop_
_space_group_symop_operation_xyz
x,y,z
-x,y,-z
-x,-y,-z
x,-y,z
1/2+x,1/2+y,z
1/2-x,1/2+y,-z
1/2-x,1/2-y,-z
1/2+x,1/2-y,z
loop_
_atom_site_type_symbol
_atom_site_label
_atom_site_fract_x
_atom_site_fract_y
_atom_site_fract_z
Si Si1 0.215403 0.816052 0.088063
Si Si2 0.224672 0.683585 0.402621
Si Si3 0.396689 0.682354 0.604998
Si Si4 0.116499 0.315860 0.217991
Si Si5 0.915457 0.316885 0.215717
Si Si6 0.569410 0.316757 0.885260
Si Si7 0.394294 0.815978 0.906113
O O1 0.319725 0.767227 0.163364
O O2 0.169258 0.751421 0.101465
O O3 0.213626 0.000000 0.089222
O O4 0.153260 0.771191 0.989512
O O5 0.215200 0.500000 0.401226
O O6 0.326404 0.724491 0.503122
O O7 0.154040 0.762149 0.384476
O O8 0.196134 0.722402 0.322318
O O9 0.406128 0.500000 0.614053
O O10 0.495641 0.757540 0.683074
O O11 0.104487 0.500000 0.208945
O O12 0.133236 0.270095 0.173286
O O13 0.023514 0.241820 0.163693
O O14 0.917570 0.500000 0.215355
O O15 0.920946 0.253594 0.162780
O O16 0.567050 0.500000 0.879355
O O17 0.390959 0.000000 0.906831
O O18 0.500000 0.769529 0.000000
#
# Coordination Sequence:
#
# PCOD9179623 Si02
#       7
#     8   8   8   8   8   8   8
#     4  10  23  38  52  73 104 141 178 213 257 308
#     4   9  18  32  51  75 106 139 167 207 261 310
#     4  10  19  31  50  78 105 132 173 214 254 309
#     4  10  19  33  53  77 107 139 168 205 258 311
#     4  11  22  36  52  73 105 143 174 209 262 315
#     4  11  21  33  51  78 105 135 173 213 254 306
#     4  10  20  34  54  79 103 134 176 215 253 303
#
# _framework density 16.630352999999999
#
# number of rings (size 3 to 8) (size 9 to 14) (size 15 to 20)
#    0.000    1.857    2.857    1.714    0.000    3.143 
#    0.000    0.000    0.000    0.857    0.000    6.000 
#    0.000    0.000    0.000    0.000    0.000    0.000 
#
# Total GULP energy -156285.569215 kJ/mol
# GULP energy per Si atom -5581.627472 kJ/mol
# Density = 1.659250 g / cm^3
# Si number density = 16.630353 Si / 1000 Ang^3
#
#
#
# Elastic Constant Matrix: (Units=GPa)
#
#
# Indices 1 2 3 4 5 6 
#
# 1 96.4141 26.9107 70.9050 0.0000 14.7320 0.0000
# 2 26.9107 22.3524 39.1994 0.0000 2.9920 0.0000
# 3 70.9050 39.1994 159.3679 0.0000 6.3305 0.0000
# 4 0.0000 0.0000 0.0000 23.0841 0.0000 -0.4150
# 5 14.7320 2.9920 6.3305 0.0000 23.6799 0.0000
# 6 0.0000 0.0000 0.0000 -0.4150 0.0000 25.5648
#
#
#
# Elastic Compliance Matrix: (Units=1/GPa)
#
#
# Indices 1 2 3 4 5 6 
#
# 1 0.018956 -0.013126 -0.004854 0.000000 -0.008837 0.000000
# 2 -0.013126 0.088311 -0.015932 0.000000 0.001267 0.000000
# 3 -0.004854 -0.015932 0.012284 0.000000 0.001749 0.000000
# 4 0.000000 0.000000 0.000000 0.043333 0.000000 0.000703
# 5 -0.008837 0.001267 0.001749 0.000000 0.047100 0.000000
# 6 0.000000 0.000000 0.000000 0.000703 0.000000 0.039128
#
#
# Mechanical properties :
#
#
# Convention : Reuss Voigt Hill
#
# Bulk Modulus (GPa) = 19.33248 61.35163 40.34206
# Shear Modulus (GPa) = 14.96212 23.87369 19.41790
#
# Velocity S-wave (km/s) = 3.00273 3.79297 3.42075
# Velocity P-wave (km/s) = 4.86538 7.49357 6.31766
#
# Compressibility (1/GPa) = 0.05172641
#
# Stress axis : x y z
#
# Youngs Moduli (GPa) = 52.75490 11.32359 81.40818
#
# Poissons Ratio (x) = 0.14863 0.39516
# Poissons Ratio (y) = 0.69245 1.29702
# Poissons Ratio (z) = 0.25607 0.18041
#
# Static dielectric constant tensor:
#      x y z
#    x 1.516280 0.000000 -0.003260 
#    y 0.000000 1.560960 0.000000 
#    z -0.003260 0.000000 1.583000 
# 
# From -- ./inp_files/348635.got.cif
#   From: 2010.05.17/outbox.cif.g08.bks.cpg/sg12_175_cif.got.tgz:348635.got - 2010.06.03 13:09:07.
