data_PCOD9179424
_publ_section_title
;
Structure prediction by ZEFSAII (Michael W. Deem and Ramdas Pophale) SiO2 
 PCOD9179424
Probable space group: C 2/M
;
_chemical_formula_sum "Si O2"
_cell_formula_units_Z 56
_cell_length_a 17.916569
_cell_length_b 20.592755
_cell_length_c 12.217186
_cell_angle_alpha 90.000000
_cell_angle_beta 138.357751
_cell_angle_gamma 90.000000
_cell_volume 2995.164845
_symmetry_space_group_name_H-M "C 2/M"
_symmetry_group_IT_number 12
_symmetry_cell_setting 'monoclinic'
loop_
_space_group_symop_operation_xyz
x,y,z
-x,y,-z
-x,-y,-z
x,-y,z
1/2+x,1/2+y,z
1/2-x,1/2+y,-z
1/2-x,1/2-y,-z
1/2+x,1/2-y,z
loop_
_atom_site_type_symbol
_atom_site_label
_atom_site_fract_x
_atom_site_fract_y
_atom_site_fract_z
Si Si1 0.075197 0.349869 0.189300
Si Si2 0.866250 0.835569 0.836772
Si Si3 0.013016 0.374601 0.678614
Si Si4 0.633104 0.266132 0.812908
Si Si5 0.275544 0.292760 0.313420
Si Si6 0.421594 0.711059 0.685812
Si Si7 0.174813 0.574891 0.689137
O O1 0.200723 0.352024 0.277306
O O2 0.070581 0.276819 0.234473
O O3 0.027862 0.388391 0.242291
O O4 0.000000 0.357258 0.000000
O O5 0.806391 0.768023 0.805184
O O6 0.856083 0.837955 0.693052
O O7 0.796046 0.891923 0.816971
O O8 0.000000 0.835512 0.000000
O O9 0.066400 0.302279 0.725600
O O10 0.111625 0.418740 0.736177
O O11 0.905440 0.385336 0.482668
O O12 0.655698 0.300709 0.722366
O O13 0.548117 0.307913 0.793783
O O14 0.750000 0.250000 0.000000
O O15 0.354276 0.275182 0.501547
O O16 0.177940 0.500000 0.659838
#
# Coordination Sequence:
#
# PCOD9179424 Si02
#       7
#     8   8   8   8   8   8   8
#     4  10  19  31  49  78 111 146 175 209 272 337
#     4  11  20  34  52  75 112 144 178 227 283 326
#     4  10  20  36  57  77 111 140 183 239 273 323
#     4  11  20  30  49  80 116 152 179 209 274 341
#     4  11  18  31  49  76 114 155 183 211 256 339
#     4  10  20  29  48  75 111 156 185 211 258 334
#     4  11  23  39  62  82 101 143 199 248 286 313
#
# _framework density 18.6968
#
# number of rings (size 3 to 8) (size 9 to 14) (size 15 to 20)
#    0.000    1.429    1.429    9.857    4.000    0.286 
#    0.000    0.000    0.000    1.714    0.000    0.000 
#    0.000    3.429    0.000    0.143    0.000    0.000 
#
# Total GULP energy -156026.939935 kJ/mol
# GULP energy per Si atom -5572.390712 kJ/mol
# Density = 1.865425 g / cm^3
# Si number density = 18.696800 Si / 1000 Ang^3
#
#
#
# Elastic Constant Matrix: (Units=GPa)
#
#
# Indices 1 2 3 4 5 6 
#
# 1 93.4673 -5.2481 -1.9693 0.0000 -5.4847 0.0000
# 2 -5.2481 23.7062 4.5401 0.0000 7.2287 0.0000
# 3 -1.9693 4.5401 61.9855 0.0000 3.8238 0.0000
# 4 0.0000 0.0000 0.0000 3.4155 0.0000 0.0074
# 5 -5.4847 7.2287 3.8238 0.0000 42.7638 0.0000
# 6 0.0000 0.0000 0.0000 0.0074 0.0000 10.6776
#
#
#
# Elastic Compliance Matrix: (Units=1/GPa)
#
#
# Indices 1 2 3 4 5 6 
#
# 1 0.010878 0.002068 0.000130 0.000000 0.001034 0.000000
# 2 0.002068 0.045361 -0.002816 0.000000 -0.007151 0.000000
# 3 0.000130 -0.002816 0.016403 0.000000 -0.000974 0.000000
# 4 0.000000 0.000000 0.000000 0.292780 0.000000 -0.000202
# 5 0.001034 -0.007151 -0.000974 0.000000 0.024813 0.000000
# 6 0.000000 0.000000 0.000000 -0.000202 0.000000 0.093655
#
#
# Mechanical properties :
#
#
# Convention : Reuss Voigt Hill
#
# Bulk Modulus (GPa) = 14.00405 19.31160 16.65782
# Shear Modulus (GPa) = 9.82459 23.49379 16.65919
#
# Velocity S-wave (km/s) = 2.29480 3.54866 2.98823
# Velocity P-wave (km/s) = 3.81154 5.20978 4.56452
#
# Compressibility (1/GPa) = 0.07140791
#
# Stress axis : x y z
#
# Youngs Moduli (GPa) = 91.92468 22.04556 60.96346
#
# Poissons Ratio (x) = -0.04559 -0.00795
# Poissons Ratio (y) = -0.19010 0.17165
# Poissons Ratio (z) = -0.01198 0.06207
#
# Static dielectric constant tensor:
#      x y z
#    x 1.757310 0.000000 -0.001140 
#    y 0.000000 1.640810 0.000000 
#    z -0.001140 0.000000 1.699110 
# 
# From -- ./inp_files/160358.got.cif
#   From: 2010.05.17/outbox.cif.g08.bks.cpg/sg12_81_cif.got.tgz:160358.got - 2010.06.03 13:09:07.
