data_PCOD9179397
_publ_section_title
;
Structure prediction by ZEFSAII (Michael W. Deem and Ramdas Pophale) SiO2 
 PCOD9179397
Probable space group: C 2/M
;
_chemical_formula_sum "Si O2"
_cell_formula_units_Z 56
_cell_length_a 12.165620
_cell_length_b 18.624768
_cell_length_c 19.131064
_cell_angle_alpha 90.000000
_cell_angle_beta 37.774447
_cell_angle_gamma 90.000000
_cell_volume 2655.272185
_symmetry_space_group_name_H-M "C 2/M"
_symmetry_group_IT_number 12
_symmetry_cell_setting 'monoclinic'
loop_
_space_group_symop_operation_xyz
x,y,z
-x,y,-z
-x,-y,-z
x,-y,z
1/2+x,1/2+y,z
1/2-x,1/2+y,-z
1/2-x,1/2-y,-z
1/2+x,1/2-y,z
loop_
_atom_site_type_symbol
_atom_site_label
_atom_site_fract_x
_atom_site_fract_y
_atom_site_fract_z
Si Si1 0.858410 0.682535 0.789962
Si Si2 0.109563 0.852583 0.198730
Si Si3 0.902905 0.416138 0.144160
Si Si4 0.498297 0.796832 0.419778
Si Si5 0.883297 0.858092 0.439923
Si Si6 0.688854 0.080090 0.659468
Si Si7 0.732851 0.664644 0.994980
O O1 0.895107 0.766678 0.786395
O O2 0.713475 0.657552 0.920775
O O3 0.845729 0.676961 0.712114
O O4 0.035956 0.638061 0.720110
O O5 0.300359 0.881372 0.130918
O O6 0.969765 0.885386 0.324182
O O7 0.095107 0.864288 0.122876
O O8 0.941928 0.500000 0.112441
O O9 0.771228 0.411884 0.278378
O O10 0.080262 0.373506 0.077664
O O11 0.500000 0.815765 0.500000
O O12 0.310833 0.827349 0.485598
O O13 0.490602 0.710716 0.415627
O O14 0.843016 0.909852 0.524863
O O15 0.612313 0.000000 0.690012
O O16 0.750000 0.750000 0.000000
#
# Coordination Sequence:
#
# PCOD9179397 Si02
#       7
#     8   8   8   8   8   8   8
#     4   8  17  33  49  73  99 138 189 220 262 316
#     4  10  19  31  49  76 109 145 177 227 272 321
#     4  10  21  34  53  82 113 148 183 217 279 346
#     4   9  17  31  53  74 102 138 180 232 276 317
#     4   9  19  31  46  78 107 137 182 220 275 334
#     4   9  18  33  52  73 108 147 178 223 271 326
#     4   9  18  35  52  69 107 146 186 228 258 313
#
# _framework density 21.090115999999998
#
# number of rings (size 3 to 8) (size 9 to 14) (size 15 to 20)
#    0.000    2.857    0.000    1.286    4.000    1.714 
#    0.000    1.429    0.000    6.857    0.000    1.000 
#    0.000    6.857    0.000    0.714    0.000    0.000 
#
# Total GULP energy -155872.159671 kJ/mol
# GULP energy per Si atom -5566.862845 kJ/mol
# Density = 2.104211 g / cm^3
# Si number density = 21.090116 Si / 1000 Ang^3
#
#
#
# Elastic Constant Matrix: (Units=GPa)
#
#
# Indices 1 2 3 4 5 6 
#
# 1 42.1013 36.0410 34.0964 -0.0045 20.4004 0.0015
# 2 36.0410 87.8566 12.5203 -0.0047 -3.7043 0.0027
# 3 34.0964 12.5203 195.6410 -0.0161 56.5648 0.0103
# 4 -0.0045 -0.0047 -0.0161 22.6742 0.0075 -1.6515
# 5 20.4004 -3.7043 56.5648 0.0075 47.1101 -0.0027
# 6 0.0015 0.0027 0.0103 -1.6515 -0.0027 11.7388
#
#
#
# Elastic Compliance Matrix: (Units=1/GPa)
#
#
# Indices 1 2 3 4 5 6 
#
# 1 0.058684 -0.025018 -0.001088 0.000014 -0.026073 -0.000005
# 2 -0.025018 0.022387 -0.001093 -0.000006 0.013907 0.000001
# 3 -0.001088 -0.001093 0.008056 0.000008 -0.009288 -0.000008
# 4 0.000014 -0.000006 0.000008 0.044560 -0.000023 0.006269
# 5 -0.026073 0.013907 -0.009288 -0.000023 0.044763 0.000015
# 6 -0.000005 0.000001 -0.000008 0.006269 0.000015 0.086070
#
#
# Mechanical properties :
#
#
# Convention : Reuss Voigt Hill
#
# Bulk Modulus (GPa) = 28.79432 54.54604 41.67018
# Shear Modulus (GPa) = 15.12883 32.50070 23.81476
#
# Velocity S-wave (km/s) = 2.68123 3.92987 3.36399
# Velocity P-wave (km/s) = 4.82369 6.81992 5.90674
#
# Compressibility (1/GPa) = 0.03472907
#
# Stress axis : x y z
#
# Youngs Moduli (GPa) = 17.04047 44.66815 124.12447
#
# Poissons Ratio (x) = 1.11750 0.13505
# Poissons Ratio (y) = 0.42632 0.13572
# Poissons Ratio (z) = 0.01854 0.04884
#
# Static dielectric constant tensor:
#      x y z
#    x 1.833710 0.000000 0.026200 
#    y 0.000000 1.713300 0.000000 
#    z 0.026200 0.000000 1.919920 
# 
# From -- ./inp_files/271370.got.cif
#   From: 2010.05.17/outbox.cif.g08.bks.cpg/sg12_136_cif.got.tgz:271370.got - 2010.06.03 13:09:07.
