data_PCOD9179753
_publ_section_title
;
Structure prediction by ZEFSAII (Michael W. Deem and Ramdas Pophale) SiO2 
 PCOD9179753
Probable space group: C 2/M
;
_chemical_formula_sum "Si O2"
_cell_formula_units_Z 64
_cell_length_a 15.445697
_cell_length_b 27.691577
_cell_length_c 9.975431
_cell_angle_alpha 90.000000
_cell_angle_beta 63.280552
_cell_angle_gamma 90.000000
_cell_volume 3811.050782
_symmetry_space_group_name_H-M "C 2/M"
_symmetry_group_IT_number 12
_symmetry_cell_setting 'monoclinic'
loop_
_space_group_symop_operation_xyz
x,y,z
-x,y,-z
-x,-y,-z
x,-y,z
1/2+x,1/2+y,z
1/2-x,1/2+y,-z
1/2-x,1/2-y,-z
1/2+x,1/2-y,z
loop_
_atom_site_type_symbol
_atom_site_label
_atom_site_fract_x
_atom_site_fract_y
_atom_site_fract_z
Si Si1 0.052001 0.173948 0.820849
Si Si2 0.237669 0.637653 0.366093
Si Si3 0.275874 0.143267 0.303253
Si Si4 0.419880 0.317706 0.672117
Si Si5 0.418077 0.794568 0.671415
Si Si6 0.908232 0.556754 0.482533
Si Si7 0.449264 0.784472 0.177119
Si Si8 0.588690 0.056752 0.836851
O O1 0.150748 0.143584 0.752969
O O2 0.077501 0.229686 0.762774
O O3 0.972569 0.160561 0.765055
O O4 0.000000 0.173090 0.000000
O O5 0.235282 0.647333 0.527792
O O6 0.170811 0.673464 0.322302
O O7 0.185235 0.585716 0.401831
O O8 0.173952 0.153524 0.307014
O O9 0.354855 0.184122 0.221047
O O10 0.321752 0.093545 0.215543
O O11 0.500000 0.317899 0.500000
O O12 0.389327 0.261539 0.713389
O O13 0.500000 0.796278 0.500000
O O14 0.476587 0.807769 0.766562
O O15 0.896026 0.500000 0.516806
O O16 0.933233 0.562130 0.307273
O O17 0.000000 0.575898 0.500000
O O18 0.500000 0.780674 0.000000
O O19 0.611755 0.000000 0.843862
O O20 0.500000 0.069030 0.000000
#
# Coordination Sequence:
#
# PCOD9179753 Si02
#       8
#     8   8   8   8   8   8   8   8
#     4  10  22  38  50  72 106 142 174 218 258 293
#     4  11  20  32  56  77 101 137 178 211 253 310
#     4  11  20  32  55  79 101 137 177 211 252 308
#     4  10  20  34  52  73 102 138 180 215 250 295
#     4  10  19  31  51  78 103 136 174 210 253 313
#     4   9  19  35  56  81 106 131 164 209 259 311
#     4  10  21  34  50  76 111 134 168 217 263 304
#     4   9  19  36  56  79 108 134 160 206 264 313
#
# _framework density 16.793268999999999
#
# number of rings (size 3 to 8) (size 9 to 14) (size 15 to 20)
#    0.000    2.000    2.500    1.500    1.750    2.000 
#    2.250    3.750    0.000    1.500    0.000    0.000 
#    0.000    0.000    0.000    0.000    0.000    0.000 
#
# Total GULP energy -178295.505722 kJ/mol
# GULP energy per Si atom -5571.734554 kJ/mol
# Density = 1.675505 g / cm^3
# Si number density = 16.793269 Si / 1000 Ang^3
#
#
#
# Elastic Constant Matrix: (Units=GPa)
#
#
# Indices 1 2 3 4 5 6 
#
# 1 141.4270 55.3318 40.4923 0.0000 -0.2762 0.0000
# 2 55.3318 57.6638 27.3535 0.0000 -12.1768 0.0000
# 3 40.4923 27.3535 63.2648 0.0000 -4.9560 0.0000
# 4 0.0000 0.0000 0.0000 16.6109 0.0000 -3.3943
# 5 -0.2762 -12.1768 -4.9560 0.0000 26.5354 0.0000
# 6 0.0000 0.0000 0.0000 -3.3943 0.0000 21.8546
#
#
#
# Elastic Compliance Matrix: (Units=1/GPa)
#
#
# Indices 1 2 3 4 5 6 
#
# 1 0.012645 -0.011726 -0.003486 0.000000 -0.005900 0.000000
# 2 -0.011726 0.034691 -0.006349 0.000000 0.014611 0.000000
# 3 -0.003486 -0.006349 0.020857 0.000000 0.000945 0.000000
# 4 0.000000 0.000000 0.000000 0.062175 0.000000 0.009656
# 5 -0.005900 0.014611 0.000945 0.000000 0.044506 0.000000
# 6 0.000000 0.000000 0.000000 0.009656 0.000000 0.047257
#
#
# Mechanical properties :
#
#
# Convention : Reuss Voigt Hill
#
# Bulk Modulus (GPa) = 39.88707 56.52342 48.20524
# Shear Modulus (GPa) = 18.27425 22.27872 20.27648
#
# Velocity S-wave (km/s) = 3.30235 3.64627 3.47856
# Velocity P-wave (km/s) = 6.19226 7.17346 6.70084
#
# Compressibility (1/GPa) = 0.02507078
#
# Stress axis : x y z
#
# Youngs Moduli (GPa) = 79.08295 28.82575 47.94598
#
# Poissons Ratio (x) = 0.33801 0.16712
# Poissons Ratio (y) = 0.92734 0.30443
# Poissons Ratio (z) = 0.27565 0.18303
#
# Static dielectric constant tensor:
#      x y z
#    x 1.548840 0.000000 0.034840 
#    y 0.000000 1.592420 0.000000 
#    z 0.034840 0.000000 1.564340 
# 
# From -- ./inp_files/66911.got.cif
#   From: 2010.05.17/outbox.cif.g08.bks.cpg/sg12_34_cif.got.tgz:66911.got - 2010.06.03 13:09:07.
