data_PCOD9179042
_publ_section_title
;
Structure prediction by ZEFSAII (Michael W. Deem and Ramdas Pophale) SiO2 
 PCOD9179042
Probable space group: C 2/M
;
_chemical_formula_sum "Si O2"
_cell_formula_units_Z 64
_cell_length_a 21.226926
_cell_length_b 7.440141
_cell_length_c 20.754945
_cell_angle_alpha 90.000000
_cell_angle_beta 102.743704
_cell_angle_gamma 90.000000
_cell_volume 3197.111064
_symmetry_space_group_name_H-M "C 2/M"
_symmetry_group_IT_number 12
_symmetry_cell_setting 'monoclinic'
loop_
_space_group_symop_operation_xyz
x,y,z
-x,y,-z
-x,-y,-z
x,-y,z
1/2+x,1/2+y,z
1/2-x,1/2+y,-z
1/2-x,1/2-y,-z
1/2+x,1/2-y,z
loop_
_atom_site_type_symbol
_atom_site_label
_atom_site_fract_x
_atom_site_fract_y
_atom_site_fract_z
Si Si1 0.553508 0.781184 0.923366
Si Si2 0.435127 0.214246 0.217183
Si Si3 0.840851 0.713971 0.570215
Si Si4 0.697921 0.715493 0.576464
Si Si5 0.592016 0.781358 0.069525
Si Si6 0.324392 0.780624 0.794123
Si Si7 0.315739 0.715641 0.283127
Si Si8 0.574486 0.780411 0.294712
O O1 0.575193 0.717878 0.858073
O O2 0.478384 0.732451 0.917866
O O3 0.555738 0.000000 0.924639
O O4 0.592701 0.721070 0.995422
O O5 0.375473 0.244720 0.250676
O O6 0.502775 0.282921 0.261386
O O7 0.443062 0.000000 0.212804
O O8 0.838471 0.500000 0.578745
O O9 0.770343 0.784160 0.576606
O O10 0.846168 0.745124 0.495286
O O11 0.896559 0.780373 0.630326
O O12 0.702211 0.500000 0.580861
O O13 0.676201 0.781322 0.641531
O O14 0.647369 0.720903 0.130804
O O15 0.593626 0.000000 0.069513
O O16 0.252555 0.718925 0.760725
O O17 0.374800 0.729149 0.749562
O O18 0.323587 0.000000 0.794423
O O19 0.310615 0.500000 0.285302
O O20 0.572717 0.000000 0.294721
#
# Coordination Sequence:
#
# PCOD9179042 Si02
#       8
#     8   8   8   8   8   8   8   8
#     4   8  13  22  39  68  99 119 143 191 243 271
#     4  10  19  31  48  70  98 126 152 190 237 277
#     4   9  16  28  49  73  92 111 147 198 238 269
#     4   9  17  30  47  68  93 120 150 187 232 276
#     4   8  12  20  40  70  96 115 147 196 238 267
#     4   9  14  25  46  69  91 119 159 197 225 264
#     4  10  20  33  48  67  95 129 159 186 224 280
#     4   9  15  27  48  72  92 116 155 198 233 265
#
# _framework density 20.018072
#
# number of rings (size 3 to 8) (size 9 to 14) (size 15 to 20)
#    0.000    3.000    2.500    0.750    0.000    0.500 
#    0.000    1.875    0.000    4.500    0.000    1.750 
#    0.000    0.000    0.000    0.000    0.000    0.000 
#
# Total GULP energy -178459.753217 kJ/mol
# GULP energy per Si atom -5576.867288 kJ/mol
# Density = 1.997251 g / cm^3
# Si number density = 20.018072 Si / 1000 Ang^3
#
#
#
# Elastic Constant Matrix: (Units=GPa)
#
#
# Indices 1 2 3 4 5 6 
#
# 1 128.6163 -0.0032 110.9661 0.0000 5.3532 0.0000
# 2 -0.0032 58.9703 4.1482 0.0000 3.0330 0.0000
# 3 110.9661 4.1482 246.2840 0.0000 13.0648 0.0000
# 4 0.0000 0.0000 0.0000 1.3700 0.0000 -4.2440
# 5 5.3532 3.0330 13.0648 0.0000 28.9775 0.0000
# 6 0.0000 0.0000 0.0000 -4.2440 0.0000 4.7278
#
#
#
# Elastic Compliance Matrix: (Units=1/GPa)
#
#
# Indices 1 2 3 4 5 6 
#
# 1 0.012730 0.000395 -0.005753 0.000000 0.000201 0.000000
# 2 0.000395 0.017071 -0.000376 0.000000 -0.001690 0.000000
# 3 -0.005753 -0.000376 0.006762 0.000000 -0.001947 0.000000
# 4 0.000000 0.000000 0.000000 -0.409896 0.000000 -0.367945
# 5 0.000201 -0.001690 -0.001947 0.000000 0.035527 0.000000
# 6 0.000000 0.000000 0.000000 -0.367945 0.000000 -0.118774
#
#
# Mechanical properties :
#
#
# Convention : Reuss Voigt Hill
#
# Bulk Modulus (GPa) = 39.84751 73.78809 56.81780
# Shear Modulus (GPa) = -11.44829 28.26570 8.40870
#
# Velocity S-wave (km/s) = -2.39403 3.76175 2.05175
# Velocity P-wave (km/s) = 3.50815 7.47050 5.83590
#
# Compressibility (1/GPa) = 0.02509567
#
# Stress axis : x y z
#
# Youngs Moduli (GPa) = 78.55276 58.57861 147.88386
#
# Poissons Ratio (x) = -0.02314 0.85079
# Poissons Ratio (y) = -0.03103 0.05558
# Poissons Ratio (z) = 0.45192 0.02202
#
# Static dielectric constant tensor:
#      x y z
#    x 1.659370 0.000000 0.018710 
#    y 0.000000 1.830350 0.000000 
#    z 0.018710 0.000000 1.734220 
# 
# From -- ./inp_files/276500.got.cif
#   From: 2010.05.17/outbox.cif.g08.bks.cpg/sg12_139_cif.got.tgz:276500.got - 2010.06.03 13:09:07.
