data_PCOD9179546
_publ_section_title
;
Structure prediction by ZEFSAII (Michael W. Deem and Ramdas Pophale) SiO2 
 PCOD9179546
Probable space group: C 2/M
;
_chemical_formula_sum "Si O2"
_cell_formula_units_Z 48
_cell_length_a 27.886763
_cell_length_b 8.961283
_cell_length_c 11.521646
_cell_angle_alpha 90.000000
_cell_angle_beta 121.185825
_cell_angle_gamma 90.000000
_cell_volume 2463.196046
_symmetry_space_group_name_H-M "C 2/M"
_symmetry_group_IT_number 12
_symmetry_cell_setting 'monoclinic'
loop_
_space_group_symop_operation_xyz
x,y,z
-x,y,-z
-x,-y,-z
x,-y,z
1/2+x,1/2+y,z
1/2-x,1/2+y,-z
1/2-x,1/2-y,-z
1/2+x,1/2-y,z
loop_
_atom_site_type_symbol
_atom_site_label
_atom_site_fract_x
_atom_site_fract_y
_atom_site_fract_z
Si Si1 0.864930 0.677947 0.822967
Si Si2 0.067576 0.679467 0.320047
Si Si3 0.666390 0.821571 0.848263
Si Si4 0.277582 0.675724 0.856956
Si Si5 0.535265 0.330151 0.923749
Si Si6 0.064131 0.681425 0.573977
O O1 0.864045 0.500000 0.827129
O O2 0.889459 0.723749 0.728050
O O3 0.804848 0.743163 0.781434
O O4 0.909362 0.739300 0.973509
O O5 0.061351 0.500000 0.306290
O O6 0.085896 0.719734 0.472575
O O7 0.006916 0.750086 0.217152
O O8 0.712242 0.799768 0.803415
O O9 0.606311 0.768307 0.726977
O O10 0.664598 0.000000 0.870911
O O11 0.689977 0.737543 0.989256
O O12 0.286990 0.500000 0.857757
O O13 0.548278 0.500000 0.906157
O O14 0.500000 0.334629 0.000000
O O15 0.063486 0.500000 0.581002
O O16 0.000000 0.732821 0.500000
#
# Coordination Sequence:
#
# PCOD9179546 Si02
#       6
#     8   8   8   8   8   8
#     4  10  19  31  50  75 104 138 178 218 260 308
#     4   9  18  32  50  76 106 137 175 217 258 310
#     4   9  19  36  56  79 106 138 175 217 263 314
#     4  10  20  34  54  79 107 137 175 221 266 309
#     4   9  17  29  46  71 105 139 169 208 259 309
#     4   9  18  33  55  80 105 136 175 214 259 317
#
# _framework density 19.486878000000001
#
# number of rings (size 3 to 8) (size 9 to 14) (size 15 to 20)
#    0.000    2.667    0.000    1.500    2.333    3.333 
#    0.000    1.667    0.000    1.000    0.000    0.000 
#    0.000    0.000    0.000    0.000    0.000    0.000 
#
# Total GULP energy -133888.376931 kJ/mol
# GULP energy per Si atom -5578.682372 kJ/mol
# Density = 1.944253 g / cm^3
# Si number density = 19.486878 Si / 1000 Ang^3
#
#
#
# Elastic Constant Matrix: (Units=GPa)
#
#
# Indices 1 2 3 4 5 6 
#
# 1 89.8292 25.2222 6.1672 0.0000 0.0947 0.0000
# 2 25.2222 34.1892 0.3299 0.0000 0.1830 0.0000
# 3 6.1672 0.3299 53.2634 0.0000 7.4052 0.0000
# 4 0.0000 0.0000 0.0000 -0.4897 0.0000 -3.1912
# 5 0.0947 0.1830 7.4052 0.0000 23.0493 0.0000
# 6 0.0000 0.0000 0.0000 -3.1912 0.0000 27.2316
#
#
#
# Elastic Compliance Matrix: (Units=1/GPa)
#
#
# Indices 1 2 3 4 5 6 
#
# 1 0.014178 -0.010447 -0.001654 0.000000 0.000556 0.000000
# 2 -0.010447 0.036949 0.001063 0.000000 -0.000592 0.000000
# 3 -0.001654 0.001063 0.019846 0.000000 -0.006378 0.000000
# 4 0.000000 0.000000 0.000000 -1.157817 0.000000 -0.135683
# 5 0.000556 -0.000592 -0.006378 0.000000 0.045437 0.000000
# 6 0.000000 0.000000 0.000000 -0.135683 0.000000 0.020822
#
#
# Mechanical properties :
#
#
# Convention : Reuss Voigt Hill
#
# Bulk Modulus (GPa) = 20.45099 26.74671 23.59885
# Shear Modulus (GPa) = -5.09056 19.66241 7.28592
#
# Velocity S-wave (km/s) = -1.61802 3.17993 1.93572
# Velocity P-wave (km/s) = 2.65083 5.21900 4.13913
#
# Compressibility (1/GPa) = 0.04889740
#
# Stress axis : x y z
#
# Youngs Moduli (GPa) = 70.52936 27.06449 50.38731
#
# Poissons Ratio (x) = 0.28274 0.08336
# Poissons Ratio (y) = 0.73681 -0.05356
# Poissons Ratio (z) = 0.11668 -0.02877
#
# Static dielectric constant tensor:
#      x y z
#    x 1.737060 0.000000 -0.017340 
#    y 0.000000 1.660450 0.000000 
#    z -0.017340 0.000000 1.663810 
# 
# From -- ./inp_files/180260.got.cif
#   From: 2010.05.17/outbox.cif.g08.bks.cpg/sg12_91_cif.got.tgz:180260.got - 2010.06.03 13:09:07.
