data_PCOD9179870
_publ_section_title
;
Structure prediction by ZEFSAII (Michael W. Deem and Ramdas Pophale) SiO2 
 PCOD9179870
Probable space group: C 2/M
;
_chemical_formula_sum "Si O2"
_cell_formula_units_Z 48
_cell_length_a 24.614785
_cell_length_b 24.603805
_cell_length_c 8.365852
_cell_angle_alpha 90.000000
_cell_angle_beta 147.516900
_cell_angle_gamma 90.000000
_cell_volume 2720.970808
_symmetry_space_group_name_H-M "C 2/M"
_symmetry_group_IT_number 12
_symmetry_cell_setting 'monoclinic'
loop_
_space_group_symop_operation_xyz
x,y,z
-x,y,-z
-x,-y,-z
x,-y,z
1/2+x,1/2+y,z
1/2-x,1/2+y,-z
1/2-x,1/2-y,-z
1/2+x,1/2-y,z
loop_
_atom_site_type_symbol
_atom_site_label
_atom_site_fract_x
_atom_site_fract_y
_atom_site_fract_z
Si Si1 0.094949 0.876105 0.120250
Si Si2 0.571826 0.216547 0.327865
Si Si3 0.900950 0.233367 0.077364
Si Si4 0.764288 0.835577 0.957498
Si Si5 0.612434 0.562637 0.848255
Si Si6 0.773575 0.811050 0.347425
O O1 0.194002 0.862883 0.470196
O O2 0.081148 0.820944 0.981915
O O3 0.108224 0.923652 0.025809
O O4 0.000000 0.884813 0.000000
O O5 0.501768 0.231443 0.306336
O O6 0.662791 0.176721 0.604727
O O7 0.628639 0.272121 0.419978
O O8 0.500000 0.200302 0.000000
O O9 0.849485 0.208003 0.108570
O O10 0.814999 0.274385 0.800226
O O11 0.810671 0.894450 0.038286
O O12 0.745511 0.826635 0.097291
O O13 0.500000 0.573107 0.500000
O O14 0.638063 0.500000 0.881928
#
# Coordination Sequence:
#
# PCOD9179870 Si02
#       6
#     8   8   8   8   8   8
#     4  11  19  33  54  78 114 146 178 225 276 324
#     4  11  20  32  51  83 119 156 183 216 268 332
#     4  10  19  31  52  74 120 152 181 211 260 328
#     4  10  24  34  54  82 113 149 191 227 272 329
#     4  10  23  41  61  80 103 141 189 241 287 324
#     4  11  20  33  48  83 116 153 184 217 267 330
#
# _framework density 17.640761999999999
#
# number of rings (size 3 to 8) (size 9 to 14) (size 15 to 20)
#    0.000    1.500    3.333    3.500    7.000    2.333 
#    0.000    0.833    0.000    0.500    0.000    1.167 
#    0.000    0.000    0.000    0.000    0.000    0.000 
#
# Total GULP energy -133899.119309 kJ/mol
# GULP energy per Si atom -5579.129971 kJ/mol
# Density = 1.760061 g / cm^3
# Si number density = 17.640762 Si / 1000 Ang^3
#
#
#
# Elastic Constant Matrix: (Units=GPa)
#
#
# Indices 1 2 3 4 5 6 
#
# 1 54.0870 24.6113 21.8983 0.0000 6.4366 0.0000
# 2 24.6113 78.5603 60.2608 0.0000 5.7231 0.0000
# 3 21.8983 60.2608 97.4097 0.0000 -5.8649 0.0000
# 4 0.0000 0.0000 0.0000 20.6508 0.0000 2.6604
# 5 6.4366 5.7231 -5.8649 0.0000 35.4809 0.0000
# 6 0.0000 0.0000 0.0000 2.6604 0.0000 17.2012
#
#
#
# Elastic Compliance Matrix: (Units=1/GPa)
#
#
# Indices 1 2 3 4 5 6 
#
# 1 0.022044 -0.005114 -0.002003 0.000000 -0.003505 0.000000
# 2 -0.005114 0.026965 -0.015896 0.000000 -0.006049 0.000000
# 3 -0.002003 -0.015896 0.020935 0.000000 0.006388 0.000000
# 4 0.000000 0.000000 0.000000 0.049409 0.000000 -0.007642
# 5 -0.003505 -0.006049 0.006388 0.000000 0.030852 0.000000
# 6 0.000000 0.000000 0.000000 -0.007642 0.000000 0.059317
#
#
# Mechanical properties :
#
#
# Convention : Reuss Voigt Hill
#
# Bulk Modulus (GPa) = 41.81050 49.28867 45.54959
# Shear Modulus (GPa) = 18.97385 22.88568 20.92976
#
# Velocity S-wave (km/s) = 3.28314 3.60574 3.44822
# Velocity P-wave (km/s) = 6.17451 6.73320 6.45990
#
# Compressibility (1/GPa) = 0.02391743
#
# Stress axis : x y z
#
# Youngs Moduli (GPa) = 45.36405 37.08465 47.76768
#
# Poissons Ratio (x) = 0.18966 0.09567
# Poissons Ratio (y) = 0.23200 0.75932
# Poissons Ratio (z) = 0.09085 0.58950
#
# Static dielectric constant tensor:
#      x y z
#    x 1.651660 0.000000 -0.034040 
#    y 0.000000 1.565400 0.000000 
#    z -0.034040 0.000000 1.644800 
# 
# From -- ./inp_files/78901.got.cif
#   From: 2010.05.17/outbox.cif.g08.bks.cpg/sg12_40_cif.got.tgz:78901.got - 2010.06.03 13:09:07.
