data_PCOD9179058
_publ_section_title
;
Structure prediction by ZEFSAII (Michael W. Deem and Ramdas Pophale) SiO2 
 PCOD9179058
Probable space group: C 2/M
;
_chemical_formula_sum "Si O2"
_cell_formula_units_Z 64
_cell_length_a 20.133646
_cell_length_b 18.868108
_cell_length_c 22.227064
_cell_angle_alpha 90.000000
_cell_angle_beta 151.411303
_cell_angle_gamma 90.000000
_cell_volume 4040.468693
_symmetry_space_group_name_H-M "C 2/M"
_symmetry_group_IT_number 12
_symmetry_cell_setting 'monoclinic'
loop_
_space_group_symop_operation_xyz
x,y,z
-x,y,-z
-x,-y,-z
x,-y,z
1/2+x,1/2+y,z
1/2-x,1/2+y,-z
1/2-x,1/2-y,-z
1/2+x,1/2-y,z
loop_
_atom_site_type_symbol
_atom_site_label
_atom_site_fract_x
_atom_site_fract_y
_atom_site_fract_z
Si Si1 0.415346 0.081024 0.634353
Si Si2 0.316242 0.784459 0.613737
Si Si3 0.590687 0.222450 0.519159
Si Si4 0.449400 0.419364 0.137638
Si Si5 0.860776 0.079960 0.928361
Si Si6 0.281625 0.921278 0.394241
Si Si7 0.373731 0.720794 0.139567
Si Si8 0.866559 0.683620 0.241628
O O1 0.330602 0.132299 0.611132
O O2 0.340683 0.081080 0.509512
O O3 0.561199 0.121472 0.740897
O O4 0.430471 0.000000 0.665685
O O5 0.250000 0.750000 0.500000
O O6 0.216771 0.765441 0.589919
O O7 0.470878 0.753066 0.747017
O O8 0.500000 0.255478 0.500000
O O9 0.651195 0.145244 0.586057
O O10 0.481956 0.207705 0.379806
O O11 0.417419 0.500000 0.130293
O O12 0.616303 0.412626 0.266450
O O13 0.390092 0.361592 0.136260
O O14 0.394139 0.409078 0.025609
O O15 0.761085 0.143528 0.829920
O O16 0.801157 0.000000 0.873561
O O17 0.000000 0.081789 0.000000
O O18 0.312156 0.000000 0.393489
O O19 0.334280 0.749242 0.174275
O O20 0.250000 0.750000 0.000000
#
# Coordination Sequence:
#
# PCOD9179058 Si02
#       8
#     8   8   8   8   8   8   8   8
#     4   9  17  30  52  74  93 124 166 212 256 299
#     4  11  18  35  53  71 102 134 168 214 260 302
#     4  11  22  33  51  74 100 138 173 212 254 305
#     4  10  19  31  48  71 101 132 166 202 247 304
#     4  10  21  33  45  65 103 147 172 199 249 305
#     4   9  17  30  47  71  98 128 165 204 244 296
#     4  11  19  32  54  76  98 133 170 215 259 295
#     4  10  20  33  50  72 101 132 173 214 251 306
#
# _framework density 15.839746999999999
#
# number of rings (size 3 to 8) (size 9 to 14) (size 15 to 20)
#    0.000    1.875    6.250    0.375    1.750    0.750 
#    0.000    0.000    0.000    0.375    0.000    0.000 
#    0.000    0.500    0.000    0.250    0.000    0.000 
#
# Total GULP energy -178273.785623 kJ/mol
# GULP energy per Si atom -5571.055801 kJ/mol
# Density = 1.580370 g / cm^3
# Si number density = 15.839747 Si / 1000 Ang^3
#
#
#
# Elastic Constant Matrix: (Units=GPa)
#
#
# Indices 1 2 3 4 5 6 
#
# 1 55.8996 27.0091 3.5827 -0.0018 13.2807 -0.0005
# 2 27.0091 82.1896 12.5449 -0.0031 0.6085 -0.0011
# 3 3.5827 12.5449 63.6644 -0.0020 2.5064 -0.0008
# 4 -0.0018 -0.0031 -0.0020 20.6103 -0.0013 6.2981
# 5 13.2807 0.6085 2.5064 -0.0013 17.7917 -0.0004
# 6 -0.0005 -0.0011 -0.0008 6.2981 -0.0004 21.9956
#
#
#
# Elastic Compliance Matrix: (Units=1/GPa)
#
#
# Indices 1 2 3 4 5 6 
#
# 1 0.026797 -0.008813 0.001010 0.000000 -0.019844 0.000000
# 2 -0.008813 0.015443 -0.002801 0.000002 0.006445 0.000000
# 3 0.001010 -0.002801 0.016319 0.000001 -0.002957 0.000000
# 4 0.000000 0.000002 0.000001 0.053172 0.000004 -0.015225
# 5 -0.019844 0.006445 -0.002957 0.000004 0.071215 0.000000
# 6 0.000000 0.000000 0.000000 -0.015225 0.000000 0.049823
#
#
# Mechanical properties :
#
#
# Convention : Reuss Voigt Hill
#
# Bulk Modulus (GPa) = 26.77329 32.00302 29.38815
# Shear Modulus (GPa) = 18.76682 22.65398 20.71040
#
# Velocity S-wave (km/s) = 3.44582 3.78590 3.61985
# Velocity P-wave (km/s) = 5.72458 6.27366 6.00540
#
# Compressibility (1/GPa) = 0.03735066
#
# Stress axis : x y z
#
# Youngs Moduli (GPa) = 37.31706 64.75424 61.27884
#
# Poissons Ratio (x) = 0.57070 -0.06188
# Poissons Ratio (y) = 0.32889 0.17163
# Poissons Ratio (z) = -0.03768 0.18136
#
# Static dielectric constant tensor:
#      x y z
#    x 1.533220 0.000000 0.002390 
#    y 0.000000 1.547940 0.000000 
#    z 0.002390 0.000000 1.569960 
# 
# From -- ./inp_files/317822.got.cif
#   From: 2010.05.17/outbox.cif.g08.bks.cpg/sg12_159_cif.got.tgz:317822.got - 2010.06.03 13:09:07.
