data_PCOD9179678
_publ_section_title
;
Structure prediction by ZEFSAII (Michael W. Deem and Ramdas Pophale) SiO2 
 PCOD9179678
Probable space group: C 2/M
;
_chemical_formula_sum "Si O2"
_cell_formula_units_Z 56
_cell_length_a 26.473995
_cell_length_b 7.531371
_cell_length_c 14.129787
_cell_angle_alpha 90.000000
_cell_angle_beta 104.386458
_cell_angle_gamma 90.000000
_cell_volume 2728.930003
_symmetry_space_group_name_H-M "C 2/M"
_symmetry_group_IT_number 12
_symmetry_cell_setting 'monoclinic'
loop_
_space_group_symop_operation_xyz
x,y,z
-x,y,-z
-x,-y,-z
x,-y,z
1/2+x,1/2+y,z
1/2-x,1/2+y,-z
1/2-x,1/2-y,-z
1/2+x,1/2-y,z
loop_
_atom_site_type_symbol
_atom_site_label
_atom_site_fract_x
_atom_site_fract_y
_atom_site_fract_z
Si Si1 0.563699 0.283207 0.129940
Si Si2 0.058852 0.784852 0.543093
Si Si3 0.169102 0.204194 0.270886
Si Si4 0.383085 0.712806 0.240895
Si Si5 0.217904 0.713048 0.696747
Si Si6 0.660235 0.207567 0.480921
Si Si7 0.552983 0.283367 0.907207
O O1 0.562832 0.500000 0.133839
O O2 0.614432 0.218201 0.209481
O O3 0.506749 0.227368 0.140835
O O4 0.566489 0.231653 0.020783
O O5 0.082528 0.722506 0.654089
O O6 0.099901 0.728372 0.482436
O O7 0.000000 0.724087 0.500000
O O8 0.058519 0.000000 0.543470
O O9 0.223863 0.283667 0.261735
O O10 0.170923 0.205931 0.385429
O O11 0.168571 0.000000 0.237436
O O12 0.387977 0.500000 0.241914
O O13 0.323498 0.752272 0.239847
O O14 0.406824 0.779042 0.153680
O O15 0.221315 0.500000 0.688235
O O16 0.193054 0.779501 0.585855
O O17 0.672308 0.000000 0.475935
O O18 0.553407 0.500000 0.906922
#
# Coordination Sequence:
#
# PCOD9179678 Si02
#       7
#     8   8   8   8   8   8   8
#     4   8  15  27  47  73  97 118 148 198 243 278
#     4   9  18  30  46  70  97 123 158 200 231 271
#     4  10  19  31  51  72  92 123 163 202 234 271
#     4   9  17  29  49  71  93 124 157 192 236 281
#     4   9  19  34  47  66  96 129 162 192 231 283
#     4  10  20  32  46  66  97 131 158 191 236 284
#     4   8  14  27  47  73  98 118 148 192 244 286
#
# _framework density 20.520862999999999
#
# number of rings (size 3 to 8) (size 9 to 14) (size 15 to 20)
#    0.000    3.000    0.000    1.714    2.000    1.429 
#    0.000    0.714    0.000    0.857    0.000    2.000 
#    0.000    0.000    0.000    0.000    0.000    0.000 
#
# Total GULP energy -156183.926375 kJ/mol
# GULP energy per Si atom -5577.997371 kJ/mol
# Density = 2.047416 g / cm^3
# Si number density = 20.520863 Si / 1000 Ang^3
#
#
#
# Elastic Constant Matrix: (Units=GPa)
#
#
# Indices 1 2 3 4 5 6 
#
# 1 159.0271 -2.7482 75.2256 0.0000 -3.2937 0.0000
# 2 -2.7482 50.7145 0.0555 0.0000 4.5130 0.0000
# 3 75.2256 0.0555 60.1286 0.0000 -7.0797 0.0000
# 4 0.0000 0.0000 0.0000 -0.1233 0.0000 -4.9617
# 5 -3.2937 4.5130 -7.0797 0.0000 30.3678 0.0000
# 6 0.0000 0.0000 0.0000 -4.9617 0.0000 14.5543
#
#
#
# Elastic Compliance Matrix: (Units=1/GPa)
#
#
# Indices 1 2 3 4 5 6 
#
# 1 0.015724 0.001153 -0.020043 0.000000 -0.003139 0.000000
# 2 0.001153 0.020075 -0.001849 0.000000 -0.003289 0.000000
# 3 -0.020043 -0.001849 0.042655 0.000000 0.008045 0.000000
# 4 0.000000 0.000000 0.000000 -0.551038 0.000000 -0.187853
# 5 -0.003139 -0.003289 0.008045 0.000000 0.034954 0.000000
# 6 0.000000 0.000000 0.000000 -0.187853 0.000000 0.004668
#
#
# Mechanical properties :
#
#
# Convention : Reuss Voigt Hill
#
# Bulk Modulus (GPa) = 27.04286 46.10401 36.57344
# Shear Modulus (GPa) = -13.18706 22.11556 4.46425
#
# Velocity S-wave (km/s) = -2.53774 3.28641 1.47655
# Velocity P-wave (km/s) = 2.14942 6.07588 4.55721
#
# Compressibility (1/GPa) = 0.03697833
#
# Stress axis : x y z
#
# Youngs Moduli (GPa) = 63.59666 49.81204 23.44390
#
# Poissons Ratio (x) = -0.05745 0.46988
# Poissons Ratio (y) = -0.07335 0.04334
# Poissons Ratio (z) = 1.27465 0.09209
#
# Static dielectric constant tensor:
#      x y z
#    x 1.740710 0.000000 0.017660 
#    y 0.000000 1.803750 0.000000 
#    z 0.017660 0.000000 1.703610 
# 
# From -- ./inp_files/237843.got.cif
#   From: 2010.05.17/outbox.cif.g08.bks.cpg/sg12_119_cif.got.tgz:237843.got - 2010.06.03 13:09:07.
