data_PCOD9179441
_publ_section_title
;
Structure prediction by ZEFSAII (Michael W. Deem and Ramdas Pophale) SiO2 
 PCOD9179441
Probable space group: C 2/M
;
_chemical_formula_sum "Si O2"
_cell_formula_units_Z 56
_cell_length_a 19.537859
_cell_length_b 20.681239
_cell_length_c 21.914491
_cell_angle_alpha 90.000000
_cell_angle_beta 157.666135
_cell_angle_gamma 90.000000
_cell_volume 3364.897763
_symmetry_space_group_name_H-M "C 2/M"
_symmetry_group_IT_number 12
_symmetry_cell_setting 'monoclinic'
loop_
_space_group_symop_operation_xyz
x,y,z
-x,y,-z
-x,-y,-z
x,-y,z
1/2+x,1/2+y,z
1/2-x,1/2+y,-z
1/2-x,1/2-y,-z
1/2+x,1/2-y,z
loop_
_atom_site_type_symbol
_atom_site_label
_atom_site_fract_x
_atom_site_fract_y
_atom_site_fract_z
Si Si1 0.856077 0.671316 0.641953
Si Si2 0.198597 0.316484 0.992109
Si Si3 0.169822 0.575574 0.487209
Si Si4 0.972422 0.773597 0.312175
Si Si5 0.126962 0.071456 0.162682
Si Si6 0.059458 0.925538 0.863955
Si Si7 0.560908 0.167895 0.615729
O O1 0.874886 0.607826 0.614795
O O2 0.644183 0.684929 0.476851
O O3 0.937820 0.728731 0.666781
O O4 0.984326 0.673019 0.807162
O O5 0.303629 0.310734 0.143002
O O6 0.291372 0.375422 0.033031
O O7 0.250000 0.250000 0.000000
O O8 0.117203 0.500000 0.447893
O O9 0.383829 0.580222 0.675928
O O10 0.077400 0.619279 0.463575
O O11 0.906370 0.725467 0.310273
O O12 0.011821 0.089308 0.126995
O O13 0.271848 0.123702 0.264151
O O14 0.208003 0.000000 0.242692
O O15 0.000000 0.065792 0.000000
O O16 0.120931 0.000000 0.913771
O O17 0.500000 0.194155 0.500000
#
# Coordination Sequence:
#
# PCOD9179441 Si02
#       7
#     8   8   8   8   8   8   8
#     4   9  18  32  51  69  92 127 166 215 259 304
#     4  10  20  32  53  73  96 134 173 218 271 308
#     4  10  19  31  50  72 101 135 173 212 253 305
#     4   9  19  34  47  69  96 123 171 218 259 304
#     4  10  22  34  45  67 103 143 183 215 244 295
#     4  10  20  34  50  72 105 140 174 218 259 305
#     4  11  21  33  49  68  97 139 181 213 250 299
#
# _framework density 16.642408
#
# number of rings (size 3 to 8) (size 9 to 14) (size 15 to 20)
#    0.000    2.143    2.857    0.429    8.000    1.143 
#    0.000    0.000    0.000    0.000    0.000    0.000 
#    0.000    2.286    0.000    9.286    0.000    0.000 
#
# Total GULP energy -155984.563457 kJ/mol
# GULP energy per Si atom -5570.877266 kJ/mol
# Density = 1.660453 g / cm^3
# Si number density = 16.642408 Si / 1000 Ang^3
#
#
#
# Elastic Constant Matrix: (Units=GPa)
#
#
# Indices 1 2 3 4 5 6 
#
# 1 43.8423 29.1268 32.6255 -0.0290 -6.1418 -0.0125
# 2 29.1268 58.7155 33.1573 -0.0490 5.9359 -0.0402
# 3 32.6255 33.1573 98.4169 -0.0111 -21.7874 -0.0250
# 4 -0.0290 -0.0490 -0.0111 25.4979 -0.0134 3.2194
# 5 -6.1418 5.9359 -21.7874 -0.0134 12.5979 -0.0099
# 6 -0.0125 -0.0402 -0.0250 3.2194 -0.0099 22.8327
#
#
#
# Elastic Compliance Matrix: (Units=1/GPa)
#
#
# Indices 1 2 3 4 5 6 
#
# 1 0.045027 -0.029487 0.004769 0.000020 0.044093 -0.000006
# 2 -0.029487 0.059513 -0.031866 0.000015 -0.097527 0.000009
# 3 0.004769 -0.031866 0.037519 0.000001 0.082226 0.000023
# 4 0.000020 0.000015 0.000001 0.039930 0.000043 -0.005630
# 5 0.044093 -0.097527 0.082226 0.000043 0.289032 0.000062
# 6 -0.000006 0.000009 0.000023 -0.005630 0.000062 0.044591
#
#
# Mechanical properties :
#
#
# Convention : Reuss Voigt Hill
#
# Bulk Modulus (GPa) = 34.61221 43.42154 39.01688
# Shear Modulus (GPa) = 7.83197 19.25671 13.54434
#
# Velocity S-wave (km/s) = 2.17169 3.40529 2.85589
# Velocity P-wave (km/s) = 5.20875 6.45049 5.86259
#
# Compressibility (1/GPa) = 0.02889154
#
# Stress axis : x y z
#
# Youngs Moduli (GPa) = 22.20895 16.80298 26.65341
#
# Poissons Ratio (x) = 0.49547 -0.12711
# Poissons Ratio (y) = 0.65488 0.84933
# Poissons Ratio (z) = -0.10592 0.53544
#
# Static dielectric constant tensor:
#      x y z
#    x 1.524710 0.000000 -0.023440 
#    y 0.000000 1.568700 -0.000010 
#    z -0.023440 -0.000010 1.603290 
# 
# From -- ./inp_files/76936.got.cif
#   From: 2010.05.17/outbox.cif.g08.bks.cpg/sg12_39_cif.got.tgz:76936.got - 2010.06.03 13:09:07.
