data_PCOD9179708
_publ_section_title
;
Structure prediction by ZEFSAII (Michael W. Deem and Ramdas Pophale) SiO2 
 PCOD9179708
Probable space group: C 2/M
;
_chemical_formula_sum "Si O2"
_cell_formula_units_Z 64
_cell_length_a 16.053648
_cell_length_b 14.877636
_cell_length_c 17.209349
_cell_angle_alpha 90.000000
_cell_angle_beta 52.124631
_cell_angle_gamma 90.000000
_cell_volume 3244.446885
_symmetry_space_group_name_H-M "C 2/M"
_symmetry_group_IT_number 12
_symmetry_cell_setting 'monoclinic'
loop_
_space_group_symop_operation_xyz
x,y,z
-x,y,-z
-x,-y,-z
x,-y,z
1/2+x,1/2+y,z
1/2-x,1/2+y,-z
1/2-x,1/2-y,-z
1/2+x,1/2-y,z
loop_
_atom_site_type_symbol
_atom_site_label
_atom_site_fract_x
_atom_site_fract_y
_atom_site_fract_z
Si Si1 0.934493 0.749434 0.965559
Si Si2 0.490769 0.828020 0.597395
Si Si3 0.648073 0.784774 0.770560
Si Si4 0.214623 0.396884 0.866087
Si Si5 0.761084 0.400485 0.717389
Si Si6 0.911184 0.203835 0.346505
Si Si7 0.778702 0.402071 0.519380
Si Si8 0.422055 0.602094 0.848933
O O1 0.892943 0.828086 0.934003
O O2 0.026474 0.700945 0.863835
O O3 0.855242 0.675498 0.045407
O O4 0.000000 0.790195 0.000000
O O5 0.500000 0.807707 0.500000
O O6 0.382212 0.880952 0.672488
O O7 0.499661 0.742832 0.648276
O O8 0.598731 0.878493 0.558856
O O9 0.712852 0.860309 0.778767
O O10 0.692143 0.687738 0.776067
O O11 0.643894 0.775772 0.680220
O O12 0.174638 0.500000 0.893053
O O13 0.329221 0.396058 0.839014
O O14 0.727123 0.500000 0.764390
O O15 0.763930 0.403521 0.621853
O O16 0.816462 0.162299 0.450706
O O17 0.970796 0.134999 0.254541
O O18 0.759297 0.500000 0.497529
O O19 0.434506 0.500000 0.870142
#
# Coordination Sequence:
#
# PCOD9179708 Si02
#       8
#     8   8   8   8   8   8   8   8
#     4   9  19  34  54  79 105 133 171 217 260 306
#     4  10  19  31  51  76 103 138 176 217 266 318
#     4   9  19  33  52  76 100 135 175 213 257 310
#     4  10  20  36  56  76 104 142 178 212 256 312
#     4   9  17  31  51  74 101 131 167 214 265 313
#     4  10  19  33  52  74 106 139 175 219 265 312
#     4   9  17  30  49  72  97 130 173 215 260 312
#     4  10  20  34  55  79 104 139 177 215 262 313
#
# _framework density 19.726012999999998
#
# number of rings (size 3 to 8) (size 9 to 14) (size 15 to 20)
#    0.000    2.500    0.000    2.250    0.000    7.000 
#    0.000    3.125    0.000   14.250    0.000    0.000 
#    0.000    0.000    0.000    0.000    0.000    0.000 
#
# Total GULP energy -178169.558594 kJ/mol
# GULP energy per Si atom -5567.798706 kJ/mol
# Density = 1.968112 g / cm^3
# Si number density = 19.726013 Si / 1000 Ang^3
#
#
#
# Elastic Constant Matrix: (Units=GPa)
#
#
# Indices 1 2 3 4 5 6 
#
# 1 82.3458 39.1588 11.5006 0.0000 1.8457 0.0000
# 2 39.1588 106.9572 25.2237 0.0000 5.2265 0.0000
# 3 11.5006 25.2237 44.5277 0.0000 -10.0201 0.0000
# 4 0.0000 0.0000 0.0000 13.2320 0.0000 -8.8648
# 5 1.8457 5.2265 -10.0201 0.0000 29.7045 0.0000
# 6 0.0000 0.0000 0.0000 -8.8648 0.0000 20.9050
#
#
#
# Elastic Compliance Matrix: (Units=1/GPa)
#
#
# Indices 1 2 3 4 5 6 
#
# 1 0.014736 -0.005152 -0.000963 0.000000 -0.000334 0.000000
# 2 -0.005152 0.013121 -0.007088 0.000000 -0.004379 0.000000
# 3 -0.000963 -0.007088 0.029235 0.000000 0.011169 0.000000
# 4 0.000000 0.000000 0.000000 0.105565 0.000000 0.044765
# 5 -0.000334 -0.004379 0.011169 0.000000 0.038224 0.000000
# 6 0.000000 0.000000 0.000000 0.044765 0.000000 0.066818
#
#
# Mechanical properties :
#
#
# Convention : Reuss Voigt Hill
#
# Bulk Modulus (GPa) = 32.58669 42.84411 37.71540
# Shear Modulus (GPa) = 16.42940 23.29812 19.86376
#
# Velocity S-wave (km/s) = 2.88910 3.44042 3.17674
# Velocity P-wave (km/s) = 5.26162 6.12770 5.71110
#
# Compressibility (1/GPa) = 0.03068737
#
# Stress axis : x y z
#
# Youngs Moduli (GPa) = 67.86254 76.21306 34.20572
#
# Poissons Ratio (x) = 0.39262 0.03294
# Poissons Ratio (y) = 0.34960 0.24244
# Poissons Ratio (z) = 0.06534 0.54018
#
# Static dielectric constant tensor:
#      x y z
#    x 1.703190 0.000000 0.012490 
#    y 0.000000 1.750050 0.000000 
#    z 0.012490 0.000000 1.720240 
# 
# From -- ./inp_files/270288.got.cif
#   From: 2010.05.17/outbox.cif.g08.bks.cpg/sg12_136_cif.got.tgz:270288.got - 2010.06.03 13:09:07.
