data_PCOD9179293
_publ_section_title
;
Structure prediction by ZEFSAII (Michael W. Deem and Ramdas Pophale) SiO2 
 PCOD9179293
Probable space group: C 2/M
;
_chemical_formula_sum "Si O2"
_cell_formula_units_Z 56
_cell_length_a 22.240532
_cell_length_b 17.838637
_cell_length_c 14.697110
_cell_angle_alpha 90.000000
_cell_angle_beta 31.819524
_cell_angle_gamma 90.000000
_cell_volume 3074.337632
_symmetry_space_group_name_H-M "C 2/M"
_symmetry_group_IT_number 12
_symmetry_cell_setting 'monoclinic'
loop_
_space_group_symop_operation_xyz
x,y,z
-x,y,-z
-x,-y,-z
x,-y,z
1/2+x,1/2+y,z
1/2-x,1/2+y,-z
1/2-x,1/2-y,-z
1/2+x,1/2-y,z
loop_
_atom_site_type_symbol
_atom_site_label
_atom_site_fract_x
_atom_site_fract_y
_atom_site_fract_z
Si Si1 0.892833 0.851741 0.447797
Si Si2 0.224168 0.338186 0.517015
Si Si3 0.607702 0.821748 0.490362
Si Si4 0.143947 0.318261 0.229172
Si Si5 0.004864 0.586917 0.884601
Si Si6 0.147697 0.855605 0.158959
Si Si7 0.744316 0.086035 0.804211
O O1 0.830926 0.873154 0.433409
O O2 0.899267 0.762682 0.460772
O O3 0.812956 0.880654 0.631917
O O4 0.022933 0.877742 0.285273
O O5 0.250000 0.250000 0.500000
O O6 0.196019 0.357810 0.448389
O O7 0.108926 0.363297 0.716437
O O8 0.645559 0.822178 0.336636
O O9 0.476399 0.850102 0.654881
O O10 0.144824 0.230155 0.200825
O O11 0.253273 0.356481 0.043475
O O12 0.020473 0.500000 0.833892
O O13 0.881351 0.619012 0.014587
O O14 0.000000 0.586815 0.000000
O O15 0.182073 0.905344 0.200446
O O16 0.721543 0.000000 0.810705
#
# Coordination Sequence:
#
# PCOD9179293 Si02
#       7
#     8   8   8   8   8   8   8
#     4  10  19  32  45  72 110 139 171 220 276 333
#     4  10  20  34  51  79 113 142 183 235 278 324
#     4   9  17  32  50  73 100 137 179 228 275 323
#     4   9  17  31  53  71  97 138 181 222 280 323
#     4  10  20  35  55  77 107 147 185 223 274 333
#     4  10  19  31  49  73 102 139 180 220 271 333
#     4  11  21  33  53  78 106 144 179 218 271 328
#
# _framework density 18.215306000000002
#
# number of rings (size 3 to 8) (size 9 to 14) (size 15 to 20)
#    0.000    2.143    2.857    1.286    0.000    2.286 
#    0.000    0.714    0.000    0.857    0.000    4.000 
#    0.000    6.286    0.000    0.000    0.000    0.000 
#
# Total GULP energy -155956.595812 kJ/mol
# GULP energy per Si atom -5569.878422 kJ/mol
# Density = 1.817385 g / cm^3
# Si number density = 18.215306 Si / 1000 Ang^3
#
#
#
# Elastic Constant Matrix: (Units=GPa)
#
#
# Indices 1 2 3 4 5 6 
#
# 1 173.4596 -0.9140 73.3006 0.0000 -22.3088 0.0000
# 2 -0.9140 17.7686 22.7158 0.0000 -6.7027 0.0000
# 3 73.3006 22.7158 114.7621 0.0000 -22.3003 0.0000
# 4 0.0000 0.0000 0.0000 15.3667 0.0000 -6.6484
# 5 -22.3088 -6.7027 -22.3003 0.0000 32.9608 0.0000
# 6 0.0000 0.0000 0.0000 -6.6484 0.0000 2.1216
#
#
#
# Elastic Compliance Matrix: (Units=1/GPa)
#
#
# Indices 1 2 3 4 5 6 
#
# 1 0.009556 0.011731 -0.007720 0.000000 0.003630 0.000000
# 2 0.011731 0.090798 -0.023412 0.000000 0.010563 0.000000
# 3 -0.007720 -0.023412 0.018812 0.000000 0.002741 0.000000
# 4 0.000000 0.000000 0.000000 -0.182909 0.000000 -0.573177
# 5 0.003630 0.010563 0.002741 0.000000 0.036799 0.000000
# 6 0.000000 0.000000 0.000000 -0.573177 0.000000 -1.324807
#
#
# Mechanical properties :
#
#
# Convention : Reuss Voigt Hill
#
# Bulk Modulus (GPa) = 12.44372 55.13281 33.78826
# Shear Modulus (GPa) = -3.88754 24.14900 10.13073
#
# Velocity S-wave (km/s) = -1.46248 3.64504 2.36088
# Velocity P-wave (km/s) = 1.99862 6.93167 5.10111
#
# Compressibility (1/GPa) = 0.08036185
#
# Stress axis : x y z
#
# Youngs Moduli (GPa) = 104.64500 11.01346 53.15874
#
# Poissons Ratio (x) = -0.12919 0.41040
# Poissons Ratio (y) = -1.22755 1.24457
# Poissons Ratio (z) = 0.80788 0.25785
#
# Static dielectric constant tensor:
#      x y z
#    x 1.673110 0.000000 -0.033200 
#    y 0.000000 1.647560 0.000000 
#    z -0.033200 0.000000 1.634000 
# 
# From -- ./inp_files/169503.got.cif
#   From: 2010.05.17/outbox.cif.g08.bks.cpg/sg12_85_cif.got.tgz:169503.got - 2010.06.03 13:09:07.
