data_PCOD9179453
_publ_section_title
;
Structure prediction by ZEFSAII (Michael W. Deem and Ramdas Pophale) SiO2 
 PCOD9179453
Probable space group: C 2/M
;
_chemical_formula_sum "Si O2"
_cell_formula_units_Z 64
_cell_length_a 29.301443
_cell_length_b 8.168642
_cell_length_c 14.872485
_cell_angle_alpha 90.000000
_cell_angle_beta 92.778182
_cell_angle_gamma 90.000000
_cell_volume 3555.589951
_symmetry_space_group_name_H-M "C 2/M"
_symmetry_group_IT_number 12
_symmetry_cell_setting 'monoclinic'
loop_
_space_group_symop_operation_xyz
x,y,z
-x,y,-z
-x,-y,-z
x,-y,z
1/2+x,1/2+y,z
1/2-x,1/2+y,-z
1/2-x,1/2-y,-z
1/2+x,1/2-y,z
loop_
_atom_site_type_symbol
_atom_site_label
_atom_site_fract_x
_atom_site_fract_y
_atom_site_fract_z
Si Si1 0.010558 0.300020 0.898618
Si Si2 0.269437 0.806636 0.809190
Si Si3 0.801352 0.194096 0.483100
Si Si4 0.676985 0.807904 0.714422
Si Si5 0.657008 0.695473 0.329885
Si Si6 0.387394 0.799039 0.139840
Si Si7 0.083124 0.697743 0.193326
Si Si8 0.343070 0.800807 0.951427
O O1 0.010922 0.500000 0.899056
O O2 0.060591 0.246636 0.872066
O O3 0.968286 0.248186 0.832271
O O4 0.000000 0.249494 0.000000
O O5 0.222887 0.721031 0.776617
O O6 0.305815 0.778778 0.732132
O O7 0.295774 0.745594 0.901086
O O8 0.260696 0.000000 0.816718
O O9 0.750000 0.250000 0.500000
O O10 0.816063 0.241115 0.384619
O O11 0.833660 0.252911 0.567700
O O12 0.801301 0.000000 0.487050
O O13 0.635166 0.741207 0.769776
O O14 0.670124 0.000000 0.703676
O O15 0.664214 0.500000 0.325093
O O16 0.607692 0.736288 0.284353
O O17 0.387249 0.000000 0.139594
O O18 0.356059 0.746874 0.052329
O O19 0.083737 0.500000 0.197020
O O20 0.115775 0.745613 0.112434
O O21 0.341724 0.000000 0.951422
#
# Coordination Sequence:
#
# PCOD9179453 Si02
#       8
#     8   8   8   8   8   8   8   8
#     4   9  14  25  50  80 105 133 172 214 251 292
#     4  10  19  31  50  73 100 135 175 213 246 295
#     4  11  22  36  56  76  97 129 171 216 258 307
#     4  11  22  33  48  73 106 141 171 207 259 307
#     4  10  20  33  51  75 101 128 161 207 264 314
#     4   9  17  29  46  73 108 139 172 213 253 299
#     4   9  16  27  50  81 105 129 165 209 254 298
#     4   8  14  26  44  71 102 133 168 206 248 292
#
# _framework density 17.999825000000001
#
# number of rings (size 3 to 8) (size 9 to 14) (size 15 to 20)
#    0.000    2.375    2.500    2.250    0.000    2.000 
#    0.000    0.000    0.000    9.375    0.000    5.250 
#    0.000    0.000    0.000    0.000    0.000    0.000 
#
# Total GULP energy -178470.805240 kJ/mol
# GULP energy per Si atom -5577.212664 kJ/mol
# Density = 1.795886 g / cm^3
# Si number density = 17.999825 Si / 1000 Ang^3
#
#
#
# Elastic Constant Matrix: (Units=GPa)
#
#
# Indices 1 2 3 4 5 6 
#
# 1 101.1889 -0.6864 78.8221 0.0000 1.1166 0.0000
# 2 -0.6864 11.4489 13.0125 0.0000 -0.6444 0.0000
# 3 78.8221 13.0125 140.6731 0.0000 3.6019 0.0000
# 4 0.0000 0.0000 0.0000 16.3419 0.0000 6.2746
# 5 1.1166 -0.6444 3.6019 0.0000 26.1491 0.0000
# 6 0.0000 0.0000 0.0000 6.2746 0.0000 13.0077
#
#
#
# Elastic Compliance Matrix: (Units=1/GPa)
#
#
# Indices 1 2 3 4 5 6 
#
# 1 0.019722 0.015477 -0.012515 0.000000 0.001263 0.000000
# 2 0.015477 0.110103 -0.018976 0.000000 0.004666 0.000000
# 3 -0.012515 -0.018976 0.015931 0.000000 -0.002128 0.000000
# 4 0.000000 0.000000 0.000000 0.075102 0.000000 -0.036228
# 5 0.001263 0.004666 -0.002128 0.000000 0.038596 0.000000
# 6 0.000000 0.000000 0.000000 -0.036228 0.000000 0.094353
#
#
# Mechanical properties :
#
#
# Convention : Reuss Voigt Hill
#
# Bulk Modulus (GPa) = 8.79290 48.40081 28.59685
# Shear Modulus (GPa) = 11.79956 21.91059 16.85508
#
# Velocity S-wave (km/s) = 2.56312 3.49272 3.06339
# Velocity P-wave (km/s) = 3.69528 6.57369 5.33238
#
# Compressibility (1/GPa) = 0.11372813
#
# Stress axis : x y z
#
# Youngs Moduli (GPa) = 50.70491 9.08240 62.77183
#
# Poissons Ratio (x) = -0.14057 0.78557
# Poissons Ratio (y) = -0.78477 1.19118
# Poissons Ratio (z) = 0.63455 0.17235
#
# Static dielectric constant tensor:
#      x y z
#    x 1.590520 0.000000 0.018080 
#    y 0.000000 1.655080 0.000000 
#    z 0.018080 0.000000 1.632780 
# 
# From -- ./inp_files/248506.got.cif
#   From: 2010.05.17/outbox.cif.g08.bks.cpg/sg12_125_cif.got.tgz:248506.got - 2010.06.03 13:09:07.
