data_PCOD9179598
_publ_section_title
;
Structure prediction by ZEFSAII (Michael W. Deem and Ramdas Pophale) SiO2 
 PCOD9179598
Probable space group: C 2/M
;
_chemical_formula_sum "Si O2"
_cell_formula_units_Z 48
_cell_length_a 20.926017
_cell_length_b 7.614629
_cell_length_c 24.137220
_cell_angle_alpha 90.000000
_cell_angle_beta 39.315065
_cell_angle_gamma 90.000000
_cell_volume 2436.839869
_symmetry_space_group_name_H-M "C 2/M"
_symmetry_group_IT_number 12
_symmetry_cell_setting 'monoclinic'
loop_
_space_group_symop_operation_xyz
x,y,z
-x,y,-z
-x,-y,-z
x,-y,z
1/2+x,1/2+y,z
1/2-x,1/2+y,-z
1/2-x,1/2-y,-z
1/2+x,1/2-y,z
loop_
_atom_site_type_symbol
_atom_site_label
_atom_site_fract_x
_atom_site_fract_y
_atom_site_fract_z
Si Si1 0.367361 0.708639 0.926855
Si Si2 0.635778 0.789810 0.559152
Si Si3 0.810441 0.798277 0.265393
Si Si4 0.393217 0.215787 0.546334
Si Si5 0.546773 0.205492 0.731077
Si Si6 0.488941 0.715461 0.070799
O O1 0.378592 0.500000 0.918745
O O2 0.435056 0.776964 0.830618
O O3 0.421125 0.770940 0.947816
O O4 0.250000 0.750000 0.000000
O O5 0.750000 0.750000 0.500000
O O6 0.616096 0.722272 0.510752
O O7 0.564647 0.726968 0.657032
O O8 0.623464 0.000000 0.564176
O O9 0.702372 0.721078 0.353663
O O10 0.877545 0.795914 0.276372
O O11 0.884438 0.722247 0.169060
O O12 0.792300 0.000000 0.261110
O O13 0.500000 0.265907 0.500000
O O14 0.388229 0.000000 0.549299
O O15 0.574210 0.000000 0.713512
O O16 0.488029 0.500000 0.071678
O O17 0.500000 0.771609 0.000000
#
# Coordination Sequence:
#
# PCOD9179598 Si02
#       6
#     8   8   8   8   8   8
#     4  10  20  35  55  77 104 134 163 205 255 300
#     4  10  19  31  51  76 100 129 169 211 248 294
#     4   9  16  29  51  72  95 132 168 205 252 297
#     4   9  17  30  47  72 101 129 165 209 254 294
#     4  10  19  31  50  77 102 131 169 207 248 298
#     4   8  15  29  49  75  97 122 165 209 246 288
#
# _framework density 19.697641000000001
#
# number of rings (size 3 to 8) (size 9 to 14) (size 15 to 20)
#    0.000    2.667    1.667    2.000    0.000    0.667 
#    3.000    0.000    0.000   14.500    0.000    0.000 
#    0.000    0.000    0.000    0.000    0.000    0.000 
#
# Total GULP energy -133834.907538 kJ/mol
# GULP energy per Si atom -5576.454481 kJ/mol
# Density = 1.965281 g / cm^3
# Si number density = 19.697641 Si / 1000 Ang^3
#
#
#
# Elastic Constant Matrix: (Units=GPa)
#
#
# Indices 1 2 3 4 5 6 
#
# 1 133.6613 -3.6243 118.1349 -0.0002 5.6566 0.0006
# 2 -3.6243 42.4957 -0.5222 0.0000 6.0286 0.0023
# 3 118.1349 -0.5222 210.0082 0.0000 5.8349 0.0002
# 4 -0.0002 0.0000 0.0000 12.4882 0.0000 -1.3952
# 5 5.6566 6.0286 5.8349 0.0000 38.5302 -0.0001
# 6 0.0006 0.0023 0.0002 -1.3952 -0.0001 14.7189
#
#
#
# Elastic Compliance Matrix: (Units=1/GPa)
#
#
# Indices 1 2 3 4 5 6 
#
# 1 0.014986 0.001336 -0.008395 0.000000 -0.001138 -0.000001
# 2 0.001336 0.024191 -0.000583 0.000000 -0.003893 -0.000004
# 3 -0.008395 -0.000583 0.009486 0.000000 -0.000113 0.000000
# 4 0.000000 0.000000 0.000000 0.080932 0.000000 0.007671
# 5 -0.001138 -0.003893 -0.000113 0.000000 0.026747 0.000001
# 6 -0.000001 -0.000004 0.000000 0.007671 0.000001 0.068667
#
#
# Mechanical properties :
#
#
# Convention : Reuss Voigt Hill
#
# Bulk Modulus (GPa) = 29.95954 68.23800 49.09877
# Shear Modulus (GPa) = 19.88713 31.29257 25.58985
#
# Velocity S-wave (km/s) = 3.18090 3.99011 3.60826
# Velocity P-wave (km/s) = 5.36037 7.47970 6.50690
#
# Compressibility (1/GPa) = 0.03337835
#
# Stress axis : x y z
#
# Youngs Moduli (GPa) = 66.73016 41.33796 105.42131
#
# Poissons Ratio (x) = -0.05524 0.88500
# Poissons Ratio (y) = -0.08917 0.06151
# Poissons Ratio (z) = 0.56019 0.02412
#
# Static dielectric constant tensor:
#      x y z
#    x 1.663920 0.000000 0.002440 
#    y 0.000000 1.768800 0.000000 
#    z 0.002440 0.000000 1.716900 
# 
# From -- ./inp_files/345389.got.cif
#   From: 2010.05.17/outbox.cif.g08.bks.cpg/sg12_173_cif.got.tgz:345389.got - 2010.06.03 13:09:07.
