data_PCOD9179735
_publ_section_title
;
Structure prediction by ZEFSAII (Michael W. Deem and Ramdas Pophale) SiO2 
 PCOD9179735
Probable space group: C 2/M
;
_chemical_formula_sum "Si O2"
_cell_formula_units_Z 56
_cell_length_a 22.404922
_cell_length_b 14.056369
_cell_length_c 14.314221
_cell_angle_alpha 90.000000
_cell_angle_beta 137.134421
_cell_angle_gamma 90.000000
_cell_volume 3066.708032
_symmetry_space_group_name_H-M "C 2/M"
_symmetry_group_IT_number 12
_symmetry_cell_setting 'monoclinic'
loop_
_space_group_symop_operation_xyz
x,y,z
-x,y,-z
-x,-y,-z
x,-y,z
1/2+x,1/2+y,z
1/2-x,1/2+y,-z
1/2-x,1/2-y,-z
1/2+x,1/2-y,z
loop_
_atom_site_type_symbol
_atom_site_label
_atom_site_fract_x
_atom_site_fract_y
_atom_site_fract_z
Si Si1 0.179307 0.886644 0.087495
Si Si2 0.981288 0.790986 0.182175
Si Si3 0.191316 0.388753 0.434677
Si Si4 0.358494 0.384365 0.740006
Si Si5 0.880523 0.389110 0.317959
Si Si6 0.454301 0.820382 0.588744
Si Si7 0.034827 0.611580 0.143938
O O1 0.160544 0.856830 0.174114
O O2 0.280468 0.868576 0.178404
O O3 0.165301 0.000000 0.068469
O O4 0.112008 0.837920 0.939926
O O5 0.050085 0.845759 0.194568
O O6 0.021036 0.778093 0.331368
O O7 0.978921 0.682604 0.142772
O O8 0.209305 0.500000 0.442816
O O9 0.281260 0.348927 0.581028
O O10 0.116721 0.372852 0.427685
O O11 0.137007 0.358893 0.279765
O O12 0.359539 0.500000 0.740056
O O13 0.884615 0.500000 0.354738
O O14 0.908968 0.321161 0.435754
O O15 0.953782 0.374348 0.323242
O O16 0.027154 0.500000 0.159708
O O17 0.000000 0.623228 0.000000
#
# Coordination Sequence:
#
# PCOD9179735 Si02
#       7
#     8   8   8   8   8   8   8
#     4  10  20  35  56  81 108 140 177 221 270 314
#     4  11  22  33  49  78 111 143 170 211 264 325
#     4   9  16  29  49  74 101 131 173 216 257 307
#     4  10  19  33  53  79 109 141 177 219 263 314
#     4  10  19  35  59  81 102 133 179 232 276 309
#     4  10  19  31  51  77 105 134 169 215 270 316
#     4   9  18  31  45  65  99 142 177 209 253 309
#
# _framework density 18.260622999999999
#
# number of rings (size 3 to 8) (size 9 to 14) (size 15 to 20)
#    0.000    2.143    1.429    3.429    0.000    5.143 
#    2.571    0.000    0.000    0.000    0.000    8.000 
#    0.000    0.000    0.000    0.000    0.000    0.000 
#
# Total GULP energy -155921.722346 kJ/mol
# GULP energy per Si atom -5568.632941 kJ/mol
# Density = 1.821906 g / cm^3
# Si number density = 18.260623 Si / 1000 Ang^3
#
#
#
# Elastic Constant Matrix: (Units=GPa)
#
#
# Indices 1 2 3 4 5 6 
#
# 1 47.2814 3.5154 19.4366 0.0000 17.0832 0.0000
# 2 3.5154 33.5284 22.7512 0.0000 5.1288 0.0000
# 3 19.4366 22.7512 92.7444 0.0000 17.6168 0.0000
# 4 0.0000 0.0000 0.0000 35.1482 0.0000 3.3581
# 5 17.0832 5.1288 17.6168 0.0000 30.1516 0.0000
# 6 0.0000 0.0000 0.0000 3.3581 0.0000 15.2639
#
#
#
# Elastic Compliance Matrix: (Units=1/GPa)
#
#
# Indices 1 2 3 4 5 6 
#
# 1 0.027457 0.001628 -0.003539 0.000000 -0.013766 0.000000
# 2 0.001628 0.035909 -0.008790 0.000000 -0.001895 0.000000
# 3 -0.003539 -0.008790 0.014640 0.000000 -0.005054 0.000000
# 4 0.000000 0.000000 0.000000 0.029062 0.000000 -0.006394
# 5 -0.013766 -0.001895 -0.005054 0.000000 0.044240 0.000000
# 6 0.000000 0.000000 0.000000 -0.006394 0.000000 0.066921
#
#
# Mechanical properties :
#
#
# Convention : Reuss Voigt Hill
#
# Bulk Modulus (GPa) = 17.66615 29.44007 23.55311
# Shear Modulus (GPa) = 19.34232 24.63613 21.98923
#
# Velocity S-wave (km/s) = 3.25812 3.67705 3.47391
# Velocity P-wave (km/s) = 4.88357 5.84677 5.38674
#
# Compressibility (1/GPa) = 0.05660544
#
# Stress axis : x y z
#
# Youngs Moduli (GPa) = 36.41993 27.84783 68.30468
#
# Poissons Ratio (x) = -0.04535 0.24172
# Poissons Ratio (y) = -0.05930 0.60042
# Poissons Ratio (z) = 0.12889 0.24479
#
# Static dielectric constant tensor:
#      x y z
#    x 1.625070 0.000000 -0.027900 
#    y 0.000000 1.644860 0.000000 
#    z -0.027900 0.000000 1.705960 
# 
# From -- ./inp_files/240453.got.cif
#   From: 2010.05.17/outbox.cif.g08.bks.cpg/sg12_121_cif.got.tgz:240453.got - 2010.06.03 13:09:07.
