data_PCOD9179157
_publ_section_title
;
Structure prediction by ZEFSAII (Michael W. Deem and Ramdas Pophale) SiO2 
 PCOD9179157
Probable space group: C 2/M
;
_chemical_formula_sum "Si O2"
_cell_formula_units_Z 56
_cell_length_a 11.575020
_cell_length_b 18.485454
_cell_length_c 21.937922
_cell_angle_alpha 90.000000
_cell_angle_beta 37.980446
_cell_angle_gamma 90.000000
_cell_volume 2888.680851
_symmetry_space_group_name_H-M "C 2/M"
_symmetry_group_IT_number 12
_symmetry_cell_setting 'monoclinic'
loop_
_space_group_symop_operation_xyz
x,y,z
-x,y,-z
-x,-y,-z
x,-y,z
1/2+x,1/2+y,z
1/2-x,1/2+y,-z
1/2-x,1/2-y,-z
1/2+x,1/2-y,z
loop_
_atom_site_type_symbol
_atom_site_label
_atom_site_fract_x
_atom_site_fract_y
_atom_site_fract_z
Si Si1 0.910706 0.642917 0.747390
Si Si2 0.802000 0.186102 0.598186
Si Si3 0.930589 0.671582 0.965134
Si Si4 0.916165 0.415902 0.620490
Si Si5 0.182987 0.199281 0.265964
Si Si6 0.183797 0.839451 0.959820
Si Si7 0.728591 0.656333 0.583707
O O1 0.864183 0.724848 0.746510
O O2 0.837924 0.639193 0.845934
O O3 0.132351 0.633072 0.657341
O O4 0.840004 0.595589 0.720501
O O5 0.793185 0.209992 0.672050
O O6 0.778695 0.258523 0.567520
O O7 0.000000 0.152776 0.500000
O O8 0.764365 0.637873 0.992582
O O9 0.119318 0.675599 0.845579
O O10 0.855866 0.752872 0.014250
O O11 0.000000 0.637595 0.000000
O O12 0.933524 0.500000 0.599822
O O13 0.121057 0.378801 0.525054
O O14 0.781790 0.378840 0.626540
O O15 0.993822 0.151290 0.336294
O O16 0.000000 0.867088 0.000000
#
# Coordination Sequence:
#
# PCOD9179157 Si02
#       7
#     8   8   8   8   8   8   8
#     4  11  20  32  53  81 110 154 186 227 290 340
#     4  11  19  31  51  81 120 143 177 230 290 361
#     4  10  19  31  48  80 119 159 172 218 293 360
#     4  11  22  39  55  75 113 156 207 241 272 327
#     4  11  19  31  53  83 117 147 180 229 291 364
#     4  10  19  31  49  77 119 151 182 224 280 357
#     4  10  20  33  52  79 111 152 189 233 287 336
#
# _framework density 19.386012000000001
#
# number of rings (size 3 to 8) (size 9 to 14) (size 15 to 20)
#    0.000    1.429    7.143    1.714    0.000    3.429 
#    0.000    0.000    0.000    5.143    0.000    0.000 
#    0.000    4.000    0.000    0.000    0.000    0.000 
#
# Total GULP energy -155925.339311 kJ/mol
# GULP energy per Si atom -5568.762118 kJ/mol
# Density = 1.934189 g / cm^3
# Si number density = 19.386012 Si / 1000 Ang^3
#
#
#
# Elastic Constant Matrix: (Units=GPa)
#
#
# Indices 1 2 3 4 5 6 
#
# 1 118.0531 9.6838 34.9476 0.0001 10.5025 -0.0003
# 2 9.6838 18.5503 3.3662 -0.0014 -5.4728 -0.0010
# 3 34.9476 3.3662 72.7010 -0.0035 7.1309 -0.0016
# 4 0.0001 -0.0014 -0.0035 -2.0208 -0.0001 -3.9264
# 5 10.5025 -5.4728 7.1309 -0.0001 39.6151 0.0014
# 6 -0.0003 -0.0010 -0.0016 -3.9264 0.0014 -2.0465
#
#
#
# Elastic Compliance Matrix: (Units=1/GPa)
#
#
# Indices 1 2 3 4 5 6 
#
# 1 0.010502 -0.005464 -0.004528 -0.000003 -0.002724 0.000008
# 2 -0.005464 0.059891 -0.001120 0.000000 0.009924 -0.000021
# 3 -0.004528 -0.001120 0.016166 0.000001 -0.001864 -0.000015
# 4 -0.000003 0.000000 0.000001 0.181408 0.000013 -0.348054
# 5 -0.002724 0.009924 -0.001864 0.000013 0.027672 -0.000010
# 6 0.000008 -0.000021 -0.000015 -0.348054 -0.000010 0.179135
#
#
# Mechanical properties :
#
#
# Convention : Reuss Voigt Hill
#
# Bulk Modulus (GPa) = 15.54362 33.92218 24.73290
# Shear Modulus (GPa) = 9.64426 17.86335 13.75380
#
# Velocity S-wave (km/s) = 2.23286 3.03884 2.66648
# Velocity P-wave (km/s) = 3.83183 5.46342 4.71868
#
# Compressibility (1/GPa) = 0.06433507
#
# Stress axis : x y z
#
# Youngs Moduli (GPa) = 95.22198 16.69696 61.85701
#
# Poissons Ratio (x) = 0.09124 0.28009
# Poissons Ratio (y) = 0.52032 0.06927
# Poissons Ratio (z) = 0.43117 0.01870
#
# Static dielectric constant tensor:
#      x y z
#    x 1.753040 0.000000 -0.009790 
#    y 0.000000 1.634400 0.000000 
#    z -0.009790 0.000000 1.740870 
# 
# From -- ./inp_files/306594.got.cif
#   From: 2010.05.17/outbox.cif.g08.bks.cpg/sg12_154_cif.got.tgz:306594.got - 2010.06.03 13:09:07.
