data_PCOD9179791
_publ_section_title
;
Structure prediction by ZEFSAII (Michael W. Deem and Ramdas Pophale) SiO2 
 PCOD9179791
Probable space group: C 2/M
;
_chemical_formula_sum "Si O2"
_cell_formula_units_Z 56
_cell_length_a 29.849469
_cell_length_b 8.664963
_cell_length_c 13.633951
_cell_angle_alpha 90.000000
_cell_angle_beta 123.176418
_cell_angle_gamma 90.000000
_cell_volume 2951.515840
_symmetry_space_group_name_H-M "C 2/M"
_symmetry_group_IT_number 12
_symmetry_cell_setting 'monoclinic'
loop_
_space_group_symop_operation_xyz
x,y,z
-x,y,-z
-x,-y,-z
x,-y,z
1/2+x,1/2+y,z
1/2-x,1/2+y,-z
1/2-x,1/2-y,-z
1/2+x,1/2-y,z
loop_
_atom_site_type_symbol
_atom_site_label
_atom_site_fract_x
_atom_site_fract_y
_atom_site_fract_z
Si Si1 0.876245 0.185366 0.206543
Si Si2 0.584809 0.186004 0.276196
Si Si3 0.696835 0.185675 0.721823
Si Si4 0.023369 0.184638 0.795502
Si Si5 0.411312 0.185016 0.943908
Si Si6 0.199500 0.686595 0.498548
Si Si7 0.312090 0.686587 0.935051
O O1 0.854031 0.253249 0.280075
O O2 0.934934 0.234719 0.239291
O O3 0.876064 0.000000 0.212636
O O4 0.835388 0.229873 0.069453
O O5 0.536252 0.251276 0.281736
O O6 0.577169 0.233376 0.153579
O O7 0.643261 0.234804 0.382910
O O8 0.582707 0.000000 0.276972
O O9 0.700021 0.236049 0.612806
O O10 0.751398 0.234597 0.842351
O O11 0.695290 0.000000 0.721036
O O12 0.022615 0.000000 0.795609
O O13 0.049180 0.242804 0.928554
O O14 0.352061 0.238990 0.904061
O O15 0.415287 0.000000 0.954332
O O16 0.201825 0.500000 0.498944
O O17 0.250000 0.750000 0.500000
O O18 0.315665 0.500000 0.931055
#
# Coordination Sequence:
#
# PCOD9179791 Si02
#       7
#     8   8   8   8   8   8   8
#     4   9  19  34  51  75 106 135 169 216 264 312
#     4  10  21  36  53  76 107 140 175 215 258 308
#     4  10  20  34  54  78 104 138 178 217 258 305
#     4  10  21  36  54  78 106 136 173 216 261 311
#     4  10  19  31  51  79 108 139 173 210 259 314
#     4  10  22  39  57  80 108 137 174 216 256 304
#     4   9  18  32  50  77 110 139 172 214 258 309
#
# _framework density 18.973302
#
# number of rings (size 3 to 8) (size 9 to 14) (size 15 to 20)
#    0.000    2.286    0.000    3.429    0.000    7.429 
#    0.000    0.714    0.000    4.286    0.000    0.000 
#    0.000    0.000    0.000    0.000    0.000    0.000 
#
# Total GULP energy -156320.789210 kJ/mol
# GULP energy per Si atom -5582.885329 kJ/mol
# Density = 1.893012 g / cm^3
# Si number density = 18.973302 Si / 1000 Ang^3
#
#
#
# Elastic Constant Matrix: (Units=GPa)
#
#
# Indices 1 2 3 4 5 6 
#
# 1 191.3646 28.5473 76.9007 0.0000 -3.0120 0.0000
# 2 28.5473 7.2869 15.6873 0.0000 -0.7135 0.0000
# 3 76.9007 15.6873 53.2623 0.0000 -5.9848 0.0000
# 4 0.0000 0.0000 0.0000 13.1016 0.0000 0.8253
# 5 -3.0120 -0.7135 -5.9848 0.0000 34.4793 0.0000
# 6 0.0000 0.0000 0.0000 0.8253 0.0000 37.2415
#
#
#
# Elastic Compliance Matrix: (Units=1/GPa)
#
#
# Indices 1 2 3 4 5 6 
#
# 1 0.014934 -0.032449 -0.012171 0.000000 -0.001479 0.000000
# 2 -0.032449 0.450162 -0.086699 0.000000 -0.008568 0.000000
# 3 -0.012171 -0.086699 0.062786 0.000000 0.008041 0.000000
# 4 0.000000 0.000000 0.000000 0.076433 0.000000 -0.001694
# 5 -0.001479 -0.008568 0.008041 0.000000 0.030092 0.000000
# 6 0.000000 0.000000 0.000000 -0.001694 0.000000 0.026889
#
#
# Mechanical properties :
#
#
# Convention : Reuss Voigt Hill
#
# Bulk Modulus (GPa) = 3.77008 54.90937 29.33973
# Shear Modulus (GPa) = 4.93901 25.68303 15.31102
#
# Velocity S-wave (km/s) = 1.61517 3.68318 2.84382
# Velocity P-wave (km/s) = 2.33875 6.86228 5.12643
#
# Compressibility (1/GPa) = 0.26524601
#
# Stress axis : x y z
#
# Youngs Moduli (GPa) = 66.96182 2.22142 15.92704
#
# Poissons Ratio (x) = 0.07208 0.19385
# Poissons Ratio (y) = 2.17282 1.38085
# Poissons Ratio (z) = 0.81499 0.19259
#
# Static dielectric constant tensor:
#      x y z
#    x 1.653720 0.000000 0.006130 
#    y 0.000000 1.640700 0.000000 
#    z 0.006130 0.000000 1.654400 
# 
# From -- ./inp_files/180643.got.cif
#   From: 2010.05.17/outbox.cif.g08.bks.cpg/sg12_91_cif.got.tgz:180643.got - 2010.06.03 13:09:07.
