data_PCOD9179617
_publ_section_title
;
Structure prediction by ZEFSAII (Michael W. Deem and Ramdas Pophale) SiO2 
 PCOD9179617
Probable space group: C 2/M
;
_chemical_formula_sum "Si O2"
_cell_formula_units_Z 48
_cell_length_a 23.696222
_cell_length_b 8.399551
_cell_length_c 27.112610
_cell_angle_alpha 90.000000
_cell_angle_beta 29.521717
_cell_angle_gamma 90.000000
_cell_volume 2659.109087
_symmetry_space_group_name_H-M "C 2/M"
_symmetry_group_IT_number 12
_symmetry_cell_setting 'monoclinic'
loop_
_space_group_symop_operation_xyz
x,y,z
-x,y,-z
-x,-y,-z
x,-y,z
1/2+x,1/2+y,z
1/2-x,1/2+y,-z
1/2-x,1/2-y,-z
1/2+x,1/2-y,z
loop_
_atom_site_type_symbol
_atom_site_label
_atom_site_fract_x
_atom_site_fract_y
_atom_site_fract_z
Si Si1 0.427980 0.808486 0.505578
Si Si2 0.172816 0.689862 0.687418
Si Si3 0.423086 0.191064 0.889559
Si Si4 0.366451 0.685285 0.389456
Si Si5 0.939040 0.683742 0.693340
Si Si6 0.199414 0.189962 0.115429
O O1 0.500000 0.777151 0.500000
O O2 0.300317 0.736817 0.607232
O O3 0.502318 0.750481 0.401512
O O4 0.414396 0.000000 0.510042
O O5 0.173964 0.500000 0.676466
O O6 0.148936 0.788506 0.656292
O O7 0.053787 0.724686 0.806807
O O8 0.387351 0.254812 0.862378
O O9 0.413984 0.000000 0.892894
O O10 0.324276 0.247395 0.002139
O O11 0.388112 0.500000 0.384621
O O12 0.250000 0.750000 0.500000
O O13 0.462246 0.793634 0.341127
O O14 0.912776 0.500000 0.703767
O O15 0.833941 0.757763 0.803916
O O16 0.196327 0.000000 0.117208
#
# Coordination Sequence:
#
# PCOD9179617 Si02
#       6
#     8   8   8   8   8   8
#     4  10  23  41  58  76 102 139 182 229 278 323
#     4  11  21  34  55  80 109 142 177 219 267 321
#     4   9  19  33  49  75 112 146 177 215 259 313
#     4  12  22  32  49  78 111 143 176 213 264 325
#     4  11  21  34  53  77 109 142 176 221 269 321
#     4  10  19  31  50  77 110 146 180 213 258 319
#
# _framework density 18.051158999999998
#
# number of rings (size 3 to 8) (size 9 to 14) (size 15 to 20)
#    0.000    1.500    3.333    3.000    0.000    2.333 
#    0.000    0.000    0.000    1.000    0.000    7.000 
#    0.000    0.000    0.000    0.000    0.000    0.000 
#
# Total GULP energy -133660.605567 kJ/mol
# GULP energy per Si atom -5569.191899 kJ/mol
# Density = 1.801007 g / cm^3
# Si number density = 18.051159 Si / 1000 Ang^3
#
#
#
# Elastic Constant Matrix: (Units=GPa)
#
#
# Indices 1 2 3 4 5 6 
#
# 1 57.3225 9.0368 50.6334 0.0003 -3.6146 -0.0006
# 2 9.0368 28.2789 25.8411 -0.0015 -1.1092 0.0002
# 3 50.6334 25.8411 167.9552 -0.0001 -6.6949 0.0001
# 4 0.0003 -0.0015 -0.0001 23.6682 0.0002 0.3446
# 5 -3.6146 -1.1092 -6.6949 0.0002 11.1398 0.0002
# 6 -0.0006 0.0002 0.0001 0.3446 0.0002 16.0339
#
#
#
# Elastic Compliance Matrix: (Units=1/GPa)
#
#
# Indices 1 2 3 4 5 6 
#
# 1 0.023946 -0.001217 -0.006892 0.000000 0.003507 0.000001
# 2 -0.001217 0.041210 -0.005969 0.000003 0.000121 -0.000001
# 3 -0.006892 -0.005969 0.009054 0.000000 0.002611 0.000000
# 4 0.000000 0.000003 0.000000 0.042264 -0.000001 -0.000908
# 5 0.003507 0.000121 0.002611 -0.000001 0.092488 -0.000001
# 6 0.000001 -0.000001 0.000000 -0.000908 -0.000001 0.062387
#
#
# Mechanical properties :
#
#
# Convention : Reuss Voigt Hill
#
# Bulk Modulus (GPa) = 21.71324 47.17545 34.44434
# Shear Modulus (GPa) = 15.88031 21.37140 18.62585
#
# Velocity S-wave (km/s) = 2.96926 3.44457 3.21571
# Velocity P-wave (km/s) = 4.87957 6.48160 5.73678
#
# Compressibility (1/GPa) = 0.04605485
#
# Stress axis : x y z
#
# Youngs Moduli (GPa) = 41.76090 24.26604 110.44721
#
# Poissons Ratio (x) = 0.02953 0.76120
# Poissons Ratio (y) = 0.05081 0.65924
# Poissons Ratio (z) = 0.28781 0.14484
#
# Static dielectric constant tensor:
#      x y z
#    x 1.583010 0.000000 -0.002630 
#    y 0.000000 1.620940 0.000000 
#    z -0.002630 0.000000 1.709170 
# 
# From -- ./inp_files/365348.got.cif
#   From: 2010.05.17/outbox.cif.g08.bks.cpg/sg12_183_cif.got.tgz:365348.got - 2010.06.03 13:09:07.
