data_PCOD9179729
_publ_section_title
;
Structure prediction by ZEFSAII (Michael W. Deem and Ramdas Pophale) SiO2 
 PCOD9179729
Probable space group: C 2/M
;
_chemical_formula_sum "Si O2"
_cell_formula_units_Z 56
_cell_length_a 21.551556
_cell_length_b 9.709323
_cell_length_c 23.690832
_cell_angle_alpha 90.000000
_cell_angle_beta 36.131142
_cell_angle_gamma 90.000000
_cell_volume 2923.017868
_symmetry_space_group_name_H-M "C 2/M"
_symmetry_group_IT_number 12
_symmetry_cell_setting 'monoclinic'
loop_
_space_group_symop_operation_xyz
x,y,z
-x,y,-z
-x,-y,-z
x,-y,z
1/2+x,1/2+y,z
1/2-x,1/2+y,-z
1/2-x,1/2-y,-z
1/2+x,1/2-y,z
loop_
_atom_site_type_symbol
_atom_site_label
_atom_site_fract_x
_atom_site_fract_y
_atom_site_fract_z
Si Si1 0.044489 0.163309 0.821673
Si Si2 0.908316 0.833617 0.025753
Si Si3 0.494892 0.666256 0.280534
Si Si4 0.829885 0.657390 0.787709
Si Si5 0.563948 0.245607 0.401024
Si Si6 0.866830 0.841474 0.476536
Si Si7 0.241473 0.340374 0.672448
O O1 0.146678 0.248710 0.764277
O O2 0.022665 0.193432 0.772251
O O3 0.065470 0.000000 0.812235
O O4 0.947160 0.197029 0.933941
O O5 0.789835 0.788685 0.125614
O O6 0.906068 0.000000 0.033819
O O7 0.000000 0.781758 0.000000
O O8 0.504924 0.500000 0.280575
O O9 0.597164 0.744953 0.228048
O O10 0.398464 0.715187 0.392059
O O11 0.830331 0.500000 0.808928
O O12 0.880198 0.657036 0.688182
O O13 0.500000 0.176691 0.500000
O O14 0.475948 0.332383 0.431986
O O15 0.657002 0.330826 0.361905
O O16 0.780356 0.781869 0.582779
O O17 0.837071 0.000000 0.490564
O O18 0.210700 0.500000 0.689432
#
# Coordination Sequence:
#
# PCOD9179729 Si02
#       7
#     8   8   8   8   8   8   8
#     4  10  21  36  53  73 100 137 176 211 251 302
#     4   9  18  34  54  75 102 135 167 201 251 311
#     4   9  19  36  54  73 101 136 172 209 253 304
#     4  10  20  34  55  79 102 133 171 211 252 296
#     4   9  17  30  50  77 107 133 163 204 255 308
#     4   8  15  30  50  72 101 136 168 201 251 312
#     4  10  19  31  51  77 103 135 173 211 252 298
#
# _framework density 19.158282
#
# number of rings (size 3 to 8) (size 9 to 14) (size 15 to 20)
#    0.000    2.714    0.000    1.286    0.000    6.000 
#    0.000    6.429    0.000    1.714    0.000    0.000 
#    0.000    0.000    0.000    0.000    0.000    0.000 
#
# Total GULP energy -155934.123352 kJ/mol
# GULP energy per Si atom -5569.075834 kJ/mol
# Density = 1.911468 g / cm^3
# Si number density = 19.158282 Si / 1000 Ang^3
#
#
#
# Elastic Constant Matrix: (Units=GPa)
#
#
# Indices 1 2 3 4 5 6 
#
# 1 51.0891 9.9231 11.6927 0.0000 13.6976 0.0000
# 2 9.9231 24.0519 15.5698 -0.0001 -0.3163 0.0000
# 3 11.6927 15.5698 96.8513 0.0000 0.6626 0.0000
# 4 0.0000 -0.0001 0.0000 19.3252 0.0000 -3.1071
# 5 13.6976 -0.3163 0.6626 0.0000 26.4309 0.0000
# 6 0.0000 0.0000 0.0000 -3.1071 0.0000 13.5897
#
#
#
# Elastic Compliance Matrix: (Units=1/GPa)
#
#
# Indices 1 2 3 4 5 6 
#
# 1 0.025322 -0.009711 -0.001406 0.000000 -0.013204 0.000000
# 2 -0.009711 0.050145 -0.006929 0.000000 0.005806 0.000000
# 3 -0.001406 -0.006929 0.011606 0.000000 0.000355 0.000000
# 4 0.000000 0.000000 0.000000 0.053721 0.000000 0.012282
# 5 -0.013204 0.005806 0.000355 0.000000 0.044738 0.000000
# 6 0.000000 0.000000 0.000000 0.012282 0.000000 0.076393
#
#
# Mechanical properties :
#
#
# Convention : Reuss Voigt Hill
#
# Bulk Modulus (GPa) = 19.61454 27.37372 23.49413
# Shear Modulus (GPa) = 15.87260 20.85625 18.36442
#
# Velocity S-wave (km/s) = 2.88149 3.30302 3.09943
# Velocity P-wave (km/s) = 4.61855 5.37269 5.00983
#
# Compressibility (1/GPa) = 0.05098259
#
# Stress axis : x y z
#
# Youngs Moduli (GPa) = 39.49207 19.94233 86.16069
#
# Poissons Ratio (x) = 0.19365 0.12111
# Poissons Ratio (y) = 0.38349 0.59697
# Poissons Ratio (z) = 0.05551 0.13817
#
# Static dielectric constant tensor:
#      x y z
#    x 1.682430 0.000000 0.028440 
#    y 0.000000 1.645100 0.000000 
#    z 0.028440 0.000000 1.690680 
# 
# From -- ./inp_files/346992.got.cif
#   From: 2010.05.17/outbox.cif.g08.bks.cpg/sg12_174_cif.got.tgz:346992.got - 2010.06.03 13:09:07.
