data_PCOD9179965
_publ_section_title
;
Structure prediction by ZEFSAII (Michael W. Deem and Ramdas Pophale) SiO2 
 PCOD9179965
Probable space group: C 2/M
;
_chemical_formula_sum "Si O2"
_cell_formula_units_Z 56
_cell_length_a 31.238640
_cell_length_b 7.872973
_cell_length_c 23.341885
_cell_angle_alpha 90.000000
_cell_angle_beta 151.835481
_cell_angle_gamma 90.000000
_cell_volume 2709.650821
_symmetry_space_group_name_H-M "C 2/M"
_symmetry_group_IT_number 12
_symmetry_cell_setting 'monoclinic'
loop_
_space_group_symop_operation_xyz
x,y,z
-x,y,-z
-x,-y,-z
x,-y,z
1/2+x,1/2+y,z
1/2-x,1/2+y,-z
1/2-x,1/2-y,-z
1/2+x,1/2-y,z
loop_
_atom_site_type_symbol
_atom_site_label
_atom_site_fract_x
_atom_site_fract_y
_atom_site_fract_z
Si Si1 0.561951 0.294254 0.988033
Si Si2 0.869563 0.793162 0.806169
Si Si3 0.625048 0.800573 0.937932
Si Si4 0.896444 0.294295 0.387505
Si Si5 0.489624 0.303051 0.300427
Si Si6 0.675815 0.703368 0.819051
Si Si7 0.670973 0.201792 0.568693
O O1 0.564315 0.500000 0.987079
O O2 0.614624 0.247170 0.108480
O O3 0.457711 0.237572 0.874737
O O4 0.603649 0.223291 0.979419
O O5 0.770668 0.732626 0.670061
O O6 0.872594 0.000000 0.807566
O O7 0.549775 0.715477 0.809477
O O8 0.623915 0.000000 0.922998
O O9 0.726238 0.730400 0.045572
O O10 0.896793 0.500000 0.388906
O O11 0.837978 0.238812 0.264231
O O12 0.859681 0.231562 0.405063
O O13 0.000000 0.236925 0.500000
O O14 0.498359 0.500000 0.325611
O O15 0.411341 0.227249 0.249609
O O16 0.588318 0.228116 0.427939
O O17 0.677558 0.500000 0.829520
O O18 0.681653 0.000000 0.588313
#
# Coordination Sequence:
#
# PCOD9179965 Si02
#       7
#     8   8   8   8   8   8   8
#     4   9  17  35  60  85 109 137 176 220 262 315
#     4   8  16  32  59  87 110 139 174 213 264 318
#     4  11  23  38  55  78 106 140 180 225 273 317
#     4  10  19  31  52  82 111 140 175 214 259 312
#     4  11  23  38  54  75 104 144 186 223 262 314
#     4  10  22  37  54  77 107 142 181 222 268 316
#     4  10  19  34  54  80 113 145 176 215 263 316
#
# _framework density 20.666869999999999
#
# number of rings (size 3 to 8) (size 9 to 14) (size 15 to 20)
#    0.000    2.143    1.429    3.000    0.000    3.714 
#    0.000    3.571    0.000    0.000    0.000    0.000 
#    0.000    0.000    0.000    0.000    0.000    0.000 
#
# Total GULP energy -156354.230417 kJ/mol
# GULP energy per Si atom -5584.079658 kJ/mol
# Density = 2.061983 g / cm^3
# Si number density = 20.666870 Si / 1000 Ang^3
#
#
#
# Elastic Constant Matrix: (Units=GPa)
#
#
# Indices 1 2 3 4 5 6 
#
# 1 33.7884 -1.3618 37.5865 0.0000 11.9542 0.0000
# 2 -1.3618 19.9389 -2.1440 0.0000 8.1524 0.0000
# 3 37.5865 -2.1440 130.9465 0.0000 31.9016 0.0000
# 4 0.0000 0.0000 0.0000 17.9115 0.0000 -5.0130
# 5 11.9542 8.1524 31.9016 0.0000 32.1645 0.0000
# 6 0.0000 0.0000 0.0000 -5.0130 0.0000 13.9210
#
#
#
# Elastic Compliance Matrix: (Units=1/GPa)
#
#
# Indices 1 2 3 4 5 6 
#
# 1 0.044447 0.004601 -0.011042 0.000000 -0.006733 0.000000
# 2 0.004601 0.059934 0.004982 0.000000 -0.021842 0.000000
# 3 -0.011042 0.004982 0.013444 0.000000 -0.010493 0.000000
# 4 0.000000 0.000000 0.000000 0.062088 0.000000 0.022358
# 5 -0.006733 -0.021842 -0.010493 0.000000 0.049536 0.000000
# 6 0.000000 0.000000 0.000000 0.022358 0.000000 0.079885
#
#
# Mechanical properties :
#
#
# Convention : Reuss Voigt Hill
#
# Bulk Modulus (GPa) = 8.70272 28.09279 18.39776
# Shear Modulus (GPa) = 14.26315 22.83894 18.55104
#
# Velocity S-wave (km/s) = 2.62991 3.32791 2.99928
# Velocity P-wave (km/s) = 3.66634 5.32816 4.57336
#
# Compressibility (1/GPa) = 0.11490654
#
# Stress axis : x y z
#
# Youngs Moduli (GPa) = 22.49869 16.68512 74.38178
#
# Poissons Ratio (x) = -0.07677 0.82134
# Poissons Ratio (y) = -0.10352 -0.37055
# Poissons Ratio (z) = 0.24844 -0.08312
#
# Static dielectric constant tensor:
#      x y z
#    x 1.727330 0.000000 0.036940 
#    y 0.000000 1.757240 0.000000 
#    z 0.036940 0.000000 1.740010 
# 
# From -- ./inp_files/329702.got.cif
#   From: 2010.05.17/outbox.cif.g08.bks.cpg/sg12_165_cif.got.tgz:329702.got - 2010.06.03 13:09:07.
