data_PCOD9179447
_publ_section_title
;
Structure prediction by ZEFSAII (Michael W. Deem and Ramdas Pophale) SiO2 
 PCOD9179447
Probable space group: C 2/M
;
_chemical_formula_sum "Si O2"
_cell_formula_units_Z 64
_cell_length_a 32.580169
_cell_length_b 8.821401
_cell_length_c 14.845418
_cell_angle_alpha 90.000000
_cell_angle_beta 117.392364
_cell_angle_gamma 90.000000
_cell_volume 3788.226970
_symmetry_space_group_name_H-M "C 2/M"
_symmetry_group_IT_number 12
_symmetry_cell_setting 'monoclinic'
loop_
_space_group_symop_operation_xyz
x,y,z
-x,y,-z
-x,-y,-z
x,-y,z
1/2+x,1/2+y,z
1/2-x,1/2+y,-z
1/2-x,1/2-y,-z
1/2+x,1/2-y,z
loop_
_atom_site_type_symbol
_atom_site_label
_atom_site_fract_x
_atom_site_fract_y
_atom_site_fract_z
Si Si1 0.968992 0.678894 0.611437
Si Si2 0.032791 0.321063 0.176003
Si Si3 0.803130 0.817084 0.457518
Si Si4 0.932829 0.817330 0.077735
Si Si5 0.883260 0.819161 0.850094
Si Si6 0.385384 0.682827 0.414030
Si Si7 0.068986 0.182749 0.718363
Si Si8 0.303844 0.181276 0.652354
O O1 0.969765 0.500000 0.593447
O O2 0.960564 0.700276 0.709877
O O3 0.928685 0.757301 0.514813
O O4 0.019156 0.749303 0.642424
O O5 0.035163 0.500000 0.158753
O O6 0.072503 0.234403 0.162831
O O7 0.981875 0.257898 0.103009
O O8 0.838386 0.767094 0.415443
O O9 0.749762 0.775140 0.385677
O O10 0.817001 0.747614 0.567770
O O11 0.805082 0.000000 0.466853
O O12 0.920873 0.772451 0.168208
O O13 0.938808 0.000000 0.081572
O O14 0.894904 0.777007 0.964954
O O15 0.838192 0.743626 0.762147
O O16 0.878892 0.000000 0.839685
O O17 0.385824 0.500000 0.416938
O O18 0.393874 0.729483 0.319205
O O19 0.065278 0.000000 0.712990
O O20 0.306905 0.000000 0.651978
#
# Coordination Sequence:
#
# PCOD9179447 Si02
#       8
#     8   8   8   8   8   8   8   8
#     4  10  20  31  44  68 101 130 155 188 232 279
#     4  10  20  32  47  70  99 129 160 195 236 281
#     4   9  19  35  53  74  99 124 152 190 236 285
#     4   9  19  34  49  67  94 128 163 198 235 275
#     4  11  21  32  49  71  95 126 162 197 235 280
#     4  10  19  31  50  72  92 121 160 196 232 276
#     4   9  18  33  50  67  91 125 163 198 230 270
#     4  10  20  34  52  74  99 125 153 189 236 286
#
# _framework density 16.894448000000001
#
# number of rings (size 3 to 8) (size 9 to 14) (size 15 to 20)
#    0.000    2.250    0.000    3.000    0.000    9.000 
#    0.000    0.000    0.000    0.750    0.000    0.000 
#    0.000    0.000    0.000    0.000    0.000    0.500 
#
# Total GULP energy -178599.647756 kJ/mol
# GULP energy per Si atom -5581.238992 kJ/mol
# Density = 1.685599 g / cm^3
# Si number density = 16.894448 Si / 1000 Ang^3
#
#
#
# Elastic Constant Matrix: (Units=GPa)
#
#
# Indices 1 2 3 4 5 6 
#
# 1 113.0235 21.4746 57.6116 0.0000 -12.9768 0.0000
# 2 21.4746 13.5097 24.2219 0.0000 -2.0814 0.0000
# 3 57.6116 24.2219 105.7498 0.0000 9.5299 0.0000
# 4 0.0000 0.0000 0.0000 21.6710 0.0000 3.8911
# 5 -12.9768 -2.0814 9.5299 0.0000 14.2233 0.0000
# 6 0.0000 0.0000 0.0000 3.8911 0.0000 18.6229
#
#
#
# Elastic Compliance Matrix: (Units=1/GPa)
#
#
# Indices 1 2 3 4 5 6 
#
# 1 0.017856 -0.006713 -0.010185 0.000000 0.022132 0.000000
# 2 -0.006713 0.154012 -0.035225 0.000000 0.040014 0.000000
# 3 -0.010185 -0.035225 0.025941 0.000000 -0.031828 0.000000
# 4 0.000000 0.000000 0.000000 0.047943 0.000000 -0.010017
# 5 0.022132 0.040014 -0.031828 0.000000 0.117681 0.000000
# 6 0.000000 0.000000 0.000000 -0.010017 0.000000 0.055790
#
#
# Mechanical properties :
#
#
# Convention : Reuss Voigt Hill
#
# Bulk Modulus (GPa) = 10.68788 48.76657 29.72723
# Shear Modulus (GPa) = 9.01458 19.50176 14.25817
#
# Velocity S-wave (km/s) = 2.31245 3.40123 2.90824
# Velocity P-wave (km/s) = 3.67013 6.65977 5.37692
#
# Compressibility (1/GPa) = 0.09356392
#
# Stress axis : x y z
#
# Youngs Moduli (GPa) = 56.00455 6.49299 38.54854
#
# Poissons Ratio (x) = 0.04359 0.39260
# Poissons Ratio (y) = 0.37595 1.35788
# Poissons Ratio (z) = 0.57038 0.22872
#
# Static dielectric constant tensor:
#      x y z
#    x 1.566720 0.000000 -0.024780 
#    y 0.000000 1.564440 0.000000 
#    z -0.024780 0.000000 1.570760 
# 
# From -- ./inp_files/248983.got.cif
#   From: 2010.05.17/outbox.cif.g08.bks.cpg/sg12_125_cif.got.tgz:248983.got - 2010.06.03 13:09:07.
