data_PCOD9179718
_publ_section_title
;
Structure prediction by ZEFSAII (Michael W. Deem and Ramdas Pophale) SiO2 
 PCOD9179718
Probable space group: C 2/M
;
_chemical_formula_sum "Si O2"
_cell_formula_units_Z 48
_cell_length_a 16.398889
_cell_length_b 7.333324
_cell_length_c 15.613438
_cell_angle_alpha 90.000000
_cell_angle_beta 109.272525
_cell_angle_gamma 90.000000
_cell_volume 1772.421984
_symmetry_space_group_name_H-M "C 2/M"
_symmetry_group_IT_number 12
_symmetry_cell_setting 'monoclinic'
loop_
_space_group_symop_operation_xyz
x,y,z
-x,y,-z
-x,-y,-z
x,-y,z
1/2+x,1/2+y,z
1/2-x,1/2+y,-z
1/2-x,1/2-y,-z
1/2+x,1/2-y,z
loop_
_atom_site_type_symbol
_atom_site_label
_atom_site_fract_x
_atom_site_fract_y
_atom_site_fract_z
Si Si1 0.265647 0.706566 0.773305
Si Si2 0.515267 0.278244 0.276087
Si Si3 0.597490 0.277058 0.054900
Si Si4 0.640657 0.721211 0.887102
Si Si5 0.150742 0.782055 0.445777
Si Si6 0.104924 0.209286 0.609818
O O1 0.282063 0.500000 0.750197
O O2 0.355069 0.784622 0.841928
O O3 0.206001 0.705588 0.838741
O O4 0.202872 0.789440 0.680533
O O5 0.517454 0.500000 0.270076
O O6 0.456949 0.224249 0.175483
O O7 0.609236 0.217710 0.342016
O O8 0.455066 0.218580 0.335643
O O9 0.597370 0.500000 0.059489
O O10 0.500000 0.222073 0.000000
O O11 0.651416 0.222899 0.988949
O O12 0.645896 0.500000 0.884273
O O13 0.250000 0.750000 0.500000
O O14 0.103173 0.709854 0.514718
O O15 0.139787 0.000000 0.441911
O O16 0.077967 0.000000 0.592797
#
# Coordination Sequence:
#
# PCOD9179718 Si02
#       6
#     8   8   8   8   8   8
#     4  10  19  31  51  76  99 124 159 205 246 282
#     4   8  15  30  53  74  90 121 168 204 230 275
#     4   9  18  31  48  73 101 129 163 200 238 284
#     4   9  17  32  54  74  95 126 162 201 243 288
#     4  10  20  33  50  74 102 129 159 197 242 290
#     4   9  18  34  54  72  94 128 167 202 236 281
#
# _framework density 27.081585
#
# number of rings (size 3 to 8) (size 9 to 14) (size 15 to 20)
#    0.000    2.833    0.000    2.500    0.000    4.000 
#    0.000    7.500    0.000    9.500    0.000    0.000 
#    0.000    0.000    0.000    0.000    0.000    0.000 
#
# Total GULP energy -134137.451484 kJ/mol
# GULP energy per Si atom -5589.060478 kJ/mol
# Density = 2.701995 g / cm^3
# Si number density = 27.081585 Si / 1000 Ang^3
#
#
#
# Elastic Constant Matrix: (Units=GPa)
#
#
# Indices 1 2 3 4 5 6 
#
# 1 78.8617 -11.3242 15.5015 0.0000 22.4105 0.0000
# 2 -11.3242 106.4584 0.5991 0.0000 0.4377 0.0000
# 3 15.5015 0.5991 197.4915 0.0000 27.8520 0.0000
# 4 0.0000 0.0000 0.0000 2.1674 0.0000 5.1878
# 5 22.4105 0.4377 27.8520 0.0000 61.0968 0.0000
# 6 0.0000 0.0000 0.0000 5.1878 0.0000 9.6576
#
#
#
# Elastic Compliance Matrix: (Units=1/GPa)
#
#
# Indices 1 2 3 4 5 6 
#
# 1 0.014441 0.001559 -0.000416 0.000000 -0.005118 0.000000
# 2 0.001559 0.009562 -0.000065 0.000000 -0.000611 0.000000
# 3 -0.000416 -0.000065 0.005423 0.000000 -0.002319 0.000000
# 4 0.000000 0.000000 0.000000 -1.614604 0.000000 0.867328
# 5 -0.005118 -0.000611 -0.002319 0.000000 0.019306 0.000000
# 6 0.000000 0.000000 0.000000 0.867328 0.000000 -0.362363
#
#
# Mechanical properties :
#
#
# Convention : Reuss Voigt Hill
#
# Bulk Modulus (GPa) = 31.66371 43.59604 37.62988
# Shear Modulus (GPa) = -2.60435 39.78671 18.59118
#
# Velocity S-wave (km/s) = -0.98171 3.83710 2.62293
# Velocity P-wave (km/s) = 3.22991 5.98031 4.80606
#
# Compressibility (1/GPa) = 0.03158189
#
# Stress axis : x y z
#
# Youngs Moduli (GPa) = 69.24875 104.57946 184.38416
#
# Poissons Ratio (x) = -0.16309 0.07678
# Poissons Ratio (y) = -0.10799 0.01204
# Poissons Ratio (z) = 0.02883 0.00683
#
# Static dielectric constant tensor:
#      x y z
#    x 2.200380 0.000000 0.023840 
#    y 0.000000 2.075430 0.000000 
#    z 0.023840 0.000000 2.074360 
# 
# From -- ./inp_files/222421.got.cif
#   From: 2010.05.17/outbox.cif.g08.bks.cpg/sg12_112_cif.got.tgz:222421.got - 2010.06.03 13:09:07.
