data_PCOD9179149
_publ_section_title
;
Structure prediction by ZEFSAII (Michael W. Deem and Ramdas Pophale) SiO2 
 PCOD9179149
Probable space group: C 2/M
;
_chemical_formula_sum "Si O2"
_cell_formula_units_Z 58
_cell_length_a 5.154362
_cell_length_b 28.098198
_cell_length_c 23.886082
_cell_angle_alpha 90.000000
_cell_angle_beta 109.879762
_cell_angle_gamma 90.000000
_cell_volume 3253.229907
_symmetry_space_group_name_H-M "C 2/M"
_symmetry_group_IT_number 12
_symmetry_cell_setting 'monoclinic'
loop_
_space_group_symop_operation_xyz
x,y,z
-x,y,-z
-x,-y,-z
x,-y,z
1/2+x,1/2+y,z
1/2-x,1/2+y,-z
1/2-x,1/2-y,-z
1/2+x,1/2-y,z
loop_
_atom_site_type_symbol
_atom_site_label
_atom_site_fract_x
_atom_site_fract_y
_atom_site_fract_z
Si Si1 0.823893 0.921500 0.577096
Si Si2 0.530618 0.281394 0.061598
Si Si3 0.500000 0.500000 0.500000
Si Si4 0.693244 0.215834 0.804245
Si Si5 0.836042 0.367853 0.588378
Si Si6 0.051157 0.732218 0.567856
Si Si7 0.435310 0.556296 0.281911
Si Si8 0.080535 0.381487 0.729866
O O1 0.510087 0.907850 0.567725
O O2 0.880122 0.959741 0.534440
O O3 0.012218 0.877080 0.570905
O O4 0.955123 0.939234 0.645662
O O5 0.232845 0.262754 0.059744
O O6 0.684903 0.301969 0.126809
O O7 0.500000 0.308390 0.000000
O O8 0.423170 0.248439 0.795250
O O9 0.636116 0.168559 0.764320
O O10 0.920481 0.318927 0.566642
O O11 0.962451 0.368863 0.659785
O O12 0.379653 0.734737 0.597674
O O13 0.000000 0.747662 0.500000
O O14 0.415807 0.500000 0.267466
O O15 0.652126 0.585651 0.260509
O O16 0.148861 0.584917 0.258478
#
# Coordination Sequence:
#
# PCOD9179149 Si02
#       8
#     8   8   2   8   8   8   8   8
#     4  10  23  35  54  76  97 116 145 186 243 306
#     4   8  14  25  42  65  99 140 172 198 239 288
#     4  12  24  38  56  82  92 118 148 186 242 322
#     4  10  19  31  48  76 109 139 170 209 244 283
#     4  10  22  38  51  72  97 124 148 190 240 281
#     4  10  21  35  51  67  86 115 153 185 215 261
#     4  10  19  38  52  71  98 128 159 205 252 293
#     4  10  21  33  53  74  98 128 168 199 242 299
#
# _framework density 17.828436
#
# number of rings (size 3 to 8) (size 9 to 14) (size 15 to 20)
#    0.000    2.207    0.690    2.069    1.931    2.207 
#    0.000    0.000    0.000    0.000    0.000    0.000 
#    0.000    3.310    0.000    0.000    0.000    0.000 
#
# Total GULP energy -161444.619920 kJ/mol
# GULP energy per Si atom -5567.055859 kJ/mol
# Density = 1.778786 g / cm^3
# Si number density = 17.828436 Si / 1000 Ang^3
#
#
#
# Elastic Constant Matrix: (Units=GPa)
#
#
# Indices 1 2 3 4 5 6 
#
# 1 139.9581 50.3130 27.3365 0.0000 -4.0970 0.0000
# 2 50.3130 116.1601 41.7235 0.0000 -3.6555 0.0000
# 3 27.3365 41.7235 56.7121 0.0000 -6.5024 0.0000
# 4 0.0000 0.0000 0.0000 13.0436 0.0000 2.2479
# 5 -4.0970 -3.6555 -6.5024 0.0000 14.6768 0.0000
# 6 0.0000 0.0000 0.0000 2.2479 0.0000 30.6568
#
#
#
# Elastic Compliance Matrix: (Units=1/GPa)
#
#
# Indices 1 2 3 4 5 6 
#
# 1 0.008623 -0.003058 -0.001810 0.000000 0.000844 0.000000
# 2 -0.003058 0.012798 -0.008085 0.000000 -0.001248 0.000000
# 3 -0.001810 -0.008085 0.025457 0.000000 0.008760 0.000000
# 4 0.000000 0.000000 0.000000 0.077647 0.000000 -0.005694
# 5 0.000844 -0.001248 0.008760 0.000000 0.071940 0.000000
# 6 0.000000 0.000000 0.000000 -0.005694 0.000000 0.033037
#
#
# Mechanical properties :
#
#
# Convention : Reuss Voigt Hill
#
# Bulk Modulus (GPa) = 47.67975 61.28626 54.48300
# Shear Modulus (GPa) = 19.05502 24.57259 21.81380
#
# Velocity S-wave (km/s) = 3.27280 3.71655 3.50171
# Velocity P-wave (km/s) = 6.40963 7.27098 6.85385
#
# Compressibility (1/GPa) = 0.02097327
#
# Stress axis : x y z
#
# Youngs Moduli (GPa) = 115.97546 78.13704 39.28131
#
# Poissons Ratio (x) = 0.23896 0.07108
# Poissons Ratio (y) = 0.35467 0.31757
# Poissons Ratio (z) = 0.20987 0.63170
#
# Static dielectric constant tensor:
#      x y z
#    x 1.691000 0.000000 0.020990 
#    y 0.000000 1.600360 0.000000 
#    z 0.020990 0.000000 1.638380 
# 
# From -- ./inp_files/331391.got.cif
#   From: 2010.05.17/outbox.cif.g08.bks.cpg/sg12_166_cif.got.tgz:331391.got - 2010.06.03 13:09:07.
