data_PCOD9179864
_publ_section_title
;
Structure prediction by ZEFSAII (Michael W. Deem and Ramdas Pophale) SiO2 
 PCOD9179864
Probable space group: C 2/M
;
_chemical_formula_sum "Si O2"
_cell_formula_units_Z 64
_cell_length_a 24.898264
_cell_length_b 20.653892
_cell_length_c 18.937693
_cell_angle_alpha 90.000000
_cell_angle_beta 164.372768
_cell_angle_gamma 90.000000
_cell_volume 2623.369542
_symmetry_space_group_name_H-M "C 2/M"
_symmetry_group_IT_number 12
_symmetry_cell_setting 'monoclinic'
loop_
_space_group_symop_operation_xyz
x,y,z
-x,y,-z
-x,-y,-z
x,-y,z
1/2+x,1/2+y,z
1/2-x,1/2+y,-z
1/2-x,1/2-y,-z
1/2+x,1/2-y,z
loop_
_atom_site_type_symbol
_atom_site_label
_atom_site_fract_x
_atom_site_fract_y
_atom_site_fract_z
Si Si1 0.475216 0.104201 0.728479
Si Si2 0.939787 0.429332 0.319268
Si Si3 0.199671 0.076671 0.585466
Si Si4 0.866009 0.421902 0.932732
Si Si5 0.604680 0.375010 0.332646
Si Si6 0.036985 0.748275 0.316469
Si Si7 0.600516 0.223286 0.704642
Si Si8 0.603260 0.573957 0.058579
O O1 0.538183 0.069728 0.737712
O O2 0.643971 0.105779 0.001641
O O3 0.281589 0.079735 0.525424
O O4 0.396213 0.175025 0.608366
O O5 0.846664 0.500000 0.222790
O O6 0.162197 0.429606 0.633009
O O7 0.881091 0.354961 0.261257
O O8 0.417154 0.094317 0.827406
O O9 0.035161 0.095366 0.319749
O O10 0.197829 0.000000 0.588611
O O11 0.203137 0.101218 0.669873
O O12 0.857232 0.500000 0.928340
O O13 0.659925 0.304097 0.432817
O O14 0.452124 0.379621 0.075704
O O15 0.018751 0.753823 0.378636
O O16 0.823710 0.752590 0.006050
O O17 0.500000 0.235207 0.500000
O O18 0.532355 0.500000 0.957106
O O19 0.500000 0.597096 0.000000
#
# Coordination Sequence:
#
# PCOD9179864 Si02
#       8
#     8   8   8   8   8   8   8   8
#     4  10  19  32  53  80 114 144 172 221 282 337
#     4  10  20  35  58  86 111 143 186 227 281 345
#     4   8  15  26  42  68 100 137 170 202 251 312
#     4   8  14  26  45  69 100 133 170 208 253 316
#     4  11  19  32  53  78 115 148 177 219 276 336
#     4  10  23  38  55  79 104 142 195 232 267 331
#     4  10  22  43  61  74 102 146 194 245 285 312
#     4  10  19  31  51  84 120 149 177 214 273 343
#
# _framework density 24.396106
#
# number of rings (size 3 to 8) (size 9 to 14) (size 15 to 20)
#    0.000    2.375    1.250    2.625    0.000    2.250 
#    0.000    1.250    2.750    0.000    0.000    0.000 
#    0.000   14.000    0.000    0.000    0.000    0.000 
#
# Total GULP energy -178291.342258 kJ/mol
# GULP energy per Si atom -5571.604446 kJ/mol
# Density = 2.434058 g / cm^3
# Si number density = 24.396106 Si / 1000 Ang^3
#
#
#
# Elastic Constant Matrix: (Units=GPa)
#
#
# Indices 1 2 3 4 5 6 
#
# 1 109.9800 21.1171 52.3260 0.0003 -51.2077 0.0005
# 2 21.1171 87.9570 12.8784 0.0001 -16.8718 0.0000
# 3 52.3260 12.8784 83.0656 0.0003 -50.6277 0.0010
# 4 0.0003 0.0001 0.0003 28.4152 0.0003 -9.9890
# 5 -51.2077 -16.8718 -50.6277 0.0003 55.0319 0.0005
# 6 0.0005 0.0000 0.0010 -9.9890 0.0005 30.1029
#
#
#
# Elastic Compliance Matrix: (Units=1/GPa)
#
#
# Indices 1 2 3 4 5 6 
#
# 1 0.016346 -0.001147 -0.002420 0.000000 0.012632 -0.000001
# 2 -0.001147 0.012188 0.001047 0.000000 0.003632 0.000000
# 3 -0.002420 0.001047 0.027827 -0.000001 0.023669 -0.000002
# 4 0.000000 0.000000 -0.000001 0.039840 -0.000002 0.013220
# 5 0.012632 0.003632 0.023669 -0.000002 0.052814 -0.000003
# 6 -0.000001 0.000000 -0.000002 0.013220 -0.000003 0.037606
#
#
# Mechanical properties :
#
#
# Convention : Reuss Voigt Hill
#
# Bulk Modulus (GPa) = 19.48536 50.40506 34.94521
# Shear Modulus (GPa) = 23.95013 35.68875 29.81944
#
# Velocity S-wave (km/s) = 3.13664 3.82892 3.49994
# Velocity P-wave (km/s) = 4.59591 6.34456 5.53967
#
# Compressibility (1/GPa) = 0.05132059
#
# Stress axis : x y z
#
# Youngs Moduli (GPa) = 61.17827 82.04756 35.93663
#
# Poissons Ratio (x) = 0.09411 0.08696
# Poissons Ratio (y) = 0.07017 -0.03762
# Poissons Ratio (z) = 0.14804 -0.08589
#
# Static dielectric constant tensor:
#      x y z
#    x 2.052240 0.000000 0.019590 
#    y 0.000000 1.964270 0.000000 
#    z 0.019590 0.000000 2.065740 
# 
# From -- ./inp_files/294173.got.cif
#   From: 2010.05.17/outbox.cif.g08.bks.cpg/sg12_148_cif.got.tgz:294173.got - 2010.06.03 13:09:07.
