data_PCOD9179119
_publ_section_title
;
Structure prediction by ZEFSAII (Michael W. Deem and Ramdas Pophale) SiO2 
 PCOD9179119
Probable space group: C 2/M
;
_chemical_formula_sum "Si O2"
_cell_formula_units_Z 48
_cell_length_a 20.454657
_cell_length_b 8.969664
_cell_length_c 23.095536
_cell_angle_alpha 90.000000
_cell_angle_beta 41.813676
_cell_angle_gamma 90.000000
_cell_volume 2825.098828
_symmetry_space_group_name_H-M "C 2/M"
_symmetry_group_IT_number 12
_symmetry_cell_setting 'monoclinic'
loop_
_space_group_symop_operation_xyz
x,y,z
-x,y,-z
-x,-y,-z
x,-y,z
1/2+x,1/2+y,z
1/2-x,1/2+y,-z
1/2-x,1/2-y,-z
1/2+x,1/2-y,z
loop_
_atom_site_type_symbol
_atom_site_label
_atom_site_fract_x
_atom_site_fract_y
_atom_site_fract_z
Si Si1 0.431289 0.324545 0.268855
Si Si2 0.759231 0.177189 0.557349
Si Si3 0.768132 0.822006 0.904838
Si Si4 0.073444 0.825478 0.287026
Si Si5 0.591990 0.175796 0.092630
Si Si6 0.459312 0.825365 0.462576
O O1 0.411879 0.500000 0.276518
O O2 0.331800 0.235493 0.344849
O O3 0.498985 0.303473 0.281812
O O4 0.494843 0.266081 0.172784
O O5 0.750000 0.250000 0.500000
O O6 0.861712 0.230694 0.516098
O O7 0.756624 0.000000 0.553553
O O8 0.818018 0.795124 0.809950
O O9 0.830914 0.723689 0.908186
O O10 0.784939 0.000000 0.906351
O O11 0.653853 0.793301 0.993206
O O12 0.038478 0.725419 0.362725
O O13 0.067159 0.000000 0.307346
O O14 0.571947 0.000000 0.109191
O O15 0.500000 0.802701 0.500000
O O16 0.436398 0.000000 0.469789
#
# Coordination Sequence:
#
# PCOD9179119 Si02
#       6
#     8   8   8   8   8   8
#     4  10  19  31  48  73 104 135 168 211 255 305
#     4  12  23  36  56  79 103 136 175 216 261 313
#     4   8  15  26  40  62  96 132 167 206 252 303
#     4   9  17  30  49  71  98 135 174 213 255 304
#     4   9  15  24  40  65  97 132 166 205 251 303
#     4  11  24  39  54  75 105 139 176 219 262 308
#
# _framework density 16.990556999999999
#
# number of rings (size 3 to 8) (size 9 to 14) (size 15 to 20)
#    0.000    2.167    1.667    4.000    0.000    4.667 
#    0.000    0.000    0.000    0.000    0.000    1.167 
#    0.000    9.333    0.000    0.000    0.000    0.000 
#
# Total GULP energy -133781.282227 kJ/mol
# GULP energy per Si atom -5574.220093 kJ/mol
# Density = 1.695189 g / cm^3
# Si number density = 16.990557 Si / 1000 Ang^3
#
#
#
# Elastic Constant Matrix: (Units=GPa)
#
#
# Indices 1 2 3 4 5 6 
#
# 1 24.7206 38.2499 32.8810 0.0000 -2.3936 0.0000
# 2 38.2499 107.8279 74.7072 0.0001 -2.4062 -0.0001
# 3 32.8810 74.7072 153.8102 0.0000 -10.0434 0.0000
# 4 0.0000 0.0001 0.0000 33.2449 0.0000 -2.3761
# 5 -2.3936 -2.4062 -10.0434 0.0000 10.0127 0.0000
# 6 0.0000 -0.0001 0.0000 -2.3761 0.0000 16.9903
#
#
#
# Elastic Compliance Matrix: (Units=1/GPa)
#
#
# Indices 1 2 3 4 5 6 
#
# 1 0.093969 -0.029619 -0.005029 0.000000 0.010301 0.000000
# 2 -0.029619 0.023443 -0.005510 0.000000 -0.006974 0.000000
# 3 -0.005029 -0.005510 0.010795 0.000000 0.008302 0.000000
# 4 0.000000 0.000000 0.000000 0.030383 0.000000 0.004249
# 5 0.010301 -0.006974 0.008302 0.000000 0.108987 0.000000
# 6 0.000000 0.000000 0.000000 0.004249 0.000000 0.059451
#
#
# Mechanical properties :
#
#
# Convention : Reuss Voigt Hill
#
# Bulk Modulus (GPa) = 20.88142 64.22609 42.55375
# Shear Modulus (GPa) = 11.81172 21.41761 16.61467
#
# Velocity S-wave (km/s) = 2.63951 3.55429 3.13049
# Velocity P-wave (km/s) = 4.64823 7.39777 6.17791
#
# Compressibility (1/GPa) = 0.04788947
#
# Stress axis : x y z
#
# Youngs Moduli (GPa) = 10.64186 42.65722 92.63621
#
# Poissons Ratio (x) = 1.26347 0.46590
# Poissons Ratio (y) = 0.31520 0.51041
# Poissons Ratio (z) = 0.05352 0.23503
#
# Static dielectric constant tensor:
#      x y z
#    x 1.538110 0.000000 -0.006000 
#    y 0.000000 1.568160 0.000000 
#    z -0.006000 0.000000 1.628490 
# 
# From -- ./inp_files/345404.got.cif
#   From: 2010.05.17/outbox.cif.g08.bks.cpg/sg12_173_cif.got.tgz:345404.got - 2010.06.03 13:09:07.
