data_PCOD9179034
_publ_section_title
;
Structure prediction by ZEFSAII (Michael W. Deem and Ramdas Pophale) SiO2 
 PCOD9179034
Probable space group: C 2/M
;
_chemical_formula_sum "Si O2"
_cell_formula_units_Z 48
_cell_length_a 28.150890
_cell_length_b 8.794564
_cell_length_c 14.085745
_cell_angle_alpha 90.000000
_cell_angle_beta 59.975796
_cell_angle_gamma 90.000000
_cell_volume 3019.332369
_symmetry_space_group_name_H-M "C 2/M"
_symmetry_group_IT_number 12
_symmetry_cell_setting 'monoclinic'
loop_
_space_group_symop_operation_xyz
x,y,z
-x,y,-z
-x,-y,-z
x,-y,z
1/2+x,1/2+y,z
1/2-x,1/2+y,-z
1/2-x,1/2-y,-z
1/2+x,1/2-y,z
loop_
_atom_site_type_symbol
_atom_site_label
_atom_site_fract_x
_atom_site_fract_y
_atom_site_fract_z
Si Si1 0.724699 0.181642 0.379197
Si Si2 0.224699 0.818358 0.171405
Si Si3 0.333452 0.817171 0.946827
Si Si4 0.441392 0.317001 0.163394
Si Si5 0.941391 0.682999 0.953824
Si Si6 0.166548 0.182830 0.613732
O O1 0.717469 0.250000 0.282531
O O2 0.784237 0.225884 0.363230
O O3 0.680712 0.241763 0.499316
O O4 0.722509 0.000000 0.376511
O O5 0.180712 0.758238 0.139260
O O6 0.222509 0.000000 0.178471
O O7 0.284236 0.774117 0.068297
O O8 0.331702 0.000000 0.937798
O O9 0.391682 0.775496 0.933868
O O10 0.444646 0.500000 0.153779
O O11 0.430336 0.250001 0.069665
O O12 0.391682 0.275496 0.282769
O O13 0.500000 0.249999 0.135619
O O14 0.944645 0.500000 0.956932
O O15 0.168298 0.000000 0.601202
#
# Coordination Sequence:
#
# PCOD9179034 Si02
#       6
#     8   8   8   8   8   8
#     4  10  19  31  49  71  96 125 156 192 233 278
#     4  10  19  31  49  71  96 125 156 192 233 278
#     4   9  19  33  48  69  96 126 158 192 231 276
#     4  10  19  31  48  70  97 126 157 193 232 276
#     4  10  19  31  48  70  97 126 157 193 232 276
#     4   9  19  33  48  69  96 126 158 192 231 276
#
# _framework density 15.897554
#
# number of rings (size 3 to 8) (size 9 to 14) (size 15 to 20)
#    0.000    2.333    0.000    4.000    0.000    4.000 
#    0.000    0.000    0.000    1.000    0.000    7.000 
#    0.000    0.000    0.000    0.000    0.000    0.000 
#
# Total GULP energy -133904.323592 kJ/mol
# GULP energy per Si atom -5579.346816 kJ/mol
# Density = 1.586137 g / cm^3
# Si number density = 15.897554 Si / 1000 Ang^3
#
#
#
# Elastic Constant Matrix: (Units=GPa)
#
#
# Indices 1 2 3 4 5 6 
#
# 1 138.9535 51.1260 95.7151 0.0000 3.7335 0.0000
# 2 51.1260 45.9923 52.6789 0.0000 1.1558 0.0000
# 3 95.7151 52.6789 148.3064 0.0000 3.2287 0.0000
# 4 0.0000 0.0000 0.0000 27.3232 0.0000 1.9133
# 5 3.7335 1.1558 3.2287 0.0000 23.7514 0.0000
# 6 0.0000 0.0000 0.0000 1.9133 0.0000 24.7526
#
#
#
# Elastic Compliance Matrix: (Units=1/GPa)
#
#
# Indices 1 2 3 4 5 6 
#
# 1 0.015080 -0.009467 -0.006347 0.000000 -0.001047 0.000000
# 2 -0.009467 0.042600 -0.009035 0.000000 0.000643 0.000000
# 3 -0.006347 -0.009035 0.014059 0.000000 -0.000474 0.000000
# 4 0.000000 0.000000 0.000000 0.036798 0.000000 -0.002844
# 5 -0.001047 0.000643 -0.000474 0.000000 0.042300 0.000000
# 6 0.000000 0.000000 0.000000 -0.002844 0.000000 0.040620
#
#
# Mechanical properties :
#
#
# Convention : Reuss Voigt Hill
#
# Bulk Modulus (GPa) = 45.37365 81.36580 63.36973
# Shear Modulus (GPa) = 20.12049 24.08090 22.10069
#
# Velocity S-wave (km/s) = 3.56143 3.89621 3.73258
# Velocity P-wave (km/s) = 6.74648 8.45772 7.65010
#
# Compressibility (1/GPa) = 0.02203922
#
# Stress axis : x y z
#
# Youngs Moduli (GPa) = 66.31263 23.47422 71.13026
#
# Poissons Ratio (x) = 0.22224 0.45145
# Poissons Ratio (y) = 0.62781 0.64269
# Poissons Ratio (z) = 0.42088 0.21210
#
# Static dielectric constant tensor:
#      x y z
#    x 1.521750 0.000000 -0.012540 
#    y 0.000000 1.532960 0.000000 
#    z -0.012540 0.000000 1.504910 
# 
# From -- ./inp_files/179743.got.cif
#   From: 2010.05.17/outbox.cif.g08.bks.cpg/sg12_90_cif.got.tgz:179743.got - 2010.06.03 13:09:07.
