data_PCOD9179051
_publ_section_title
;
Structure prediction by ZEFSAII (Michael W. Deem and Ramdas Pophale) SiO2 
 PCOD9179051
Probable space group: C 2/M
;
_chemical_formula_sum "Si O2"
_cell_formula_units_Z 56
_cell_length_a 15.987168
_cell_length_b 13.745337
_cell_length_c 13.971162
_cell_angle_alpha 90.000000
_cell_angle_beta 52.128578
_cell_angle_gamma 90.000000
_cell_volume 2423.546120
_symmetry_space_group_name_H-M "C 2/M"
_symmetry_group_IT_number 12
_symmetry_cell_setting 'monoclinic'
loop_
_space_group_symop_operation_xyz
x,y,z
-x,y,-z
-x,-y,-z
x,-y,z
1/2+x,1/2+y,z
1/2-x,1/2+y,-z
1/2-x,1/2-y,-z
1/2+x,1/2-y,z
loop_
_atom_site_type_symbol
_atom_site_label
_atom_site_fract_x
_atom_site_fract_y
_atom_site_fract_z
Si Si1 0.186953 0.888854 0.956115
Si Si2 0.904346 0.689359 0.713376
Si Si3 0.184195 0.889711 0.186451
Si Si4 0.622836 0.771210 0.872745
Si Si5 0.298813 0.192760 0.603222
Si Si6 0.717534 0.394850 0.468790
Si Si7 0.047534 0.607852 0.771218
O O1 0.303774 0.850447 0.845413
O O2 0.108625 0.814533 0.959177
O O3 0.174335 0.000000 0.932635
O O4 0.175075 0.885930 0.078268
O O5 0.893078 0.806323 0.719116
O O6 0.884478 0.654498 0.619025
O O7 0.002887 0.653920 0.705284
O O8 0.301118 0.852990 0.133539
O O9 0.165693 0.000000 0.232250
O O10 0.696969 0.717837 0.740617
O O11 0.533040 0.825840 0.874770
O O12 0.335976 0.295212 0.529554
O O13 0.257770 0.123690 0.548488
O O14 0.662785 0.500000 0.499297
O O15 0.826288 0.400190 0.331786
O O16 0.002031 0.500000 0.815827
#
# Coordination Sequence:
#
# PCOD9179051 Si02
#       7
#     8   8   8   8   8   8   8
#     4   9  17  31  51  72  93 121 160 199 234 275
#     4  10  19  31  48  71 100 125 153 193 236 282
#     4   9  17  32  53  71  89 122 164 199 231 274
#     4   9  17  31  50  71  96 125 157 195 231 273
#     4   8  17  30  47  71  92 121 158 189 223 268
#     4   9  17  31  50  71  94 120 155 194 231 273
#     4  10  20  32  47  70  99 127 153 189 239 286
#
# _framework density 23.106639000000001
#
# number of rings (size 3 to 8) (size 9 to 14) (size 15 to 20)
#    0.000    3.143    0.000    2.571    0.000    6.857 
#    0.000    5.000    0.000   10.286    0.000   13.000 
#    0.000    0.000    0.000    0.000    0.000    0.000 
#
# Total GULP energy -156297.930745 kJ/mol
# GULP energy per Si atom -5582.068955 kJ/mol
# Density = 2.305405 g / cm^3
# Si number density = 23.106639 Si / 1000 Ang^3
#
#
#
# Elastic Constant Matrix: (Units=GPa)
#
#
# Indices 1 2 3 4 5 6 
#
# 1 74.1226 25.5937 14.6369 0.0000 25.7744 0.0000
# 2 25.5937 132.4491 17.6803 0.0000 16.5877 0.0000
# 3 14.6369 17.6803 48.8069 0.0000 23.5762 0.0000
# 4 0.0000 0.0000 0.0000 8.5852 0.0000 -3.3616
# 5 25.7744 16.5877 23.5762 0.0000 45.0627 0.0000
# 6 0.0000 0.0000 0.0000 -3.3616 0.0000 10.2454
#
#
#
# Elastic Compliance Matrix: (Units=1/GPa)
#
#
# Indices 1 2 3 4 5 6 
#
# 1 0.017444 -0.002224 -0.000002 0.000000 -0.009158 0.000000
# 2 -0.002224 0.008340 -0.001988 0.000000 -0.000758 0.000000
# 3 -0.000002 -0.001988 0.027909 0.000000 -0.013869 0.000000
# 4 0.000000 0.000000 0.000000 0.133651 0.000000 0.043852
# 5 -0.009158 -0.000758 -0.013869 0.000000 0.034964 0.000000
# 6 0.000000 0.000000 0.000000 0.043852 0.000000 0.111993
#
#
# Mechanical properties :
#
#
# Convention : Reuss Voigt Hill
#
# Bulk Modulus (GPa) = 22.09220 41.24450 31.66835
# Shear Modulus (GPa) = 13.97362 25.94316 19.95839
#
# Velocity S-wave (km/s) = 2.46182 3.35439 2.94215
# Velocity P-wave (km/s) = 4.20268 5.73507 5.02760
#
# Compressibility (1/GPa) = 0.04526484
#
# Stress axis : x y z
#
# Youngs Moduli (GPa) = 57.32722 119.90316 35.83077
#
# Poissons Ratio (x) = 0.26661 0.00008
# Poissons Ratio (y) = 0.12747 0.07124
# Poissons Ratio (z) = 0.00013 0.23839
#
# Static dielectric constant tensor:
#      x y z
#    x 1.920630 0.000000 -0.052030 
#    y 0.000000 1.909440 0.000000 
#    z -0.052030 0.000000 1.948100 
# 
# From -- ./inp_files/224270.got.cif
#   From: 2010.05.17/outbox.cif.g08.bks.cpg/sg12_113_cif.got.tgz:224270.got - 2010.06.03 13:09:07.
