data_PCOD9179679
_publ_section_title
;
Structure prediction by ZEFSAII (Michael W. Deem and Ramdas Pophale) SiO2 
 PCOD9179679
Probable space group: C 2/M
;
_chemical_formula_sum "Si O2"
_cell_formula_units_Z 64
_cell_length_a 12.509103
_cell_length_b 17.370797
_cell_length_c 27.736018
_cell_angle_alpha 90.000000
_cell_angle_beta 25.391035
_cell_angle_gamma 90.000000
_cell_volume 2584.273686
_symmetry_space_group_name_H-M "C 2/M"
_symmetry_group_IT_number 12
_symmetry_cell_setting 'monoclinic'
loop_
_space_group_symop_operation_xyz
x,y,z
-x,y,-z
-x,-y,-z
x,-y,z
1/2+x,1/2+y,z
1/2-x,1/2+y,-z
1/2-x,1/2-y,-z
1/2+x,1/2-y,z
loop_
_atom_site_type_symbol
_atom_site_label
_atom_site_fract_x
_atom_site_fract_y
_atom_site_fract_z
Si Si1 0.275871 0.909908 0.880025
Si Si2 0.001107 0.174601 0.149920
Si Si3 0.955639 0.913312 0.439952
Si Si4 0.495001 0.152288 0.883109
Si Si5 0.484376 0.747354 0.445775
Si Si6 0.516493 0.917565 0.550329
Si Si7 0.532484 0.091396 0.297536
Si Si8 0.741848 0.412708 0.135161
O O1 0.435975 0.901944 0.862504
O O2 0.414735 0.877153 0.777138
O O3 0.236558 0.000000 0.886331
O O4 0.000000 0.873998 0.000000
O O5 0.946245 0.263649 0.161779
O O6 0.090733 0.149162 0.165990
O O7 0.764960 0.124432 0.231564
O O8 0.237076 0.156527 0.018718
O O9 0.105031 0.834070 0.381581
O O10 0.801986 0.916760 0.452831
O O11 0.735610 0.895050 0.569001
O O12 0.059543 0.000000 0.407276
O O13 0.699992 0.118919 0.835577
O O14 0.500000 0.745422 0.500000
O O15 0.250000 0.750000 0.500000
O O16 0.585805 0.833222 0.395489
O O17 0.500000 0.921922 0.500000
O O18 0.418243 0.000000 0.610214
O O19 0.548197 0.000000 0.290513
O O20 0.639482 0.500000 0.178818
O O21 0.000000 0.418398 0.000000
#
# Coordination Sequence:
#
# PCOD9179679 Si02
#       8
#     8   8   8   8   8   8   8   8
#     4  10  19  31  51  72  96 134 182 226 266 319
#     4  10  20  31  50  72  98 134 173 226 278 325
#     4   9  18  32  51  81 116 145 177 223 277 327
#     4  10  20  31  49  71 101 125 174 234 280 321
#     4   9  17  31  54  84 115 145 180 220 260 322
#     4   8  14  28  53  81 108 140 179 217 254 306
#     4  10  20  34  52  76 106 140 180 224 273 328
#     4   9  18  31  48  70  95 125 164 218 279 332
#
# _framework density 24.765179
#
# number of rings (size 3 to 8) (size 9 to 14) (size 15 to 20)
#    0.000    2.625    1.250    0.750    1.750    1.750 
#    0.000    3.750    0.000    0.000    0.000    0.875 
#    0.000    0.000    0.000    0.000    0.000    0.000 
#
# Total GULP energy -178430.202180 kJ/mol
# GULP energy per Si atom -5575.943818 kJ/mol
# Density = 2.470881 g / cm^3
# Si number density = 24.765179 Si / 1000 Ang^3
#
#
#
# Elastic Constant Matrix: (Units=GPa)
#
#
# Indices 1 2 3 4 5 6 
#
# 1 200.6575 26.4426 38.4647 0.0241 10.7458 0.0198
# 2 26.4426 142.8651 28.6204 -0.0744 -7.5735 -0.3153
# 3 38.4647 28.6204 70.2397 -0.0832 -3.5494 -0.5399
# 4 0.0241 -0.0744 -0.0832 -6.2341 0.0221 -6.0657
# 5 10.7458 -7.5735 -3.5494 0.0221 22.1507 -0.0259
# 6 0.0198 -0.3153 -0.5399 -6.0657 -0.0259 15.3664
#
#
#
# Elastic Compliance Matrix: (Units=1/GPa)
#
#
# Indices 1 2 3 4 5 6 
#
# 1 0.005859 -0.000647 -0.003125 0.000139 -0.003565 -0.000082
# 2 -0.000647 0.007794 -0.002692 -0.000086 0.002548 0.000036
# 3 -0.003125 -0.002692 0.017217 -0.000536 0.003355 0.000348
# 4 0.000139 -0.000086 -0.000536 -0.115875 -0.000121 -0.045761
# 5 -0.003565 0.002548 0.003355 -0.000121 0.048284 0.000209
# 6 -0.000082 0.000036 0.000348 -0.045761 0.000209 0.047027
#
#
# Mechanical properties :
#
#
# Convention : Reuss Voigt Hill
#
# Bulk Modulus (GPa) = 55.74170 66.75751 61.24961
# Shear Modulus (GPa) = 171.14100 27.60558 99.37329
#
# Velocity S-wave (km/s) = 8.32199 3.34232 6.34140
# Velocity P-wave (km/s) = 10.71903 6.47376 8.85458
#
# Compressibility (1/GPa) = 0.01793989
#
# Stress axis : x y z
#
# Youngs Moduli (GPa) = 170.68024 128.30586 58.08207
#
# Poissons Ratio (x) = 0.08307 0.18152
# Poissons Ratio (y) = 0.11050 0.15637
# Poissons Ratio (z) = 0.53342 0.34544
#
# Static dielectric constant tensor:
#      x y z
#    x 2.013780 0.000030 0.018270 
#    y 0.000030 1.933620 0.000010 
#    z 0.018270 0.000010 2.011710 
# 
# From -- ./inp_files/374437.got.cif
#   From: 2010.05.17/outbox.cif.g08.bks.cpg/sg12_188_cif.got.tgz:374437.got - 2010.06.03 13:09:07.
