data_PCOD9179264
_publ_section_title
;
Structure prediction by ZEFSAII (Michael W. Deem and Ramdas Pophale) SiO2 
 PCOD9179264
Probable space group: C 2/M
;
_chemical_formula_sum "Si O2"
_cell_formula_units_Z 64
_cell_length_a 21.771304
_cell_length_b 8.669236
_cell_length_c 23.096523
_cell_angle_alpha 90.000000
_cell_angle_beta 52.769871
_cell_angle_gamma 90.000000
_cell_volume 3470.887408
_symmetry_space_group_name_H-M "C 2/M"
_symmetry_group_IT_number 12
_symmetry_cell_setting 'monoclinic'
loop_
_space_group_symop_operation_xyz
x,y,z
-x,y,-z
-x,-y,-z
x,-y,z
1/2+x,1/2+y,z
1/2-x,1/2+y,-z
1/2-x,1/2-y,-z
1/2+x,1/2-y,z
loop_
_atom_site_type_symbol
_atom_site_label
_atom_site_fract_x
_atom_site_fract_y
_atom_site_fract_z
Si Si1 0.590545 0.814761 0.578353
Si Si2 0.568564 0.326494 0.301431
Si Si3 0.225979 0.321888 0.193578
Si Si4 0.372362 0.185893 0.312105
Si Si5 0.695854 0.185493 0.080998
Si Si6 0.469458 0.327478 0.812348
Si Si7 0.737750 0.684845 0.305657
Si Si8 0.089171 0.813903 0.459474
O O1 0.505925 0.738327 0.625165
O O2 0.625559 0.767194 0.620969
O O3 0.624530 0.752381 0.499093
O O4 0.586455 0.000000 0.579673
O O5 0.590494 0.500000 0.309351
O O6 0.636526 0.203840 0.260836
O O7 0.545602 0.341759 0.247607
O O8 0.248005 0.500000 0.180743
O O9 0.228177 0.261835 0.126032
O O10 0.263682 0.238137 0.226917
O O11 0.448748 0.241349 0.234175
O O12 0.297619 0.241516 0.320060
O O13 0.373374 0.000000 0.311997
O O14 0.607801 0.242454 0.122084
O O15 0.695950 0.000000 0.081676
O O16 0.750000 0.250000 0.000000
O O17 0.474745 0.500000 0.834319
O O18 0.740091 0.500000 0.305106
O O19 0.650516 0.729299 0.374484
O O20 0.000000 0.762338 0.500000
O O21 0.087271 0.000000 0.464756
#
# Coordination Sequence:
#
# PCOD9179264 Si02
#       8
#     8   8   8   8   8   8   8   8
#     4  10  19  31  49  72  99 131 171 222 271 311
#     4   9  16  28  48  72  98 131 169 207 254 312
#     4  10  20  33  51  77 107 135 168 213 258 299
#     4   9  19  35  52  73 102 138 181 223 263 309
#     4  10  20  34  55  85 117 143 167 203 253 307
#     4   9  17  30  51  78 105 135 171 210 253 303
#     4  10  21  36  53  72 100 141 182 218 261 317
#     4  10  21  35  50  71 100 134 175 223 274 325
#
# _framework density 18.439088000000002
#
# number of rings (size 3 to 8) (size 9 to 14) (size 15 to 20)
#    0.000    2.375    0.000    2.625    0.000    7.750 
#    0.000    0.000    0.000    0.750    0.000    5.250 
#    0.000    0.000    0.000    0.000    0.000    0.000 
#
# Total GULP energy -178178.518020 kJ/mol
# GULP energy per Si atom -5568.078688 kJ/mol
# Density = 1.839712 g / cm^3
# Si number density = 18.439088 Si / 1000 Ang^3
#
#
#
# Elastic Constant Matrix: (Units=GPa)
#
#
# Indices 1 2 3 4 5 6 
#
# 1 91.1266 10.2956 44.0873 0.0001 8.5107 0.0002
# 2 10.2956 24.0718 21.7611 0.0001 -0.4197 0.0002
# 3 44.0873 21.7611 126.8149 0.0000 10.9102 0.0000
# 4 0.0001 0.0001 0.0000 26.1484 0.0000 2.6115
# 5 8.5107 -0.4197 10.9102 0.0000 20.7466 0.0001
# 6 0.0002 0.0002 0.0000 2.6115 0.0001 18.0216
#
#
#
# Elastic Compliance Matrix: (Units=1/GPa)
#
#
# Indices 1 2 3 4 5 6 
#
# 1 0.013488 -0.002201 -0.004013 0.000000 -0.003467 0.000000
# 2 -0.002201 0.050179 -0.008390 0.000000 0.006330 -0.000001
# 3 -0.004013 -0.008390 0.011095 0.000000 -0.004358 0.000000
# 4 0.000000 0.000000 0.000000 0.038805 0.000000 -0.005623
# 5 -0.003467 0.006330 -0.004358 0.000000 0.052043 0.000000
# 6 0.000000 -0.000001 0.000000 -0.005623 0.000000 0.056304
#
#
# Mechanical properties :
#
#
# Convention : Reuss Voigt Hill
#
# Bulk Modulus (GPa) = 21.95233 43.81125 32.88179
# Shear Modulus (GPa) = 18.77538 24.04127 21.40833
#
# Velocity S-wave (km/s) = 3.19445 3.61476 3.41109
# Velocity P-wave (km/s) = 5.05343 6.42134 5.77801
#
# Compressibility (1/GPa) = 0.04555325
#
# Stress axis : x y z
#
# Youngs Moduli (GPa) = 74.14123 19.92880 90.12877
#
# Poissons Ratio (x) = 0.04387 0.36169
# Poissons Ratio (y) = 0.16322 0.75616
# Poissons Ratio (z) = 0.29753 0.16720
#
# Static dielectric constant tensor:
#      x y z
#    x 1.683810 0.000000 0.026250 
#    y 0.000000 1.639570 0.000000 
#    z 0.026250 0.000000 1.634310 
# 
# From -- ./inp_files/323602.got.cif
#   From: 2010.05.17/outbox.cif.g08.bks.cpg/sg12_162_cif.got.tgz:323602.got - 2010.06.03 13:09:07.
