data_PCOD9179065
_publ_section_title
;
Structure prediction by ZEFSAII (Michael W. Deem and Ramdas Pophale) SiO2 
 PCOD9179065
Probable space group: C 2/M
;
_chemical_formula_sum "Si O2"
_cell_formula_units_Z 48
_cell_length_a 24.278399
_cell_length_b 8.848443
_cell_length_c 14.137418
_cell_angle_alpha 90.000000
_cell_angle_beta 109.062786
_cell_angle_gamma 90.000000
_cell_volume 2870.535392
_symmetry_space_group_name_H-M "C 2/M"
_symmetry_group_IT_number 12
_symmetry_cell_setting 'monoclinic'
loop_
_space_group_symop_operation_xyz
x,y,z
-x,y,-z
-x,-y,-z
x,-y,z
1/2+x,1/2+y,z
1/2-x,1/2+y,-z
1/2-x,1/2-y,-z
1/2+x,1/2-y,z
loop_
_atom_site_type_symbol
_atom_site_label
_atom_site_fract_x
_atom_site_fract_y
_atom_site_fract_z
Si Si1 0.013555 0.682267 0.614089
Si Si2 0.430317 0.324043 0.082802
Si Si3 0.137660 0.820448 0.143140
Si Si4 0.250818 0.179464 0.894523
Si Si5 0.132033 0.678547 0.782364
Si Si6 0.552065 0.679963 0.249292
O O1 0.011958 0.500000 0.616437
O O2 0.078570 0.727658 0.684740
O O3 0.000000 0.731843 0.500000
O O4 0.967152 0.743604 0.663976
O O5 0.416966 0.500000 0.100363
O O6 0.391829 0.215439 0.126207
O O7 0.496977 0.297199 0.148091
O O8 0.412434 0.304677 0.964827
O O9 0.193679 0.737037 0.133324
O O10 0.109812 0.767462 0.226532
O O11 0.150510 0.000000 0.157543
O O12 0.192333 0.233435 0.808542
O O13 0.251838 0.000000 0.904854
O O14 0.250000 0.250000 0.000000
O O15 0.141743 0.500000 0.776378
O O16 0.557285 0.500000 0.266991
#
# Coordination Sequence:
#
# PCOD9179065 Si02
#       6
#     8   8   8   8   8   8
#     4   9  19  36  57  79 103 131 164 210 265 310
#     4   9  16  28  47  70 101 137 168 201 244 298
#     4  10  19  31  48  71 104 141 171 204 247 299
#     4  12  23  34  49  71 103 141 178 211 245 292
#     4  10  19  32  51  75 102 133 172 212 250 297
#     4   9  18  31  49  76 104 132 168 208 254 303
#
# _framework density 16.721620000000001
#
# number of rings (size 3 to 8) (size 9 to 14) (size 15 to 20)
#    0.000    2.167    1.667    2.500    0.000    3.667 
#    0.000    0.000    0.000    6.000    0.000    0.000 
#    0.000    0.000    0.000    0.000    0.000    0.000 
#
# Total GULP energy -133816.798063 kJ/mol
# GULP energy per Si atom -5575.699919 kJ/mol
# Density = 1.668356 g / cm^3
# Si number density = 16.721620 Si / 1000 Ang^3
#
#
#
# Elastic Constant Matrix: (Units=GPa)
#
#
# Indices 1 2 3 4 5 6 
#
# 1 130.4638 49.4777 66.9038 0.0000 -19.6320 0.0000
# 2 49.4777 54.2080 35.7790 0.0000 -7.2431 0.0000
# 3 66.9038 35.7790 90.0556 0.0000 -12.4532 0.0000
# 4 0.0000 0.0000 0.0000 17.7681 0.0000 -0.9836
# 5 -19.6320 -7.2431 -12.4532 0.0000 12.9128 0.0000
# 6 0.0000 0.0000 0.0000 -0.9836 0.0000 27.1653
#
#
#
# Elastic Compliance Matrix: (Units=1/GPa)
#
#
# Indices 1 2 3 4 5 6 
#
# 1 0.016606 -0.008726 -0.006988 0.000000 0.013614 0.000000
# 2 -0.008726 0.029888 -0.005663 0.000000 -0.001963 0.000000
# 3 -0.006988 -0.005663 0.019197 0.000000 0.004714 0.000000
# 4 0.000000 0.000000 0.000000 0.056394 0.000000 0.002042
# 5 0.013614 -0.001963 0.004714 0.000000 0.101585 0.000000
# 6 0.000000 0.000000 0.000000 0.002042 0.000000 0.036886
#
#
# Mechanical properties :
#
#
# Convention : Reuss Voigt Hill
#
# Bulk Modulus (GPa) = 43.59674 64.33871 53.96772
# Shear Modulus (GPa) = 16.07951 19.74036 17.90993
#
# Velocity S-wave (km/s) = 3.10433 3.43961 3.27626
# Velocity P-wave (km/s) = 6.24322 7.37119 6.83053
#
# Compressibility (1/GPa) = 0.02293750
#
# Stress axis : x y z
#
# Youngs Moduli (GPa) = 60.21835 33.45879 52.09086
#
# Poissons Ratio (x) = 0.29196 0.36399
# Poissons Ratio (y) = 0.52547 0.29499
# Poissons Ratio (z) = 0.42078 0.18948
#
# Static dielectric constant tensor:
#      x y z
#    x 1.577430 0.000000 0.011620 
#    y 0.000000 1.564880 0.000000 
#    z 0.011620 0.000000 1.559040 
# 
# From -- ./inp_files/230396.got.cif
#   From: 2010.05.17/outbox.cif.g08.bks.cpg/sg12_116_cif.got.tgz:230396.got - 2010.06.03 13:09:07.
