data_PCOD9179929
_publ_section_title
;
Structure prediction by ZEFSAII (Michael W. Deem and Ramdas Pophale) SiO2 
 PCOD9179929
Probable space group: C 2/M
;
_chemical_formula_sum "Si O2"
_cell_formula_units_Z 64
_cell_length_a 23.716464
_cell_length_b 8.863885
_cell_length_c 20.715089
_cell_angle_alpha 90.000000
_cell_angle_beta 52.883501
_cell_angle_gamma 90.000000
_cell_volume 3472.503073
_symmetry_space_group_name_H-M "C 2/M"
_symmetry_group_IT_number 12
_symmetry_cell_setting 'monoclinic'
loop_
_space_group_symop_operation_xyz
x,y,z
-x,y,-z
-x,-y,-z
x,-y,z
1/2+x,1/2+y,z
1/2-x,1/2+y,-z
1/2-x,1/2-y,-z
1/2+x,1/2-y,z
loop_
_atom_site_type_symbol
_atom_site_label
_atom_site_fract_x
_atom_site_fract_y
_atom_site_fract_z
Si Si1 0.506981 0.680120 0.326782
Si Si2 0.946927 0.184077 0.092847
Si Si3 0.345525 0.820832 0.755431
Si Si4 0.678576 0.822200 0.075455
Si Si5 0.219337 0.818852 0.617466
Si Si6 0.530010 0.318172 0.162476
Si Si7 0.707824 0.316077 0.774191
Si Si8 0.138421 0.679325 0.554228
O O1 0.505318 0.500000 0.329548
O O2 0.579884 0.739599 0.306506
O O3 0.507596 0.728702 0.250331
O O4 0.436797 0.746143 0.407163
O O5 0.865593 0.233153 0.142298
O O6 0.977163 0.228474 0.142105
O O7 0.946822 0.000000 0.091426
O O8 0.000000 0.235106 0.000000
O O9 0.325696 0.800596 0.844312
O O10 0.279649 0.764686 0.758700
O O11 0.354886 0.000000 0.737613
O O12 0.608180 0.745493 0.095953
O O13 0.677619 0.000000 0.062825
O O14 0.750000 0.750000 0.000000
O O15 0.206561 0.774020 0.699843
O O16 0.167777 0.740372 0.602199
O O17 0.299541 0.784913 0.539764
O O18 0.208906 0.000000 0.619473
O O19 0.533170 0.500000 0.160128
O O20 0.709019 0.500000 0.776023
O O21 0.130662 0.500000 0.562245
#
# Coordination Sequence:
#
# PCOD9179929 Si02
#       8
#     8   8   8   8   8   8   8   8
#     4  10  19  33  53  75 102 136 171 214 262 307
#     4   9  17  27  47  77 102 126 162 207 251 299
#     4   9  19  34  53  75  99 133 177 218 255 302
#     4  10  20  32  50  74  98 129 168 213 258 299
#     4   9  18  33  53  78 106 137 172 211 257 305
#     4   9  18  32  50  73  99 128 166 208 253 302
#     4   9  17  32  52  74 103 137 171 210 257 306
#     4  10  19  31  52  80 107 134 170 214 256 305
#
# _framework density 18.430510000000002
#
# number of rings (size 3 to 8) (size 9 to 14) (size 15 to 20)
#    0.000    2.625    0.000    1.875    1.750    3.500 
#    0.000    1.250    0.000    4.875    0.000    0.000 
#    0.000    0.000    0.000    0.000    0.000    0.000 
#
# Total GULP energy -178516.179714 kJ/mol
# GULP energy per Si atom -5578.630616 kJ/mol
# Density = 1.838856 g / cm^3
# Si number density = 18.430510 Si / 1000 Ang^3
#
#
#
# Elastic Constant Matrix: (Units=GPa)
#
#
# Indices 1 2 3 4 5 6 
#
# 1 100.5855 18.2551 48.6222 -0.0003 -25.3870 0.0006
# 2 18.2551 10.3534 23.0018 -0.0006 -10.0408 0.0015
# 3 48.6222 23.0018 80.5143 0.0002 -28.7341 -0.0002
# 4 -0.0003 -0.0006 0.0002 18.6554 0.0002 -6.0525
# 5 -25.3870 -10.0408 -28.7341 0.0002 32.0146 -0.0003
# 6 0.0006 0.0015 -0.0002 -6.0525 -0.0003 25.3563
#
#
#
# Elastic Compliance Matrix: (Units=1/GPa)
#
#
# Indices 1 2 3 4 5 6 
#
# 1 0.015502 -0.015759 -0.003290 0.000000 0.004397 0.000001
# 2 -0.015759 0.291665 -0.067121 0.000004 0.018735 -0.000016
# 3 -0.003290 -0.067121 0.036986 -0.000001 0.009535 0.000004
# 4 0.000000 0.000004 -0.000001 0.058104 0.000000 0.013869
# 5 0.004397 0.018735 0.009535 0.000000 0.049157 0.000000
# 6 0.000001 -0.000016 0.000004 0.013869 0.000000 0.042748
#
#
# Mechanical properties :
#
#
# Convention : Reuss Voigt Hill
#
# Bulk Modulus (GPa) = 5.82034 41.24572 23.53303
# Shear Modulus (GPa) = 6.90824 21.97686 14.44255
#
# Velocity S-wave (km/s) = 1.93814 3.45689 2.80236
# Velocity P-wave (km/s) = 2.85891 6.19363 4.82361
#
# Compressibility (1/GPa) = 0.17181119
#
# Stress axis : x y z
#
# Youngs Moduli (GPa) = 64.50695 3.42859 27.03743
#
# Poissons Ratio (x) = 0.05403 0.08896
# Poissons Ratio (y) = 1.01657 1.81479
# Poissons Ratio (z) = 0.21224 0.23013
#
# Static dielectric constant tensor:
#      x y z
#    x 1.629250 0.000000 -0.005550 
#    y 0.000000 1.626850 0.000000 
#    z -0.005550 0.000000 1.634480 
# 
# From -- ./inp_files/324099.got.cif
#   From: 2010.05.17/outbox.cif.g08.bks.cpg/sg12_163_cif.got.tgz:324099.got - 2010.06.03 13:09:07.
