data_PCOD9179810
_publ_section_title
;
Structure prediction by ZEFSAII (Michael W. Deem and Ramdas Pophale) SiO2 
 PCOD9179810
Probable space group: C 2/M
;
_chemical_formula_sum "Si O2"
_cell_formula_units_Z 64
_cell_length_a 21.032564
_cell_length_b 7.717809
_cell_length_c 27.377438
_cell_angle_alpha 90.000000
_cell_angle_beta 47.867789
_cell_angle_gamma 90.000000
_cell_volume 3295.703085
_symmetry_space_group_name_H-M "C 2/M"
_symmetry_group_IT_number 12
_symmetry_cell_setting 'monoclinic'
loop_
_space_group_symop_operation_xyz
x,y,z
-x,y,-z
-x,-y,-z
x,-y,z
1/2+x,1/2+y,z
1/2-x,1/2+y,-z
1/2-x,1/2-y,-z
1/2+x,1/2-y,z
loop_
_atom_site_type_symbol
_atom_site_label
_atom_site_fract_x
_atom_site_fract_y
_atom_site_fract_z
Si Si1 0.416864 0.290437 0.678725
Si Si2 0.243050 0.708886 0.424986
Si Si3 0.206454 0.798754 0.173229
Si Si4 0.284126 0.208849 0.035676
Si Si5 0.111765 0.791761 0.576279
Si Si6 0.651670 0.705647 0.825546
Si Si7 0.772401 0.707774 0.677328
Si Si8 0.024655 0.708949 0.041552
O O1 0.418222 0.500000 0.680769
O O2 0.364005 0.223562 0.753261
O O3 0.514386 0.226773 0.627183
O O4 0.360839 0.246763 0.659883
O O5 0.249170 0.500000 0.419833
O O6 0.161362 0.751380 0.500643
O O7 0.326794 0.772804 0.411529
O O8 0.234271 0.775415 0.374326
O O9 0.296187 0.789577 0.156508
O O10 0.182869 0.000000 0.178758
O O11 0.224505 0.723065 0.110571
O O12 0.381386 0.272572 0.992405
O O13 0.286495 0.000000 0.039782
O O14 0.250000 0.250000 0.000000
O O15 0.107852 0.000000 0.582725
O O16 0.666187 0.500000 0.821582
O O17 0.696632 0.769117 0.752625
O O18 0.551615 0.740678 0.882791
O O19 0.765088 0.500000 0.678167
O O20 0.027051 0.500000 0.038814
O O21 0.000000 0.771365 0.000000
#
# Coordination Sequence:
#
# PCOD9179810 Si02
#       8
#     8   8   8   8   8   8   8   8
#     4   9  18  32  53  77  98 128 169 207 244 290
#     4   9  18  34  53  71  99 136 165 197 246 299
#     4   9  17  34  54  72  98 138 172 198 249 309
#     4  10  21  36  53  74 102 134 168 209 252 298
#     4   9  18  33  52  75  99 127 168 209 241 285
#     4  10  19  31  51  80 104 127 166 215 254 289
#     4   9  19  34  50  74 105 133 162 202 252 295
#     4  10  19  35  56  74  98 135 173 206 246 302
#
# _framework density 19.419224
#
# number of rings (size 3 to 8) (size 9 to 14) (size 15 to 20)
#    0.000    2.625    1.250    0.375    0.000    3.250 
#    2.250    2.500    0.000    0.000    0.000    0.000 
#    0.000    0.000    0.000    0.000    0.000    0.000 
#
# Total GULP energy -178471.781702 kJ/mol
# GULP energy per Si atom -5577.243178 kJ/mol
# Density = 1.937503 g / cm^3
# Si number density = 19.419224 Si / 1000 Ang^3
#
#
#
# Elastic Constant Matrix: (Units=GPa)
#
#
# Indices 1 2 3 4 5 6 
#
# 1 139.3239 -0.0233 117.9316 -0.0007 5.3749 0.0011
# 2 -0.0233 30.3291 1.3367 0.0008 1.3831 0.0022
# 3 117.9316 1.3367 163.7442 -0.0004 12.6816 -0.0003
# 4 -0.0007 0.0008 -0.0004 18.1423 0.0006 1.4489
# 5 5.3749 1.3831 12.6816 0.0006 36.2493 -0.0004
# 6 0.0011 0.0022 -0.0003 1.4489 -0.0004 20.4869
#
#
#
# Elastic Compliance Matrix: (Units=1/GPa)
#
#
# Indices 1 2 3 4 5 6 
#
# 1 0.018531 0.000520 -0.013502 0.000000 0.001956 -0.000001
# 2 0.000520 0.033049 -0.000556 -0.000001 -0.001144 -0.000004
# 3 -0.013502 -0.000556 0.016116 0.000000 -0.003615 0.000001
# 4 0.000000 -0.000001 0.000000 0.055433 -0.000001 -0.003920
# 5 0.001956 -0.001144 -0.003615 -0.000001 0.028605 0.000001
# 6 -0.000001 -0.000004 0.000001 -0.003920 0.000001 0.049089
#
#
# Mechanical properties :
#
#
# Convention : Reuss Voigt Hill
#
# Bulk Modulus (GPa) = 24.61833 63.54301 44.08067
# Shear Modulus (GPa) = 20.70917 29.25251 24.98084
#
# Velocity S-wave (km/s) = 3.26916 3.88541 3.59053
# Velocity P-wave (km/s) = 5.19179 7.27470 6.31965
#
# Compressibility (1/GPa) = 0.04062013
#
# Stress axis : x y z
#
# Youngs Moduli (GPa) = 53.96303 30.25841 62.04950
#
# Poissons Ratio (x) = -0.01574 0.83781
# Poissons Ratio (y) = -0.02807 0.03449
# Poissons Ratio (z) = 0.72862 0.01682
#
# Static dielectric constant tensor:
#      x y z
#    x 1.653370 0.000000 -0.000650 
#    y 0.000000 1.734230 0.000000 
#    z -0.000650 0.000000 1.689870 
# 
# From -- ./inp_files/346009.got.cif
#   From: 2010.05.17/outbox.cif.g08.bks.cpg/sg12_174_cif.got.tgz:346009.got - 2010.06.03 13:09:07.
