data_PCOD9179406
_publ_section_title
;
Structure prediction by ZEFSAII (Michael W. Deem and Ramdas Pophale) SiO2 
 PCOD9179406
Probable space group: C 2/M
;
_chemical_formula_sum "Si O2"
_cell_formula_units_Z 64
_cell_length_a 15.653963
_cell_length_b 14.509244
_cell_length_c 18.871519
_cell_angle_alpha 90.000000
_cell_angle_beta 46.211160
_cell_angle_gamma 90.000000
_cell_volume 3094.211510
_symmetry_space_group_name_H-M "C 2/M"
_symmetry_group_IT_number 12
_symmetry_cell_setting 'monoclinic'
loop_
_space_group_symop_operation_xyz
x,y,z
-x,y,-z
-x,-y,-z
x,-y,z
1/2+x,1/2+y,z
1/2-x,1/2+y,-z
1/2-x,1/2-y,-z
1/2+x,1/2-y,z
loop_
_atom_site_type_symbol
_atom_site_label
_atom_site_fract_x
_atom_site_fract_y
_atom_site_fract_z
Si Si1 0.531599 0.103820 0.781706
Si Si2 0.445789 0.607712 0.307415
Si Si3 0.529049 0.388162 0.106372
Si Si4 0.789024 0.214136 0.198336
Si Si5 0.423732 0.394325 0.472788
Si Si6 0.725275 0.242764 0.631735
Si Si7 0.774918 0.389831 0.894707
Si Si8 0.624232 0.900364 0.888599
O O1 0.610816 0.176028 0.694929
O O2 0.395731 0.134352 0.865373
O O3 0.589592 0.098832 0.825803
O O4 0.534641 0.000000 0.749817
O O5 0.421605 0.500000 0.313000
O O6 0.522988 0.632165 0.194114
O O7 0.494597 0.620967 0.358731
O O8 0.322683 0.662962 0.373280
O O9 0.514549 0.500000 0.104409
O O10 0.418574 0.333313 0.135690
O O11 0.652809 0.358194 0.000956
O O12 0.744476 0.236372 0.303009
O O13 0.716474 0.146044 0.190389
O O14 0.800139 0.308877 0.147797
O O15 0.500000 0.391641 0.500000
O O16 0.374062 0.500000 0.497725
O O17 0.328177 0.314001 0.535875
O O18 0.767008 0.500000 0.899299
O O19 0.678928 0.000000 0.876454
O O20 0.500000 0.892593 0.000000
#
# Coordination Sequence:
#
# PCOD9179406 Si02
#       8
#     8   8   8   8   8   8   8   8
#     4   9  19  34  51  76 106 139 183 223 264 320
#     4   9  19  36  57  82 109 140 182 226 270 323
#     4   9  17  31  52  78 110 146 182 222 270 319
#     4  10  19  31  49  77 106 140 182 218 259 315
#     4  10  21  38  61  86 108 134 175 227 279 329
#     4  10  20  36  58  79 108 147 178 218 271 324
#     4  10  19  32  53  80 112 146 180 224 270 317
#     4   9  17  31  47  62  90 133 176 216 256 301
#
# _framework density 20.683782000000001
#
# number of rings (size 3 to 8) (size 9 to 14) (size 15 to 20)
#    0.000    2.500    0.000    2.250    0.000    3.000 
#    0.000   12.500    0.000   13.125    0.000    0.000 
#    0.000    0.000    0.000    0.000    0.000    0.000 
#
# Total GULP energy -178478.756798 kJ/mol
# GULP energy per Si atom -5577.461150 kJ/mol
# Density = 2.063670 g / cm^3
# Si number density = 20.683782 Si / 1000 Ang^3
#
#
#
# Elastic Constant Matrix: (Units=GPa)
#
#
# Indices 1 2 3 4 5 6 
#
# 1 18.2983 7.2186 7.8465 0.0000 6.3243 0.0000
# 2 7.2186 39.3453 21.4731 0.0000 4.7427 0.0000
# 3 7.8465 21.4731 52.7688 0.0000 12.5962 0.0000
# 4 0.0000 0.0000 0.0000 20.7081 0.0000 5.0454
# 5 6.3243 4.7427 12.5962 0.0000 18.5308 0.0000
# 6 0.0000 0.0000 0.0000 5.0454 0.0000 26.3862
#
#
#
# Elastic Compliance Matrix: (Units=1/GPa)
#
#
# Indices 1 2 3 4 5 6 
#
# 1 0.065375 -0.008836 -0.001599 0.000000 -0.018963 0.000000
# 2 -0.008836 0.033876 -0.013276 0.000000 0.003369 0.000000
# 3 -0.001599 -0.013276 0.028230 0.000000 -0.015246 0.000000
# 4 0.000000 0.000000 0.000000 0.050650 0.000000 -0.009685
# 5 -0.018963 0.003369 -0.015246 0.000000 0.069937 0.000000
# 6 0.000000 0.000000 0.000000 -0.009685 0.000000 0.039751
#
#
# Mechanical properties :
#
#
# Convention : Reuss Voigt Hill
#
# Bulk Modulus (GPa) = 12.49050 20.38764 16.43907
# Shear Modulus (GPa) = 13.81498 18.04997 15.93247
#
# Velocity S-wave (km/s) = 2.58721 2.95729 2.77842
# Velocity P-wave (km/s) = 3.86998 4.64101 4.27292
#
# Compressibility (1/GPa) = 0.08006082
#
# Stress axis : x y z
#
# Youngs Moduli (GPa) = 15.29631 29.51923 35.42360
#
# Poissons Ratio (x) = 0.26082 0.05664
# Poissons Ratio (y) = 0.13515 0.47027
# Poissons Ratio (z) = 0.02446 0.39189
#
# Static dielectric constant tensor:
#      x y z
#    x 1.740840 0.000000 0.013560 
#    y 0.000000 1.798000 0.000000 
#    z 0.013560 0.000000 1.738720 
# 
# From -- ./inp_files/270664.got.cif
#   From: 2010.05.17/outbox.cif.g08.bks.cpg/sg12_136_cif.got.tgz:270664.got - 2010.06.03 13:09:07.
