data_PCOD9179819
_publ_section_title
;
Structure prediction by ZEFSAII (Michael W. Deem and Ramdas Pophale) SiO2 
 PCOD9179819
Probable space group: C 2/M
;
_chemical_formula_sum "Si O2"
_cell_formula_units_Z 64
_cell_length_a 20.680133
_cell_length_b 8.672041
_cell_length_c 20.311167
_cell_angle_alpha 90.000000
_cell_angle_beta 90.260856
_cell_angle_gamma 90.000000
_cell_volume 3642.545840
_symmetry_space_group_name_H-M "C 2/M"
_symmetry_group_IT_number 12
_symmetry_cell_setting 'monoclinic'
loop_
_space_group_symop_operation_xyz
x,y,z
-x,y,-z
-x,-y,-z
x,-y,z
1/2+x,1/2+y,z
1/2-x,1/2+y,-z
1/2-x,1/2-y,-z
1/2+x,1/2-y,z
loop_
_atom_site_type_symbol
_atom_site_label
_atom_site_fract_x
_atom_site_fract_y
_atom_site_fract_z
Si Si1 0.584475 0.815141 0.320769
Si Si2 0.581376 0.315091 0.175223
Si Si3 0.337587 0.316076 0.058996
Si Si4 0.195341 0.815685 0.408146
Si Si5 0.836249 0.313896 0.448520
Si Si6 0.522737 0.815430 0.926814
Si Si7 0.296846 0.314523 0.909744
Si Si8 0.521046 0.812491 0.573329
O O1 0.574639 0.748981 0.248351
O O2 0.652271 0.761250 0.352057
O O3 0.528568 0.760007 0.371115
O O4 0.582632 0.000000 0.318485
O O5 0.579673 0.500000 0.176062
O O6 0.525160 0.254853 0.127195
O O7 0.650324 0.267702 0.143803
O O8 0.343653 0.500000 0.062669
O O9 0.403739 0.238932 0.082348
O O10 0.273438 0.260981 0.096486
O O11 0.324998 0.273026 0.982155
O O12 0.169512 0.759865 0.479183
O O13 0.271386 0.773334 0.408538
O O14 0.189948 0.000000 0.403525
O O15 0.836422 0.500000 0.457203
O O16 0.904193 0.268608 0.416587
O O17 0.519283 0.000000 0.923726
O O18 0.500000 0.765785 0.000000
O O19 0.289591 0.500000 0.908284
O O20 0.500000 0.761941 0.500000
O O21 0.518190 0.000000 0.573169
#
# Coordination Sequence:
#
# PCOD9179819 Si02
#       8
#     8   8   8   8   8   8   8   8
#     4  11  22  37  57  79 109 148 190 232 279 340
#     4  11  23  40  59  81 115 153 191 234 289 347
#     4  10  19  33  57  86 114 143 183 234 284 330
#     4  10  19  31  51  80 110 139 176 224 279 333
#     4   9  17  32  54  79 106 138 179 225 273 326
#     4  11  22  36  58  87 117 150 192 237 281 337
#     4   9  19  35  55  81 112 147 184 228 282 340
#     4   9  16  31  56  81 105 141 188 230 273 327
#
# _framework density 17.570129000000001
#
# number of rings (size 3 to 8) (size 9 to 14) (size 15 to 20)
#    0.000    2.000    2.500    1.875    0.000    2.500 
#    0.000    3.125    0.000    6.000    0.000    0.000 
#    0.000    0.000    0.000    0.000    0.000    0.000 
#
# Total GULP energy -178604.311210 kJ/mol
# GULP energy per Si atom -5581.384725 kJ/mol
# Density = 1.753014 g / cm^3
# Si number density = 17.570129 Si / 1000 Ang^3
#
#
#
# Elastic Constant Matrix: (Units=GPa)
#
#
# Indices 1 2 3 4 5 6 
#
# 1 162.2093 41.9367 88.3287 0.0000 0.7221 0.0000
# 2 41.9367 37.9232 38.0389 0.0000 3.4281 0.0000
# 3 88.3287 38.0389 129.8497 0.0000 2.5801 0.0000
# 4 0.0000 0.0000 0.0000 26.8442 0.0000 4.4517
# 5 0.7221 3.4281 2.5801 0.0000 25.1833 0.0000
# 6 0.0000 0.0000 0.0000 4.4517 0.0000 26.9861
#
#
#
# Elastic Compliance Matrix: (Units=1/GPa)
#
#
# Indices 1 2 3 4 5 6 
#
# 1 0.010844 -0.006619 -0.005461 0.000000 0.001149 0.000000
# 2 -0.006619 0.041782 -0.007644 0.000000 -0.004715 0.000000
# 3 -0.005461 -0.007644 0.013659 0.000000 -0.000202 0.000000
# 4 0.000000 0.000000 0.000000 0.038300 0.000000 -0.006318
# 5 0.001149 -0.004715 -0.000202 0.000000 0.040338 0.000000
# 6 0.000000 0.000000 0.000000 -0.006318 0.000000 0.038098
#
#
# Mechanical properties :
#
#
# Convention : Reuss Voigt Hill
#
# Bulk Modulus (GPa) = 37.25967 74.06565 55.66266
# Shear Modulus (GPa) = 21.60626 26.58123 24.09374
#
# Velocity S-wave (km/s) = 3.51053 3.89378 3.70711
# Velocity P-wave (km/s) = 6.13874 7.90324 7.07620
#
# Compressibility (1/GPa) = 0.02683867
#
# Stress axis : x y z
#
# Youngs Moduli (GPa) = 92.21274 23.93401 73.21140
#
# Poissons Ratio (x) = 0.15841 0.39979
# Poissons Ratio (y) = 0.61033 0.55961
# Poissons Ratio (z) = 0.50355 0.18295
#
# Static dielectric constant tensor:
#      x y z
#    x 1.606120 0.000000 -0.009540 
#    y 0.000000 1.591530 0.000000 
#    z -0.009540 0.000000 1.568370 
# 
# From -- ./inp_files/281407.got.cif
#   From: 2010.05.17/outbox.cif.g08.bks.cpg/sg12_141_cif.got.tgz:281407.got - 2010.06.03 13:09:07.
