data_PCOD9179369
_publ_section_title
;
Structure prediction by ZEFSAII (Michael W. Deem and Ramdas Pophale) SiO2 
 PCOD9179369
Probable space group: C 2/M
;
_chemical_formula_sum "Si O2"
_cell_formula_units_Z 56
_cell_length_a 8.653849
_cell_length_b 19.652629
_cell_length_c 22.508937
_cell_angle_alpha 90.000000
_cell_angle_beta 54.781588
_cell_angle_gamma 90.000000
_cell_volume 3127.415219
_symmetry_space_group_name_H-M "C 2/M"
_symmetry_group_IT_number 12
_symmetry_cell_setting 'monoclinic'
loop_
_space_group_symop_operation_xyz
x,y,z
-x,y,-z
-x,-y,-z
x,-y,z
1/2+x,1/2+y,z
1/2-x,1/2+y,-z
1/2-x,1/2-y,-z
1/2+x,1/2-y,z
loop_
_atom_site_type_symbol
_atom_site_label
_atom_site_fract_x
_atom_site_fract_y
_atom_site_fract_z
Si Si1 0.812600 0.173807 0.500000
Si Si2 0.817221 0.325635 0.077465
Si Si3 0.509636 0.577902 0.368115
Si Si4 0.549617 0.325635 0.922535
Si Si5 0.239235 0.419853 0.797339
Si Si6 0.868749 0.580147 0.797339
Si Si7 0.386019 0.922098 0.368114
O O1 0.750000 0.250000 0.500000
O O2 0.655361 0.131177 0.571034
O O3 0.000000 0.175809 0.500000
O O4 0.868461 0.131177 0.428967
O O5 0.641640 0.321583 0.072240
O O6 0.865675 0.250000 0.089550
O O7 0.769517 0.374178 0.142783
O O8 0.000000 0.350183 0.000000
O O9 0.436873 0.500000 0.384002
O O10 0.587179 0.595931 0.285698
O O11 0.696910 0.576997 0.368727
O O12 0.697867 0.374178 0.857217
O O13 0.500000 0.350182 0.000000
O O14 0.251378 0.500000 0.809187
O O15 0.046873 0.409726 0.802085
O O16 0.821062 0.500000 0.809187
O O17 0.944273 0.595931 0.714303
O O18 0.411120 0.000000 0.384002
#
# Coordination Sequence:
#
# PCOD9179369 Si02
#       7
#     8   8   8   8   8   8   8
#     4  10  19  31  49  75 105 134 170 212 254 300
#     4  11  22  37  56  77 104 137 174 213 257 309
#     4   8  15  30  53  76  98 131 174 214 250 295
#     4  11  22  37  56  77 104 137 174 213 257 309
#     4   9  18  34  55  79 106 135 171 215 261 308
#     4   9  18  34  55  79 106 135 171 215 261 308
#     4   8  15  30  53  76  98 131 174 214 250 295
#
# _framework density 17.906161000000001
#
# number of rings (size 3 to 8) (size 9 to 14) (size 15 to 20)
#    0.000    2.571    0.000    5.571    0.000    4.000 
#    0.000    4.286    0.000    3.429    0.000    0.000 
#    0.000    0.000    0.000    0.000    0.000    0.000 
#
# Total GULP energy -156217.415838 kJ/mol
# GULP energy per Si atom -5579.193423 kJ/mol
# Density = 1.786541 g / cm^3
# Si number density = 17.906161 Si / 1000 Ang^3
#
#
#
# Elastic Constant Matrix: (Units=GPa)
#
#
# Indices 1 2 3 4 5 6 
#
# 1 61.5388 49.5381 61.0403 -0.0001 -0.0006 0.0000
# 2 49.5381 108.2774 121.2497 0.0000 -0.0022 0.0000
# 3 61.0403 121.2497 184.7423 0.0000 -0.0027 0.0000
# 4 -0.0001 0.0000 0.0000 -94.8739 0.0001 0.0085
# 5 -0.0006 -0.0022 -0.0027 0.0001 12.3415 0.0000
# 6 0.0000 0.0000 0.0000 0.0085 0.0000 25.9918
#
#
#
# Elastic Compliance Matrix: (Units=1/GPa)
#
#
# Indices 1 2 3 4 5 6 
#
# 1 0.026149 -0.008634 -0.002973 0.000000 -0.000001 0.000000
# 2 -0.008634 0.037695 -0.021887 0.000000 0.000001 0.000000
# 3 -0.002973 -0.021887 0.020760 0.000000 0.000001 0.000000
# 4 0.000000 0.000000 0.000000 -0.010540 0.000000 0.000003
# 5 -0.000001 0.000001 0.000001 0.000000 0.081028 0.000000
# 6 0.000000 0.000000 0.000000 0.000003 0.000000 0.038474
#
#
# Mechanical properties :
#
#
# Convention : Reuss Voigt Hill
#
# Bulk Modulus (GPa) = 56.76773 90.91274 73.84024
# Shear Modulus (GPa) = 18.76683 -3.12610 7.82037
#
# Velocity S-wave (km/s) = 3.24090 -1.32273 2.09210
# Velocity P-wave (km/s) = 6.76582 6.96772 6.86751
#
# Compressibility (1/GPa) = 0.01761564
#
# Stress axis : x y z
#
# Youngs Moduli (GPa) = 38.24167 26.52845 48.16887
#
# Poissons Ratio (x) = 0.22906 0.14321
# Poissons Ratio (y) = 0.33019 1.05429
# Poissons Ratio (z) = 0.11370 0.58064
#
# Static dielectric constant tensor:
#      x y z
#    x 1.606810 0.000000 0.000000 
#    y 0.000000 1.582410 0.000000 
#    z 0.000000 0.000000 1.610250 
# 
# From -- ./inp_files/301640.got.cif
#   From: 2010.05.17/outbox.cif.g08.bks.cpg/sg12_151_cif.got.tgz:301640.got - 2010.06.03 13:09:07.
