data_PCOD9179411
_publ_section_title
;
Structure prediction by ZEFSAII (Michael W. Deem and Ramdas Pophale) SiO2 
 PCOD9179411
Probable space group: C 2/M
;
_chemical_formula_sum "Si O2"
_cell_formula_units_Z 64
_cell_length_a 22.823410
_cell_length_b 7.666147
_cell_length_c 22.827291
_cell_angle_alpha 90.000000
_cell_angle_beta 47.826406
_cell_angle_gamma 90.000000
_cell_volume 2960.036884
_symmetry_space_group_name_H-M "C 2/M"
_symmetry_group_IT_number 12
_symmetry_cell_setting 'monoclinic'
loop_
_space_group_symop_operation_xyz
x,y,z
-x,y,-z
-x,-y,-z
x,-y,z
1/2+x,1/2+y,z
1/2-x,1/2+y,-z
1/2-x,1/2-y,-z
1/2+x,1/2-y,z
loop_
_atom_site_type_symbol
_atom_site_label
_atom_site_fract_x
_atom_site_fract_y
_atom_site_fract_z
Si Si1 0.830051 0.288070 0.753696
Si Si2 0.068543 0.207561 0.498298
Si Si3 0.500989 0.204635 0.796685
Si Si4 0.779169 0.199873 0.661745
Si Si5 0.837150 0.792113 0.085322
Si Si6 0.995207 0.710825 0.331621
Si Si7 0.840877 0.792058 0.953548
Si Si8 0.112338 0.289166 0.821716
O O1 0.827446 0.500000 0.750146
O O2 0.824451 0.206839 0.693280
O O3 0.752019 0.230301 0.840611
O O4 0.912913 0.238186 0.725350
O O5 0.156176 0.279924 0.425302
O O6 0.000000 0.276524 0.500000
O O7 0.046161 0.232174 0.580880
O O8 0.073259 0.000000 0.483549
O O9 0.532063 0.276169 0.713839
O O10 0.406613 0.219454 0.865692
O O11 0.541609 0.276114 0.828192
O O12 0.520478 0.000000 0.783070
O O13 0.693718 0.276237 0.736274
O O14 0.763544 0.000000 0.653882
O O15 0.887832 0.758419 0.109629
O O16 0.832945 0.000000 0.082030
O O17 0.860971 0.723867 0.005693
O O18 0.991691 0.500000 0.333543
O O19 0.849114 0.000000 0.946449
O O20 0.750000 0.750000 0.000000
O O21 0.114857 0.500000 0.820422
#
# Coordination Sequence:
#
# PCOD9179411 Si02
#       8
#     8   8   8   8   8   8   8   8
#     4   9  16  28  48  73 100 133 169 211 263 319
#     4  10  19  31  49  77 111 139 170 224 282 331
#     4  10  22  40  57  77 109 147 187 231 274 322
#     4   9  17  31  50  74 104 136 172 218 271 322
#     4   9  19  35  55  80 110 141 178 225 273 319
#     4  10  20  33  51  74 105 142 180 222 272 331
#     4  11  23  39  60  86 116 147 179 222 276 331
#     4   9  19  36  58  79 104 145 192 230 269 322
#
# _framework density 21.621352999999999
#
# number of rings (size 3 to 8) (size 9 to 14) (size 15 to 20)
#    0.000    2.375    1.250    1.125    0.000    5.250 
#    0.000    5.625    0.000    0.000    0.000    0.000 
#    0.000    0.000    0.000    0.000    0.000    0.000 
#
# Total GULP energy -178476.255428 kJ/mol
# GULP energy per Si atom -5577.382982 kJ/mol
# Density = 2.157214 g / cm^3
# Si number density = 21.621353 Si / 1000 Ang^3
#
#
#
# Elastic Constant Matrix: (Units=GPa)
#
#
# Indices 1 2 3 4 5 6 
#
# 1 73.1833 -9.3351 30.9328 -0.0007 10.1739 0.0009
# 2 -9.3351 33.6890 -11.2708 0.0082 2.1115 0.0051
# 3 30.9328 -11.2708 123.1896 -0.0014 26.8244 0.0011
# 4 -0.0007 0.0082 -0.0014 14.1598 0.0014 2.4232
# 5 10.1739 2.1115 26.8244 0.0014 20.7994 -0.0007
# 6 0.0009 0.0051 0.0011 2.4232 -0.0007 12.1929
#
#
#
# Elastic Compliance Matrix: (Units=1/GPa)
#
#
# Indices 1 2 3 4 5 6 
#
# 1 0.015923 0.003848 -0.002594 -0.000001 -0.004835 -0.000003
# 2 0.003848 0.032915 0.004426 -0.000015 -0.010931 -0.000012
# 3 -0.002594 0.004426 0.012508 0.000001 -0.015312 -0.000004
# 4 -0.000001 -0.000015 0.000001 0.073109 -0.000004 -0.014530
# 5 -0.004835 -0.010931 -0.015312 -0.000004 0.071300 0.000011
# 6 -0.000003 -0.000012 -0.000004 -0.014530 0.000011 0.084903
#
#
# Mechanical properties :
#
#
# Convention : Reuss Voigt Hill
#
# Bulk Modulus (GPa) = 13.75414 27.85732 20.80573
# Shear Modulus (GPa) = 16.47262 24.07941 20.27601
#
# Velocity S-wave (km/s) = 2.76319 3.34081 3.06564
# Velocity P-wave (km/s) = 4.06884 5.27196 4.70898
#
# Compressibility (1/GPa) = 0.07270538
#
# Stress axis : x y z
#
# Youngs Moduli (GPa) = 62.80032 30.38120 79.95018
#
# Poissons Ratio (x) = -0.11690 0.20736
# Poissons Ratio (y) = -0.24163 -0.35382
# Poissons Ratio (z) = 0.16288 -0.13445
#
# Static dielectric constant tensor:
#      x y z
#    x 1.804060 0.000000 -0.006460 
#    y 0.000000 1.831300 0.000000 
#    z -0.006460 0.000000 1.819250 
# 
# From -- ./inp_files/324108.got.cif
#   From: 2010.05.17/outbox.cif.g08.bks.cpg/sg12_163_cif.got.tgz:324108.got - 2010.06.03 13:09:07.
