data_PCOD9179333
_publ_section_title
;
Structure prediction by ZEFSAII (Michael W. Deem and Ramdas Pophale) SiO2 
 PCOD9179333
Probable space group: C 2/M
;
_chemical_formula_sum "Si O2"
_cell_formula_units_Z 40
_cell_length_a 20.751520
_cell_length_b 14.417305
_cell_length_c 5.279739
_cell_angle_alpha 90.000000
_cell_angle_beta 95.846871
_cell_angle_gamma 90.000000
_cell_volume 1571.380027
_symmetry_space_group_name_H-M "C 2/M"
_symmetry_group_IT_number 12
_symmetry_cell_setting 'monoclinic'
loop_
_space_group_symop_operation_xyz
x,y,z
-x,y,-z
-x,-y,-z
x,-y,z
1/2+x,1/2+y,z
1/2-x,1/2+y,-z
1/2-x,1/2-y,-z
1/2+x,1/2-y,z
loop_
_atom_site_type_symbol
_atom_site_label
_atom_site_fract_x
_atom_site_fract_y
_atom_site_fract_z
Si Si1 0.250981 0.637211 0.772855
Si Si2 0.687649 0.842607 0.246564
Si Si3 0.040782 0.387722 0.268842
Si Si4 0.068324 0.888510 0.396314
Si Si5 0.617103 0.603341 0.913197
O O1 0.277002 0.742793 0.755966
O O2 0.226766 0.606814 0.488126
O O3 0.195571 0.622915 0.961339
O O4 0.313670 0.594390 0.930393
O O5 0.612606 0.844970 0.290123
O O6 0.049064 0.500000 0.281947
O O7 0.000000 0.358964 0.500000
O O8 0.000000 0.366239 0.000000
O O9 0.118409 0.854508 0.632858
O O10 0.000000 0.871915 0.500000
O O11 0.077015 0.000000 0.360420
O O12 0.075503 0.849412 0.117569
O O13 0.589454 0.500000 0.857449
#
# Coordination Sequence:
#
# PCOD9179333 Si02
#       5
#     8   8   8   8   8
#     4  10  21  36  55  79 108 145 183 218 268 330
#     4  10  21  38  57  77 109 146 177 219 274 335
#     4  10  21  38  61  88 115 144 184 236 290 342
#     4   9  17  30  47  67  97 136 170 207 258 303
#     4  10  19  31  49  74 102 131 174 225 260 305
#
# _framework density 25.455333
#
# number of rings (size 3 to 8) (size 9 to 14) (size 15 to 20)
#    0.000    2.200    0.000    3.000    0.000    4.000 
#    0.000    3.000    0.000    0.000    0.000    0.000 
#    0.000    0.000    0.000    0.000    0.000    0.000 
#
# Total GULP energy -111727.338150 kJ/mol
# GULP energy per Si atom -5586.366907 kJ/mol
# Density = 2.539740 g / cm^3
# Si number density = 25.455333 Si / 1000 Ang^3
#
#
#
# Elastic Constant Matrix: (Units=GPa)
#
#
# Indices 1 2 3 4 5 6 
#
# 1 152.4076 0.3259 51.8840 0.0000 -16.3289 0.0000
# 2 0.3259 68.5315 30.1299 0.0000 1.3754 0.0000
# 3 51.8840 30.1299 167.0587 0.0000 -5.5021 0.0000
# 4 0.0000 0.0000 0.0000 6.9459 0.0000 9.5961
# 5 -16.3289 1.3754 -5.5021 0.0000 54.1142 0.0000
# 6 0.0000 0.0000 0.0000 9.5961 0.0000 21.4421
#
#
#
# Elastic Compliance Matrix: (Units=1/GPa)
#
#
# Indices 1 2 3 4 5 6 
#
# 1 0.007621 0.001015 -0.002483 0.000000 0.002021 0.000000
# 2 0.001015 0.016010 -0.003217 0.000000 -0.000428 0.000000
# 3 -0.002483 -0.003217 0.007340 0.000000 0.000079 0.000000
# 4 0.000000 0.000000 0.000000 0.377164 0.000000 -0.168794
# 5 0.002021 -0.000428 0.000079 0.000000 0.019108 0.000000
# 6 0.000000 0.000000 0.000000 -0.168794 0.000000 0.122178
#
#
# Mechanical properties :
#
#
# Convention : Reuss Voigt Hill
#
# Bulk Modulus (GPa) = 46.29493 61.40859 53.85176
# Shear Modulus (GPa) = 8.83405 36.87763 22.85584
#
# Velocity S-wave (km/s) = 1.86492 3.81033 2.99972
# Velocity P-wave (km/s) = 4.78158 6.59808 5.76186
#
# Compressibility (1/GPa) = 0.02160064
#
# Stress axis : x y z
#
# Youngs Moduli (GPa) = 131.21315 62.46151 136.24048
#
# Poissons Ratio (x) = -0.06340 0.33834
# Poissons Ratio (y) = -0.13319 0.43826
# Poissons Ratio (z) = 0.32586 0.20093
#
# Static dielectric constant tensor:
#      x y z
#    x 2.015290 0.000000 -0.024970 
#    y 0.000000 2.118470 0.000000 
#    z -0.024970 0.000000 2.022950 
# 
# From -- ./inp_files/15297.got.cif
#   From: 2010.05.17/outbox.cif.g08.bks.cpg/sg12_8_cif.got.tgz:15297.got - 2010.06.03 13:09:07.
