data_PCOD9179983
_publ_section_title
;
Structure prediction by ZEFSAII (Michael W. Deem and Ramdas Pophale) SiO2 
 PCOD9179983
Probable space group: C 2/M
;
_chemical_formula_sum "Si O2"
_cell_formula_units_Z 48
_cell_length_a 20.129304
_cell_length_b 17.966798
_cell_length_c 13.540791
_cell_angle_alpha 90.000000
_cell_angle_beta 149.808875
_cell_angle_gamma 90.000000
_cell_volume 2462.708908
_symmetry_space_group_name_H-M "C 2/M"
_symmetry_group_IT_number 12
_symmetry_cell_setting 'monoclinic'
loop_
_space_group_symop_operation_xyz
x,y,z
-x,y,-z
-x,-y,-z
x,-y,z
1/2+x,1/2+y,z
1/2-x,1/2+y,-z
1/2-x,1/2-y,-z
1/2+x,1/2-y,z
loop_
_atom_site_type_symbol
_atom_site_label
_atom_site_fract_x
_atom_site_fract_y
_atom_site_fract_z
Si Si1 0.476611 0.419667 0.259250
Si Si2 0.273987 0.656394 0.466295
Si Si3 0.534851 0.785161 0.244394
Si Si4 0.867926 0.082824 0.896552
Si Si5 0.388281 0.734759 0.233405
Si Si6 0.228628 0.755391 0.216348
O O1 0.445075 0.500000 0.262651
O O2 0.633051 0.412578 0.438580
O O3 0.405850 0.414050 0.061556
O O4 0.432383 0.349826 0.267930
O O5 0.374328 0.711488 0.653577
O O6 0.134405 0.649419 0.341678
O O7 0.245051 0.700637 0.328585
O O8 0.490055 0.784898 0.301026
O O9 0.405264 0.771879 0.011981
O O10 0.808820 0.000000 0.802265
O O11 0.788262 0.158461 0.775034
O O12 0.000000 0.086422 0.000000
O O13 0.351308 0.748226 0.298789
O O14 0.250000 0.750000 0.000000
#
# Coordination Sequence:
#
# PCOD9179983 Si02
#       6
#     8   8   8   8   8   8
#     4  10  20  36  55  80 113 140 179 232 278 321
#     4  10  19  31  53  78 104 146 181 225 272 312
#     4   9  18  31  48  77 104 133 184 222 262 314
#     4  10  19  31  52  83 112 135 171 226 280 323
#     4   9  17  33  51  80 109 142 184 221 271 328
#     4  11  19  32  55  78 114 141 185 229 269 328
#
# _framework density 19.490732000000001
#
# number of rings (size 3 to 8) (size 9 to 14) (size 15 to 20)
#    0.000    2.167    5.000    1.500    2.333    2.667 
#    0.000    1.667    0.000    7.000    0.000   14.000 
#    0.000    0.000    0.000    0.000    0.000    0.000 
#
# Total GULP energy -133782.283670 kJ/mol
# GULP energy per Si atom -5574.261820 kJ/mol
# Density = 1.944637 g / cm^3
# Si number density = 19.490732 Si / 1000 Ang^3
#
#
#
# Elastic Constant Matrix: (Units=GPa)
#
#
# Indices 1 2 3 4 5 6 
#
# 1 109.0746 17.6600 14.8075 0.0000 15.4073 0.0000
# 2 17.6600 78.2305 5.4683 0.0000 7.1481 0.0000
# 3 14.8075 5.4683 72.1397 0.0000 6.9366 0.0000
# 4 0.0000 0.0000 0.0000 8.5070 0.0000 2.6624
# 5 15.4073 7.1481 6.9366 0.0000 37.6720 0.0000
# 6 0.0000 0.0000 0.0000 2.6624 0.0000 22.2499
#
#
#
# Elastic Compliance Matrix: (Units=1/GPa)
#
#
# Indices 1 2 3 4 5 6 
#
# 1 0.010185 -0.001865 -0.001611 0.000000 -0.003515 0.000000
# 2 -0.001865 0.013391 -0.000470 0.000000 -0.001692 0.000000
# 3 -0.001611 -0.000470 0.014412 0.000000 -0.001906 0.000000
# 4 0.000000 0.000000 0.000000 0.122124 0.000000 -0.014614
# 5 -0.003515 -0.001692 -0.001906 0.000000 0.028654 0.000000
# 6 0.000000 0.000000 0.000000 -0.014614 0.000000 0.046693
#
#
# Mechanical properties :
#
#
# Convention : Reuss Voigt Hill
#
# Bulk Modulus (GPa) = 33.22743 37.25737 35.24240
# Shear Modulus (GPa) = 19.73290 28.45302 24.09296
#
# Velocity S-wave (km/s) = 3.18531 3.82491 3.51967
# Velocity P-wave (km/s) = 5.53291 6.21800 5.88543
#
# Compressibility (1/GPa) = 0.03009562
#
# Stress axis : x y z
#
# Youngs Moduli (GPa) = 98.18045 74.67567 69.38880
#
# Poissons Ratio (x) = 0.13931 0.11180
# Poissons Ratio (y) = 0.18315 0.03258
# Poissons Ratio (z) = 0.15819 0.03506
#
# Static dielectric constant tensor:
#      x y z
#    x 1.744480 0.000000 -0.004270 
#    y 0.000000 1.685100 0.000000 
#    z -0.004270 0.000000 1.748990 
# 
# From -- ./inp_files/234981.got.cif
#   From: 2010.05.17/outbox.cif.g08.bks.cpg/sg12_118_cif.got.tgz:234981.got - 2010.06.03 13:09:07.
