data_PCOD9179158
_publ_section_title
;
Structure prediction by ZEFSAII (Michael W. Deem and Ramdas Pophale) SiO2 
 PCOD9179158
Probable space group: C 2/M
;
_chemical_formula_sum "Si O2"
_cell_formula_units_Z 40
_cell_length_a 14.840249
_cell_length_b 11.394715
_cell_length_c 20.463950
_cell_angle_alpha 90.000000
_cell_angle_beta 28.382905
_cell_angle_gamma 90.000000
_cell_volume 1644.971350
_symmetry_space_group_name_H-M "C 2/M"
_symmetry_group_IT_number 12
_symmetry_cell_setting 'monoclinic'
loop_
_space_group_symop_operation_xyz
x,y,z
-x,y,-z
-x,-y,-z
x,-y,z
1/2+x,1/2+y,z
1/2-x,1/2+y,-z
1/2-x,1/2-y,-z
1/2+x,1/2-y,z
loop_
_atom_site_type_symbol
_atom_site_label
_atom_site_fract_x
_atom_site_fract_y
_atom_site_fract_z
Si Si1 0.821483 0.374627 0.562153
Si Si2 0.104439 0.708184 0.870993
Si Si3 0.286753 0.633997 0.019474
Si Si4 0.414412 0.872752 0.720984
Si Si5 0.769533 0.874820 0.636474
O O1 0.721398 0.500000 0.636983
O O2 0.721599 0.251827 0.637276
O O3 0.000000 0.375979 0.500000
O O4 0.891451 0.371795 0.442648
O O5 0.304176 0.760957 0.764716
O O6 0.151007 0.628387 0.779585
O O7 0.979106 0.823180 0.932514
O O8 0.000000 0.652591 0.000000
O O9 0.301340 0.500000 0.983505
O O10 0.250000 0.750000 0.000000
O O11 0.121698 0.630119 0.179177
O O12 0.328999 0.000000 0.755015
O O13 0.000000 0.872119 0.500000
O O14 0.735038 0.000000 0.624384
#
# Coordination Sequence:
#
# PCOD9179158 Si02
#       5
#     8   8   8   8   8
#     4   9  15  26  50  80 109 139 176 223 275 328
#     4  10  19  33  56  86 113 143 189 241 280 330
#     4  10  22  38  57  80 115 155 191 233 284 337
#     4   9  16  31  55  85 111 139 184 237 279 322
#     4  10  19  31  48  80 121 149 172 221 292 344
#
# _framework density 24.316531000000001
#
# number of rings (size 3 to 8) (size 9 to 14) (size 15 to 20)
#    0.000    2.400    4.000    0.600    0.000    4.400 
#    0.000    4.000    0.000    1.200    0.000    0.000 
#    0.000    0.000    0.000    0.000    0.000    0.000 
#
# Total GULP energy -111438.878685 kJ/mol
# GULP energy per Si atom -5571.943934 kJ/mol
# Density = 2.426119 g / cm^3
# Si number density = 24.316531 Si / 1000 Ang^3
#
#
#
# Elastic Constant Matrix: (Units=GPa)
#
#
# Indices 1 2 3 4 5 6 
#
# 1 27.5905 27.1876 19.2814 0.0236 6.0404 -0.0188
# 2 27.1876 239.6722 60.3402 0.0387 20.1188 -0.0316
# 3 19.2814 60.3402 132.1513 0.0523 28.5740 -0.0443
# 4 0.0236 0.0387 0.0523 -82.0907 -0.0143 91.0857
# 5 6.0404 20.1188 28.5740 -0.0143 40.2438 0.0118
# 6 -0.0188 -0.0316 -0.0443 91.0857 0.0118 -47.2660
#
#
#
# Elastic Compliance Matrix: (Units=1/GPa)
#
#
# Indices 1 2 3 4 5 6 
#
# 1 0.043220 -0.003692 -0.004273 0.000004 -0.001608 -0.000004
# 2 -0.003692 0.005063 -0.001589 0.000000 -0.000848 0.000000
# 3 -0.004273 -0.001589 0.010167 0.000003 -0.005783 -0.000002
# 4 0.000004 0.000000 0.000003 0.010702 -0.000005 0.020624
# 5 -0.001608 -0.000848 -0.005783 -0.000005 0.029620 0.000004
# 6 -0.000004 0.000000 -0.000002 0.020624 0.000004 0.018587
#
#
# Mechanical properties :
#
#
# Convention : Reuss Voigt Hill
#
# Bulk Modulus (GPa) = 25.41871 68.11469 46.76670
# Shear Modulus (GPa) = 33.42684 1.68442 17.55563
#
# Velocity S-wave (km/s) = 3.71166 0.83319 2.68985
# Velocity P-wave (km/s) = 5.37071 5.38499 5.37785
#
# Compressibility (1/GPa) = 0.03934110
#
# Stress axis : x y z
#
# Youngs Moduli (GPa) = 23.13725 197.52880 98.36201
#
# Poissons Ratio (x) = 0.72930 0.42026
# Poissons Ratio (y) = 0.08543 0.15634
# Poissons Ratio (z) = 0.09886 0.31397
#
# Static dielectric constant tensor:
#      x y z
#    x 2.095200 0.000000 0.021480 
#    y 0.000000 1.897780 0.000000 
#    z 0.021480 0.000000 1.929070 
# 
# From -- ./inp_files/315537.got.cif
#   From: 2010.05.17/outbox.cif.g08.bks.cpg/sg12_158_cif.got.tgz:315537.got - 2010.06.03 13:09:07.
