data_PCOD9179327
_publ_section_title
;
Structure prediction by ZEFSAII (Michael W. Deem and Ramdas Pophale) SiO2 
 PCOD9179327
Probable space group: C 2/M
;
_chemical_formula_sum "Si O2"
_cell_formula_units_Z 56
_cell_length_a 20.316016
_cell_length_b 8.664209
_cell_length_c 31.469941
_cell_angle_alpha 90.000000
_cell_angle_beta 144.022620
_cell_angle_gamma 90.000000
_cell_volume 3254.213124
_symmetry_space_group_name_H-M "C 2/M"
_symmetry_group_IT_number 12
_symmetry_cell_setting 'monoclinic'
loop_
_space_group_symop_operation_xyz
x,y,z
-x,y,-z
-x,-y,-z
x,-y,z
1/2+x,1/2+y,z
1/2-x,1/2+y,-z
1/2-x,1/2-y,-z
1/2+x,1/2-y,z
loop_
_atom_site_type_symbol
_atom_site_label
_atom_site_fract_x
_atom_site_fract_y
_atom_site_fract_z
Si Si1 0.228727 0.184747 0.223905
Si Si2 0.475483 0.685367 0.340341
Si Si3 0.917525 0.313406 0.777114
Si Si4 0.324956 0.685692 0.500797
Si Si5 0.127211 0.315579 0.943018
Si Si6 0.982214 0.186289 0.942364
Si Si7 0.373893 0.813013 0.657959
O O1 0.350890 0.250467 0.278402
O O2 0.176643 0.246912 0.240671
O O3 0.138523 0.229504 0.140365
O O4 0.233807 0.000000 0.228007
O O5 0.472522 0.500000 0.337079
O O6 0.549646 0.733310 0.420628
O O7 0.541616 0.746235 0.333297
O O8 0.910299 0.500000 0.774597
O O9 0.902652 0.263601 0.720692
O O10 0.037671 0.268139 0.859837
O O11 0.324062 0.500000 0.501351
O O12 0.250000 0.750000 0.500000
O O13 0.253716 0.731480 0.422115
O O14 0.131773 0.500000 0.945736
O O15 0.074862 0.255663 0.959574
O O16 0.250000 0.250000 0.000000
O O17 0.990424 0.000000 0.945136
O O18 0.000000 0.236189 0.000000
O O19 0.382017 0.000000 0.660369
#
# Coordination Sequence:
#
# PCOD9179327 Si02
#       7
#     8   8   8   8   8   8   8
#     4  10  20  34  52  72  97 130 163 197 241 290
#     4  10  19  31  49  74 102 129 160 199 241 286
#     4   9  19  35  53  72  97 129 162 200 243 285
#     4   8  15  28  47  70  95 125 159 197 240 282
#     4  10  20  34  52  74 100 129 161 197 240 288
#     4   9  19  36  55  73  95 125 162 203 244 285
#     4   9  17  32  53  74  96 125 164 204 241 283
#
# _framework density 17.208459999999999
#
# number of rings (size 3 to 8) (size 9 to 14) (size 15 to 20)
#    0.000    2.714    0.000    1.286    0.000    3.714 
#    0.000    6.429    0.000    4.286    0.000    0.000 
#    0.000    0.000    0.000    0.000    0.000    0.000 
#
# Total GULP energy -156002.164830 kJ/mol
# GULP energy per Si atom -5571.505887 kJ/mol
# Density = 1.716929 g / cm^3
# Si number density = 17.208460 Si / 1000 Ang^3
#
#
#
# Elastic Constant Matrix: (Units=GPa)
#
#
# Indices 1 2 3 4 5 6 
#
# 1 113.8126 31.8750 120.9696 0.0000 0.3210 0.0000
# 2 31.8750 17.0504 38.9117 0.0001 1.0412 -0.0002
# 3 120.9696 38.9117 166.6769 0.0000 -1.2491 0.0000
# 4 0.0000 0.0001 0.0000 21.5650 0.0000 4.3398
# 5 0.3210 1.0412 -1.2491 0.0000 35.0634 0.0000
# 6 0.0000 -0.0002 0.0000 4.3398 0.0000 30.6078
#
#
#
# Elastic Compliance Matrix: (Units=1/GPa)
#
#
# Indices 1 2 3 4 5 6 
#
# 1 0.041072 -0.018613 -0.025469 0.000000 -0.000731 0.000000
# 2 -0.018613 0.134769 -0.017987 -0.000001 -0.004472 0.000001
# 3 -0.025469 -0.017987 0.028697 0.000000 0.001790 0.000000
# 4 0.000000 -0.000001 0.000000 0.047733 0.000000 -0.006768
# 5 -0.000731 -0.004472 0.001790 0.000000 0.028723 0.000000
# 6 0.000000 0.000001 0.000000 -0.006768 0.000000 0.033631
#
#
# Mechanical properties :
#
#
# Convention : Reuss Voigt Hill
#
# Bulk Modulus (GPa) = 12.43795 75.67249 44.05522
# Shear Modulus (GPa) = 10.73965 24.49948 17.61957
#
# Velocity S-wave (km/s) = 2.50089 3.77727 3.20330
# Velocity P-wave (km/s) = 3.94750 7.94312 6.27200
#
# Compressibility (1/GPa) = 0.08039912
#
# Stress axis : x y z
#
# Youngs Moduli (GPa) = 24.34746 7.42010 34.84685
#
# Poissons Ratio (x) = 0.13811 0.88752
# Poissons Ratio (y) = 0.45319 0.62679
# Poissons Ratio (z) = 0.62011 0.13347
#
# Static dielectric constant tensor:
#      x y z
#    x 1.531870 0.000000 -0.011170 
#    y 0.000000 1.581670 0.000000 
#    z -0.011170 0.000000 1.621430 
# 
# From -- ./inp_files/275706.got.cif
#   From: 2010.05.17/outbox.cif.g08.bks.cpg/sg12_138_cif.got.tgz:275706.got - 2010.06.03 13:09:07.
