data_PCOD9179980
_publ_section_title
;
Structure prediction by ZEFSAII (Michael W. Deem and Ramdas Pophale) SiO2 
 PCOD9179980
Probable space group: C 2/M
;
_chemical_formula_sum "Si O2"
_cell_formula_units_Z 32
_cell_length_a 10.692995
_cell_length_b 22.915585
_cell_length_c 7.154633
_cell_angle_alpha 90.000000
_cell_angle_beta 48.982106
_cell_angle_gamma 90.000000
_cell_volume 1322.755556
_symmetry_space_group_name_H-M "C 2/M"
_symmetry_group_IT_number 12
_symmetry_cell_setting 'monoclinic'
loop_
_space_group_symop_operation_xyz
x,y,z
-x,y,-z
-x,-y,-z
x,-y,z
1/2+x,1/2+y,z
1/2-x,1/2+y,-z
1/2-x,1/2-y,-z
1/2+x,1/2-y,z
loop_
_atom_site_type_symbol
_atom_site_label
_atom_site_fract_x
_atom_site_fract_y
_atom_site_fract_z
Si Si1 0.696997 0.625395 0.780909
Si Si2 0.696388 0.624317 0.338820
Si Si3 0.695600 0.000000 0.324741
Si Si4 0.196414 0.749746 0.771375
Si Si5 0.198703 0.000000 0.343677
O O1 0.733234 0.624989 0.523888
O O2 0.749050 0.562776 0.809306
O O3 0.765497 0.688316 0.780642
O O4 0.500000 0.627200 0.000000
O O5 0.500000 0.621661 0.500000
O O6 0.747521 0.686856 0.209525
O O7 0.766980 0.561851 0.203346
O O8 0.500000 0.000000 0.500000
O O9 0.768071 0.000000 0.465721
O O10 0.250000 0.750000 0.500000
O O11 0.000000 0.751428 0.000000
O O12 0.000000 0.000000 0.500000
#
# Coordination Sequence:
#
# PCOD9179980 Si02
#       5
#     8   8   4   8   4
#     4   9  18  34  52  73 106 147 182 217 275 344
#     4   9  17  32  54  77 103 141 187 227 268 328
#     4  10  19  31  52  83 110 135 181 241 281 313
#     4   9  18  34  54  77 108 145 184 227 277 332
#     4   8  16  33  55  75 106 151 187 217 273 347
#
# _framework density 24.191922000000002
#
# number of rings (size 3 to 8) (size 9 to 14) (size 15 to 20)
#    0.000    3.000    0.000    0.375    0.000    1.000 
#    0.000   19.375    0.000    0.000    0.000    0.000 
#    0.000    0.000    0.000    0.000    0.000    0.000 
#
# Total GULP energy -89130.340250 kJ/mol
# GULP energy per Si atom -5570.646266 kJ/mol
# Density = 2.413686 g / cm^3
# Si number density = 24.191922 Si / 1000 Ang^3
#
#
#
# Elastic Constant Matrix: (Units=GPa)
#
#
# Indices 1 2 3 4 5 6 
#
# 1 62.2907 18.5926 29.8048 0.0000 30.9200 0.0000
# 2 18.5926 389.3413 33.5073 0.0000 -11.7954 0.0000
# 3 29.8048 33.5073 74.2720 0.0000 18.5445 0.0000
# 4 0.0000 0.0000 0.0000 379.9652 0.0000 92.3611
# 5 30.9200 -11.7954 18.5445 0.0000 50.8647 0.0000
# 6 0.0000 0.0000 0.0000 92.3611 0.0000 36.2578
#
#
#
# Elastic Compliance Matrix: (Units=1/GPa)
#
#
# Indices 1 2 3 4 5 6 
#
# 1 0.026483 -0.001115 -0.006645 0.000000 -0.013934 0.000000
# 2 -0.001115 0.002783 -0.001253 0.000000 0.001780 0.000000
# 3 -0.006645 -0.001253 0.017338 0.000000 -0.002572 0.000000
# 4 0.000000 0.000000 0.000000 0.006911 0.000000 -0.017606
# 5 -0.013934 0.001780 -0.002572 0.000000 0.029481 0.000000
# 6 0.000000 0.000000 0.000000 -0.017606 0.000000 0.072428
#
#
# Mechanical properties :
#
#
# Convention : Reuss Voigt Hill
#
# Bulk Modulus (GPa) = 34.99106 76.63481 55.81293
# Shear Modulus (GPa) = 27.32589 123.01750 75.17169
#
# Velocity S-wave (km/s) = 3.36452 7.13870 5.58037
# Velocity P-wave (km/s) = 5.43954 9.98472 8.04000
#
# Compressibility (1/GPa) = 0.02857873
#
# Stress axis : x y z
#
# Youngs Moduli (GPa) = 37.76010 359.27046 57.67648
#
# Poissons Ratio (x) = 0.40056 0.38327
# Poissons Ratio (y) = 0.04210 0.07225
# Poissons Ratio (z) = 0.25092 0.45007
#
# Static dielectric constant tensor:
#      x y z
#    x 1.871640 0.000000 0.015890 
#    y 0.000000 2.074550 0.000000 
#    z 0.015890 0.000000 1.859250 
# 
# From -- ./inp_files/50280.got.cif
#   From: 2010.05.17/outbox.cif.g08.bks.cpg/sg12_26_cif.got.tgz:50280.got - 2010.06.03 13:09:07.
