data_PCOD9179609
_publ_section_title
;
Structure prediction by ZEFSAII (Michael W. Deem and Ramdas Pophale) SiO2 
 PCOD9179609
Probable space group: C 2/M
;
_chemical_formula_sum "Si O2"
_cell_formula_units_Z 56
_cell_length_a 9.088684
_cell_length_b 31.491608
_cell_length_c 20.403995
_cell_angle_alpha 90.000000
_cell_angle_beta 150.595823
_cell_angle_gamma 90.000000
_cell_volume 2867.236963
_symmetry_space_group_name_H-M "C 2/M"
_symmetry_group_IT_number 12
_symmetry_cell_setting 'monoclinic'
loop_
_space_group_symop_operation_xyz
x,y,z
-x,y,-z
-x,-y,-z
x,-y,z
1/2+x,1/2+y,z
1/2-x,1/2+y,-z
1/2-x,1/2-y,-z
1/2+x,1/2-y,z
loop_
_atom_site_type_symbol
_atom_site_label
_atom_site_fract_x
_atom_site_fract_y
_atom_site_fract_z
Si Si1 0.772529 0.452283 0.473346
Si Si2 0.356597 0.453595 0.137163
Si Si3 0.138002 0.285533 0.858838
Si Si4 0.141775 0.620096 0.854475
Si Si5 0.384080 0.047340 0.255286
Si Si6 0.627490 0.386378 0.748186
Si Si7 0.219449 0.297317 0.147082
O O1 0.629782 0.500000 0.418710
O O2 0.561350 0.411441 0.380138
O O3 0.000000 0.451860 0.500000
O O4 0.945387 0.448452 0.609321
O O5 0.457415 0.500000 0.202556
O O6 0.530703 0.449802 0.136605
O O7 0.437053 0.414552 0.213640
O O8 0.000000 0.454505 0.000000
O O9 0.051855 0.331976 0.798182
O O10 0.076960 0.242455 0.795738
O O11 0.993446 0.283875 0.874869
O O12 0.500000 0.285936 0.000000
O O13 0.040842 0.584364 0.764936
O O14 0.971425 0.612162 0.856817
O O15 0.500000 0.618647 0.000000
O O16 0.444460 0.000000 0.252511
O O17 0.589329 0.337499 0.753714
O O18 0.000000 0.308800 0.000000
#
# Coordination Sequence:
#
# PCOD9179609 Si02
#       7
#     8   8   8   8   8   8   8
#     4  10  20  39  59  79 108 143 196 244 269 315
#     4  10  19  31  50  77 107 140 178 221 276 332
#     4   9  18  33  52  78 114 148 178 222 275 334
#     4  10  22  37  53  83 121 148 177 224 288 343
#     4  10  21  36  56  80 108 149 190 229 277 328
#     4  11  21  33  55  81 107 144 186 233 273 323
#     4  10  19  32  53  83 112 143 185 227 278 338
#
# _framework density 19.530998
#
# number of rings (size 3 to 8) (size 9 to 14) (size 15 to 20)
#    0.000    2.000    1.429    3.429    0.000    5.429 
#    0.000    1.429    0.000    0.857    0.000    0.000 
#    0.000    0.000    0.000    0.000    0.000    0.000 
#
# Total GULP energy -155988.989770 kJ/mol
# GULP energy per Si atom -5571.035349 kJ/mol
# Density = 1.948654 g / cm^3
# Si number density = 19.530998 Si / 1000 Ang^3
#
#
#
# Elastic Constant Matrix: (Units=GPa)
#
#
# Indices 1 2 3 4 5 6 
#
# 1 86.8194 62.4067 0.9552 0.0003 -0.6326 -0.0003
# 2 62.4067 192.2570 36.9330 -0.0024 -13.1327 -0.0020
# 3 0.9552 36.9330 31.1566 -0.0116 -1.4155 -0.0129
# 4 0.0003 -0.0024 -0.0116 25.0454 0.0029 -4.2266
# 5 -0.6326 -13.1327 -1.4155 0.0029 20.9538 0.0017
# 6 -0.0003 -0.0020 -0.0129 -4.2266 0.0017 31.9041
#
#
#
# Elastic Compliance Matrix: (Units=1/GPa)
#
#
# Indices 1 2 3 4 5 6 
#
# 1 0.016489 -0.007068 0.007718 0.000004 -0.003411 0.000004
# 2 -0.007068 0.010062 -0.011469 -0.000006 0.005318 -0.000005
# 3 0.007718 -0.011469 0.045278 0.000024 -0.003897 0.000021
# 4 0.000004 -0.000006 0.000024 0.040841 -0.000008 0.005411
# 5 -0.003411 0.005318 -0.003897 -0.000008 0.050691 -0.000005
# 6 0.000004 -0.000005 0.000021 0.005411 -0.000005 0.032061
#
#
# Mechanical properties :
#
#
# Convention : Reuss Voigt Hill
#
# Bulk Modulus (GPa) = 19.92423 56.75808 38.34116
# Shear Modulus (GPa) = 21.38668 29.57653 25.48161
#
# Velocity S-wave (km/s) = 3.31269 3.89567 3.61595
# Velocity P-wave (km/s) = 4.98551 7.02557 6.09155
#
# Compressibility (1/GPa) = 0.05019014
#
# Stress axis : x y z
#
# Youngs Moduli (GPa) = 60.64703 99.38206 22.08575
#
# Poissons Ratio (x) = 0.70242 -0.17045
# Poissons Ratio (y) = 0.42864 0.25331
# Poissons Ratio (z) = -0.46806 1.13985
#
# Static dielectric constant tensor:
#      x y z
#    x 1.676360 0.000000 0.005820 
#    y 0.000000 1.741490 0.000000 
#    z 0.005820 0.000000 1.719450 
# 
# From -- ./inp_files/185216.got.cif
#   From: 2010.05.17/outbox.cif.g08.bks.cpg/sg12_93_cif.got.tgz:185216.got - 2010.06.03 13:09:07.
