data_PCOD9179943
_publ_section_title
;
Structure prediction by ZEFSAII (Michael W. Deem and Ramdas Pophale) SiO2 
 PCOD9179943
Probable space group: C 2/M
;
_chemical_formula_sum "Si O2"
_cell_formula_units_Z 48
_cell_length_a 19.067188
_cell_length_b 8.997392
_cell_length_c 25.575707
_cell_angle_alpha 90.000000
_cell_angle_beta 42.055122
_cell_angle_gamma 90.000000
_cell_volume 2939.039473
_symmetry_space_group_name_H-M "C 2/M"
_symmetry_group_IT_number 12
_symmetry_cell_setting 'monoclinic'
loop_
_space_group_symop_operation_xyz
x,y,z
-x,y,-z
-x,-y,-z
x,-y,z
1/2+x,1/2+y,z
1/2-x,1/2+y,-z
1/2-x,1/2-y,-z
1/2+x,1/2-y,z
loop_
_atom_site_type_symbol
_atom_site_label
_atom_site_fract_x
_atom_site_fract_y
_atom_site_fract_z
Si Si1 0.599160 0.824293 0.911608
Si Si2 0.086352 0.821167 0.495151
Si Si3 0.019619 0.177985 0.650296
Si Si4 0.312851 0.677486 0.354213
Si Si5 0.833811 0.674495 0.236329
Si Si6 0.301476 0.823418 0.770951
O O1 0.583862 0.809703 0.857144
O O2 0.706842 0.734697 0.860251
O O3 0.616880 0.000000 0.911921
O O4 0.500000 0.774999 0.000000
O O5 0.048229 0.784454 0.574734
O O6 0.197622 0.745682 0.423591
O O7 0.000000 0.777141 0.500000
O O8 0.099113 0.000000 0.484881
O O9 0.114655 0.215711 0.636410
O O10 0.913786 0.261677 0.724400
O O11 0.002078 0.000000 0.662737
O O12 0.306449 0.500000 0.354080
O O13 0.360792 0.744206 0.274539
O O14 0.815286 0.500000 0.255475
O O15 0.731029 0.749053 0.266827
O O16 0.300276 0.000000 0.767778
#
# Coordination Sequence:
#
# PCOD9179943 Si02
#       6
#     8   8   8   8   8   8
#     4   8  16  32  55  80 105 136 171 209 258 312
#     4  10  21  36  55  74  98 137 182 221 261 309
#     4  10  21  36  51  73 107 144 177 213 261 312
#     4  11  22  34  51  76 106 139 177 220 262 304
#     4   9  18  33  53  75 103 136 172 211 257 312
#     4  10  19  31  52  81 107 133 171 216 259 303
#
# _framework density 16.331866999999999
#
# number of rings (size 3 to 8) (size 9 to 14) (size 15 to 20)
#    1.000    1.333    0.000    3.500    0.000    4.000 
#    0.000    0.000    0.000    1.000    0.000    0.000 
#    0.000    0.000    0.000    0.000    0.000    0.000 
#
# Total GULP energy -133656.687733 kJ/mol
# GULP energy per Si atom -5569.028656 kJ/mol
# Density = 1.629469 g / cm^3
# Si number density = 16.331867 Si / 1000 Ang^3
#
#
#
# Elastic Constant Matrix: (Units=GPa)
#
#
# Indices 1 2 3 4 5 6 
#
# 1 125.4121 51.9741 66.2431 0.0000 0.9837 0.0000
# 2 51.9741 51.9284 48.7801 0.0000 -3.3964 0.0001
# 3 66.2431 48.7801 113.5467 0.0000 -6.6724 0.0000
# 4 0.0000 0.0000 0.0000 21.1232 0.0000 2.0054
# 5 0.9837 -3.3964 -6.6724 0.0000 8.8903 0.0000
# 6 0.0000 0.0001 0.0000 2.0054 0.0000 21.3362
#
#
#
# Elastic Compliance Matrix: (Units=1/GPa)
#
#
# Indices 1 2 3 4 5 6 
#
# 1 0.015237 -0.011731 -0.004406 0.000000 -0.009475 0.000000
# 2 -0.011731 0.041353 -0.010374 0.000000 0.009310 0.000000
# 3 -0.004406 -0.010374 0.016352 0.000000 0.008797 0.000000
# 4 0.000000 0.000000 0.000000 0.047767 0.000000 -0.004490
# 5 -0.009475 0.009310 0.008797 0.000000 0.123690 0.000000
# 6 0.000000 0.000000 0.000000 -0.004490 0.000000 0.047291
#
#
# Mechanical properties :
#
#
# Convention : Reuss Voigt Hill
#
# Bulk Modulus (GPa) = 50.20619 69.43130 59.81874
# Shear Modulus (GPa) = 14.23072 18.52927 16.38000
#
# Velocity S-wave (km/s) = 2.95506 3.37196 3.17037
# Velocity P-wave (km/s) = 6.51546 7.60034 7.07871
#
# Compressibility (1/GPa) = 0.01991786
#
# Stress axis : x y z
#
# Youngs Moduli (GPa) = 65.62897 24.18201 61.15639
#
# Poissons Ratio (x) = 0.28368 0.26948
# Poissons Ratio (y) = 0.76989 0.63447
# Poissons Ratio (z) = 0.28919 0.25088
#
# Static dielectric constant tensor:
#      x y z
#    x 1.534400 0.000000 0.012250 
#    y 0.000000 1.541930 0.000000 
#    z 0.012250 0.000000 1.558780 
# 
# From -- ./inp_files/273655.got.cif
#   From: 2010.05.17/outbox.cif.g08.bks.cpg/sg12_137_cif.got.tgz:273655.got - 2010.06.03 13:09:07.
