data_PCOD9179770
_publ_section_title
;
Structure prediction by ZEFSAII (Michael W. Deem and Ramdas Pophale) SiO2 
 PCOD9179770
Probable space group: C 2/M
;
_chemical_formula_sum "Si O2"
_cell_formula_units_Z 56
_cell_length_a 19.506828
_cell_length_b 7.749152
_cell_length_c 33.323920
_cell_angle_alpha 90.000000
_cell_angle_beta 149.144917
_cell_angle_gamma 90.000000
_cell_volume 2583.466719
_symmetry_space_group_name_H-M "C 2/M"
_symmetry_group_IT_number 12
_symmetry_cell_setting 'monoclinic'
loop_
_space_group_symop_operation_xyz
x,y,z
-x,y,-z
-x,-y,-z
x,-y,z
1/2+x,1/2+y,z
1/2-x,1/2+y,-z
1/2-x,1/2-y,-z
1/2+x,1/2-y,z
loop_
_atom_site_type_symbol
_atom_site_label
_atom_site_fract_x
_atom_site_fract_y
_atom_site_fract_z
Si Si1 0.403987 0.205421 0.237257
Si Si2 0.605395 0.789719 0.177135
Si Si3 0.174671 0.306356 0.502348
Si Si4 0.085464 0.799389 0.668388
Si Si5 0.917924 0.711943 0.747505
Si Si6 0.147626 0.802685 0.574743
Si Si7 0.591786 0.208650 0.082238
O O1 0.452738 0.282758 0.303941
O O2 0.484597 0.268493 0.239040
O O3 0.246833 0.244863 0.154098
O O4 0.421596 0.000000 0.249300
O O5 0.761829 0.739023 0.257385
O O6 0.542302 0.734586 0.187552
O O7 0.551512 0.730963 0.106873
O O8 0.603152 0.000000 0.175269
O O9 0.214031 0.500000 0.532077
O O10 0.250000 0.250000 0.500000
O O11 0.197615 0.197420 0.553835
O O12 0.018974 0.295904 0.412061
O O13 0.080750 0.000000 0.654636
O O14 0.916385 0.500000 0.745977
O O15 0.767208 0.771024 0.661415
O O16 0.000000 0.720440 0.500000
O O17 0.129318 0.000000 0.579676
O O18 0.583810 0.000000 0.078325
O O19 0.500000 0.274024 0.000000
#
# Coordination Sequence:
#
# PCOD9179770 Si02
#       7
#     8   8   8   8   8   8   8
#     4  10  19  31  51  78 107 137 169 211 262 316
#     4   8  15  30  53  76  97 128 170 208 247 304
#     4  12  24  36  51  73 103 138 180 230 280 325
#     4  10  19  34  55  75  98 133 177 220 262 312
#     4   9  17  30  49  74 102 133 171 213 258 311
#     4  10  20  35  55  77 104 141 184 228 276 328
#     4   9  18  34  56  79 103 134 173 215 256 305
#
# _framework density 21.676300000000001
#
# number of rings (size 3 to 8) (size 9 to 14) (size 15 to 20)
#    0.000    2.286    0.000    4.714    0.000    4.000 
#    0.000    1.429    0.000    9.429    0.000    0.000 
#    0.000    0.000    0.000    0.000    0.000    0.000 
#
# Total GULP energy -156379.922641 kJ/mol
# GULP energy per Si atom -5584.997237 kJ/mol
# Density = 2.162696 g / cm^3
# Si number density = 21.676300 Si / 1000 Ang^3
#
#
#
# Elastic Constant Matrix: (Units=GPa)
#
#
# Indices 1 2 3 4 5 6 
#
# 1 122.8304 -2.4484 33.8087 0.0003 -38.2923 -0.0005
# 2 -2.4484 45.2631 1.5153 -0.0001 -2.7000 0.0004
# 3 33.8087 1.5153 96.9568 0.0002 -30.7688 -0.0005
# 4 0.0003 -0.0001 0.0002 14.8617 -0.0001 1.1982
# 5 -38.2923 -2.7000 -30.7688 -0.0001 32.5270 0.0001
# 6 -0.0005 0.0004 -0.0005 1.1982 0.0001 15.1324
#
#
#
# Elastic Compliance Matrix: (Units=1/GPa)
#
#
# Indices 1 2 3 4 5 6 
#
# 1 0.012995 0.001635 0.000487 0.000000 0.015895 0.000000
# 2 0.001635 0.022417 0.000401 0.000000 0.004165 -0.000001
# 3 0.000487 0.000401 0.014762 0.000000 0.014571 0.000000
# 4 0.000000 0.000000 0.000000 0.067719 0.000000 -0.005362
# 5 0.015895 0.004165 0.014571 0.000000 0.063585 0.000000
# 6 0.000000 -0.000001 0.000000 -0.005362 0.000000 0.066508
#
#
# Mechanical properties :
#
#
# Convention : Reuss Voigt Hill
#
# Bulk Modulus (GPa) = 18.10935 36.75570 27.43253
# Shear Modulus (GPa) = 19.13178 27.98253 23.55715
#
# Velocity S-wave (km/s) = 2.97410 3.59685 3.30020
# Velocity P-wave (km/s) = 4.49069 5.85177 5.21582
#
# Compressibility (1/GPa) = 0.05522009
#
# Stress axis : x y z
#
# Youngs Moduli (GPa) = 76.95252 44.60997 67.74320
#
# Poissons Ratio (x) = -0.07293 -0.03301
# Poissons Ratio (y) = -0.12580 -0.02719
# Poissons Ratio (z) = -0.03750 -0.01790
#
# Static dielectric constant tensor:
#      x y z
#    x 1.830410 0.000000 -0.016440 
#    y 0.000000 1.799900 0.000000 
#    z -0.016440 0.000000 1.772280 
# 
# From -- ./inp_files/313712.got.cif
#   From: 2010.05.17/outbox.cif.g08.bks.cpg/sg12_157_cif.got.tgz:313712.got - 2010.06.03 13:09:07.
