data_PCOD9179187
_publ_section_title
;
Structure prediction by ZEFSAII (Michael W. Deem and Ramdas Pophale) SiO2 
 PCOD9179187
Probable space group: C 2/M
;
_chemical_formula_sum "Si O2"
_cell_formula_units_Z 56
_cell_length_a 10.056875
_cell_length_b 23.405471
_cell_length_c 10.940838
_cell_angle_alpha 90.000000
_cell_angle_beta 94.110570
_cell_angle_gamma 90.000000
_cell_volume 2568.694145
_symmetry_space_group_name_H-M "C 2/M"
_symmetry_group_IT_number 12
_symmetry_cell_setting 'monoclinic'
loop_
_space_group_symop_operation_xyz
x,y,z
-x,y,-z
-x,-y,-z
x,-y,z
1/2+x,1/2+y,z
1/2-x,1/2+y,-z
1/2-x,1/2-y,-z
1/2+x,1/2-y,z
loop_
_atom_site_type_symbol
_atom_site_label
_atom_site_fract_x
_atom_site_fract_y
_atom_site_fract_z
Si Si1 0.805654 0.164387 0.916921
Si Si2 0.365795 0.734508 0.414004
Si Si3 0.811987 0.564526 0.415599
Si Si4 0.935155 0.064008 0.795117
Si Si5 0.624515 0.208006 0.104643
Si Si6 0.564626 0.156846 0.732314
Si Si7 0.622389 0.395081 0.606953
O O1 0.908668 0.114851 0.888934
O O2 0.853892 0.225082 0.864277
O O3 0.669383 0.142243 0.845522
O O4 0.756336 0.182536 0.048675
O O5 0.500000 0.735281 0.500000
O O6 0.250000 0.750000 0.500000
O O7 0.381890 0.783434 0.316405
O O8 0.351956 0.671075 0.362795
O O9 0.862100 0.500000 0.417320
O O10 0.686353 0.567482 0.312213
O O11 0.918345 0.609672 0.370930
O O12 0.748250 0.579853 0.542355
O O13 0.068012 0.073845 0.723556
O O14 0.933527 0.000000 0.847154
O O15 0.575765 0.170532 0.215276
O O16 0.500000 0.208086 0.000000
O O17 0.500000 0.397442 0.500000
#
# Coordination Sequence:
#
# PCOD9179187 Si02
#       7
#     8   8   8   8   8   8   8
#     4   9  18  32  50  71  97 122 165 211 256 307
#     4  11  22  33  50  79 111 139 170 209 259 308
#     4   9  16  27  42  65  96 130 168 202 242 296
#     4   9  16  26  45  70  96 127 161 211 260 294
#     4   9  18  32  50  71  94 127 162 206 259 310
#     4  10  19  31  49  71 100 131 164 208 253 300
#     4   9  16  27  43  67  99 130 164 204 250 298
#
# _framework density 21.80096
#
# number of rings (size 3 to 8) (size 9 to 14) (size 15 to 20)
#    0.000    2.571    1.429    1.286    4.000    1.714 
#    0.000    0.714    0.000    5.143    0.000    0.000 
#    0.000    0.000    0.000    0.000    0.000    0.000 
#
# Total GULP energy -156336.345708 kJ/mol
# GULP energy per Si atom -5583.440918 kJ/mol
# Density = 2.175134 g / cm^3
# Si number density = 21.800960 Si / 1000 Ang^3
#
#
#
# Elastic Constant Matrix: (Units=GPa)
#
#
# Indices 1 2 3 4 5 6 
#
# 1 74.6118 23.0423 41.9014 0.0000 -14.6586 0.0000
# 2 23.0423 166.4529 72.4947 0.0000 -39.1715 0.0000
# 3 41.9014 72.4947 80.7372 0.0000 -34.6717 0.0000
# 4 0.0000 0.0000 0.0000 23.0107 0.0000 -7.6550
# 5 -14.6586 -39.1715 -34.6717 0.0000 43.9584 0.0000
# 6 0.0000 0.0000 0.0000 -7.6550 0.0000 19.5381
#
#
#
# Elastic Compliance Matrix: (Units=1/GPa)
#
#
# Indices 1 2 3 4 5 6 
#
# 1 0.019762 0.002723 -0.013352 0.000000 -0.001515 0.000000
# 2 0.002723 0.010462 -0.009699 0.000000 0.002581 0.000000
# 3 -0.013352 -0.009699 0.033874 0.000000 0.013623 0.000000
# 4 0.000000 0.000000 0.000000 0.049971 0.000000 0.019578
# 5 -0.001515 0.002581 0.013623 0.000000 0.035288 0.000000
# 6 0.000000 0.000000 0.000000 0.019578 0.000000 0.058853
#
#
# Mechanical properties :
#
#
# Convention : Reuss Voigt Hill
#
# Bulk Modulus (GPa) = 42.65616 66.29765 54.47690
# Shear Modulus (GPa) = 19.47942 29.59237 24.53590
#
# Velocity S-wave (km/s) = 2.99241 3.68827 3.35841
# Velocity P-wave (km/s) = 5.61676 6.97239 6.33097
#
# Compressibility (1/GPa) = 0.02344327
#
# Stress axis : x y z
#
# Youngs Moduli (GPa) = 50.60102 95.58108 29.52110
#
# Poissons Ratio (x) = -0.26025 0.39416
# Poissons Ratio (y) = -0.13778 0.28632
# Poissons Ratio (z) = 0.67561 0.92703
#
# Static dielectric constant tensor:
#      x y z
#    x 1.838110 0.000000 0.039680 
#    y 0.000000 1.765700 0.000000 
#    z 0.039680 0.000000 1.817230 
# 
# From -- ./inp_files/133281.got.cif
#   From: 2010.05.17/outbox.cif.g08.bks.cpg/sg12_67_cif.got.tgz:133281.got - 2010.06.03 13:09:07.
