data_PCOD9179445
_publ_section_title
;
Structure prediction by ZEFSAII (Michael W. Deem and Ramdas Pophale) SiO2 
 PCOD9179445
Probable space group: C 2/M
;
_chemical_formula_sum "Si O2"
_cell_formula_units_Z 64
_cell_length_a 18.685447
_cell_length_b 19.906938
_cell_length_c 18.642582
_cell_angle_alpha 90.000000
_cell_angle_beta 31.074960
_cell_angle_gamma 90.000000
_cell_volume 3579.295681
_symmetry_space_group_name_H-M "C 2/M"
_symmetry_group_IT_number 12
_symmetry_cell_setting 'monoclinic'
loop_
_space_group_symop_operation_xyz
x,y,z
-x,y,-z
-x,-y,-z
x,-y,z
1/2+x,1/2+y,z
1/2-x,1/2+y,-z
1/2-x,1/2-y,-z
1/2+x,1/2-y,z
loop_
_atom_site_type_symbol
_atom_site_label
_atom_site_fract_x
_atom_site_fract_y
_atom_site_fract_z
Si Si1 0.706969 0.425690 0.433784
Si Si2 0.531937 0.295839 0.573485
Si Si3 0.183229 0.920908 0.622221
Si Si4 0.851789 0.662264 0.590216
Si Si5 0.771449 0.262518 0.207179
Si Si6 0.441592 0.111870 0.123937
Si Si7 0.451998 0.688830 0.805902
Si Si8 0.853357 0.301090 0.980961
O O1 0.642527 0.500000 0.485531
O O2 0.606572 0.365989 0.496474
O O3 0.737497 0.413431 0.492739
O O4 0.835009 0.423554 0.268723
O O5 0.620197 0.230346 0.478969
O O6 0.385832 0.290542 0.658374
O O7 0.499542 0.293749 0.685344
O O8 0.290171 0.892738 0.589584
O O9 0.045050 0.874598 0.748005
O O10 0.156033 0.000000 0.656176
O O11 0.742383 0.690048 0.743441
O O12 0.000000 0.644224 0.500000
O O13 0.868523 0.317498 0.161977
O O14 0.813567 0.260915 0.087681
O O15 0.575124 0.131254 0.055188
O O16 0.500000 0.080293 0.000000
O O17 0.462850 0.754795 0.845329
O O18 0.284997 0.680691 0.944355
#
# Coordination Sequence:
#
# PCOD9179445 Si02
#       8
#     8   8   8   8   8   8   8   8
#     4  10  21  35  51  75 110 143 178 221 262 314
#     4   9  18  31  53  79 107 133 184 219 269 312
#     4  10  22  37  54  79 107 140 180 220 270 318
#     4  10  19  32  56  82 104 136 168 225 274 316
#     4   9  17  32  50  79 111 136 168 222 264 315
#     4  10  19  31  50  72 108 144 174 212 257 316
#     4   9  18  32  53  79 103 136 176 227 264 312
#     4   9  18  31  51  81 105 133 176 221 267 308
#
# _framework density 17.880611999999999
#
# number of rings (size 3 to 8) (size 9 to 14) (size 15 to 20)
#    0.000    2.500    1.250    0.750    1.750    1.500 
#    0.000    1.875    0.000    6.000    0.000    0.000 
#    0.000    0.000    0.000    0.000    0.000    0.000 
#
# Total GULP energy -178179.950263 kJ/mol
# GULP energy per Si atom -5568.123446 kJ/mol
# Density = 1.783992 g / cm^3
# Si number density = 17.880612 Si / 1000 Ang^3
#
#
#
# Elastic Constant Matrix: (Units=GPa)
#
#
# Indices 1 2 3 4 5 6 
#
# 1 75.3957 46.5343 14.4551 0.0017 -2.1259 -0.0011
# 2 46.5343 83.1448 33.0467 0.0018 2.9721 -0.0008
# 3 14.4551 33.0467 75.0125 0.0043 8.8238 -0.0028
# 4 0.0017 0.0018 0.0043 17.0383 -0.0015 5.8905
# 5 -2.1259 2.9721 8.8238 -0.0015 16.5369 0.0007
# 6 -0.0011 -0.0008 -0.0028 5.8905 0.0007 16.6636
#
#
#
# Elastic Compliance Matrix: (Units=1/GPa)
#
#
# Indices 1 2 3 4 5 6 
#
# 1 0.020666 -0.012044 0.000807 -0.000001 0.004391 0.000001
# 2 -0.012044 0.021611 -0.007000 0.000001 -0.001697 -0.000001
# 3 0.000807 -0.007000 0.017177 -0.000006 -0.007804 0.000005
# 4 -0.000001 0.000001 -0.000006 0.066863 0.000010 -0.023636
# 5 0.004391 -0.001697 -0.007804 0.000010 0.065504 -0.000007
# 6 0.000001 -0.000001 0.000005 -0.023636 -0.000007 0.068366
#
#
# Mechanical properties :
#
#
# Convention : Reuss Voigt Hill
#
# Bulk Modulus (GPa) = 43.51555 46.84725 45.18140
# Shear Modulus (GPa) = 16.42998 19.34887 17.88943
#
# Velocity S-wave (km/s) = 3.03458 3.29312 3.16649
# Velocity P-wave (km/s) = 6.05539 6.38094 6.22030
#
# Compressibility (1/GPa) = 0.02298029
#
# Stress axis : x y z
#
# Youngs Moduli (GPa) = 48.38864 46.27287 58.21589
#
# Poissons Ratio (x) = 0.55731 -0.04699
# Poissons Ratio (y) = 0.58280 0.40752
# Poissons Ratio (z) = -0.03906 0.32392
#
# Static dielectric constant tensor:
#      x y z
#    x 1.650790 0.000000 0.014830 
#    y 0.000000 1.586490 0.000000 
#    z 0.014830 0.000000 1.654920 
# 
# From -- ./inp_files/279105.got.cif
#   From: 2010.05.17/outbox.cif.g08.bks.cpg/sg12_140_cif.got.tgz:279105.got - 2010.06.03 13:09:07.
