data_PCOD9179084
_publ_section_title
;
Structure prediction by ZEFSAII (Michael W. Deem and Ramdas Pophale) SiO2 
 PCOD9179084
Probable space group: C 2/M
;
_chemical_formula_sum "Si O2"
_cell_formula_units_Z 56
_cell_length_a 14.261569
_cell_length_b 9.410636
_cell_length_c 18.578997
_cell_angle_alpha 90.000000
_cell_angle_beta 86.988274
_cell_angle_gamma 90.000000
_cell_volume 2490.051254
_symmetry_space_group_name_H-M "C 2/M"
_symmetry_group_IT_number 12
_symmetry_cell_setting 'monoclinic'
loop_
_space_group_symop_operation_xyz
x,y,z
-x,y,-z
-x,-y,-z
x,-y,z
1/2+x,1/2+y,z
1/2-x,1/2+y,-z
1/2-x,1/2-y,-z
1/2+x,1/2-y,z
loop_
_atom_site_type_symbol
_atom_site_label
_atom_site_fract_x
_atom_site_fract_y
_atom_site_fract_z
Si Si1 0.363835 0.839588 0.288137
Si Si2 0.890680 0.160258 0.142518
Si Si3 0.385664 0.660495 0.866539
Si Si4 0.114932 0.662149 0.995698
Si Si5 0.640345 0.339462 0.294656
Si Si6 0.134235 0.162356 0.573578
Si Si7 0.636381 0.838129 0.432192
O O1 0.377580 0.751740 0.214769
O O2 0.251766 0.852846 0.301664
O O3 0.397008 0.749008 0.355005
O O4 0.403002 0.000000 0.282819
O O5 0.856109 0.246405 0.074672
O O6 0.002590 0.147211 0.128354
O O7 0.851746 0.000000 0.150008
O O8 0.344955 0.500000 0.871526
O O9 0.371643 0.716317 0.786087
O O10 0.354421 0.760909 0.932296
O O11 0.147734 0.500000 0.990439
O O12 0.000000 0.658218 0.000000
O O13 0.599415 0.500000 0.299104
O O14 0.607089 0.238479 0.359702
O O15 0.248902 0.157272 0.571209
O O16 0.108572 0.245826 0.502332
O O17 0.100689 0.000000 0.574766
O O18 0.602824 0.000000 0.437773
#
# Coordination Sequence:
#
# PCOD9179084 Si02
#       7
#     8   8   8   8   8   8   8
#     4  10  19  31  48  71  99 126 155 194 237 279
#     4  10  19  32  51  72  95 124 158 194 233 280
#     4   9  18  33  52  72  94 123 159 195 232 278
#     4   9  17  30  49  72  95 120 155 197 236 275
#     4   9  18  32  49  70  97 127 157 192 235 280
#     4   9  16  27  44  66  93 125 160 194 230 275
#     4   9  16  26  43  68  95 123 157 195 233 274
#
# _framework density 22.489497
#
# number of rings (size 3 to 8) (size 9 to 14) (size 15 to 20)
#    0.000    2.714    0.000    2.143    0.000    6.857 
#    0.000    0.714    0.000    0.857    0.000    6.000 
#    0.000    0.000    0.000    0.000    0.000    0.000 
#
# Total GULP energy -156497.552784 kJ/mol
# GULP energy per Si atom -5589.198314 kJ/mol
# Density = 2.243831 g / cm^3
# Si number density = 22.489497 Si / 1000 Ang^3
#
#
#
# Elastic Constant Matrix: (Units=GPa)
#
#
# Indices 1 2 3 4 5 6 
#
# 1 60.7735 6.0560 1.0495 0.0000 3.6931 0.0000
# 2 6.0560 236.3859 165.3776 0.0000 -5.2239 0.0000
# 3 1.0495 165.3776 262.4061 0.0000 10.1264 0.0000
# 4 0.0000 0.0000 0.0000 -34.5411 0.0000 -23.8740
# 5 3.6931 -5.2239 10.1264 0.0000 24.8941 0.0000
# 6 0.0000 0.0000 0.0000 -23.8740 0.0000 -6.2420
#
#
#
# Elastic Compliance Matrix: (Units=1/GPa)
#
#
# Indices 1 2 3 4 5 6 
#
# 1 0.016716 -0.000940 0.000639 0.000000 -0.002937 0.000000
# 2 -0.000940 0.007948 -0.005156 0.000000 0.003905 0.000000
# 3 0.000639 -0.005156 0.007217 0.000000 -0.004112 0.000000
# 4 0.000000 0.000000 0.000000 0.017615 0.000000 -0.067371
# 5 -0.002937 0.003905 -0.004112 0.000000 0.043098 0.000000
# 6 0.000000 0.000000 0.000000 -0.067371 0.000000 0.097473
#
#
# Mechanical properties :
#
#
# Convention : Reuss Voigt Hill
#
# Bulk Modulus (GPa) = 47.69675 100.50351 74.10013
# Shear Modulus (GPa) = 24.04204 22.62770 23.33487
#
# Velocity S-wave (km/s) = 3.27316 3.17542 3.22466
# Velocity P-wave (km/s) = 5.96148 7.63089 6.84725
#
# Compressibility (1/GPa) = 0.02096579
#
# Stress axis : x y z
#
# Youngs Moduli (GPa) = 59.82406 125.81914 138.57114
#
# Poissons Ratio (x) = 0.11830 -0.08855
# Poissons Ratio (y) = 0.05625 0.71447
# Poissons Ratio (z) = -0.03823 0.64872
#
# Static dielectric constant tensor:
#      x y z
#    x 1.898860 0.000000 -0.006740 
#    y 0.000000 1.805370 0.000000 
#    z -0.006740 0.000000 1.777790 
# 
# From -- ./inp_files/280295.got.cif
#   From: 2010.05.17/outbox.cif.g08.bks.cpg/sg12_141_cif.got.tgz:280295.got - 2010.06.03 13:09:07.
