data_PCOD9179242
_publ_section_title
;
Structure prediction by ZEFSAII (Michael W. Deem and Ramdas Pophale) SiO2 
 PCOD9179242
Probable space group: C 2/M
;
_chemical_formula_sum "Si O2"
_cell_formula_units_Z 56
_cell_length_a 19.665266
_cell_length_b 7.532161
_cell_length_c 25.378828
_cell_angle_alpha 90.000000
_cell_angle_beta 139.628423
_cell_angle_gamma 90.000000
_cell_volume 2434.966932
_symmetry_space_group_name_H-M "C 2/M"
_symmetry_group_IT_number 12
_symmetry_cell_setting 'monoclinic'
loop_
_space_group_symop_operation_xyz
x,y,z
-x,y,-z
-x,-y,-z
x,-y,z
1/2+x,1/2+y,z
1/2-x,1/2+y,-z
1/2-x,1/2-y,-z
1/2+x,1/2-y,z
loop_
_atom_site_type_symbol
_atom_site_label
_atom_site_fract_x
_atom_site_fract_y
_atom_site_fract_z
Si Si1 0.711653 0.788271 0.918535
Si Si2 0.116108 0.715823 0.584236
Si Si3 0.404377 0.214400 0.825055
Si Si4 0.420479 0.292026 0.995427
Si Si5 0.326901 0.706571 0.662828
Si Si6 0.034708 0.792775 0.739928
Si Si7 0.807014 0.208087 0.253073
O O1 0.601245 0.716174 0.833263
O O2 0.705142 0.000000 0.909737
O O3 0.750000 0.750000 0.000000
O O4 0.804587 0.717687 0.935219
O O5 0.118733 0.500000 0.585335
O O6 0.209401 0.780373 0.600527
O O7 0.144084 0.774001 0.659819
O O8 0.000000 0.773649 0.500000
O O9 0.515807 0.275252 0.912405
O O10 0.373857 0.283103 0.749690
O O11 0.311763 0.278139 0.810210
O O12 0.403179 0.000000 0.822218
O O13 0.408164 0.500000 0.975804
O O14 0.500000 0.209736 0.000000
O O15 0.315332 0.500000 0.641394
O O16 0.418629 0.785170 0.680315
O O17 0.112325 0.713120 0.741676
O O18 0.019738 0.000000 0.717633
O O19 0.795691 0.000000 0.233896
#
# Coordination Sequence:
#
# PCOD9179242 Si02
#       7
#     8   8   8   8   8   8   8
#     4  11  23  36  51  72 100 135 172 212 257 300
#     4   9  18  34  56  80 104 131 165 202 240 291
#     4  10  19  31  49  72  96 124 163 208 249 292
#     4  10  21  35  49  67  93 127 167 208 250 295
#     4   9  18  33  53  73  96 130 165 197 239 292
#     4  10  20  35  53  73 100 133 170 209 249 298
#     4   9  19  34  52  76 104 133 164 203 253 300
#
# _framework density 22.998259999999998
#
# number of rings (size 3 to 8) (size 9 to 14) (size 15 to 20)
#    0.000    2.286    0.000    2.571    0.000    6.857 
#    0.000    0.714    0.000    0.000    0.000    0.000 
#    0.000    0.000    0.000    0.000    0.000    0.000 
#
# Total GULP energy -156370.502201 kJ/mol
# GULP energy per Si atom -5584.660793 kJ/mol
# Density = 2.294591 g / cm^3
# Si number density = 22.998260 Si / 1000 Ang^3
#
#
#
# Elastic Constant Matrix: (Units=GPa)
#
#
# Indices 1 2 3 4 5 6 
#
# 1 127.2151 4.9399 25.6048 0.0000 44.1255 0.0000
# 2 4.9399 74.5003 -6.6579 0.0000 5.2157 -0.0001
# 3 25.6048 -6.6579 88.6018 0.0000 40.4532 0.0000
# 4 0.0000 0.0000 0.0000 12.5600 0.0000 -6.0654
# 5 44.1255 5.2157 40.4532 0.0000 43.0369 0.0000
# 6 0.0000 -0.0001 0.0000 -6.0654 0.0000 8.8679
#
#
#
# Elastic Compliance Matrix: (Units=1/GPa)
#
#
# Indices 1 2 3 4 5 6 
#
# 1 0.013027 0.000738 0.004257 0.000000 -0.017447 0.000000
# 2 0.000738 0.014082 0.003450 0.000000 -0.005706 0.000000
# 3 0.004257 0.003450 0.021896 0.000000 -0.025364 0.000000
# 4 0.000000 0.000000 0.000000 0.118887 0.000000 0.081316
# 5 -0.017447 -0.005706 -0.025364 0.000000 0.065657 0.000000
# 6 0.000000 0.000000 0.000000 0.081316 0.000000 0.168384
#
#
# Mechanical properties :
#
#
# Convention : Reuss Voigt Hill
#
# Bulk Modulus (GPa) = 15.17567 37.56567 26.37067
# Shear Modulus (GPa) = 12.28478 30.65497 21.46987
#
# Velocity S-wave (km/s) = 2.31370 3.65489 3.05871
# Velocity P-wave (km/s) = 3.70817 5.84641 4.89546
#
# Compressibility (1/GPa) = 0.06589495
#
# Stress axis : x y z
#
# Youngs Moduli (GPa) = 76.76404 71.01429 45.66997
#
# Poissons Ratio (x) = -0.05241 -0.19440
# Poissons Ratio (y) = -0.05666 -0.15757
# Poissons Ratio (z) = -0.32676 -0.24502
#
# Static dielectric constant tensor:
#      x y z
#    x 1.951080 0.000000 0.028890 
#    y 0.000000 1.850330 0.000000 
#    z 0.028890 0.000000 1.823740 
# 
# From -- ./inp_files/280193.got.cif
#   From: 2010.05.17/outbox.cif.g08.bks.cpg/sg12_141_cif.got.tgz:280193.got - 2010.06.03 13:09:07.
