data_PCOD9179910
_publ_section_title
;
Structure prediction by ZEFSAII (Michael W. Deem and Ramdas Pophale) SiO2 
 PCOD9179910
Probable space group: C 2/M
;
_chemical_formula_sum "Si O2"
_cell_formula_units_Z 64
_cell_length_a 20.936439
_cell_length_b 7.487940
_cell_length_c 23.586501
_cell_angle_alpha 90.000000
_cell_angle_beta 125.259580
_cell_angle_gamma 90.000000
_cell_volume 3019.317874
_symmetry_space_group_name_H-M "C 2/M"
_symmetry_group_IT_number 12
_symmetry_cell_setting 'monoclinic'
loop_
_space_group_symop_operation_xyz
x,y,z
-x,y,-z
-x,-y,-z
x,-y,z
1/2+x,1/2+y,z
1/2-x,1/2+y,-z
1/2-x,1/2-y,-z
1/2+x,1/2-y,z
loop_
_atom_site_type_symbol
_atom_site_label
_atom_site_fract_x
_atom_site_fract_y
_atom_site_fract_z
Si Si1 0.224950 0.789287 0.165876
Si Si2 0.881699 0.715491 0.694952
Si Si3 0.774754 0.287038 0.312609
Si Si4 0.969014 0.718370 0.158367
Si Si5 0.457737 0.215779 0.921832
Si Si6 0.792096 0.285680 0.081505
Si Si7 0.158025 0.713607 0.449739
Si Si8 0.411104 0.781174 0.466542
O O1 0.265372 0.715152 0.243739
O O2 0.132282 0.769793 0.126243
O O3 0.249680 0.717036 0.116816
O O4 0.243171 0.000000 0.174247
O O5 0.884469 0.500000 0.694649
O O6 0.805983 0.759495 0.694236
O O7 0.871775 0.783023 0.625888
O O8 0.962377 0.777216 0.764353
O O9 0.785218 0.500000 0.313256
O O10 0.847815 0.220352 0.387278
O O11 0.968184 0.500000 0.158904
O O12 0.881583 0.779023 0.126521
O O13 0.995553 0.774872 0.109492
O O14 0.458971 0.000000 0.922834
O O15 0.500000 0.280304 0.000000
O O16 0.794108 0.500000 0.086590
O O17 0.750000 0.250000 0.000000
O O18 0.146861 0.500000 0.443469
O O19 0.250000 0.750000 0.500000
O O20 0.116738 0.779676 0.485588
O O21 0.500000 0.727355 0.500000
O O22 0.409329 0.000000 0.465414
#
# Coordination Sequence:
#
# PCOD9179910 Si02
#       8
#     8   8   8   8   8   8   8   8
#     4  10  21  34  52  79 106 136 170 212 267 315
#     4  10  19  32  53  79 104 135 177 220 259 304
#     4  10  19  33  53  77 107 139 170 213 267 312
#     4   9  18  33  52  75 102 134 172 215 257 303
#     4  10  19  32  53  77 100 132 174 213 252 306
#     4  10  21  38  56  76 106 139 174 215 262 313
#     4  10  19  31  52  79 104 137 178 217 259 307
#     4   9  18  32  51  77 108 139 174 214 257 308
#
# _framework density 21.196840999999999
#
# number of rings (size 3 to 8) (size 9 to 14) (size 15 to 20)
#    0.000    2.250    2.500    0.750    0.000    2.750 
#    0.000    6.250    0.000    1.500    0.000    3.500 
#    0.000    0.000    0.000    0.000    0.000    0.000 
#
# Total GULP energy -178726.518495 kJ/mol
# GULP energy per Si atom -5585.203703 kJ/mol
# Density = 2.114860 g / cm^3
# Si number density = 21.196841 Si / 1000 Ang^3
#
#
#
# Elastic Constant Matrix: (Units=GPa)
#
#
# Indices 1 2 3 4 5 6 
#
# 1 88.4708 -3.1571 1.4666 0.0000 -9.2823 0.0000
# 2 -3.1571 60.2657 3.9599 0.0001 -5.0583 0.0000
# 3 1.4666 3.9599 107.6612 0.0000 -12.1475 0.0000
# 4 0.0000 0.0001 0.0000 64.0017 0.0000 -10.1385
# 5 -9.2823 -5.0583 -12.1475 0.0000 42.6422 0.0000
# 6 0.0000 0.0000 0.0000 -10.1385 0.0000 22.7514
#
#
#
# Elastic Compliance Matrix: (Units=1/GPa)
#
#
# Indices 1 2 3 4 5 6 
#
# 1 0.011609 0.000824 0.000111 0.000000 0.002657 0.000000
# 2 0.000824 0.016836 -0.000398 0.000000 0.002063 0.000000
# 3 0.000111 -0.000398 0.009608 0.000000 0.002714 0.000000
# 4 0.000000 0.000000 0.000000 0.016811 0.000000 0.007491
# 5 0.002657 0.002063 0.002714 0.000000 0.025047 0.000000
# 6 0.000000 0.000000 0.000000 0.007491 0.000000 0.047292
#
#
# Mechanical properties :
#
#
# Convention : Reuss Voigt Hill
#
# Bulk Modulus (GPa) = 25.55731 28.99294 27.27513
# Shear Modulus (GPa) = 35.92715 42.82095 39.37405
#
# Velocity S-wave (km/s) = 4.12142 4.49949 4.31460
# Velocity P-wave (km/s) = 5.89334 6.37978 6.14138
#
# Compressibility (1/GPa) = 0.03912774
#
# Stress axis : x y z
#
# Youngs Moduli (GPa) = 86.13677 59.39784 104.08283
#
# Poissons Ratio (x) = -0.04893 -0.01158
# Poissons Ratio (y) = -0.07096 0.04139
# Poissons Ratio (z) = -0.00959 0.02362
#
# Static dielectric constant tensor:
#      x y z
#    x 1.718650 0.000000 -0.037790 
#    y 0.000000 1.819950 0.000000 
#    z -0.037790 0.000000 1.776470 
# 
# From -- ./inp_files/315358.got.cif
#   From: 2010.05.17/outbox.cif.g08.bks.cpg/sg12_158_cif.got.tgz:315358.got - 2010.06.03 13:09:07.
