data_PCOD9179314
_publ_section_title
;
Structure prediction by ZEFSAII (Michael W. Deem and Ramdas Pophale) SiO2 
 PCOD9179314
Probable space group: C 2/M
;
_chemical_formula_sum "Si O2"
_cell_formula_units_Z 56
_cell_length_a 31.640288
_cell_length_b 7.512886
_cell_length_c 17.413472
_cell_angle_alpha 90.000000
_cell_angle_beta 44.839373
_cell_angle_gamma 90.000000
_cell_volume 2918.748332
_symmetry_space_group_name_H-M "C 2/M"
_symmetry_group_IT_number 12
_symmetry_cell_setting 'monoclinic'
loop_
_space_group_symop_operation_xyz
x,y,z
-x,y,-z
-x,-y,-z
x,-y,z
1/2+x,1/2+y,z
1/2-x,1/2+y,-z
1/2-x,1/2-y,-z
1/2+x,1/2-y,z
loop_
_atom_site_type_symbol
_atom_site_label
_atom_site_fract_x
_atom_site_fract_y
_atom_site_fract_z
Si Si1 0.055495 0.717403 0.610930
Si Si2 0.342626 0.213812 0.410611
Si Si3 0.377966 0.217254 0.631793
Si Si4 0.261090 0.717688 0.196325
Si Si5 0.809327 0.211692 0.973465
Si Si6 0.427567 0.792375 0.728071
Si Si7 0.275953 0.712139 0.347546
O O1 0.055362 0.500000 0.614764
O O2 0.095970 0.778355 0.630266
O O3 0.089616 0.768360 0.488529
O O4 0.987124 0.780416 0.691780
O O5 0.328711 0.255361 0.340209
O O6 0.285507 0.281305 0.533921
O O7 0.341995 0.000000 0.417721
O O8 0.308491 0.271159 0.722285
O O9 0.411568 0.282815 0.664768
O O10 0.377798 0.000000 0.633528
O O11 0.262150 0.500000 0.193275
O O12 0.283482 0.777675 0.251092
O O13 0.297636 0.778733 0.074864
O O14 0.868407 0.282515 0.856038
O O15 0.816299 0.000000 0.967625
O O16 0.750000 0.250000 0.000000
O O17 0.440845 0.000000 0.696754
O O18 0.268466 0.500000 0.351170
#
# Coordination Sequence:
#
# PCOD9179314 Si02
#       7
#     8   8   8   8   8   8   8
#     4   9  16  27  47  73  99 128 160 195 233 281
#     4   9  16  27  45  70  98 121 148 190 240 286
#     4   9  14  25  46  73  97 122 158 196 229 273
#     4   9  16  28  48  70  94 122 157 197 233 273
#     4  11  21  34  51  71  95 127 163 200 238 276
#     4  10  19  31  49  73  98 127 164 198 232 279
#     4   9  16  28  47  69  93 121 154 193 237 280
#
# _framework density 19.186306999999999
#
# number of rings (size 3 to 8) (size 9 to 14) (size 15 to 20)
#    0.000    2.571    2.857    0.857    0.000    1.714 
#    0.000    2.143    0.000    3.429    0.000    6.000 
#    0.000    0.000    0.000    0.000    0.000    0.000 
#
# Total GULP energy -156206.031849 kJ/mol
# GULP energy per Si atom -5578.786852 kJ/mol
# Density = 1.914264 g / cm^3
# Si number density = 19.186307 Si / 1000 Ang^3
#
#
#
# Elastic Constant Matrix: (Units=GPa)
#
#
# Indices 1 2 3 4 5 6 
#
# 1 191.2384 -3.2229 54.5245 0.0004 9.8897 -0.0001
# 2 -3.2229 46.3734 -13.6048 0.0132 1.9337 -0.0049
# 3 54.5245 -13.6048 41.7720 0.0020 1.5380 -0.0003
# 4 0.0004 0.0132 0.0020 12.8166 -0.0001 1.8854
# 5 9.8897 1.9337 1.5380 -0.0001 31.7059 -0.0001
# 6 -0.0001 -0.0049 -0.0003 1.8854 -0.0001 13.2246
#
#
#
# Elastic Compliance Matrix: (Units=1/GPa)
#
#
# Indices 1 2 3 4 5 6 
#
# 1 0.008814 -0.002940 -0.012390 0.000005 -0.001969 -0.000002
# 2 -0.002940 0.024930 0.012001 -0.000029 -0.001185 0.000014
# 3 -0.012390 0.012001 0.043983 -0.000020 0.000999 0.000008
# 4 0.000005 -0.000029 -0.000020 0.079695 0.000001 -0.011362
# 5 -0.001969 -0.001185 0.000999 0.000001 0.032178 0.000000
# 6 -0.000002 0.000014 0.000008 -0.011362 0.000000 0.077236
#
#
# Mechanical properties :
#
#
# Convention : Reuss Voigt Hill
#
# Bulk Modulus (GPa) = 14.07080 39.41974 26.74527
# Shear Modulus (GPa) = 16.82459 27.66188 22.24324
#
# Velocity S-wave (km/s) = 2.96447 3.80116 3.40859
# Velocity P-wave (km/s) = 4.36660 6.31312 5.42783
#
# Compressibility (1/GPa) = 0.07106916
#
# Stress axis : x y z
#
# Youngs Moduli (GPa) = 113.45851 40.11244 22.73588
#
# Poissons Ratio (x) = 0.11794 0.28169
# Poissons Ratio (y) = 0.33359 -0.27285
# Poissons Ratio (z) = 1.40571 -0.48138
#
# Static dielectric constant tensor:
#      x y z
#    x 1.681740 0.000000 0.013910 
#    y 0.000000 1.693240 0.000000 
#    z 0.013910 0.000000 1.619630 
# 
# From -- ./inp_files/295113.got.cif
#   From: 2010.05.17/outbox.cif.g08.bks.cpg/sg12_148_cif.got.tgz:295113.got - 2010.06.03 13:09:07.
