data_PCOD9179270
_publ_section_title
;
Structure prediction by ZEFSAII (Michael W. Deem and Ramdas Pophale) SiO2 
 PCOD9179270
Probable space group: C 2/M
;
_chemical_formula_sum "Si O2"
_cell_formula_units_Z 32
_cell_length_a 23.211194
_cell_length_b 14.336840
_cell_length_c 5.216894
_cell_angle_alpha 90.000000
_cell_angle_beta 125.987017
_cell_angle_gamma 90.000000
_cell_volume 1404.727416
_symmetry_space_group_name_H-M "C 2/M"
_symmetry_group_IT_number 12
_symmetry_cell_setting 'monoclinic'
loop_
_space_group_symop_operation_xyz
x,y,z
-x,y,-z
-x,-y,-z
x,-y,z
1/2+x,1/2+y,z
1/2-x,1/2+y,-z
1/2-x,1/2-y,-z
1/2+x,1/2-y,z
loop_
_atom_site_type_symbol
_atom_site_label
_atom_site_fract_x
_atom_site_fract_y
_atom_site_fract_z
Si Si1 0.221899 0.634231 0.153882
Si Si2 0.567637 0.900379 0.863746
Si Si3 0.200651 0.142875 0.141623
Si Si4 0.454240 0.691928 0.118930
O O1 0.216870 0.746493 0.158123
O O2 0.250290 0.604376 0.504460
O O3 0.141367 0.602427 0.899416
O O4 0.275846 0.605814 0.072249
O O5 0.500000 0.900187 0.500000
O O6 0.565845 0.800565 0.001693
O O7 0.567432 0.000000 0.007820
O O8 0.118564 0.137709 0.010469
O O9 0.500000 0.692929 0.500000
O O10 0.500000 0.655409 0.000000
#
# Coordination Sequence:
#
# PCOD9179270 Si02
#       4
#     8   8   8   8
#     4   9  17  30  47  65  90 125 160 196 235 272
#     4   9  19  33  48  69 100 136 167 192 225 278
#     4   9  17  30  47  67  91 120 157 200 241 276
#     4  10  19  31  49  73 100 128 158 195 239 286
#
# _framework density 22.780218999999999
#
# number of rings (size 3 to 8) (size 9 to 14) (size 15 to 20)
#    0.000    2.750    0.000    1.500    0.000   12.500 
#    0.000    6.250    0.000    0.000    0.000    0.000 
#    0.000   20.000    0.000    7.500    0.000    9.000 
#
# Total GULP energy -89271.296249 kJ/mol
# GULP energy per Si atom -5579.456016 kJ/mol
# Density = 2.272837 g / cm^3
# Si number density = 22.780219 Si / 1000 Ang^3
#
#
#
# Elastic Constant Matrix: (Units=GPa)
#
#
# Indices 1 2 3 4 5 6 
#
# 1 214.8879 5.5104 62.5899 0.0000 8.7554 0.0000
# 2 5.5104 65.3289 13.7547 0.0000 7.7638 0.0000
# 3 62.5899 13.7547 96.3450 0.0000 10.3339 0.0000
# 4 0.0000 0.0000 0.0000 -147.5122 0.0000 -77.4400
# 5 8.7554 7.7638 10.3339 0.0000 42.0605 0.0000
# 6 0.0000 0.0000 0.0000 -77.4400 0.0000 -56.8834
#
#
#
# Elastic Compliance Matrix: (Units=1/GPa)
#
#
# Indices 1 2 3 4 5 6 
#
# 1 0.005750 0.000345 -0.003748 0.000000 -0.000340 0.000000
# 2 0.000345 0.016046 -0.002249 0.000000 -0.002481 0.000000
# 3 -0.003748 -0.002249 0.013359 0.000000 -0.002087 0.000000
# 4 0.000000 0.000000 0.000000 -0.023760 0.000000 0.032347
# 5 -0.000340 -0.002481 -0.002087 0.000000 0.024817 0.000000
# 6 0.000000 0.000000 0.000000 0.032347 0.000000 -0.061616
#
#
# Mechanical properties :
#
#
# Convention : Reuss Voigt Hill
#
# Bulk Modulus (GPa) = 41.92655 60.03018 50.97837
# Shear Modulus (GPa) = -813.19435 -12.81990 -413.00713
#
# Velocity S-wave (km/s) = -18.91425 -2.37484 -13.47941
# Velocity P-wave (km/s) = 21.41387 4.34618 14.82674
#
# Compressibility (1/GPa) = 0.02385123
#
# Stress axis : x y z
#
# Youngs Moduli (GPa) = 173.90093 62.31928 74.85372
#
# Poissons Ratio (x) = -0.02147 0.28059
# Poissons Ratio (y) = -0.05992 0.16831
# Poissons Ratio (z) = 0.65186 0.14013
#
# Static dielectric constant tensor:
#      x y z
#    x 1.835670 0.000000 0.004560 
#    y 0.000000 1.391790 0.000000 
#    z 0.004560 0.000000 1.794550 
# 
# From -- ./inp_files/9957.got.cif
#   From: 2010.05.17/outbox.cif.g08.bks.cpg/sg12_5_cif.got.tgz:9957.got - 2010.06.03 13:09:07.
