data_PCOD9179779
_publ_section_title
;
Structure prediction by ZEFSAII (Michael W. Deem and Ramdas Pophale) SiO2 
 PCOD9179779
Probable space group: C 2/M
;
_chemical_formula_sum "Si O2"
_cell_formula_units_Z 64
_cell_length_a 20.763222
_cell_length_b 8.917345
_cell_length_c 20.657200
_cell_angle_alpha 90.000000
_cell_angle_beta 72.703751
_cell_angle_gamma 90.000000
_cell_volume 3651.785039
_symmetry_space_group_name_H-M "C 2/M"
_symmetry_group_IT_number 12
_symmetry_cell_setting 'monoclinic'
loop_
_space_group_symop_operation_xyz
x,y,z
-x,y,-z
-x,-y,-z
x,-y,z
1/2+x,1/2+y,z
1/2-x,1/2+y,-z
1/2-x,1/2-y,-z
1/2+x,1/2-y,z
loop_
_atom_site_type_symbol
_atom_site_label
_atom_site_fract_x
_atom_site_fract_y
_atom_site_fract_z
Si Si1 0.310476 0.821578 0.296346
Si Si2 0.575850 0.820859 0.502041
Si Si3 0.418830 0.673230 0.012716
Si Si4 0.335537 0.179359 0.649840
Si Si5 0.403561 0.822466 0.147918
Si Si6 0.942629 0.679587 0.730429
Si Si7 0.548166 0.680457 0.137013
Si Si8 0.417335 0.678670 0.360806
O O1 0.234383 0.764623 0.322097
O O2 0.344635 0.789802 0.216488
O O3 0.355895 0.739694 0.336317
O O4 0.313825 0.000000 0.305969
O O5 0.500000 0.789458 0.500000
O O6 0.627115 0.785196 0.428795
O O7 0.590217 0.731791 0.563028
O O8 0.579230 0.000000 0.514330
O O9 0.397545 0.500000 0.025356
O O10 0.388008 0.769686 0.079654
O O11 0.500000 0.676677 0.000000
O O12 0.411516 0.723126 0.940534
O O13 0.386852 0.214209 0.692924
O O14 0.323572 0.000000 0.654456
O O15 0.471387 0.738051 0.150700
O O16 0.417192 0.000000 0.144599
O O17 0.949926 0.500000 0.732668
O O18 0.924764 0.747602 0.805477
O O19 0.013761 0.749034 0.687019
O O20 0.547415 0.500000 0.140886
O O21 0.421374 0.500000 0.355208
#
# Coordination Sequence:
#
# PCOD9179779 Si02
#       8
#     8   8   8   8   8   8   8   8
#     4  11  24  40  58  83 118 154 190 237 285 334
#     4  10  20  40  64  85 115 150 184 234 289 337
#     4   8  16  29  46  74 112 146 182 229 283 332
#     4  10  23  41  62  85 112 150 190 230 286 346
#     4  10  19  31  51  78 110 150 189 230 282 334
#     4  11  21  37  59  85 115 149 190 236 285 337
#     4  10  19  31  51  82 114 147 185 233 284 333
#     4  12  24  37  60  89 115 149 192 234 280 340
#
# _framework density 17.525677000000002
#
# number of rings (size 3 to 8) (size 9 to 14) (size 15 to 20)
#    0.000    1.750    2.500    3.375    0.000    6.500 
#    0.000    0.000    0.000    0.750    0.000    0.000 
#    0.000    0.000    0.000    0.000    0.000    0.000 
#
# Total GULP energy -178677.770667 kJ/mol
# GULP energy per Si atom -5583.680333 kJ/mol
# Density = 1.748579 g / cm^3
# Si number density = 17.525677 Si / 1000 Ang^3
#
#
#
# Elastic Constant Matrix: (Units=GPa)
#
#
# Indices 1 2 3 4 5 6 
#
# 1 86.0987 56.4812 63.3179 0.0000 5.6412 0.0000
# 2 56.4812 78.0857 73.2609 0.0000 6.8915 0.0000
# 3 63.3179 73.2609 145.6248 0.0000 22.9585 0.0000
# 4 0.0000 0.0000 0.0000 31.7179 0.0000 0.1303
# 5 5.6412 6.8915 22.9585 0.0000 27.3320 0.0000
# 6 0.0000 0.0000 0.0000 0.1303 0.0000 25.7670
#
#
#
# Elastic Compliance Matrix: (Units=1/GPa)
#
#
# Indices 1 2 3 4 5 6 
#
# 1 0.022856 -0.013479 -0.003399 0.000000 0.001536 0.000000
# 2 -0.013479 0.032754 -0.011243 0.000000 0.003967 0.000000
# 3 -0.003399 -0.011243 0.015495 0.000000 -0.009480 0.000000
# 4 0.000000 0.000000 0.000000 0.031529 0.000000 -0.000159
# 5 0.001536 0.003967 -0.009480 0.000000 0.043233 0.000000
# 6 0.000000 0.000000 0.000000 -0.000159 0.000000 0.038810
#
#
# Mechanical properties :
#
#
# Convention : Reuss Voigt Hill
#
# Bulk Modulus (GPa) = 67.27627 77.32546 72.30087
# Shear Modulus (GPa) = 20.33586 24.74666 22.54126
#
# Velocity S-wave (km/s) = 3.41008 3.76177 3.59023
# Velocity P-wave (km/s) = 7.34680 7.94260 7.65050
#
# Compressibility (1/GPa) = 0.01486408
#
# Stress axis : x y z
#
# Youngs Moduli (GPa) = 43.75292 30.53098 64.53547
#
# Poissons Ratio (x) = 0.41151 0.21936
# Poissons Ratio (y) = 0.58972 0.72555
# Poissons Ratio (z) = 0.14872 0.34325
#
# Static dielectric constant tensor:
#      x y z
#    x 1.563810 0.000000 0.017210 
#    y 0.000000 1.586340 0.000000 
#    z 0.017210 0.000000 1.610880 
# 
# From -- ./inp_files/319862.got.cif
#   From: 2010.05.17/outbox.cif.g08.bks.cpg/sg12_160_cif.got.tgz:319862.got - 2010.06.03 13:09:07.
