data_PCOD9179005
_publ_section_title
;
Structure prediction by ZEFSAII (Michael W. Deem and Ramdas Pophale) SiO2 
 PCOD9179005
Probable space group: C 2/M
;
_chemical_formula_sum "Si O2"
_cell_formula_units_Z 64
_cell_length_a 5.258317
_cell_length_b 14.204183
_cell_length_c 36.974459
_cell_angle_alpha 90.000000
_cell_angle_beta 93.938852
_cell_angle_gamma 90.000000
_cell_volume 2755.102769
_symmetry_space_group_name_H-M "C 2/M"
_symmetry_group_IT_number 12
_symmetry_cell_setting 'monoclinic'
loop_
_space_group_symop_operation_xyz
x,y,z
-x,y,-z
-x,-y,-z
x,-y,z
1/2+x,1/2+y,z
1/2-x,1/2+y,-z
1/2-x,1/2-y,-z
1/2+x,1/2-y,z
loop_
_atom_site_type_symbol
_atom_site_label
_atom_site_fract_x
_atom_site_fract_y
_atom_site_fract_z
Si Si1 0.257899 0.854795 0.516232
Si Si2 0.496869 0.115207 0.843924
Si Si3 0.863229 0.614007 0.599581
Si Si4 0.077123 0.189692 0.038256
Si Si5 0.017250 0.887786 0.883952
Si Si6 0.780539 0.885054 0.722235
Si Si7 0.384418 0.385209 0.641803
Si Si8 0.199727 0.614803 0.236171
O O1 0.500000 0.900478 0.500000
O O2 0.250000 0.750000 0.500000
O O3 0.286782 0.851044 0.559351
O O4 0.000000 0.900123 0.500000
O O5 0.781229 0.145653 0.856996
O O6 0.396888 0.146673 0.803912
O O7 0.291647 0.144815 0.872217
O O8 0.501389 0.000000 0.843147
O O9 0.858863 0.500000 0.597747
O O10 0.653155 0.642701 0.627144
O O11 0.146583 0.641909 0.614270
O O12 0.867045 0.273980 0.038148
O O13 0.037436 0.136064 0.075159
O O14 0.000000 0.138745 0.000000
O O15 0.021506 0.000000 0.880417
O O16 0.835348 0.852252 0.682118
O O17 0.507781 0.857510 0.735709
O O18 0.014946 0.857026 0.750353
O O19 0.779607 0.000000 0.721314
O O20 0.386067 0.500000 0.643135
O O21 0.201353 0.500000 0.235256
#
# Coordination Sequence:
#
# PCOD9179005 Si02
#       8
#     8   8   8   8   8   8   8   8
#     4  10  21  36  52  70  93 124 151 194 242 277
#     4   9  17  28  43  68 101 136 172 208 255 299
#     4  10  19  31  48  69  95 128 161 194 237 287
#     4  10  21  37  55  75 101 136 171 219 274 321
#     4  10  19  32  51  74 102 138 174 219 264 310
#     4   9  15  23  37  58  89 132 169 192 228 282
#     4   9  17  28  42  65  96 130 164 197 235 280
#     4   9  15  23  37  59  91 134 170 194 233 292
#
# _framework density 23.229621999999999
#
# number of rings (size 3 to 8) (size 9 to 14) (size 15 to 20)
#    0.000    2.500    0.000    3.000    0.000    6.750 
#    0.000    0.000    0.000    4.500    0.000    0.000 
#    0.000    0.000  297.500    0.000   35.000    0.000 
#
# Total GULP energy -178971.219415 kJ/mol
# GULP energy per Si atom -5592.850607 kJ/mol
# Density = 2.317675 g / cm^3
# Si number density = 23.229622 Si / 1000 Ang^3
#
#
#
# Elastic Constant Matrix: (Units=GPa)
#
#
# Indices 1 2 3 4 5 6 
#
# 1 97.7132 -15.4053 -24.2155 0.0000 -1.9743 0.0000
# 2 -15.4053 80.3648 -9.0057 0.0000 2.5503 0.0000
# 3 -24.2155 -9.0057 71.4155 0.0000 0.3991 0.0000
# 4 0.0000 0.0000 0.0000 20.4685 0.0000 0.8221
# 5 -1.9743 2.5503 0.3991 0.0000 44.0492 0.0000
# 6 0.0000 0.0000 0.0000 0.8221 0.0000 -27.1912
#
#
#
# Elastic Compliance Matrix: (Units=1/GPa)
#
#
# Indices 1 2 3 4 5 6 
#
# 1 0.011742 0.002725 0.004323 0.000000 0.000329 0.000000
# 2 0.002725 0.013278 0.002602 0.000000 -0.000670 0.000000
# 3 0.004323 0.002602 0.015797 0.000000 -0.000100 0.000000
# 4 0.000000 0.000000 0.000000 0.048796 0.000000 0.001475
# 5 0.000329 -0.000670 -0.000100 0.000000 0.022756 0.000000
# 6 0.000000 0.000000 0.000000 0.001475 0.000000 -0.036732
#
#
# Mechanical properties :
#
#
# Convention : Reuss Voigt Hill
#
# Bulk Modulus (GPa) = 16.63419 16.91562 16.77491
# Shear Modulus (GPa) = 65.46473 27.33996 46.40235
#
# Velocity S-wave (km/s) = 5.31439 3.43438 4.47425
# Velocity P-wave (km/s) = 6.69577 4.79837 5.82485
#
# Compressibility (1/GPa) = 0.06011714
#
# Stress axis : x y z
#
# Youngs Moduli (GPa) = 85.16708 75.31008 63.30267
#
# Poissons Ratio (x) = -0.20520 -0.27366
# Poissons Ratio (y) = -0.23206 -0.16472
# Poissons Ratio (z) = -0.36819 -0.19596
#
# Static dielectric constant tensor:
#      x y z
#    x 1.826970 0.000000 -0.005060 
#    y 0.000000 1.894110 0.000000 
#    z -0.005060 0.000000 1.818410 
# 
# From -- ./inp_files/371603.got.cif
#   From: 2010.05.17/outbox.cif.g08.bks.cpg/sg12_186_cif.got.tgz:371603.got - 2010.06.03 13:09:07.
