data_PCOD9179530
_publ_section_title
;
Structure prediction by ZEFSAII (Michael W. Deem and Ramdas Pophale) SiO2 
 PCOD9179530
Probable space group: C 2/M
;
_chemical_formula_sum "Si O2"
_cell_formula_units_Z 64
_cell_length_a 15.491867
_cell_length_b 23.016449
_cell_length_c 17.555569
_cell_angle_alpha 90.000000
_cell_angle_beta 146.012748
_cell_angle_gamma 90.000000
_cell_volume 3499.253058
_symmetry_space_group_name_H-M "C 2/M"
_symmetry_group_IT_number 12
_symmetry_cell_setting 'monoclinic'
loop_
_space_group_symop_operation_xyz
x,y,z
-x,y,-z
-x,-y,-z
x,-y,z
1/2+x,1/2+y,z
1/2-x,1/2+y,-z
1/2-x,1/2-y,-z
1/2+x,1/2-y,z
loop_
_atom_site_type_symbol
_atom_site_label
_atom_site_fract_x
_atom_site_fract_y
_atom_site_fract_z
Si Si1 0.478198 0.355208 0.655092
Si Si2 0.482674 0.932872 0.795180
Si Si3 0.919115 0.853432 0.019158
Si Si4 0.851781 0.931201 0.440969
Si Si5 0.419028 0.269574 0.748840
Si Si6 0.068322 0.253426 0.471238
Si Si7 0.824352 0.931685 0.094455
Si Si8 0.565848 0.174564 0.761044
O O1 0.361058 0.397840 0.527382
O O2 0.415702 0.318575 0.680465
O O3 0.513562 0.305167 0.619133
O O4 0.610987 0.395345 0.787247
O O5 0.319531 0.920649 0.716925
O O6 0.506409 0.887777 0.744425
O O7 0.477017 0.000000 0.764989
O O8 0.638912 0.926752 0.957583
O O9 0.889918 0.901883 0.064322
O O10 0.023675 0.802686 0.134020
O O11 0.747231 0.829586 0.875686
O O12 0.000000 0.873582 0.000000
O O13 0.000000 0.912735 0.500000
O O14 0.868870 0.000000 0.465018
O O15 0.248630 0.242457 0.619629
O O16 0.538698 0.220023 0.810336
O O17 0.000000 0.274261 0.500000
O O18 0.034372 0.300142 0.381168
O O19 0.865292 0.000000 0.127654
#
# Coordination Sequence:
#
# PCOD9179530 Si02
#       8
#     8   8   8   8   8   8   8   8
#     4  10  19  33  51  72 100 136 175 211 248 302
#     4   9  18  34  54  75 100 133 173 212 253 306
#     4  10  20  34  53  78 107 133 166 215 260 301
#     4  10  19  31  50  75 102 132 169 215 261 301
#     4  10  20  34  52  75 103 137 173 205 249 307
#     4  11  21  33  52  78 107 135 167 212 258 301
#     4   9  19  35  55  76 101 137 176 211 251 304
#     4  10  19  34  54  74  99 138 175 206 250 306
#
# _framework density 18.289618000000001
#
# number of rings (size 3 to 8) (size 9 to 14) (size 15 to 20)
#    0.000    2.125    0.000    4.875    0.000    1.250 
#    0.000    0.625    0.000    4.875    0.000    0.000 
#    0.000    0.000    0.000    0.000    0.000    0.000 
#
# Total GULP energy -178253.198641 kJ/mol
# GULP energy per Si atom -5570.412458 kJ/mol
# Density = 1.824799 g / cm^3
# Si number density = 18.289618 Si / 1000 Ang^3
#
#
#
# Elastic Constant Matrix: (Units=GPa)
#
#
# Indices 1 2 3 4 5 6 
#
# 1 33.8203 22.4409 29.4520 0.0000 14.2900 0.0000
# 2 22.4409 73.9501 50.8547 0.0000 10.1763 0.0000
# 3 29.4520 50.8547 95.7260 -0.0001 15.8646 -0.0001
# 4 0.0000 0.0000 -0.0001 13.2249 -0.0001 -2.0736
# 5 14.2900 10.1763 15.8646 -0.0001 20.2297 0.0000
# 6 0.0000 0.0000 -0.0001 -2.0736 0.0000 10.2665
#
#
#
# Elastic Compliance Matrix: (Units=1/GPa)
#
#
# Indices 1 2 3 4 5 6 
#
# 1 0.052647 -0.006598 -0.008137 0.000000 -0.027489 0.000000
# 2 -0.006598 0.022213 -0.009990 0.000000 0.001321 0.000000
# 3 -0.008137 -0.009990 0.018932 0.000000 -0.004074 0.000000
# 4 0.000000 0.000000 0.000000 0.078088 0.000000 0.015772
# 5 -0.027489 0.001321 -0.004074 0.000000 0.071381 0.000000
# 6 0.000000 0.000000 0.000000 0.015772 0.000000 0.100590
#
#
# Mechanical properties :
#
#
# Convention : Reuss Voigt Hill
#
# Bulk Modulus (GPa) = 22.55142 45.44350 33.99746
# Shear Modulus (GPa) = 12.25252 15.46081 13.85667
#
# Velocity S-wave (km/s) = 2.59108 2.91061 2.75548
# Velocity P-wave (km/s) = 4.61612 6.01632 5.36212
#
# Compressibility (1/GPa) = 0.04434311
#
# Stress axis : x y z
#
# Youngs Moduli (GPa) = 18.99450 45.01919 52.82017
#
# Poissons Ratio (x) = 0.29702 0.42980
# Poissons Ratio (y) = 0.12532 0.52765
# Poissons Ratio (z) = 0.15456 0.44972
#
# Static dielectric constant tensor:
#      x y z
#    x 1.625060 0.000000 0.019280 
#    y 0.000000 1.639020 0.000000 
#    z 0.019280 0.000000 1.644760 
# 
# From -- ./inp_files/272873.got.cif
#   From: 2010.05.17/outbox.cif.g08.bks.cpg/sg12_137_cif.got.tgz:272873.got - 2010.06.03 13:09:07.
