data_PCOD9179192
_publ_section_title
;
Structure prediction by ZEFSAII (Michael W. Deem and Ramdas Pophale) SiO2 
 PCOD9179192
Probable space group: C 2/M
;
_chemical_formula_sum "Si O2"
_cell_formula_units_Z 56
_cell_length_a 13.909677
_cell_length_b 9.280808
_cell_length_c 23.748335
_cell_angle_alpha 90.000000
_cell_angle_beta 127.297164
_cell_angle_gamma 90.000000
_cell_volume 2438.810639
_symmetry_space_group_name_H-M "C 2/M"
_symmetry_group_IT_number 12
_symmetry_cell_setting 'monoclinic'
loop_
_space_group_symop_operation_xyz
x,y,z
-x,y,-z
-x,-y,-z
x,-y,z
1/2+x,1/2+y,z
1/2-x,1/2+y,-z
1/2-x,1/2-y,-z
1/2+x,1/2-y,z
loop_
_atom_site_type_symbol
_atom_site_label
_atom_site_fract_x
_atom_site_fract_y
_atom_site_fract_z
Si Si1 0.732997 0.162586 0.884375
Si Si2 0.957878 0.664618 0.268852
Si Si3 0.566980 0.328956 0.404868
Si Si4 0.905448 0.665561 0.019422
Si Si5 0.787878 0.661962 0.706767
Si Si6 0.083908 0.161009 0.153588
Si Si7 0.195225 0.173259 0.559236
O O1 0.626661 0.231490 0.809368
O O2 0.840537 0.149824 0.877048
O O3 0.696140 0.000000 0.886758
O O4 0.790418 0.247537 0.956012
O O5 0.916511 0.500000 0.265226
O O6 0.968923 0.750608 0.330803
O O7 0.089453 0.655980 0.287225
O O8 0.555818 0.500000 0.393557
O O9 0.694598 0.270481 0.424715
O O10 0.584268 0.299267 0.477527
O O11 0.876217 0.500000 0.019127
O O12 0.972490 0.736951 0.096714
O O13 0.000000 0.667282 0.000000
O O14 0.764607 0.500000 0.720489
O O15 0.824793 0.770091 0.768873
O O16 0.688824 0.698847 0.623952
O O17 0.045730 0.000000 0.157058
O O18 0.222337 0.000000 0.562927
#
# Coordination Sequence:
#
# PCOD9179192 Si02
#       7
#     8   8   8   8   8   8   8
#     4   9  18  33  51  69  91 120 153 188 226 269
#     4   9  18  32  48  67  94 125 152 184 230 274
#     4   9  15  24  42  67  91 116 152 193 227 264
#     4   9  17  30  49  71  92 116 150 189 226 267
#     4   9  17  30  47  67  93 122 151 185 227 272
#     4  10  19  31  49  71  93 118 151 189 227 269
#     4   8  15  27  42  62  90 123 154 186 226 268
#
# _framework density 22.962012000000001
#
# number of rings (size 3 to 8) (size 9 to 14) (size 15 to 20)
#    0.000    3.000    0.000    2.143    0.000    5.714 
#    0.000    0.714    0.000    0.857    0.000    6.000 
#    0.000    0.000    0.000    0.000    0.000    0.000 
#
# Total GULP energy -156310.302245 kJ/mol
# GULP energy per Si atom -5582.510794 kJ/mol
# Density = 2.290975 g / cm^3
# Si number density = 22.962012 Si / 1000 Ang^3
#
#
#
# Elastic Constant Matrix: (Units=GPa)
#
#
# Indices 1 2 3 4 5 6 
#
# 1 42.8059 4.7596 24.5948 0.0000 -3.6795 0.0000
# 2 4.7596 116.2809 110.3233 0.0000 -7.8495 0.0000
# 3 24.5948 110.3233 244.4621 0.0000 6.1126 0.0000
# 4 0.0000 0.0000 0.0000 39.4012 0.0000 4.6224
# 5 -3.6795 -7.8495 6.1126 0.0000 46.2392 0.0000
# 6 0.0000 0.0000 0.0000 4.6224 0.0000 2.2750
#
#
#
# Elastic Compliance Matrix: (Units=1/GPa)
#
#
# Indices 1 2 3 4 5 6 
#
# 1 0.025580 0.002927 -0.003971 0.000000 0.003057 0.000000
# 2 0.002927 0.015947 -0.007590 0.000000 0.003943 0.000000
# 3 -0.003971 -0.007590 0.007982 0.000000 -0.002660 0.000000
# 4 0.000000 0.000000 0.000000 0.033323 0.000000 -0.067708
# 5 0.003057 0.003943 -0.002660 0.000000 0.022891 0.000000
# 6 0.000000 0.000000 0.000000 -0.067708 0.000000 0.577134
#
#
# Mechanical properties :
#
#
# Convention : Reuss Voigt Hill
#
# Bulk Modulus (GPa) = 31.01615 75.87824 53.44719
# Shear Modulus (GPa) = 7.03361 35.17450 21.10405
#
# Velocity S-wave (km/s) = 1.75208 3.91814 3.03493
# Velocity P-wave (km/s) = 4.19881 7.32024 5.96724
#
# Compressibility (1/GPa) = 0.03224127
#
# Stress axis : x y z
#
# Youngs Moduli (GPa) = 39.09284 62.70647 125.28405
#
# Poissons Ratio (x) = -0.18352 0.49748
# Poissons Ratio (y) = -0.11441 0.95090
# Poissons Ratio (z) = 0.15523 0.47594
#
# Static dielectric constant tensor:
#      x y z
#    x 1.948120 0.000000 0.005080 
#    y 0.000000 1.804890 0.000000 
#    z 0.005080 0.000000 1.888100 
# 
# From -- ./inp_files/280155.got.cif
#   From: 2010.05.17/outbox.cif.g08.bks.cpg/sg12_141_cif.got.tgz:280155.got - 2010.06.03 13:09:07.
