data_PCOD9179602
_publ_section_title
;
Structure prediction by ZEFSAII (Michael W. Deem and Ramdas Pophale) SiO2 
 PCOD9179602
Probable space group: C 2/M
;
_chemical_formula_sum "Si O2"
_cell_formula_units_Z 64
_cell_length_a 12.340137
_cell_length_b 14.464134
_cell_length_c 30.097567
_cell_angle_alpha 90.000000
_cell_angle_beta 31.324239
_cell_angle_gamma 90.000000
_cell_volume 2792.848469
_symmetry_space_group_name_H-M "C 2/M"
_symmetry_group_IT_number 12
_symmetry_cell_setting 'monoclinic'
loop_
_space_group_symop_operation_xyz
x,y,z
-x,y,-z
-x,-y,-z
x,-y,z
1/2+x,1/2+y,z
1/2-x,1/2+y,-z
1/2-x,1/2-y,-z
1/2+x,1/2-y,z
loop_
_atom_site_type_symbol
_atom_site_label
_atom_site_fract_x
_atom_site_fract_y
_atom_site_fract_z
Si Si1 0.994891 0.603892 0.828015
Si Si2 0.989120 0.252893 0.707872
Si Si3 0.411430 0.608325 0.078400
Si Si4 0.978505 0.102424 0.776308
Si Si5 0.950949 0.400414 0.570586
Si Si6 0.942697 0.805402 0.570608
Si Si7 0.547234 0.303811 0.844529
Si Si8 0.510121 0.600509 0.360772
O O1 0.945856 0.500000 0.863652
O O2 0.838787 0.615034 0.840877
O O3 0.973277 0.698188 0.863494
O O4 0.239240 0.602498 0.731405
O O5 0.801104 0.309847 0.752959
O O6 0.070866 0.183688 0.640859
O O7 0.880198 0.183934 0.781562
O O8 0.189248 0.301292 0.658781
O O9 0.460351 0.500000 0.065921
O O10 0.499505 0.659519 0.090179
O O11 0.500000 0.640766 0.000000
O O12 0.213157 0.099208 0.673163
O O13 0.972743 0.134324 0.829263
O O14 0.888531 0.000000 0.801803
O O15 0.035732 0.500000 0.557248
O O16 0.017379 0.296632 0.560102
O O17 0.000000 0.401528 0.500000
O O18 0.030198 0.879728 0.573911
O O19 0.000000 0.822708 0.500000
O O20 0.439897 0.500000 0.369480
#
# Coordination Sequence:
#
# PCOD9179602 Si02
#       8
#     8   8   8   8   8   8   8   8
#     4   9  19  36  56  78 105 139 177 213 255 310
#     4  10  19  34  54  75 101 136 177 218 262 316
#     4  10  21  37  57  82 112 143 172 206 256 317
#     4  10  19  31  50  77 105 131 169 221 265 305
#     4   8  14  26  44  66  93 126 161 202 256 306
#     4  10  20  33  51  73 103 136 176 226 270 312
#     4  11  20  34  57  81 106 137 177 220 259 307
#     4  10  20  35  55  76 103 141 178 215 264 319
#
# _framework density 22.915672000000001
#
# number of rings (size 3 to 8) (size 9 to 14) (size 15 to 20)
#    0.000    2.250    0.000    5.250    0.000    2.250 
#    0.000    1.875    0.000    7.125    0.000    0.000 
#    0.000    0.000    0.000    0.000    0.000    0.000 
#
# Total GULP energy -178505.295511 kJ/mol
# GULP energy per Si atom -5578.290485 kJ/mol
# Density = 2.286351 g / cm^3
# Si number density = 22.915672 Si / 1000 Ang^3
#
#
#
# Elastic Constant Matrix: (Units=GPa)
#
#
# Indices 1 2 3 4 5 6 
#
# 1 72.1866 16.6045 12.4163 -0.0002 21.8408 -0.0005
# 2 16.6045 71.0745 17.6132 0.0018 21.9966 0.0002
# 3 12.4163 17.6132 57.1174 0.0024 15.7010 0.0011
# 4 -0.0002 0.0018 0.0024 12.3478 -0.0001 10.2181
# 5 21.8408 21.9966 15.7010 -0.0001 47.9457 0.0000
# 6 -0.0005 0.0002 0.0011 10.2181 0.0000 20.5871
#
#
#
# Elastic Compliance Matrix: (Units=1/GPa)
#
#
# Indices 1 2 3 4 5 6 
#
# 1 0.016344 -0.001535 -0.001348 0.000000 -0.006300 0.000000
# 2 -0.001535 0.017123 -0.003274 -0.000003 -0.006084 0.000002
# 3 -0.001348 -0.003274 0.020032 -0.000004 -0.004444 0.000001
# 4 0.000000 -0.000003 -0.000004 0.137435 0.000003 -0.068214
# 5 -0.006300 -0.006084 -0.004444 0.000003 0.027973 -0.000001
# 6 0.000000 0.000002 0.000001 -0.068214 -0.000001 0.082431
#
#
# Mechanical properties :
#
#
# Convention : Reuss Voigt Hill
#
# Bulk Modulus (GPa) = 24.28034 32.62739 28.45387
# Shear Modulus (GPa) = 15.27280 26.42575 20.84927
#
# Velocity S-wave (km/s) = 2.58443 3.39952 3.01960
# Velocity P-wave (km/s) = 4.41862 5.44775 4.95995
#
# Compressibility (1/GPa) = 0.04118558
#
# Stress axis : x y z
#
# Youngs Moduli (GPa) = 61.18508 58.40232 49.92018
#
# Poissons Ratio (x) = 0.08962 0.06729
# Poissons Ratio (y) = 0.09389 0.16344
# Poissons Ratio (z) = 0.08247 0.19121
#
# Static dielectric constant tensor:
#      x y z
#    x 1.852340 0.000000 -0.035090 
#    y 0.000000 1.876550 0.000000 
#    z -0.035090 0.000000 1.922600 
# 
# From -- ./inp_files/358429.got.cif
#   From: 2010.05.17/outbox.cif.g08.bks.cpg/sg12_180_cif.got.tgz:358429.got - 2010.06.03 13:09:07.
