data_PCOD9179627
_publ_section_title
;
Structure prediction by ZEFSAII (Michael W. Deem and Ramdas Pophale) SiO2 
 PCOD9179627
Probable space group: C 2/M
;
_chemical_formula_sum "Si O2"
_cell_formula_units_Z 56
_cell_length_a 35.741492
_cell_length_b 9.144509
_cell_length_c 10.510310
_cell_angle_alpha 90.000000
_cell_angle_beta 72.908196
_cell_angle_gamma 90.000000
_cell_volume 3283.458674
_symmetry_space_group_name_H-M "C 2/M"
_symmetry_group_IT_number 12
_symmetry_cell_setting 'monoclinic'
loop_
_space_group_symop_operation_xyz
x,y,z
-x,y,-z
-x,-y,-z
x,-y,z
1/2+x,1/2+y,z
1/2-x,1/2+y,-z
1/2-x,1/2-y,-z
1/2+x,1/2-y,z
loop_
_atom_site_type_symbol
_atom_site_label
_atom_site_fract_x
_atom_site_fract_y
_atom_site_fract_z
Si Si1 0.080150 0.173497 0.072386
Si Si2 0.203304 0.675567 0.296666
Si Si3 0.999983 0.331425 0.845334
Si Si4 0.919884 0.826503 0.232766
Si Si5 0.341609 0.824123 0.399747
Si Si6 0.712371 0.824616 0.787488
Si Si7 0.841556 0.324122 0.917301
O O1 0.117322 0.244918 0.102960
O O2 0.039569 0.248795 0.153977
O O3 0.078448 0.000000 0.094862
O O4 0.084589 0.198154 0.915350
O O5 0.208478 0.500000 0.291502
O O6 0.179101 0.714656 0.447176
O O7 0.245627 0.749366 0.254509
O O8 0.179175 0.714681 0.194318
O O9 0.999977 0.500000 0.803892
O O10 0.039527 0.248803 0.766870
O O11 0.000000 0.330475 0.000000
O O12 0.882725 0.755092 0.337721
O O13 0.921593 0.000000 0.251828
O O14 0.312753 0.785239 0.312101
O O15 0.347554 0.000000 0.390081
O O16 0.717518 0.000000 0.782331
O O17 0.687271 0.785248 0.937328
O O18 0.847500 0.500000 0.915050
#
# Coordination Sequence:
#
# PCOD9179627 Si02
#       7
#     8   8   8   8   8   8   8
#     4  10  19  31  50  78 107 135 171 215 257 301
#     4  10  22  36  52  75 104 137 174 216 261 308
#     4   9  17  29  49  76 107 140 169 206 256 308
#     4  10  19  31  50  78 107 135 171 215 257 301
#     4  10  20  35  53  75 104 138 174 213 258 310
#     4  10  20  34  54  75 100 135 176 218 259 308
#     4  10  20  35  53  75 104 138 174 213 258 310
#
# _framework density 17.055187
#
# number of rings (size 3 to 8) (size 9 to 14) (size 15 to 20)
#    0.000    2.143    1.429    2.143    0.000    5.143 
#    0.000    0.000    0.000    0.857    0.000    6.000 
#    0.000    0.000    0.000    0.000    0.000    0.000 
#
# Total GULP energy -156293.406668 kJ/mol
# GULP energy per Si atom -5581.907381 kJ/mol
# Density = 1.701637 g / cm^3
# Si number density = 17.055187 Si / 1000 Ang^3
#
#
#
# Elastic Constant Matrix: (Units=GPa)
#
#
# Indices 1 2 3 4 5 6 
#
# 1 184.1040 82.3546 106.0009 0.0000 -39.7302 0.0000
# 2 82.3546 58.9849 52.9363 0.0000 -13.9337 0.0000
# 3 106.0009 52.9363 108.4727 0.0000 3.5943 0.0000
# 4 0.0000 0.0000 0.0000 13.5842 0.0000 -11.2255
# 5 -39.7302 -13.9337 3.5943 0.0000 17.1463 0.0000
# 6 0.0000 0.0000 0.0000 -11.2255 0.0000 37.7078
#
#
#
# Elastic Compliance Matrix: (Units=1/GPa)
#
#
# Indices 1 2 3 4 5 6 
#
# 1 -0.029547 -0.014564 0.038913 0.000000 -0.088457 0.000000
# 2 -0.014564 0.046304 -0.008552 0.000000 0.005673 0.000000
# 3 0.038913 -0.008552 -0.027582 0.000000 0.088998 0.000000
# 4 0.000000 0.000000 0.000000 0.097633 0.000000 0.029065
# 5 -0.088457 0.005673 0.088998 0.000000 -0.160691 0.000000
# 6 0.000000 0.000000 0.000000 0.029065 0.000000 0.035172
#
#
# Mechanical properties :
#
#
# Convention : Reuss Voigt Hill
#
# Bulk Modulus (GPa) = 48.15565 92.68280 70.41922
# Shear Modulus (GPa) = -78.88890 21.03898 -28.92496
#
# Velocity S-wave (km/s) = -6.80849 3.51605 -4.12267
# Velocity P-wave (km/s) = 5.78885 8.42285 4.32629
#
# Compressibility (1/GPa) = 0.02076600
#
# Stress axis : x y z
#
# Youngs Moduli (GPa) = -33.84425 21.59641 -36.25521
#
# Poissons Ratio (x) = 0.31454 1.41078
# Poissons Ratio (y) = -0.49292 -0.31007
# Poissons Ratio (z) = 1.31697 0.18470
#
# Static dielectric constant tensor:
#      x y z
#    x 1.544340 0.000000 0.007010 
#    y 0.000000 1.567070 0.000000 
#    z 0.007010 0.000000 1.559440 
# 
# From -- ./inp_files/186490.got.cif
#   From: 2010.05.17/outbox.cif.g08.bks.cpg/sg12_94_cif.got.tgz:186490.got - 2010.06.03 13:09:07.
