data_PCOD9179191
_publ_section_title
;
Structure prediction by ZEFSAII (Michael W. Deem and Ramdas Pophale) SiO2 
 PCOD9179191
Probable space group: C 2/M
;
_chemical_formula_sum "Si O2"
_cell_formula_units_Z 56
_cell_length_a 29.251109
_cell_length_b 11.753917
_cell_length_c 13.514015
_cell_angle_alpha 90.000000
_cell_angle_beta 149.801949
_cell_angle_gamma 90.000000
_cell_volume 2337.056304
_symmetry_space_group_name_H-M "C 2/M"
_symmetry_group_IT_number 12
_symmetry_cell_setting 'monoclinic'
loop_
_space_group_symop_operation_xyz
x,y,z
-x,y,-z
-x,-y,-z
x,-y,z
1/2+x,1/2+y,z
1/2-x,1/2+y,-z
1/2-x,1/2-y,-z
1/2+x,1/2-y,z
loop_
_atom_site_type_symbol
_atom_site_label
_atom_site_fract_x
_atom_site_fract_y
_atom_site_fract_z
Si Si1 0.932405 0.868282 0.009407
Si Si2 0.032238 0.708231 0.460615
Si Si3 0.759263 0.629143 0.739097
Si Si4 0.847123 0.296695 0.715163
Si Si5 0.636746 0.633486 0.916661
Si Si6 0.406123 0.794913 0.624161
Si Si7 0.796788 0.134129 0.160236
O O1 0.853255 0.853585 0.946035
O O2 0.015998 0.796442 0.205993
O O3 0.953230 0.000000 0.040106
O O4 0.901514 0.815418 0.848782
O O5 0.062485 0.643443 0.417574
O O6 0.116841 0.790559 0.646364
O O7 0.000000 0.645286 0.500000
O O8 0.947718 0.789637 0.274530
O O9 0.723231 0.500000 0.662210
O O10 0.836626 0.638325 0.799748
O O11 0.682472 0.720196 0.567560
O O12 0.778578 0.645991 0.893106
O O13 0.750000 0.250000 0.500000
O O14 0.888586 0.356352 0.696086
O O15 0.611106 0.500000 0.859204
O O16 0.716155 0.652088 0.982822
O O17 0.821233 0.000000 0.212217
#
# Coordination Sequence:
#
# PCOD9179191 Si02
#       7
#     8   8   8   8   8   8   8
#     4  10  19  31  49  71  93 116 144 183 231 275
#     4   8  12  19  35  61  90 115 138 168 214 269
#     4   9  17  30  47  66  91 125 158 183 213 257
#     4  10  21  32  42  62  92 122 152 186 222 265
#     4   8  13  21  36  62  91 114 139 175 218 262
#     4   9  17  29  47  70  93 115 144 186 228 265
#     4   8  12  20  37  60  87 118 148 176 208 253
#
# _framework density 23.961767999999999
#
# number of rings (size 3 to 8) (size 9 to 14) (size 15 to 20)
#    0.000    3.143    0.000    1.286    0.000    8.571 
#    0.000    0.714    0.000    1.714    0.000    0.000 
#    0.000    0.571    0.000    7.857    0.000   47.286 
#
# Total GULP energy -155965.510785 kJ/mol
# GULP energy per Si atom -5570.196814 kJ/mol
# Density = 2.390723 g / cm^3
# Si number density = 23.961768 Si / 1000 Ang^3
#
#
#
# Elastic Constant Matrix: (Units=GPa)
#
#
# Indices 1 2 3 4 5 6 
#
# 1 283.3111 18.7141 4.9810 0.0000 -25.1193 0.0000
# 2 18.7141 45.3650 17.1857 0.0000 -0.6345 0.0000
# 3 4.9810 17.1857 65.6450 0.0000 -3.4525 0.0000
# 4 0.0000 0.0000 0.0000 -7.3226 0.0000 3.0594
# 5 -25.1193 -0.6345 -3.4525 0.0000 31.1591 0.0000
# 6 0.0000 0.0000 0.0000 3.0594 0.0000 14.3101
#
#
#
# Elastic Compliance Matrix: (Units=1/GPa)
#
#
# Indices 1 2 3 4 5 6 
#
# 1 0.003916 -0.001689 0.000311 0.000000 0.003157 0.000000
# 2 -0.001689 0.025200 -0.006552 0.000000 -0.001574 0.000000
# 3 0.000311 -0.006552 0.017031 0.000000 0.002004 0.000000
# 4 0.000000 0.000000 0.000000 -0.125366 0.000000 0.026802
# 5 0.003157 -0.001574 0.002004 0.000000 0.034828 0.000000
# 6 0.000000 0.000000 0.000000 0.026802 0.000000 0.064151
#
#
# Mechanical properties :
#
#
# Convention : Reuss Voigt Hill
#
# Bulk Modulus (GPa) = 33.01784 52.89809 42.95797
# Shear Modulus (GPa) = 109.37321 31.19201 70.28261
#
# Velocity S-wave (km/s) = 6.76343 3.61188 5.42170
# Velocity P-wave (km/s) = 8.64877 6.28635 7.56040
#
# Compressibility (1/GPa) = 0.03028666
#
# Stress axis : x y z
#
# Youngs Moduli (GPa) = 255.38382 39.68207 58.71798
#
# Poissons Ratio (x) = 0.06702 -0.01827
# Poissons Ratio (y) = 0.43134 0.38472
# Poissons Ratio (z) = -0.07945 0.26000
#
# Static dielectric constant tensor:
#      x y z
#    x 2.122540 0.000000 0.008060 
#    y 0.000000 1.938090 0.000000 
#    z 0.008060 0.000000 1.897420 
# 
# From -- ./inp_files/251183.got.cif
#   From: 2010.05.17/outbox.cif.g08.bks.cpg/sg12_126_cif.got.tgz:251183.got - 2010.06.03 13:09:07.
