data_PCOD9179103
_publ_section_title
;
Structure prediction by ZEFSAII (Michael W. Deem and Ramdas Pophale) SiO2 
 PCOD9179103
Probable space group: C 2/M
;
_chemical_formula_sum "Si O2"
_cell_formula_units_Z 48
_cell_length_a 24.298424
_cell_length_b 9.006796
_cell_length_c 24.397937
_cell_angle_alpha 90.000000
_cell_angle_beta 32.530617
_cell_angle_gamma 90.000000
_cell_volume 2871.323521
_symmetry_space_group_name_H-M "C 2/M"
_symmetry_group_IT_number 12
_symmetry_cell_setting 'monoclinic'
loop_
_space_group_symop_operation_xyz
x,y,z
-x,y,-z
-x,-y,-z
x,-y,z
1/2+x,1/2+y,z
1/2-x,1/2+y,-z
1/2-x,1/2-y,-z
1/2+x,1/2-y,z
loop_
_atom_site_type_symbol
_atom_site_label
_atom_site_fract_x
_atom_site_fract_y
_atom_site_fract_z
Si Si1 0.257824 0.322649 0.360585
Si Si2 0.662347 0.822503 0.110182
Si Si3 0.117384 0.829136 0.261028
Si Si4 0.929314 0.322840 0.275788
Si Si5 0.122332 0.828402 0.567952
Si Si6 0.888336 0.321777 0.617752
O O1 0.263703 0.500000 0.361350
O O2 0.369062 0.250865 0.276085
O O3 0.188184 0.254388 0.467181
O O4 0.199084 0.288446 0.353478
O O5 0.664242 0.758497 0.170256
O O6 0.549816 0.787506 0.179590
O O7 0.672711 0.000000 0.102824
O O8 0.750000 0.750000 0.000000
O O9 0.134328 0.754793 0.305533
O O10 0.995074 0.827617 0.353645
O O11 0.151776 0.000000 0.231632
O O12 0.917708 0.500000 0.284533
O O13 0.878642 0.256263 0.373520
O O14 0.154904 0.000000 0.547300
O O15 0.892846 0.500000 0.621715
O O16 0.000000 0.276100 0.500000
#
# Coordination Sequence:
#
# PCOD9179103 Si02
#       6
#     8   8   8   8   8   8
#     4  11  21  32  49  72 104 145 180 214 256 306
#     4  10  21  38  61  83 105 133 169 218 273 321
#     4  10  20  33  53  80 108 139 179 221 261 309
#     4  10  21  35  51  74 104 136 171 214 264 315
#     4  10  19  31  48  72 104 140 177 216 256 306
#     4  10  20  34  51  73 107 148 185 218 256 306
#
# _framework density 16.717029
#
# number of rings (size 3 to 8) (size 9 to 14) (size 15 to 20)
#    0.000    1.833    1.667    3.000    0.000    5.000 
#    0.000    0.000    0.000    1.000    0.000    7.000 
#    0.000    0.000    0.000    0.000    0.000    0.000 
#
# Total GULP energy -133996.502941 kJ/mol
# GULP energy per Si atom -5583.187623 kJ/mol
# Density = 1.667898 g / cm^3
# Si number density = 16.717029 Si / 1000 Ang^3
#
#
#
# Elastic Constant Matrix: (Units=GPa)
#
#
# Indices 1 2 3 4 5 6 
#
# 1 142.3974 78.5160 64.1308 0.0000 5.7427 0.0000
# 2 78.5160 89.7174 56.3099 -0.0001 3.0444 0.0001
# 3 64.1308 56.3099 103.1941 0.0000 13.3302 0.0000
# 4 0.0000 -0.0001 0.0000 28.2191 0.0000 1.5663
# 5 5.7427 3.0444 13.3302 0.0000 12.4417 0.0000
# 6 0.0000 0.0001 0.0000 1.5663 0.0000 31.9321
#
#
#
# Elastic Compliance Matrix: (Units=1/GPa)
#
#
# Indices 1 2 3 4 5 6 
#
# 1 0.014204 -0.010536 -0.002976 0.000000 -0.000789 0.000000
# 2 -0.010536 0.025261 -0.008201 0.000000 0.007469 0.000000
# 3 -0.002976 -0.008201 0.018081 0.000000 -0.015991 0.000000
# 4 0.000000 0.000000 0.000000 0.035534 0.000000 -0.001743
# 5 -0.000789 0.007469 -0.015991 0.000000 0.096045 0.000000
# 6 0.000000 0.000000 0.000000 -0.001743 0.000000 0.031402
#
#
# Mechanical properties :
#
#
# Convention : Reuss Voigt Hill
#
# Bulk Modulus (GPa) = 70.82564 81.46913 76.14739
# Shear Modulus (GPa) = 18.61096 23.60872 21.10984
#
# Velocity S-wave (km/s) = 3.34022 3.76208 3.55741
# Velocity P-wave (km/s) = 7.57202 8.22867 7.90716
#
# Compressibility (1/GPa) = 0.01411918
#
# Stress axis : x y z
#
# Youngs Moduli (GPa) = 70.40146 39.58746 55.30757
#
# Poissons Ratio (x) = 0.41710 0.16460
# Poissons Ratio (y) = 0.74176 0.45357
# Poissons Ratio (z) = 0.20952 0.32465
#
# Static dielectric constant tensor:
#      x y z
#    x 1.574000 0.000000 -0.030880 
#    y 0.000000 1.561940 0.000000 
#    z -0.030880 0.000000 1.540060 
# 
# From -- ./inp_files/172110.got.cif
#   From: 2010.05.17/outbox.cif.g08.bks.cpg/sg12_87_cif.got.tgz:172110.got - 2010.06.03 13:09:07.
