data_PCOD9179251
_publ_section_title
;
Structure prediction by ZEFSAII (Michael W. Deem and Ramdas Pophale) SiO2 
 PCOD9179251
Probable space group: C 2/M
;
_chemical_formula_sum "Si O2"
_cell_formula_units_Z 40
_cell_length_a 23.463107
_cell_length_b 8.353445
_cell_length_c 19.209527
_cell_angle_alpha 90.000000
_cell_angle_beta 143.608359
_cell_angle_gamma 90.000000
_cell_volume 2233.794522
_symmetry_space_group_name_H-M "C 2/M"
_symmetry_group_IT_number 12
_symmetry_cell_setting 'monoclinic'
loop_
_space_group_symop_operation_xyz
x,y,z
-x,y,-z
-x,-y,-z
x,-y,z
1/2+x,1/2+y,z
1/2-x,1/2+y,-z
1/2-x,1/2-y,-z
1/2+x,1/2-y,z
loop_
_atom_site_type_symbol
_atom_site_label
_atom_site_fract_x
_atom_site_fract_y
_atom_site_fract_z
Si Si1 0.300038 0.693422 0.944616
Si Si2 0.603906 0.808567 0.822718
Si Si3 0.888825 0.804189 0.886633
Si Si4 0.607118 0.308640 0.397102
Si Si5 0.794892 0.193070 0.650173
O O1 0.300527 0.500000 0.944919
O O2 0.193702 0.747229 0.863551
O O3 0.333157 0.748385 0.901283
O O4 0.372601 0.748608 0.076319
O O5 0.500747 0.748443 0.696952
O O6 0.604035 0.000000 0.822960
O O7 0.839247 0.750080 0.766420
O O8 0.887718 0.000000 0.885070
O O9 0.000000 0.755253 0.000000
O O10 0.609198 0.500000 0.399209
O O11 0.686050 0.246275 0.528959
O O12 0.643235 0.252010 0.356020
O O13 0.797634 0.000000 0.653181
#
# Coordination Sequence:
#
# PCOD9179251 Si02
#       5
#     8   8   8   8   8
#     4   9  18  32  50  73  98 125 160 198 237 283
#     4  10  19  31  49  72  98 128 161 197 236 281
#     4   9  16  29  51  75  97 122 154 195 241 285
#     4  10  19  32  51  72  96 127 161 198 239 283
#     4   9  18  32  51  74  97 123 159 200 239 282
#
# _framework density 17.906749999999999
#
# number of rings (size 3 to 8) (size 9 to 14) (size 15 to 20)
#    0.000    2.600    0.000    2.400    0.000    4.800 
#    0.000    2.000    0.000    8.400    0.000    0.000 
#    0.000    0.000    0.000    0.000    0.000    0.000 
#
# Total GULP energy -111567.112314 kJ/mol
# GULP energy per Si atom -5578.355616 kJ/mol
# Density = 1.786599 g / cm^3
# Si number density = 17.906750 Si / 1000 Ang^3
#
#
#
# Elastic Constant Matrix: (Units=GPa)
#
#
# Indices 1 2 3 4 5 6 
#
# 1 96.5699 9.9227 88.9135 0.0000 -12.0643 0.0000
# 2 9.9227 4.6941 13.3603 0.0000 -3.0238 0.0000
# 3 88.9135 13.3603 174.5364 0.0000 -0.8156 0.0000
# 4 0.0000 0.0000 0.0000 28.6993 0.0000 0.9657
# 5 -12.0643 -3.0238 -0.8156 0.0000 29.6092 0.0000
# 6 0.0000 0.0000 0.0000 0.9657 0.0000 13.9079
#
#
#
# Elastic Compliance Matrix: (Units=1/GPa)
#
#
# Indices 1 2 3 4 5 6 
#
# 1 0.021948 -0.012689 -0.010175 0.000000 0.007366 0.000000
# 2 -0.012689 0.303613 -0.016658 0.000000 0.025377 0.000000
# 3 -0.010175 -0.016658 0.012162 0.000000 -0.005512 0.000000
# 4 0.000000 0.000000 0.000000 0.034926 0.000000 -0.002425
# 5 0.007366 0.025377 -0.005512 0.000000 0.039215 0.000000
# 6 0.000000 0.000000 0.000000 -0.002425 0.000000 0.072070
#
#
# Mechanical properties :
#
#
# Convention : Reuss Voigt Hill
#
# Bulk Modulus (GPa) = 3.86580 55.57707 29.72144
# Shear Modulus (GPa) = 7.70174 25.35018 16.52596
#
# Velocity S-wave (km/s) = 2.07614 3.76663 3.04121
# Velocity P-wave (km/s) = 2.81260 7.07255 5.38199
#
# Compressibility (1/GPa) = 0.25867854
#
# Stress axis : x y z
#
# Youngs Moduli (GPa) = 45.56325 3.29367 82.22197
#
# Poissons Ratio (x) = 0.04179 0.83660
# Poissons Ratio (y) = 0.57816 1.36966
# Poissons Ratio (z) = 0.46360 0.05487
#
# Static dielectric constant tensor:
#      x y z
#    x 1.617960 0.000000 0.003480 
#    y 0.000000 1.622020 0.000000 
#    z 0.003480 0.000000 1.584470 
# 
# From -- ./inp_files/162378.got.cif
#   From: 2010.05.17/outbox.cif.g08.bks.cpg/sg12_82_cif.got.tgz:162378.got - 2010.06.03 13:09:07.
