data_PCOD9179430
_publ_section_title
;
Structure prediction by ZEFSAII (Michael W. Deem and Ramdas Pophale) SiO2 
 PCOD9179430
Probable space group: C 2/M
;
_chemical_formula_sum "Si O2"
_cell_formula_units_Z 56
_cell_length_a 18.431744
_cell_length_b 10.967408
_cell_length_c 15.173189
_cell_angle_alpha 90.000000
_cell_angle_beta 119.267873
_cell_angle_gamma 90.000000
_cell_volume 2675.684163
_symmetry_space_group_name_H-M "C 2/M"
_symmetry_group_IT_number 12
_symmetry_cell_setting 'monoclinic'
loop_
_space_group_symop_operation_xyz
x,y,z
-x,y,-z
-x,-y,-z
x,-y,z
1/2+x,1/2+y,z
1/2-x,1/2+y,-z
1/2-x,1/2-y,-z
1/2+x,1/2-y,z
loop_
_atom_site_type_symbol
_atom_site_label
_atom_site_fract_x
_atom_site_fract_y
_atom_site_fract_z
Si Si1 0.664016 0.223911 0.777635
Si Si2 0.016002 0.132667 0.614740
Si Si3 0.047266 0.640716 0.858509
Si Si4 0.182650 0.359453 0.072598
Si Si5 0.858679 0.642228 0.744117
Si Si6 0.757729 0.364697 0.351706
Si Si7 0.563261 0.868873 0.453197
O O1 0.609827 0.326621 0.693786
O O2 0.599512 0.152408 0.800048
O O3 0.732707 0.283963 0.880982
O O4 0.709346 0.146035 0.729665
O O5 0.959297 0.245575 0.609631
O O6 0.000000 0.124019 0.500000
O O7 0.998281 0.000000 0.642660
O O8 0.034772 0.500000 0.875652
O O9 0.953804 0.686414 0.794309
O O10 0.106354 0.692784 0.970480
O O11 0.196939 0.500000 0.052870
O O12 0.160867 0.360363 0.163088
O O13 0.847254 0.500000 0.706576
O O14 0.798582 0.744999 0.666709
O O15 0.719636 0.500000 0.342363
O O16 0.842438 0.360745 0.458535
O O17 0.500000 0.871508 0.500000
O O18 0.550443 0.000000 0.400269
#
# Coordination Sequence:
#
# PCOD9179430 Si02
#       7
#     8   8   8   8   8   8   8
#     4  11  19  31  52  82 113 142 176 227 276 327
#     4  10  19  31  49  79 113 142 173 218 271 322
#     4  10  20  34  53  78 109 147 186 225 270 322
#     4   9  18  33  54  79 107 142 188 231 267 315
#     4   9  19  35  56  78 106 145 188 226 264 318
#     4  10  19  32  52  80 109 140 178 222 269 322
#     4   9  16  29  48  75 106 136 172 218 265 315
#
# _framework density 20.929227000000001
#
# number of rings (size 3 to 8) (size 9 to 14) (size 15 to 20)
#    0.000    2.286    2.857    1.714    0.000    3.429 
#    0.000    1.429    0.000    9.429    0.000    0.000 
#    0.000    0.000    0.000    0.000    0.000    0.000 
#
# Total GULP energy -156114.492354 kJ/mol
# GULP energy per Si atom -5575.517584 kJ/mol
# Density = 2.088159 g / cm^3
# Si number density = 20.929227 Si / 1000 Ang^3
#
#
#
# Elastic Constant Matrix: (Units=GPa)
#
#
# Indices 1 2 3 4 5 6 
#
# 1 58.7693 22.4191 22.0212 0.0000 24.2775 0.0000
# 2 22.4191 156.3147 53.0113 0.0000 29.7174 0.0000
# 3 22.0212 53.0113 91.9918 0.0000 31.6848 0.0000
# 4 0.0000 0.0000 0.0000 25.6183 0.0000 10.2810
# 5 24.2775 29.7174 31.6848 0.0000 37.8942 0.0000
# 6 0.0000 0.0000 0.0000 10.2810 0.0000 20.6595
#
#
#
# Elastic Compliance Matrix: (Units=1/GPa)
#
#
# Indices 1 2 3 4 5 6 
#
# 1 0.023195 -0.000506 -0.000392 0.000000 -0.014135 0.000000
# 2 -0.000506 0.008282 -0.003548 0.000000 -0.003204 0.000000
# 3 -0.000392 -0.003548 0.016803 0.000000 -0.011016 0.000000
# 4 0.000000 0.000000 0.000000 0.048776 0.000000 -0.024273
# 5 -0.014135 -0.003204 -0.011016 0.000000 0.047169 0.000000
# 6 0.000000 0.000000 0.000000 -0.024273 0.000000 0.060483
#
#
# Mechanical properties :
#
#
# Convention : Reuss Voigt Hill
#
# Bulk Modulus (GPa) = 25.38852 55.77542 40.58197
# Shear Modulus (GPa) = 22.05258 30.80935 26.43097
#
# Velocity S-wave (km/s) = 3.24956 3.84092 3.55755
# Velocity P-wave (km/s) = 5.12216 6.81011 6.02553
#
# Compressibility (1/GPa) = 0.03938788
#
# Stress axis : x y z
#
# Youngs Moduli (GPa) = 43.11262 120.73851 59.51223
#
# Poissons Ratio (x) = 0.06115 0.02333
# Poissons Ratio (y) = 0.02183 0.21115
# Poissons Ratio (z) = 0.01690 0.42838
#
# Static dielectric constant tensor:
#      x y z
#    x 1.765890 0.000000 -0.000040 
#    y 0.000000 1.781600 0.000000 
#    z -0.000040 0.000000 1.783710 
# 
# From -- ./inp_files/277092.got.cif
#   From: 2010.05.17/outbox.cif.g08.bks.cpg/sg12_139_cif.got.tgz:277092.got - 2010.06.03 13:09:07.
