data_PCOD9179354
_publ_section_title
;
Structure prediction by ZEFSAII (Michael W. Deem and Ramdas Pophale) SiO2 
 PCOD9179354
Probable space group: C 2/M
;
_chemical_formula_sum "Si O2"
_cell_formula_units_Z 56
_cell_length_a 20.241886
_cell_length_b 9.224891
_cell_length_c 28.478124
_cell_angle_alpha 90.000000
_cell_angle_beta 146.041547
_cell_angle_gamma 90.000000
_cell_volume 2970.420895
_symmetry_space_group_name_H-M "C 2/M"
_symmetry_group_IT_number 12
_symmetry_cell_setting 'monoclinic'
loop_
_space_group_symop_operation_xyz
x,y,z
-x,y,-z
-x,-y,-z
x,-y,z
1/2+x,1/2+y,z
1/2-x,1/2+y,-z
1/2-x,1/2-y,-z
1/2+x,1/2-y,z
loop_
_atom_site_type_symbol
_atom_site_label
_atom_site_fract_x
_atom_site_fract_y
_atom_site_fract_z
Si Si1 0.228893 0.826021 0.743298
Si Si2 0.501427 0.167753 0.426547
Si Si3 0.346419 0.326388 0.198899
Si Si4 0.581179 0.828032 0.217793
Si Si5 0.720259 0.670583 0.585763
Si Si6 0.666970 0.674243 0.913139
Si Si7 0.078723 0.332463 0.364052
O O1 0.121752 0.752247 0.651611
O O2 0.219498 0.779553 0.792212
O O3 0.353795 0.794428 0.792922
O O4 0.211604 0.000000 0.730452
O O5 0.600589 0.238613 0.517895
O O6 0.558372 0.176997 0.407567
O O7 0.481219 0.000000 0.425944
O O8 0.351564 0.500000 0.202944
O O9 0.296034 0.285070 0.118502
O O10 0.478606 0.265006 0.281415
O O11 0.683476 0.803717 0.316901
O O12 0.466131 0.732862 0.158499
O O13 0.550829 0.000000 0.201418
O O14 0.689618 0.500000 0.567784
O O15 0.793274 0.704387 0.581069
O O16 0.671079 0.500000 0.920041
O O17 0.750000 0.750000 0.000000
O O18 0.057500 0.500000 0.337589
#
# Coordination Sequence:
#
# PCOD9179354 Si02
#       7
#     8   8   8   8   8   8   8
#     4   9  19  37  58  79 109 148 187 224 267 321
#     4  10  20  31  47  75 109 149 190 230 270 312
#     4   9  18  34  57  83 108 140 180 221 268 320
#     4  10  21  38  60  83 109 144 183 226 275 324
#     4  10  19  31  49  74 107 145 186 230 273 319
#     4  11  23  39  62  89 114 139 172 219 272 329
#     4   9  17  30  49  74 106 142 184 229 273 318
#
# _framework density 18.852547999999999
#
# number of rings (size 3 to 8) (size 9 to 14) (size 15 to 20)
#    0.000    2.286    1.429    1.286    0.000    3.429 
#    0.000    3.571    0.000    4.286    0.000    0.000 
#    0.000    0.000    0.000    0.000    0.000    0.000 
#
# Total GULP energy -156243.146266 kJ/mol
# GULP energy per Si atom -5580.112367 kJ/mol
# Density = 1.880964 g / cm^3
# Si number density = 18.852548 Si / 1000 Ang^3
#
#
#
# Elastic Constant Matrix: (Units=GPa)
#
#
# Indices 1 2 3 4 5 6 
#
# 1 84.4747 29.7945 30.2263 0.0000 1.0014 0.0000
# 2 29.7945 31.6987 33.9819 0.0000 -4.1227 -0.0001
# 3 30.2263 33.9819 71.9689 0.0000 -15.8253 0.0000
# 4 0.0000 0.0000 0.0000 32.6130 0.0000 2.2976
# 5 1.0014 -4.1227 -15.8253 0.0000 18.7906 0.0000
# 6 0.0000 -0.0001 0.0000 2.2976 0.0000 19.1332
#
#
#
# Elastic Compliance Matrix: (Units=1/GPa)
#
#
# Indices 1 2 3 4 5 6 
#
# 1 0.018147 -0.016844 -0.000851 0.000000 -0.005380 0.000000
# 2 -0.016844 0.082657 -0.034080 0.000000 -0.009670 0.000000
# 3 -0.000851 -0.034080 0.035235 0.000000 0.022243 0.000000
# 4 0.000000 0.000000 0.000000 0.030924 0.000000 -0.003713
# 5 -0.005380 -0.009670 0.022243 0.000000 0.070116 0.000000
# 6 0.000000 0.000000 0.000000 -0.003713 0.000000 0.052711
#
#
# Mechanical properties :
#
#
# Convention : Reuss Voigt Hill
#
# Bulk Modulus (GPa) = 30.78066 41.79420 36.28743
# Shear Modulus (GPa) = 12.37095 20.38332 16.37713
#
# Velocity S-wave (km/s) = 2.56441 3.29172 2.95056
# Velocity P-wave (km/s) = 5.01306 6.05511 5.55856
#
# Compressibility (1/GPa) = 0.03248793
#
# Stress axis : x y z
#
# Youngs Moduli (GPa) = 55.10482 12.09815 28.38058
#
# Poissons Ratio (x) = 0.20379 0.02416
# Poissons Ratio (y) = 0.92820 0.96722
# Poissons Ratio (z) = 0.04690 0.41231
#
# Static dielectric constant tensor:
#      x y z
#    x 1.719780 0.000000 -0.043350 
#    y 0.000000 1.630290 0.000000 
#    z -0.043350 0.000000 1.614610 
# 
# From -- ./inp_files/380769.got.cif
#   From: 2010.05.17/outbox.cif.g08.bks.cpg/sg12_191_cif.got.tgz:380769.got - 2010.06.03 13:09:07.
