data_PCOD9179389
_publ_section_title
;
Structure prediction by ZEFSAII (Michael W. Deem and Ramdas Pophale) SiO2 
 PCOD9179389
Probable space group: C 2/M
;
_chemical_formula_sum "Si O2"
_cell_formula_units_Z 48
_cell_length_a 22.525739
_cell_length_b 7.433429
_cell_length_c 12.666248
_cell_angle_alpha 90.000000
_cell_angle_beta 70.996011
_cell_angle_gamma 90.000000
_cell_volume 2005.283986
_symmetry_space_group_name_H-M "C 2/M"
_symmetry_group_IT_number 12
_symmetry_cell_setting 'monoclinic'
loop_
_space_group_symop_operation_xyz
x,y,z
-x,y,-z
-x,-y,-z
x,-y,z
1/2+x,1/2+y,z
1/2-x,1/2+y,-z
1/2-x,1/2-y,-z
1/2+x,1/2-y,z
loop_
_atom_site_type_symbol
_atom_site_label
_atom_site_fract_x
_atom_site_fract_y
_atom_site_fract_z
Si Si1 0.236006 0.294250 0.847409
Si Si2 0.925352 0.219954 0.248058
Si Si3 0.905562 0.796538 0.031506
Si Si4 0.716975 0.286936 0.629615
Si Si5 0.021877 0.219375 0.372871
Si Si6 0.869529 0.779240 0.831152
O O1 0.226032 0.500000 0.885883
O O2 0.169675 0.197914 0.901405
O O3 0.249946 0.292584 0.713922
O O4 0.297458 0.219624 0.869112
O O5 0.934951 0.282366 0.121328
O O6 0.855502 0.274720 0.324720
O O7 0.974640 0.275721 0.307417
O O8 0.926655 0.000000 0.242810
O O9 0.929539 0.000000 0.007143
O O10 0.906269 0.716208 0.914360
O O11 0.716415 0.500000 0.645590
O O12 0.750000 0.250000 0.500000
O O13 0.091157 0.272232 0.294601
O O14 0.000000 0.282136 0.500000
O O15 0.020689 0.000000 0.375895
O O16 0.867667 0.000000 0.836190
#
# Coordination Sequence:
#
# PCOD9179389 Si02
#       6
#     8   8   8   8   8   8
#     4  10  19  31  49  76 105 132 168 208 254 308
#     4   8  16  29  46  69  98 130 162 208 257 299
#     4   9  17  32  50  73 105 131 166 214 260 305
#     4  10  20  33  51  76 103 135 171 208 253 299
#     4   9  17  28  44  69 101 133 166 209 261 304
#     4   9  18  29  46  73 102 136 170 209 257 305
#
# _framework density 23.936758999999999
#
# number of rings (size 3 to 8) (size 9 to 14) (size 15 to 20)
#    0.000    2.833    0.000    2.500    2.333    0.667 
#    0.000    4.167    0.000    0.000    0.000   23.333 
#    0.000    0.000    0.000    0.000    0.000    0.000 
#
# Total GULP energy -134094.307944 kJ/mol
# GULP energy per Si atom -5587.262831 kJ/mol
# Density = 2.388228 g / cm^3
# Si number density = 23.936759 Si / 1000 Ang^3
#
#
#
# Elastic Constant Matrix: (Units=GPa)
#
#
# Indices 1 2 3 4 5 6 
#
# 1 95.3794 4.8607 35.9189 0.0000 17.6520 0.0000
# 2 4.8607 85.4637 -0.9552 0.0000 1.2882 0.0000
# 3 35.9189 -0.9552 153.1153 0.0000 -0.6983 0.0000
# 4 0.0000 0.0000 0.0000 7.6957 0.0000 -0.2597
# 5 17.6520 1.2882 -0.6983 0.0000 37.0184 0.0000
# 6 0.0000 0.0000 0.0000 -0.2597 0.0000 -0.9949
#
#
#
# Elastic Compliance Matrix: (Units=1/GPa)
#
#
# Indices 1 2 3 4 5 6 
#
# 1 0.012797 -0.000669 -0.003034 0.000000 -0.006136 0.000000
# 2 -0.000669 0.011743 0.000230 0.000000 -0.000085 0.000000
# 3 -0.003034 0.000230 0.007251 0.000000 0.001576 0.000000
# 4 0.000000 0.000000 0.000000 0.128809 0.000000 -0.033620
# 5 -0.006136 -0.000085 0.001576 0.000000 0.029972 0.000000
# 6 0.000000 0.000000 0.000000 -0.033620 0.000000 -0.996313
#
#
# Mechanical properties :
#
#
# Convention : Reuss Voigt Hill
#
# Bulk Modulus (GPa) = 40.25117 45.95635 43.10376
# Shear Modulus (GPa) = -6.32501 28.35277 11.01388
#
# Velocity S-wave (km/s) = -1.62730 3.44537 2.14738
# Velocity P-wave (km/s) = 3.64984 5.92184 4.91882
#
# Compressibility (1/GPa) = 0.02484400
#
# Stress axis : x y z
#
# Youngs Moduli (GPa) = 78.14477 85.15861 137.90426
#
# Poissons Ratio (x) = 0.05699 0.41842
# Poissons Ratio (y) = 0.05230 -0.03170
# Poissons Ratio (z) = 0.23710 -0.01957
#
# Static dielectric constant tensor:
#      x y z
#    x 1.897450 0.000000 -0.003220 
#    y 0.000000 1.948950 0.000000 
#    z -0.003220 0.000000 1.915590 
# 
# From -- ./inp_files/172203.got.cif
#   From: 2010.05.17/outbox.cif.g08.bks.cpg/sg12_87_cif.got.tgz:172203.got - 2010.06.03 13:09:07.
