data_PCOD9179842
_publ_section_title
;
Structure prediction by ZEFSAII (Michael W. Deem and Ramdas Pophale) SiO2 
 PCOD9179842
Probable space group: C 2/M
;
_chemical_formula_sum "Si O2"
_cell_formula_units_Z 56
_cell_length_a 20.453088
_cell_length_b 8.830310
_cell_length_c 19.798857
_cell_angle_alpha 90.000000
_cell_angle_beta 120.274938
_cell_angle_gamma 90.000000
_cell_volume 3088.130994
_symmetry_space_group_name_H-M "C 2/M"
_symmetry_group_IT_number 12
_symmetry_cell_setting 'monoclinic'
loop_
_space_group_symop_operation_xyz
x,y,z
-x,y,-z
-x,-y,-z
x,-y,z
1/2+x,1/2+y,z
1/2-x,1/2+y,-z
1/2-x,1/2-y,-z
1/2+x,1/2-y,z
loop_
_atom_site_type_symbol
_atom_site_label
_atom_site_fract_x
_atom_site_fract_y
_atom_site_fract_z
Si Si1 0.528110 0.819115 0.828999
Si Si2 0.924234 0.824862 0.507171
Si Si3 0.660595 0.317795 0.666178
Si Si4 0.055547 0.818176 0.089982
Si Si5 0.731952 0.319178 0.176129
Si Si6 0.515585 0.179770 0.666569
Si Si7 0.807229 0.819350 0.084031
O O1 0.470041 0.760095 0.854392
O O2 0.505932 0.781793 0.740193
O O3 0.608766 0.741745 0.885049
O O4 0.536126 0.000000 0.837883
O O5 0.858969 0.774516 0.421377
O O6 0.000000 0.821085 0.500000
O O7 0.944903 0.728377 0.583343
O O8 0.911821 0.000000 0.519779
O O9 0.664685 0.500000 0.671418
O O10 0.734570 0.241892 0.736151
O O11 0.589470 0.263095 0.674746
O O12 0.143301 0.785195 0.120806
O O13 0.048193 0.000000 0.093543
O O14 0.000000 0.771007 0.000000
O O15 0.742792 0.500000 0.177158
O O16 0.779420 0.238247 0.142283
O O17 0.528151 0.000000 0.667331
O O18 0.806313 0.000000 0.080183
O O19 0.750000 0.750000 0.000000
#
# Coordination Sequence:
#
# PCOD9179842 Si02
#       7
#     8   8   8   8   8   8   8
#     4  11  23  38  58  85 116 148 188 234 280 339
#     4   8  16  29  47  75 111 147 186 226 274 336
#     4  10  19  32  52  80 113 151 188 228 281 337
#     4  10  23  42  61  81 109 149 192 235 287 343
#     4  11  22  37  58  85 115 146 189 238 283 341
#     4  10  19  31  51  81 115 147 184 231 281 332
#     4  12  24  38  59  84 113 147 184 232 287 338
#
# _framework density 18.133945000000001
#
# number of rings (size 3 to 8) (size 9 to 14) (size 15 to 20)
#    0.000    1.714    1.429    4.714    0.000    7.429 
#    0.000    0.000    0.000    0.857    0.000    0.000 
#    0.000    0.000    0.000    0.000    0.000    0.000 
#
# Total GULP energy -156356.932851 kJ/mol
# GULP energy per Si atom -5584.176173 kJ/mol
# Density = 1.809267 g / cm^3
# Si number density = 18.133945 Si / 1000 Ang^3
#
#
#
# Elastic Constant Matrix: (Units=GPa)
#
#
# Indices 1 2 3 4 5 6 
#
# 1 24.4554 5.6339 -13.1893 0.0000 0.9712 0.0000
# 2 5.6339 36.2916 7.9274 0.0000 -0.4909 0.0000
# 3 -13.1893 7.9274 86.4264 0.0000 10.7859 0.0000
# 4 0.0000 0.0000 0.0000 34.5542 0.0000 -0.3261
# 5 0.9712 -0.4909 10.7859 0.0000 24.6455 0.0000
# 6 0.0000 0.0000 0.0000 -0.3261 0.0000 24.0176
#
#
#
# Elastic Compliance Matrix: (Units=1/GPa)
#
#
# Indices 1 2 3 4 5 6 
#
# 1 0.048162 -0.009518 0.008974 0.000000 -0.006015 0.000000
# 2 -0.009518 0.030074 -0.004583 0.000000 0.002980 0.000000
# 3 0.008974 -0.004583 0.014191 0.000000 -0.006655 0.000000
# 4 0.000000 0.000000 0.000000 0.028944 0.000000 0.000393
# 5 -0.006015 0.002980 -0.006655 0.000000 0.043785 0.000000
# 6 0.000000 0.000000 0.000000 0.000393 0.000000 0.041642
#
#
# Mechanical properties :
#
#
# Convention : Reuss Voigt Hill
#
# Bulk Modulus (GPa) = 12.16969 16.43528 14.30248
# Shear Modulus (GPa) = 20.45478 26.43021 23.44249
#
# Velocity S-wave (km/s) = 3.36219 3.82186 3.59937
# Velocity P-wave (km/s) = 4.66883 5.34401 5.01779
#
# Compressibility (1/GPa) = 0.08217137
#
# Stress axis : x y z
#
# Youngs Moduli (GPa) = 20.76329 33.25184 70.46762
#
# Poissons Ratio (x) = 0.31650 -0.63234
# Poissons Ratio (y) = 0.19763 0.32294
# Poissons Ratio (z) = -0.18632 0.15239
#
# Static dielectric constant tensor:
#      x y z
#    x 1.593520 0.000000 0.004840 
#    y 0.000000 1.605880 0.000000 
#    z 0.004840 0.000000 1.663080 
# 
# From -- ./inp_files/281657.got.cif
#   From: 2010.05.17/outbox.cif.g08.bks.cpg/sg12_141_cif.got.tgz:281657.got - 2010.06.03 13:09:07.
