data_PCOD9179789
_publ_section_title
;
Structure prediction by ZEFSAII (Michael W. Deem and Ramdas Pophale) SiO2 
 PCOD9179789
Probable space group: C 2/M
;
_chemical_formula_sum "Si O2"
_cell_formula_units_Z 56
_cell_length_a 16.272810
_cell_length_b 7.700193
_cell_length_c 26.797959
_cell_angle_alpha 90.000000
_cell_angle_beta 39.260903
_cell_angle_gamma 90.000000
_cell_volume 2125.046831
_symmetry_space_group_name_H-M "C 2/M"
_symmetry_group_IT_number 12
_symmetry_cell_setting 'monoclinic'
loop_
_space_group_symop_operation_xyz
x,y,z
-x,y,-z
-x,-y,-z
x,-y,z
1/2+x,1/2+y,z
1/2-x,1/2+y,-z
1/2-x,1/2-y,-z
1/2+x,1/2-y,z
loop_
_atom_site_type_symbol
_atom_site_label
_atom_site_fract_x
_atom_site_fract_y
_atom_site_fract_z
Si Si1 0.442447 0.704773 0.878236
Si Si2 0.652221 0.287438 0.975701
Si Si3 0.993902 0.787858 0.257040
Si Si4 0.778744 0.201124 0.162808
Si Si5 0.605514 0.306759 0.554040
Si Si6 0.325508 0.293890 0.685665
Si Si7 0.284181 0.200963 0.592440
O O1 0.471187 0.500000 0.867186
O O2 0.293398 0.727908 0.929271
O O3 0.517849 0.776686 0.794894
O O4 0.444013 0.770992 0.934500
O O5 0.650347 0.500000 0.976014
O O6 0.643817 0.227661 0.922145
O O7 0.864012 0.737320 0.347029
O O8 0.128834 0.721830 0.215295
O O9 0.999371 0.000000 0.254269
O O10 0.773107 0.266968 0.222147
O O11 0.814146 0.000000 0.149169
O O12 0.594214 0.500000 0.579288
O O13 0.750000 0.250000 0.500000
O O14 0.469116 0.221782 0.632611
O O15 0.614688 0.301258 0.489319
O O16 0.334900 0.500000 0.673152
O O17 0.297249 0.212169 0.645571
O O18 0.298701 0.000000 0.571208
#
# Coordination Sequence:
#
# PCOD9179789 Si02
#       7
#     8   8   8   8   8   8   8
#     4   8  13  24  43  67  99 135 167 205 255 304
#     4   8  14  24  41  69 101 131 167 211 255 300
#     4   9  18  32  51  77 107 138 173 213 258 309
#     4  10  19  31  51  79 107 136 175 219 260 305
#     4  11  24  41  61  84 108 135 170 211 255 306
#     4  11  24  40  56  76 105 140 176 212 255 309
#     4  11  23  38  57  81 108 138 174 214 257 307
#
# _framework density 26.352360999999998
#
# number of rings (size 3 to 8) (size 9 to 14) (size 15 to 20)
#    0.000    2.286    0.000    3.000    0.000    9.143 
#    0.000    0.000    0.000    0.857    0.000    6.000 
#    0.000    0.000    0.000    0.000    0.000    0.000 
#
# Total GULP energy -156475.157782 kJ/mol
# GULP energy per Si atom -5588.398492 kJ/mol
# Density = 2.629238 g / cm^3
# Si number density = 26.352361 Si / 1000 Ang^3
#
#
#
# Elastic Constant Matrix: (Units=GPa)
#
#
# Indices 1 2 3 4 5 6 
#
# 1 115.2157 -3.5454 27.3804 -0.0001 25.1659 0.0005
# 2 -3.5454 55.1336 -8.9446 0.0002 0.0647 -0.0005
# 3 27.3804 -8.9446 180.9169 -0.0001 22.5295 0.0001
# 4 -0.0001 0.0002 -0.0001 14.4149 0.0000 10.8493
# 5 25.1659 0.0647 22.5295 0.0000 59.3624 0.0002
# 6 0.0005 -0.0005 0.0001 10.8493 0.0002 18.5631
#
#
#
# Elastic Compliance Matrix: (Units=1/GPa)
#
#
# Indices 1 2 3 4 5 6 
#
# 1 0.009749 0.000472 -0.000984 0.000000 -0.003760 0.000000
# 2 0.000472 0.018315 0.000904 -0.000001 -0.000563 0.000001
# 3 -0.000984 0.000904 0.005950 0.000000 -0.001842 0.000000
# 4 0.000000 -0.000001 0.000000 0.123855 0.000000 -0.072388
# 5 -0.003760 -0.000563 -0.001842 0.000000 0.019139 0.000000
# 6 0.000000 0.000001 0.000000 -0.072388 0.000000 0.096178
#
#
# Mechanical properties :
#
#
# Convention : Reuss Voigt Hill
#
# Bulk Modulus (GPa) = 28.73641 42.33855 35.53748
# Shear Modulus (GPa) = 17.60546 40.89313 29.24930
#
# Velocity S-wave (km/s) = 2.58753 3.94354 3.33518
# Velocity P-wave (km/s) = 4.45594 6.06931 5.32409
#
# Compressibility (1/GPa) = 0.03479906
#
# Stress axis : x y z
#
# Youngs Moduli (GPa) = 102.57475 54.59865 168.05541
#
# Poissons Ratio (x) = -0.02575 0.16535
# Poissons Ratio (y) = -0.04839 -0.15197
# Poissons Ratio (z) = 0.10092 -0.04937
#
# Static dielectric constant tensor:
#      x y z
#    x 2.196190 0.000000 0.010450 
#    y 0.000000 1.993810 0.000000 
#    z 0.010450 0.000000 2.058730 
# 
# From -- ./inp_files/342509.got.cif
#   From: 2010.05.17/outbox.cif.g08.bks.cpg/sg12_172_cif.got.tgz:342509.got - 2010.06.03 13:09:07.
