data_PCOD9179732
_publ_section_title
;
Structure prediction by ZEFSAII (Michael W. Deem and Ramdas Pophale) SiO2 
 PCOD9179732
Probable space group: C 2/M
;
_chemical_formula_sum "Si O2"
_cell_formula_units_Z 48
_cell_length_a 16.539945
_cell_length_b 14.848842
_cell_length_c 10.618727
_cell_angle_alpha 90.000000
_cell_angle_beta 102.310775
_cell_angle_gamma 90.000000
_cell_volume 2547.980553
_symmetry_space_group_name_H-M "C 2/M"
_symmetry_group_IT_number 12
_symmetry_cell_setting 'monoclinic'
loop_
_space_group_symop_operation_xyz
x,y,z
-x,y,-z
-x,-y,-z
x,-y,z
1/2+x,1/2+y,z
1/2-x,1/2+y,-z
1/2-x,1/2-y,-z
1/2+x,1/2-y,z
loop_
_atom_site_type_symbol
_atom_site_label
_atom_site_fract_x
_atom_site_fract_y
_atom_site_fract_z
Si Si1 0.608444 0.679413 0.758990
Si Si2 0.097842 0.104582 0.027003
Si Si3 0.349174 0.601036 0.484928
Si Si4 0.452268 0.762935 0.616720
Si Si5 0.726303 0.747065 0.139204
Si Si6 0.829683 0.604289 0.694167
O O1 0.608057 0.614895 0.637758
O O2 0.522425 0.731251 0.736455
O O3 0.683193 0.751330 0.765464
O O4 0.622096 0.622359 0.889195
O O5 0.159602 0.167271 0.128331
O O6 0.107487 0.000000 0.063496
O O7 0.000000 0.126962 0.000000
O O8 0.365286 0.500000 0.538056
O O9 0.386502 0.681604 0.578918
O O10 0.252113 0.611304 0.421233
O O11 0.500000 0.775215 0.500000
O O12 0.405161 0.850739 0.646229
O O13 0.686413 0.836690 0.185882
O O14 0.750000 0.750000 0.000000
O O15 0.841644 0.500000 0.728041
#
# Coordination Sequence:
#
# PCOD9179732 Si02
#       6
#     8   8   8   8   8   8
#     4   9  18  32  51  74 106 140 171 212 260 310
#     4  10  19  31  51  77 104 133 165 209 265 317
#     4   9  18  32  53  79 105 137 176 218 264 312
#     4  10  20  33  53  80 111 143 178 219 259 307
#     4   9  19  35  54  75 101 132 172 218 261 310
#     4  10  20  36  56  76 104 144 183 217 260 313
#
# _framework density 18.838448
#
# number of rings (size 3 to 8) (size 9 to 14) (size 15 to 20)
#    0.000    2.500    0.000    2.000    0.000    8.000 
#    0.000    1.667    0.000   15.500    0.000    0.000 
#    0.000    0.000    0.000    0.000    0.000    0.000 
#
# Total GULP energy -133738.923868 kJ/mol
# GULP energy per Si atom -5572.455161 kJ/mol
# Density = 1.879557 g / cm^3
# Si number density = 18.838448 Si / 1000 Ang^3
#
#
#
# Elastic Constant Matrix: (Units=GPa)
#
#
# Indices 1 2 3 4 5 6 
#
# 1 85.9097 73.0633 11.7969 0.0000 3.5068 0.0000
# 2 73.0633 138.4427 37.8623 0.0000 17.5844 0.0000
# 3 11.7969 37.8623 42.3986 0.0000 -2.2030 0.0000
# 4 0.0000 0.0000 0.0000 17.9698 0.0000 -0.9278
# 5 3.5068 17.5844 -2.2030 0.0000 21.9446 0.0000
# 6 0.0000 0.0000 0.0000 -0.9278 0.0000 21.3723
#
#
#
# Elastic Compliance Matrix: (Units=1/GPa)
#
#
# Indices 1 2 3 4 5 6 
#
# 1 0.023746 -0.016038 0.008228 0.000000 0.009882 0.000000
# 2 -0.016038 0.022310 -0.016341 0.000000 -0.016955 0.000000
# 3 0.008228 -0.016341 0.036693 0.000000 0.015463 0.000000
# 4 0.000000 0.000000 0.000000 0.055774 0.000000 0.002421
# 5 0.009882 -0.016955 0.015463 0.000000 0.059128 0.000000
# 6 0.000000 0.000000 0.000000 0.002421 0.000000 0.046895
#
#
# Mechanical properties :
#
#
# Convention : Reuss Voigt Hill
#
# Bulk Modulus (GPa) = 29.03018 56.91068 42.97043
# Shear Modulus (GPa) = 16.42952 21.85924 19.14438
#
# Velocity S-wave (km/s) = 2.95638 3.41009 3.19131
# Velocity P-wave (km/s) = 5.20549 6.76612 6.03645
#
# Compressibility (1/GPa) = 0.03444691
#
# Stress axis : x y z
#
# Youngs Moduli (GPa) = 42.11167 44.82334 27.25327
#
# Poissons Ratio (x) = 0.71886 -0.22424
# Poissons Ratio (y) = 0.67537 0.44536
# Poissons Ratio (z) = -0.34650 0.73248
#
# Static dielectric constant tensor:
#      x y z
#    x 1.701000 0.000000 -0.000320 
#    y 0.000000 1.640040 0.000000 
#    z -0.000320 0.000000 1.680330 
# 
# From -- ./inp_files/142834.got.cif
#   From: 2010.05.17/outbox.cif.g08.bks.cpg/sg12_72_cif.got.tgz:142834.got - 2010.06.03 13:09:07.
