data_PCOD9179578
_publ_section_title
;
Structure prediction by ZEFSAII (Michael W. Deem and Ramdas Pophale) SiO2 
 PCOD9179578
Probable space group: C 2/M
;
_chemical_formula_sum "Si O2"
_cell_formula_units_Z 56
_cell_length_a 16.324826
_cell_length_b 7.515525
_cell_length_c 20.408493
_cell_angle_alpha 90.000000
_cell_angle_beta 122.980814
_cell_angle_gamma 90.000000
_cell_volume 2100.412678
_symmetry_space_group_name_H-M "C 2/M"
_symmetry_group_IT_number 12
_symmetry_cell_setting 'monoclinic'
loop_
_space_group_symop_operation_xyz
x,y,z
-x,y,-z
-x,-y,-z
x,-y,z
1/2+x,1/2+y,z
1/2-x,1/2+y,-z
1/2-x,1/2-y,-z
1/2+x,1/2-y,z
loop_
_atom_site_type_symbol
_atom_site_label
_atom_site_fract_x
_atom_site_fract_y
_atom_site_fract_z
Si Si1 0.704122 0.207736 0.877115
Si Si2 0.494737 0.709571 0.599981
Si Si3 0.196492 0.786694 0.544238
Si Si4 0.107944 0.218062 0.976835
Si Si5 0.213772 0.213200 0.693311
Si Si6 0.498258 0.215065 0.253940
Si Si7 0.593471 0.298738 0.156131
O O1 0.656951 0.222784 0.929663
O O2 0.614550 0.284181 0.796081
O O3 0.711316 0.000000 0.863657
O O4 0.814603 0.278216 0.933991
O O5 0.504530 0.500000 0.589674
O O6 0.414235 0.781106 0.514990
O O7 0.603777 0.785560 0.650462
O O8 0.456087 0.731334 0.657278
O O9 0.250000 0.750000 0.500000
O O10 0.243310 0.725337 0.632745
O O11 0.191374 0.000000 0.547220
O O12 0.995991 0.283379 0.924799
O O13 0.108427 0.000000 0.977552
O O14 0.293469 0.252595 0.783336
O O15 0.209996 0.000000 0.691811
O O16 0.551020 0.284000 0.211975
O O17 0.499254 0.000000 0.249933
O O18 0.594404 0.500000 0.133629
#
# Coordination Sequence:
#
# PCOD9179578 Si02
#       7
#     8   8   8   8   8   8   8
#     4   8  14  25  42  66  96 128 162 202 247 292
#     4  10  21  37  55  74 100 134 169 205 247 295
#     4  10  21  37  57  79 101 128 163 202 246 296
#     4   8  14  25  42  66  96 128 162 202 247 292
#     4  10  21  37  55  74 100 134 169 205 247 295
#     4  10  19  31  50  76 104 133 168 209 251 297
#     4  10  19  31  50  76 104 133 168 209 251 297
#
# _framework density 26.661428000000001
#
# number of rings (size 3 to 8) (size 9 to 14) (size 15 to 20)
#    0.000    2.571    0.000    2.143    0.000    6.857 
#    0.000    0.000    0.000    3.429    0.000    6.000 
#    0.000    0.000    0.000    0.000    0.000    0.000 
#
# Total GULP energy -156449.043813 kJ/mol
# GULP energy per Si atom -5587.465850 kJ/mol
# Density = 2.660075 g / cm^3
# Si number density = 26.661428 Si / 1000 Ang^3
#
#
#
# Elastic Constant Matrix: (Units=GPa)
#
#
# Indices 1 2 3 4 5 6 
#
# 1 108.4653 0.5000 37.3638 0.0000 21.9451 0.0000
# 2 0.5000 82.0697 -2.3606 0.0000 6.3990 0.0000
# 3 37.3638 -2.3606 200.0692 0.0000 17.3907 0.0000
# 4 0.0000 0.0000 0.0000 12.3022 0.0000 9.5866
# 5 21.9451 6.3990 17.3907 0.0000 56.9060 0.0000
# 6 0.0000 0.0000 0.0000 9.5866 0.0000 11.6884
#
#
#
# Elastic Compliance Matrix: (Units=1/GPa)
#
#
# Indices 1 2 3 4 5 6 
#
# 1 0.010509 0.000167 -0.001651 0.000000 -0.003567 0.000000
# 2 0.000167 0.012310 0.000247 0.000000 -0.001524 0.000000
# 3 -0.001651 0.000247 0.005400 0.000000 -0.001041 0.000000
# 4 0.000000 0.000000 0.000000 0.225251 0.000000 -0.184747
# 5 -0.003567 -0.001524 -0.001041 0.000000 0.019438 0.000000
# 6 0.000000 0.000000 0.000000 -0.184747 0.000000 0.237082
#
#
# Mechanical properties :
#
#
# Convention : Reuss Voigt Hill
#
# Bulk Modulus (GPa) = 38.84419 51.29008 45.06713
# Shear Modulus (GPa) = 9.59609 39.85273 24.72441
#
# Velocity S-wave (km/s) = 1.89922 3.87042 3.04854
# Velocity P-wave (km/s) = 4.40573 6.26521 5.41587
#
# Compressibility (1/GPa) = 0.02574388
#
# Stress axis : x y z
#
# Youngs Moduli (GPa) = 95.15613 81.23704 185.18659
#
# Poissons Ratio (x) = -0.01354 0.30567
# Poissons Ratio (y) = -0.01585 -0.04566
# Poissons Ratio (z) = 0.15706 -0.02003
#
# Static dielectric constant tensor:
#      x y z
#    x 2.193060 0.000000 0.034540 
#    y 0.000000 2.064170 0.000000 
#    z 0.034540 0.000000 2.118640 
# 
# From -- ./inp_files/333373.got.cif
#   From: 2010.05.17/outbox.cif.g08.bks.cpg/sg12_167_cif.got.tgz:333373.got - 2010.06.03 13:09:07.
