data_PCOD9179156
_publ_section_title
;
Structure prediction by ZEFSAII (Michael W. Deem and Ramdas Pophale) SiO2 
 PCOD9179156
Probable space group: C 2/M
;
_chemical_formula_sum "Si O2"
_cell_formula_units_Z 52
_cell_length_a 19.600377
_cell_length_b 19.194119
_cell_length_c 10.786624
_cell_angle_alpha 90.000000
_cell_angle_beta 135.075706
_cell_angle_gamma 90.000000
_cell_volume 2865.685656
_symmetry_space_group_name_H-M "C 2/M"
_symmetry_group_IT_number 12
_symmetry_cell_setting 'monoclinic'
loop_
_space_group_symop_operation_xyz
x,y,z
-x,y,-z
-x,-y,-z
x,-y,z
1/2+x,1/2+y,z
1/2-x,1/2+y,-z
1/2-x,1/2-y,-z
1/2+x,1/2-y,z
loop_
_atom_site_type_symbol
_atom_site_label
_atom_site_fract_x
_atom_site_fract_y
_atom_site_fract_z
Si Si1 0.779671 0.719101 0.904804
Si Si2 0.686386 0.219458 0.531082
Si Si3 0.528130 0.575061 0.178164
Si Si4 0.000000 0.851189 0.500000
Si Si5 0.257485 0.921448 0.500907
Si Si6 0.297791 0.418517 0.289584
Si Si7 0.526933 0.719148 0.775947
O O1 0.729131 0.755062 0.718736
O O2 0.753138 0.637529 0.864159
O O3 0.750000 0.750000 0.000000
O O4 0.894460 0.735092 0.051966
O O5 0.750000 0.250000 0.500000
O O6 0.691348 0.136736 0.515152
O O7 0.578598 0.247064 0.369701
O O8 0.502607 0.500000 0.205446
O O9 0.643212 0.582108 0.327853
O O10 0.479949 0.643027 0.171811
O O11 0.500000 0.571999 0.000000
O O12 0.088287 0.896292 0.556545
O O13 0.949714 0.800934 0.335649
O O14 0.256064 0.909065 0.647378
O O15 0.291625 0.000000 0.520504
O O16 0.292740 0.500000 0.249429
#
# Coordination Sequence:
#
# PCOD9179156 Si02
#       7
#     8   8   8   4   8   8   8
#     4  12  24  41  60  89 128 162 206 259 305 372
#     4  12  21  40  61  88 121 162 208 250 308 366
#     4  10  19  31  48  80 116 144 183 244 306 356
#     4  12  19  40  60  92 117 162 200 258 319 368
#     4  10  20  37  58  84 120 158 200 256 310 363
#     4  11  22  39  62  89 124 162 206 260 316 367
#     4  12  23  35  62  87 120 156 208 244 307 370
#
# _framework density 18.145744000000001
#
# number of rings (size 3 to 8) (size 9 to 14) (size 15 to 20)
#    0.000    0.769    7.692    1.154    0.000    0.615 
#    0.000    1.538    0.000    1.846    0.000    3.231 
#    0.000    0.000    0.000    0.000    0.000    0.000 
#
# Total GULP energy -144991.559933 kJ/mol
# GULP energy per Si atom -5576.598459 kJ/mol
# Density = 1.810444 g / cm^3
# Si number density = 18.145744 Si / 1000 Ang^3
#
#
#
# Elastic Constant Matrix: (Units=GPa)
#
#
# Indices 1 2 3 4 5 6 
#
# 1 60.3986 35.1935 33.8217 0.0000 -3.8068 0.0000
# 2 35.1935 139.2053 53.8770 0.0000 -0.5761 0.0000
# 3 33.8217 53.8770 116.7343 0.0000 2.2335 0.0000
# 4 0.0000 0.0000 0.0000 38.6719 0.0000 -1.2839
# 5 -3.8068 -0.5761 2.2335 0.0000 28.5219 0.0000
# 6 0.0000 0.0000 0.0000 -1.2839 0.0000 26.4940
#
#
#
# Elastic Compliance Matrix: (Units=1/GPa)
#
#
# Indices 1 2 3 4 5 6 
#
# 1 0.021445 -0.003629 -0.004599 0.000000 0.003149 0.000000
# 2 -0.003629 0.009367 -0.003271 0.000000 -0.000039 0.000000
# 3 -0.004599 -0.003271 0.011439 0.000000 -0.001576 0.000000
# 4 0.000000 0.000000 0.000000 0.025900 0.000000 0.001255
# 5 0.003149 -0.000039 -0.001576 0.000000 0.035604 0.000000
# 6 0.000000 0.000000 0.000000 0.001255 0.000000 0.037805
#
#
# Mechanical properties :
#
#
# Convention : Reuss Voigt Hill
#
# Bulk Modulus (GPa) = 51.93890 62.45805 57.19848
# Shear Modulus (GPa) = 29.24419 31.63396 30.43907
#
# Velocity S-wave (km/s) = 4.01886 4.17985 4.10014
# Velocity P-wave (km/s) = 7.08663 7.60196 7.34881
#
# Compressibility (1/GPa) = 0.01925339
#
# Stress axis : x y z
#
# Youngs Moduli (GPa) = 46.63153 106.75922 87.42252
#
# Poissons Ratio (x) = 0.38740 0.40203
# Poissons Ratio (y) = 0.16921 0.28596
# Poissons Ratio (z) = 0.21444 0.34921
#
# Static dielectric constant tensor:
#      x y z
#    x 1.662510 0.000000 -0.004010 
#    y 0.000000 1.668730 0.000000 
#    z -0.004010 0.000000 1.624660 
# 
# From -- ./inp_files/168838.got.cif
#   From: 2010.05.17/outbox.cif.g08.bks.cpg/sg12_85_cif.got.tgz:168838.got - 2010.06.03 13:09:07.
