data_PCOD9179229
_publ_section_title
;
Structure prediction by ZEFSAII (Michael W. Deem and Ramdas Pophale) SiO2 
 PCOD9179229
Probable space group: C 2/M
;
_chemical_formula_sum "Si O2"
_cell_formula_units_Z 48
_cell_length_a 20.468906
_cell_length_b 9.001550
_cell_length_c 23.138085
_cell_angle_alpha 90.000000
_cell_angle_beta 138.316195
_cell_angle_gamma 90.000000
_cell_volume 2835.133949
_symmetry_space_group_name_H-M "C 2/M"
_symmetry_group_IT_number 12
_symmetry_cell_setting 'monoclinic'
loop_
_space_group_symop_operation_xyz
x,y,z
-x,y,-z
-x,-y,-z
x,-y,z
1/2+x,1/2+y,z
1/2-x,1/2+y,-z
1/2-x,1/2-y,-z
1/2+x,1/2-y,z
loop_
_atom_site_type_symbol
_atom_site_label
_atom_site_fract_x
_atom_site_fract_y
_atom_site_fract_z
Si Si1 0.037436 0.674673 0.959644
Si Si2 0.919672 0.825054 0.781164
Si Si3 0.927364 0.826262 0.224650
Si Si4 0.891444 0.177043 0.584934
Si Si5 0.267400 0.175095 0.604571
Si Si6 0.238217 0.823779 0.055162
O O1 0.053768 0.500000 0.959341
O O2 0.958863 0.737233 0.862119
O O3 0.138408 0.761933 0.016388
O O4 0.000000 0.693281 0.000000
O O5 0.815964 0.765323 0.688692
O O6 0.999916 0.804032 0.782441
O O7 0.914739 0.000000 0.789599
O O8 0.832735 0.725516 0.154447
O O9 0.994584 0.797564 0.325445
O O10 0.898245 0.000000 0.205078
O O11 0.843712 0.205177 0.490800
O O12 0.832345 0.276458 0.591874
O O13 0.873774 0.000000 0.586133
O O14 0.277943 0.000000 0.622264
O O15 0.233330 0.000000 0.045719
O O16 0.250000 0.750000 0.000000
#
# Coordination Sequence:
#
# PCOD9179229 Si02
#       6
#     8   8   8   8   8   8
#     4  11  24  40  57  77 102 134 175 221 265 313
#     4  10  19  31  49  72 101 137 171 209 256 309
#     4   9  17  30  48  72 102 135 172 213 254 303
#     4   8  15  26  40  63  97 133 167 206 255 302
#     4   9  15  24  41  65  96 132 168 208 251 302
#     4  12  23  35  54  78 105 139 176 215 259 310
#
# _framework density 16.930418
#
# number of rings (size 3 to 8) (size 9 to 14) (size 15 to 20)
#    0.000    2.167    1.667    4.000    0.000    4.667 
#    0.000    0.000    0.000    0.000    0.000    1.167 
#    0.000    9.333    0.000    0.000    0.000    0.000 
#
# Total GULP energy -133783.622831 kJ/mol
# GULP energy per Si atom -5574.317618 kJ/mol
# Density = 1.689188 g / cm^3
# Si number density = 16.930418 Si / 1000 Ang^3
#
#
#
# Elastic Constant Matrix: (Units=GPa)
#
#
# Indices 1 2 3 4 5 6 
#
# 1 29.4769 41.4711 33.7437 0.0000 2.8707 0.0000
# 2 41.4711 111.1206 78.4991 0.0000 2.1220 0.0000
# 3 33.7437 78.4991 154.4873 0.0000 5.0167 0.0000
# 4 0.0000 0.0000 0.0000 31.7688 0.0000 1.8274
# 5 2.8707 2.1220 5.0167 0.0000 9.9224 0.0000
# 6 0.0000 0.0000 0.0000 1.8274 0.0000 16.7292
#
#
#
# Elastic Compliance Matrix: (Units=1/GPa)
#
#
# Indices 1 2 3 4 5 6 
#
# 1 0.074506 -0.025531 -0.002825 0.000000 -0.014668 0.000000
# 2 -0.025531 0.022791 -0.006187 0.000000 0.005641 0.000000
# 3 -0.002825 -0.006187 0.010334 0.000000 -0.003084 0.000000
# 4 0.000000 0.000000 0.000000 0.031676 0.000000 -0.003460
# 5 -0.014668 0.005641 -0.003084 0.000000 0.105379 0.000000
# 6 0.000000 0.000000 0.000000 -0.003460 0.000000 0.060154
#
#
# Mechanical properties :
#
#
# Convention : Reuss Voigt Hill
#
# Bulk Modulus (GPa) = 25.94329 66.94585 46.44457
# Shear Modulus (GPa) = 12.92746 21.10880 17.01813
#
# Velocity S-wave (km/s) = 2.76626 3.53483 3.17390
# Velocity P-wave (km/s) = 5.05566 7.50251 6.39716
#
# Compressibility (1/GPa) = 0.03854562
#
# Stress axis : x y z
#
# Youngs Moduli (GPa) = 13.42168 43.87783 96.76749
#
# Poissons Ratio (x) = 1.12023 0.27335
# Poissons Ratio (y) = 0.34266 0.59872
# Poissons Ratio (z) = 0.03791 0.27148
#
# Static dielectric constant tensor:
#      x y z
#    x 1.534690 0.000000 0.001920 
#    y 0.000000 1.564520 0.000000 
#    z 0.001920 0.000000 1.627160 
# 
# From -- ./inp_files/345399.got.cif
#   From: 2010.05.17/outbox.cif.g08.bks.cpg/sg12_173_cif.got.tgz:345399.got - 2010.06.03 13:09:07.
