data_PCOD9179020
_publ_section_title
;
Structure prediction by ZEFSAII (Michael W. Deem and Ramdas Pophale) SiO2 
 PCOD9179020
Probable space group: C 2/M
;
_chemical_formula_sum "Si O2"
_cell_formula_units_Z 64
_cell_length_a 20.869201
_cell_length_b 12.807244
_cell_length_c 12.997789
_cell_angle_alpha 90.000000
_cell_angle_beta 111.366836
_cell_angle_gamma 90.000000
_cell_volume 3235.229811
_symmetry_space_group_name_H-M "C 2/M"
_symmetry_group_IT_number 12
_symmetry_cell_setting 'monoclinic'
loop_
_space_group_symop_operation_xyz
x,y,z
-x,y,-z
-x,-y,-z
x,-y,z
1/2+x,1/2+y,z
1/2-x,1/2+y,-z
1/2-x,1/2-y,-z
1/2+x,1/2-y,z
loop_
_atom_site_type_symbol
_atom_site_label
_atom_site_fract_x
_atom_site_fract_y
_atom_site_fract_z
Si Si1 0.137628 0.667588 0.228530
Si Si2 0.487956 0.199131 0.114267
Si Si3 0.192180 0.882537 0.957190
Si Si4 0.138002 0.874812 0.695496
Si Si5 0.658548 0.837804 0.010702
Si Si6 0.150521 0.879156 0.331331
Si Si7 0.003014 0.122127 0.715735
Si Si8 0.266801 0.622996 0.430994
O O1 0.161385 0.628763 0.131126
O O2 0.143116 0.794114 0.237826
O O3 0.189000 0.629807 0.346192
O O4 0.057194 0.642439 0.193193
O O5 0.482703 0.304139 0.178442
O O6 0.500000 0.221216 0.000000
O O7 0.416326 0.137458 0.078329
O O8 0.163976 0.788466 0.008671
O O9 0.168127 0.000000 0.966078
O O10 0.171639 0.854756 0.827070
O O11 0.275096 0.879271 0.009153
O O12 0.057575 0.845629 0.659964
O O13 0.183573 0.830464 0.629226
O O14 0.139412 0.000000 0.684874
O O15 0.211865 0.843151 0.442291
O O16 0.078502 0.870866 0.353016
O O17 0.157819 0.000000 0.302760
O O18 0.016321 0.000000 0.747218
O O19 0.283583 0.500000 0.446845
#
# Coordination Sequence:
#
# PCOD9179020 Si02
#       8
#     8   8   8   8   8   8   8   8
#     4  10  19  32  48  67  93 123 155 190 226 268
#     4   9  18  29  42  64  92 122 153 183 220 269
#     4  10  19  31  48  70  94 122 153 187 226 271
#     4   9  16  27  46  66  88 116 147 185 226 270
#     4  10  19  31  49  70  94 123 153 186 226 271
#     4   9  19  32  47  68  94 121 151 190 231 274
#     4   9  16  28  44  65  93 119 146 184 229 274
#     4  10  19  32  49  68  89 120 159 193 230 269
#
# _framework density 19.782212000000001
#
# number of rings (size 3 to 8) (size 9 to 14) (size 15 to 20)
#    0.000    2.500    2.500    0.375    0.000    1.250 
#    0.000    5.625    0.000    2.250    0.000    0.000 
#    0.000    0.000    0.000   21.750    0.000    0.375 
#
# Total GULP energy -178240.559842 kJ/mol
# GULP energy per Si atom -5570.017495 kJ/mol
# Density = 1.973719 g / cm^3
# Si number density = 19.782212 Si / 1000 Ang^3
#
#
#
# Elastic Constant Matrix: (Units=GPa)
#
#
# Indices 1 2 3 4 5 6 
#
# 1 80.5869 -10.2002 21.0601 0.0000 18.1645 0.0000
# 2 -10.2002 38.2642 3.2684 0.0000 -1.7850 0.0000
# 3 21.0601 3.2684 50.6235 0.0000 18.4220 0.0000
# 4 0.0000 0.0000 0.0000 11.4573 0.0000 3.0505
# 5 18.1645 -1.7850 18.4220 0.0000 29.4389 0.0000
# 6 0.0000 0.0000 0.0000 3.0505 0.0000 8.9540
#
#
#
# Elastic Compliance Matrix: (Units=1/GPa)
#
#
# Indices 1 2 3 4 5 6 
#
# 1 0.015571 0.004211 -0.004333 0.000000 -0.006641 0.000000
# 2 0.004211 0.027689 -0.004150 0.000000 0.001677 0.000000
# 3 -0.004333 -0.004150 0.027118 0.000000 -0.014548 0.000000
# 4 0.000000 0.000000 0.000000 0.095988 0.000000 -0.032702
# 5 -0.006641 0.001677 -0.014548 0.000000 0.047272 0.000000
# 6 0.000000 0.000000 0.000000 -0.032702 0.000000 0.122824
#
#
# Mechanical properties :
#
#
# Convention : Reuss Voigt Hill
#
# Bulk Modulus (GPa) = 16.17208 21.97015 19.07112
# Shear Modulus (GPa) = 13.67550 20.32645 17.00097
#
# Velocity S-wave (km/s) = 2.63212 3.20896 2.93475
# Velocity P-wave (km/s) = 4.17495 4.98598 4.59838
#
# Compressibility (1/GPa) = 0.06183495
#
# Stress axis : x y z
#
# Youngs Moduli (GPa) = 64.22078 36.11489 36.87560
#
# Poissons Ratio (x) = -0.15209 0.15978
# Poissons Ratio (y) = -0.27045 0.15304
# Poissons Ratio (z) = 0.27827 0.14988
#
# Static dielectric constant tensor:
#      x y z
#    x 1.750660 0.000000 0.034070 
#    y 0.000000 1.721210 0.000000 
#    z 0.034070 0.000000 1.704170 
# 
# From -- ./inp_files/167317.got.cif
#   From: 2010.05.17/outbox.cif.g08.bks.cpg/sg12_84_cif.got.tgz:167317.got - 2010.06.03 13:09:07.
