data_PCOD9179856
_publ_section_title
;
Structure prediction by ZEFSAII (Michael W. Deem and Ramdas Pophale) SiO2 
 PCOD9179856
Probable space group: C 2/M
;
_chemical_formula_sum "Si O2"
_cell_formula_units_Z 60
_cell_length_a 5.087640
_cell_length_b 25.958083
_cell_length_c 23.471582
_cell_angle_alpha 90.000000
_cell_angle_beta 90.732137
_cell_angle_gamma 90.000000
_cell_volume 3099.530362
_symmetry_space_group_name_H-M "C 2/M"
_symmetry_group_IT_number 12
_symmetry_cell_setting 'monoclinic'
loop_
_space_group_symop_operation_xyz
x,y,z
-x,y,-z
-x,-y,-z
x,-y,z
1/2+x,1/2+y,z
1/2-x,1/2+y,-z
1/2-x,1/2-y,-z
1/2+x,1/2-y,z
loop_
_atom_site_type_symbol
_atom_site_label
_atom_site_fract_x
_atom_site_fract_y
_atom_site_fract_z
Si Si1 0.464938 0.106915 0.258008
Si Si2 0.928385 0.437805 0.133451
Si Si3 0.246199 0.284296 0.708332
Si Si4 0.921929 0.062430 0.062502
Si Si5 0.823512 0.057013 0.442778
Si Si6 0.533691 0.440295 0.683754
Si Si7 0.500000 0.138581 0.500000
Si Si8 0.196323 0.216606 0.424370
O O1 0.491834 0.088045 0.193434
O O2 0.355603 0.164996 0.260507
O O3 0.739727 0.096874 0.291000
O O4 0.242287 0.072905 0.288503
O O5 0.939762 0.500000 0.140438
O O6 0.641672 0.423684 0.109419
O O7 0.138687 0.422866 0.085653
O O8 0.534662 0.260987 0.719495
O O9 0.253731 0.298766 0.641011
O O10 0.922011 0.000000 0.059079
O O11 0.000000 0.081513 0.000000
O O12 0.977902 0.065103 0.384607
O O13 0.618702 0.102022 0.451978
O O14 0.000000 0.057479 0.500000
O O15 0.697855 0.000000 0.438697
O O16 0.604343 0.500000 0.696639
O O17 0.285691 0.173244 0.467947
O O18 0.400750 0.264089 0.432308
#
# Coordination Sequence:
#
# PCOD9179856 Si02
#       8
#     8   8   8   8   8   8   4   8
#     4  12  23  39  62  87 113 152 192 235 294 341
#     4  10  19  31  51  82 119 151 190 232 264 317
#     4  10  22  40  58  79 107 141 183 237 288 345
#     4   9  17  30  49  76 117 165 196 219 259 309
#     4  10  25  41  56  79 107 142 187 232 272 337
#     4  11  24  40  59  83 115 149 187 230 286 352
#     4  12  23  36  62  78 104 136 171 222 288 342
#     4  10  23  39  58  83 107 129 168 223 285 351
#
# _framework density 19.357771
#
# number of rings (size 3 to 8) (size 9 to 14) (size 15 to 20)
#    0.000    1.600    0.000    4.600    5.600    3.733 
#    0.000    0.000    0.000    0.000    0.000    0.000 
#    0.000   10.667    0.000    0.000    0.000    0.000 
#
# Total GULP energy -167762.952381 kJ/mol
# GULP energy per Si atom -5592.098413 kJ/mol
# Density = 1.931371 g / cm^3
# Si number density = 19.357771 Si / 1000 Ang^3
#
#
#
# Elastic Constant Matrix: (Units=GPa)
#
#
# Indices 1 2 3 4 5 6 
#
# 1 51.8509 -7.7824 -9.9281 0.0000 -7.5735 0.0000
# 2 -7.7824 51.0463 16.0334 0.0000 -8.1036 0.0000
# 3 -9.9281 16.0334 68.0844 0.0000 -8.2360 0.0000
# 4 0.0000 0.0000 0.0000 28.2597 0.0000 -1.2849
# 5 -7.5735 -8.1036 -8.2360 0.0000 24.6341 0.0000
# 6 0.0000 0.0000 0.0000 -1.2849 0.0000 22.1911
#
#
#
# Elastic Compliance Matrix: (Units=1/GPa)
#
#
# Indices 1 2 3 4 5 6 
#
# 1 0.021817 0.003694 0.003407 0.000000 0.009062 0.000000
# 2 0.003694 0.022525 -0.003889 0.000000 0.007245 0.000000
# 3 0.003407 -0.003889 0.016750 0.000000 0.005368 0.000000
# 4 0.000000 0.000000 0.000000 0.035480 0.000000 0.002054
# 5 0.009062 0.007245 0.005368 0.000000 0.047558 0.000000
# 6 0.000000 0.000000 0.000000 0.002054 0.000000 0.045182
#
#
# Mechanical properties :
#
#
# Convention : Reuss Voigt Hill
#
# Bulk Modulus (GPa) = 14.81116 18.62526 16.71821
# Shear Modulus (GPa) = 24.34373 26.52756 25.43564
#
# Velocity S-wave (km/s) = 3.55007 3.70588 3.62881
# Velocity P-wave (km/s) = 4.94690 5.28715 5.11985
#
# Compressibility (1/GPa) = 0.06751666
#
# Stress axis : x y z
#
# Youngs Moduli (GPa) = 45.83662 44.39490 59.70209
#
# Poissons Ratio (x) = -0.16401 -0.20343
# Poissons Ratio (y) = -0.16934 0.23220
# Poissons Ratio (z) = -0.15619 0.17267
#
# Static dielectric constant tensor:
#      x y z
#    x 1.686920 0.000000 0.004000 
#    y 0.000000 1.692680 0.000000 
#    z 0.004000 0.000000 1.660650 
# 
# From -- ./inp_files/298093.got.cif
#   From: 2010.05.17/outbox.cif.g08.bks.cpg/sg12_150_cif.got.tgz:298093.got - 2010.06.03 13:09:07.
