data_PCOD9179045
_publ_section_title
;
Structure prediction by ZEFSAII (Michael W. Deem and Ramdas Pophale) SiO2 
 PCOD9179045
Probable space group: C 2/M
;
_chemical_formula_sum "Si O2"
_cell_formula_units_Z 48
_cell_length_a 23.823390
_cell_length_b 8.943489
_cell_length_c 17.445934
_cell_angle_alpha 90.000000
_cell_angle_beta 59.274843
_cell_angle_gamma 90.000000
_cell_volume 3195.327135
_symmetry_space_group_name_H-M "C 2/M"
_symmetry_group_IT_number 12
_symmetry_cell_setting 'monoclinic'
loop_
_space_group_symop_operation_xyz
x,y,z
-x,y,-z
-x,-y,-z
x,-y,z
1/2+x,1/2+y,z
1/2-x,1/2+y,-z
1/2-x,1/2-y,-z
1/2+x,1/2-y,z
loop_
_atom_site_type_symbol
_atom_site_label
_atom_site_fract_x
_atom_site_fract_y
_atom_site_fract_z
Si Si1 0.267362 0.675280 0.747710
Si Si2 0.783600 0.822914 0.362005
Si Si3 0.387580 0.821581 0.731990
Si Si4 0.286282 0.675582 0.903995
Si Si5 0.852604 0.677329 0.453518
Si Si6 0.984680 0.821363 0.421804
O O1 0.276360 0.500000 0.724013
O O2 0.220934 0.751460 0.718746
O O3 0.337825 0.757845 0.701531
O O4 0.245968 0.688250 0.851805
O O5 0.834594 0.744221 0.383025
O O6 0.711938 0.797964 0.449677
O O7 0.795299 0.000000 0.350777
O O8 0.353302 0.758810 0.833128
O O9 0.458300 0.754531 0.667681
O O10 0.387811 0.000000 0.730669
O O11 0.297871 0.500000 0.909283
O O12 0.250000 0.750000 0.000000
O O13 0.863798 0.500000 0.440816
O O14 0.914831 0.757772 0.446127
O O15 0.000000 0.787158 0.500000
O O16 0.986378 0.000000 0.410959
#
# Coordination Sequence:
#
# PCOD9179045 Si02
#       6
#     8   8   8   8   8   8
#     4   9  18  30  47  70  98 126 156 198 244 289
#     4  10  19  32  49  69  93 126 166 206 245 289
#     4  10  19  31  48  70  98 129 162 199 243 294
#     4   9  18  31  49  74 102 129 160 200 249 297
#     4  10  21  33  47  67  94 128 167 206 244 287
#     4  11  22  34  48  68  97 132 168 205 245 291
#
# _framework density 15.021936
#
# number of rings (size 3 to 8) (size 9 to 14) (size 15 to 20)
#    1.000    1.167    0.000    4.500    0.000    6.000 
#    0.000    0.000    0.000    0.000    0.000    1.167 
#    0.000    9.333    0.000    0.000    0.000    0.000 
#
# Total GULP energy -133674.922888 kJ/mol
# GULP energy per Si atom -5569.788454 kJ/mol
# Density = 1.498775 g / cm^3
# Si number density = 15.021936 Si / 1000 Ang^3
#
#
#
# Elastic Constant Matrix: (Units=GPa)
#
#
# Indices 1 2 3 4 5 6 
#
# 1 95.7996 55.9462 33.3106 0.0000 2.4997 0.0000
# 2 55.9462 108.2588 56.5841 0.0000 2.8182 0.0001
# 3 33.3106 56.5841 74.1130 0.0000 0.6793 0.0000
# 4 0.0000 0.0000 0.0000 22.3549 0.0000 -1.7583
# 5 2.4997 2.8182 0.6793 0.0000 16.7909 0.0000
# 6 0.0000 0.0001 0.0000 -1.7583 0.0000 27.4308
#
#
#
# Elastic Compliance Matrix: (Units=1/GPa)
#
#
# Indices 1 2 3 4 5 6 
#
# 1 0.015051 -0.007024 -0.001393 0.000000 -0.001005 0.000000
# 2 -0.007024 0.018724 -0.011123 0.000000 -0.001647 0.000000
# 3 -0.001393 -0.011123 0.022601 0.000000 0.001160 0.000000
# 4 0.000000 0.000000 0.000000 0.044960 0.000000 0.002882
# 5 -0.001005 -0.001647 0.001160 0.000000 0.059935 0.000000
# 6 0.000000 0.000000 0.000000 0.002882 0.000000 0.036640
#
#
# Mechanical properties :
#
#
# Convention : Reuss Voigt Hill
#
# Bulk Modulus (GPa) = 57.81902 63.31703 60.56803
# Shear Modulus (GPa) = 20.59691 22.13736 21.36714
#
# Velocity S-wave (km/s) = 3.70688 3.84300 3.77556
# Velocity P-wave (km/s) = 7.54285 7.86974 7.70803
#
# Compressibility (1/GPa) = 0.01729535
#
# Stress axis : x y z
#
# Youngs Moduli (GPa) = 66.44132 53.40871 44.24643
#
# Poissons Ratio (x) = 0.37513 0.06163
# Poissons Ratio (y) = 0.46667 0.49216
# Poissons Ratio (z) = 0.09255 0.59407
#
# Static dielectric constant tensor:
#      x y z
#    x 1.487040 0.000000 0.014820 
#    y 0.000000 1.495880 0.000000 
#    z 0.014820 0.000000 1.491960 
# 
# From -- ./inp_files/313230.got.cif
#   From: 2010.05.17/outbox.cif.g08.bks.cpg/sg12_157_cif.got.tgz:313230.got - 2010.06.03 13:09:07.
