data_PCOD9179931
_publ_section_title
;
Structure prediction by ZEFSAII (Michael W. Deem and Ramdas Pophale) SiO2 
 PCOD9179931
Probable space group: C 2/M
;
_chemical_formula_sum "Si O2"
_cell_formula_units_Z 56
_cell_length_a 16.166943
_cell_length_b 7.576070
_cell_length_c 21.213488
_cell_angle_alpha 90.000000
_cell_angle_beta 126.826488
_cell_angle_gamma 90.000000
_cell_volume 2079.795051
_symmetry_space_group_name_H-M "C 2/M"
_symmetry_group_IT_number 12
_symmetry_cell_setting 'monoclinic'
loop_
_space_group_symop_operation_xyz
x,y,z
-x,y,-z
-x,-y,-z
x,-y,z
1/2+x,1/2+y,z
1/2-x,1/2+y,-z
1/2-x,1/2-y,-z
1/2+x,1/2-y,z
loop_
_atom_site_type_symbol
_atom_site_label
_atom_site_fract_x
_atom_site_fract_y
_atom_site_fract_z
Si Si1 0.112679 0.798031 0.053228
Si Si2 0.366946 0.283875 0.615730
Si Si3 0.603710 0.705636 0.234633
Si Si4 0.343523 0.708321 0.334238
Si Si5 0.377544 0.293349 0.484492
Si Si6 0.903759 0.702165 0.089356
Si Si7 0.170558 0.286637 0.809121
O O1 0.210230 0.722573 0.134254
O O2 0.099535 0.000000 0.070452
O O3 0.139626 0.800643 0.991008
O O4 0.000000 0.711038 0.000000
O O5 0.366898 0.500000 0.615768
O O6 0.417176 0.222967 0.704113
O O7 0.409401 0.220159 0.567647
O O8 0.247634 0.222664 0.567555
O O9 0.578781 0.500000 0.221738
O O10 0.726171 0.721094 0.280534
O O11 0.528791 0.792421 0.149991
O O12 0.337830 0.500000 0.341861
O O13 0.399241 0.777557 0.423626
O O14 0.381622 0.734197 0.280372
O O15 0.407066 0.500000 0.499769
O O16 0.870384 0.500000 0.069036
O O17 0.874191 0.774710 0.144603
O O18 0.171400 0.500000 0.810842
#
# Coordination Sequence:
#
# PCOD9179931 Si02
#       7
#     8   8   8   8   8   8   8
#     4  10  21  38  60  82 103 131 167 208 256 310
#     4   8  14  25  43  68  98 132 168 208 256 305
#     4  10  19  32  52  76 104 139 177 216 259 307
#     4  10  19  31  52  80 107 136 172 215 260 308
#     4   8  14  25  42  69 102 130 163 210 258 302
#     4  11  23  37  54  77 106 139 174 213 254 299
#     4  10  22  38  54  76 108 141 171 207 254 307
#
# _framework density 26.925730000000001
#
# number of rings (size 3 to 8) (size 9 to 14) (size 15 to 20)
#    0.000    2.429    0.000    2.571    0.000    4.286 
#    0.000    0.000    0.000    0.857    0.000    6.000 
#    0.000    0.000    0.000    0.000    0.000    0.000 
#
# Total GULP energy -156569.953345 kJ/mol
# GULP energy per Si atom -5591.784048 kJ/mol
# Density = 2.686445 g / cm^3
# Si number density = 26.925730 Si / 1000 Ang^3
#
#
#
# Elastic Constant Matrix: (Units=GPa)
#
#
# Indices 1 2 3 4 5 6 
#
# 1 87.9839 -5.0339 29.5475 0.0000 -18.5245 0.0000
# 2 -5.0339 86.0623 -3.5563 0.0000 1.8522 0.0000
# 3 29.5475 -3.5563 206.1938 0.0000 -19.8665 0.0000
# 4 0.0000 0.0000 0.0000 10.9487 0.0000 -10.8096
# 5 -18.5245 1.8522 -19.8665 0.0000 60.8181 0.0000
# 6 0.0000 0.0000 0.0000 -10.8096 0.0000 14.6874
#
#
#
# Elastic Compliance Matrix: (Units=1/GPa)
#
#
# Indices 1 2 3 4 5 6 
#
# 1 0.012598 0.000604 -0.001473 0.000000 0.003337 0.000000
# 2 0.000604 0.011662 0.000101 0.000000 -0.000138 0.000000
# 3 -0.001473 0.000101 0.005182 0.000000 0.001241 0.000000
# 4 0.000000 0.000000 0.000000 0.334097 0.000000 0.245887
# 5 0.003337 -0.000138 0.001241 0.000000 0.017869 0.000000
# 6 0.000000 0.000000 0.000000 0.245887 0.000000 0.249052
#
#
# Mechanical properties :
#
#
# Convention : Reuss Voigt Hill
#
# Bulk Modulus (GPa) = 35.83427 46.90605 41.37016
# Shear Modulus (GPa) = 7.79670 41.24303 24.51987
#
# Velocity S-wave (km/s) = 1.70350 3.91798 3.02097
# Velocity P-wave (km/s) = 4.14809 6.15839 5.25036
#
# Compressibility (1/GPa) = 0.02790625
#
# Stress axis : x y z
#
# Youngs Moduli (GPa) = 79.37935 85.74872 192.96676
#
# Poissons Ratio (x) = -0.05181 0.28429
# Poissons Ratio (y) = -0.04796 -0.01954
# Poissons Ratio (z) = 0.11695 -0.00868
#
# Static dielectric constant tensor:
#      x y z
#    x 2.256520 0.000000 -0.042390 
#    y 0.000000 2.197690 0.000000 
#    z -0.042390 0.000000 2.067070 
# 
# From -- ./inp_files/275694.got.cif
#   From: 2010.05.17/outbox.cif.g08.bks.cpg/sg12_138_cif.got.tgz:275694.got - 2010.06.03 13:09:07.
