data_PCOD9179494
_publ_section_title
;
Structure prediction by ZEFSAII (Michael W. Deem and Ramdas Pophale) SiO2 
 PCOD9179494
Probable space group: C 2/M
;
_chemical_formula_sum "Si O2"
_cell_formula_units_Z 56
_cell_length_a 17.155229
_cell_length_b 13.677205
_cell_length_c 13.279754
_cell_angle_alpha 90.000000
_cell_angle_beta 58.019733
_cell_angle_gamma 90.000000
_cell_volume 2643.003984
_symmetry_space_group_name_H-M "C 2/M"
_symmetry_group_IT_number 12
_symmetry_cell_setting 'monoclinic'
loop_
_space_group_symop_operation_xyz
x,y,z
-x,y,-z
-x,-y,-z
x,-y,z
1/2+x,1/2+y,z
1/2-x,1/2+y,-z
1/2-x,1/2-y,-z
1/2+x,1/2-y,z
loop_
_atom_site_type_symbol
_atom_site_label
_atom_site_fract_x
_atom_site_fract_y
_atom_site_fract_z
Si Si1 0.726555 0.729809 0.688849
Si Si2 0.359836 0.314817 0.968202
Si Si3 0.946414 0.107447 0.390046
Si Si4 0.392188 0.261023 0.724127
Si Si5 0.839760 0.612381 0.903655
Si Si6 0.058807 0.888763 0.851282
Si Si7 0.767335 0.388701 0.464590
O O1 0.809321 0.761960 0.703279
O O2 0.644592 0.682941 0.810176
O O3 0.766992 0.654128 0.577878
O O4 0.685823 0.816555 0.646999
O O5 0.365816 0.324667 0.841426
O O6 0.354793 0.196089 0.979043
O O7 0.454169 0.356962 0.946940
O O8 0.265949 0.369631 0.057982
O O9 0.942061 0.110748 0.271363
O O10 0.840510 0.114924 0.493821
O O11 0.013552 0.192916 0.378160
O O12 0.982242 0.000000 0.394390
O O13 0.400008 0.153181 0.768811
O O14 0.855571 0.500000 0.918449
O O15 0.078359 0.000000 0.868308
O O16 0.798707 0.500000 0.440478
#
# Coordination Sequence:
#
# PCOD9179494 Si02
#       7
#     8   8   8   8   8   8   8
#     4  10  19  31  50  74 104 131 160 213 254 295
#     4   8  17  33  51  74 101 133 167 201 239 294
#     4   8  15  30  52  73  96 126 169 213 248 288
#     4   9  18  30  47  79 105 126 163 211 252 291
#     4   9  17  31  52  75 103 133 163 201 249 298
#     4   9  16  30  53  75  96 130 169 202 245 296
#     4   9  19  35  52  71  97 137 173 205 251 300
#
# _framework density 21.188012000000001
#
# number of rings (size 3 to 8) (size 9 to 14) (size 15 to 20)
#    0.857    2.286    0.000    1.714    0.000    2.857 
#    0.000    2.857    0.000    2.571    0.000    9.000 
#    0.000    0.000    0.000    0.000    0.000    0.000 
#
# Total GULP energy -156016.036232 kJ/mol
# GULP energy per Si atom -5572.001294 kJ/mol
# Density = 2.113979 g / cm^3
# Si number density = 21.188012 Si / 1000 Ang^3
#
#
#
# Elastic Constant Matrix: (Units=GPa)
#
#
# Indices 1 2 3 4 5 6 
#
# 1 90.8934 23.0394 -3.1990 0.0000 4.3729 0.0000
# 2 23.0394 112.5540 9.4507 0.0000 -1.4381 0.0000
# 3 -3.1990 9.4507 33.5330 0.0000 -1.9688 0.0000
# 4 0.0000 0.0000 0.0000 9.1093 0.0000 -9.5886
# 5 4.3729 -1.4381 -1.9688 0.0000 17.8280 0.0000
# 6 0.0000 0.0000 0.0000 -9.5886 0.0000 19.3610
#
#
#
# Elastic Compliance Matrix: (Units=1/GPa)
#
#
# Indices 1 2 3 4 5 6 
#
# 1 0.011864 -0.002608 0.001695 0.000000 -0.002933 0.000000
# 2 -0.002608 0.009677 -0.002912 0.000000 0.001099 0.000000
# 3 0.001695 -0.002912 0.030966 0.000000 0.002769 0.000000
# 4 0.000000 0.000000 0.000000 0.229329 0.000000 0.113576
# 5 -0.002933 0.001099 0.002769 0.000000 0.057206 0.000000
# 6 0.000000 0.000000 0.000000 0.113576 0.000000 0.107899
#
#
# Mechanical properties :
#
#
# Convention : Reuss Voigt Hill
#
# Bulk Modulus (GPa) = 22.29326 32.84030 27.56678
# Shear Modulus (GPa) = 10.64864 23.10562 16.87713
#
# Velocity S-wave (km/s) = 2.24426 3.30586 2.82537
# Velocity P-wave (km/s) = 4.15452 5.48678 4.86646
#
# Compressibility (1/GPa) = 0.04485661
#
# Stress axis : x y z
#
# Youngs Moduli (GPa) = 84.29005 103.33740 32.29330
#
# Poissons Ratio (x) = 0.26953 -0.05473
# Poissons Ratio (y) = 0.21985 0.09403
# Poissons Ratio (z) = -0.14284 0.30088
#
# Static dielectric constant tensor:
#      x y z
#    x 1.793250 0.000000 0.036850 
#    y 0.000000 1.788190 0.000000 
#    z 0.036850 0.000000 1.884420 
# 
# From -- ./inp_files/224691.got.cif
#   From: 2010.05.17/outbox.cif.g08.bks.cpg/sg12_113_cif.got.tgz:224691.got - 2010.06.03 13:09:07.
