data_PCOD9179012
_publ_section_title
;
Structure prediction by ZEFSAII (Michael W. Deem and Ramdas Pophale) SiO2 
 PCOD9179012
Probable space group: C 2/M
;
_chemical_formula_sum "Si O2"
_cell_formula_units_Z 48
_cell_length_a 19.123957
_cell_length_b 25.236029
_cell_length_c 5.121527
_cell_angle_alpha 90.000000
_cell_angle_beta 71.259955
_cell_angle_gamma 90.000000
_cell_volume 2340.678604
_symmetry_space_group_name_H-M "C 2/M"
_symmetry_group_IT_number 12
_symmetry_cell_setting 'monoclinic'
loop_
_space_group_symop_operation_xyz
x,y,z
-x,y,-z
-x,-y,-z
x,-y,z
1/2+x,1/2+y,z
1/2-x,1/2+y,-z
1/2-x,1/2-y,-z
1/2+x,1/2-y,z
loop_
_atom_site_type_symbol
_atom_site_label
_atom_site_fract_x
_atom_site_fract_y
_atom_site_fract_z
Si Si1 0.547907 0.564246 0.199188
Si Si2 0.633530 0.160557 0.897269
Si Si3 0.713173 0.560804 0.944050
Si Si4 0.276071 0.282507 0.719126
Si Si5 0.083583 0.725726 0.457153
Si Si6 0.809880 0.560596 0.347289
O O1 0.500000 0.584288 0.500000
O O2 0.554872 0.500000 0.225711
O O3 0.500000 0.573707 0.000000
O O4 0.631564 0.585315 0.067468
O O5 0.723360 0.167084 0.783018
O O6 0.597274 0.197548 0.718967
O O7 0.625209 0.099582 0.827180
O O8 0.607408 0.183016 0.205919
O O9 0.701279 0.500000 0.864566
O O10 0.769094 0.582622 0.657406
O O11 0.751664 0.557898 0.178416
O O12 0.250000 0.250000 0.500000
O O13 0.363887 0.277568 0.618098
O O14 0.250000 0.250000 0.000000
O O15 0.000000 0.739633 0.500000
O O16 0.834726 0.500000 0.368588
#
# Coordination Sequence:
#
# PCOD9179012 Si02
#       6
#     8   8   8   8   8   8
#     4   9  15  23  37  56  78 106 144 197 256 302
#     4  10  19  33  53  78 106 137 172 210 254 307
#     4   9  17  28  42  63  88 121 170 219 256 287
#     4   8  16  30  50  76 102 128 160 202 254 309
#     4  10  19  33  55  81 106 131 164 209 263 319
#     4  10  19  31  48  69  97 134 176 219 251 285
#
# _framework density 20.506875000000001
#
# number of rings (size 3 to 8) (size 9 to 14) (size 15 to 20)
#    0.000    2.667    0.000    2.500    0.000    4.000 
#    0.000    0.000    0.000    6.000    0.000    4.667 
#    0.000    0.000    0.000    0.000    0.000    0.000 
#
# Total GULP energy -133678.006858 kJ/mol
# GULP energy per Si atom -5569.916952 kJ/mol
# Density = 2.046020 g / cm^3
# Si number density = 20.506875 Si / 1000 Ang^3
#
#
#
# Elastic Constant Matrix: (Units=GPa)
#
#
# Indices 1 2 3 4 5 6 
#
# 1 84.0034 2.5807 -5.8120 0.0000 -12.7973 0.0000
# 2 2.5807 29.7891 -3.9542 0.0000 -1.1755 0.0000
# 3 -5.8120 -3.9542 95.6902 0.0000 18.0229 0.0000
# 4 0.0000 0.0000 0.0000 16.5885 0.0000 0.7239
# 5 -12.7973 -1.1755 18.0229 0.0000 23.8888 0.0000
# 6 0.0000 0.0000 0.0000 0.7239 0.0000 7.2829
#
#
#
# Elastic Compliance Matrix: (Units=1/GPa)
#
#
# Indices 1 2 3 4 5 6 
#
# 1 0.013017 -0.000921 -0.000644 0.000000 0.007414 0.000000
# 2 -0.000921 0.033830 0.001307 0.000000 0.000185 0.000000
# 3 -0.000644 0.001307 0.012260 0.000000 -0.009530 0.000000
# 4 0.000000 0.000000 0.000000 0.060545 0.000000 -0.006018
# 5 0.007414 0.000185 -0.009530 0.000000 0.053032 0.000000
# 6 0.000000 0.000000 0.000000 -0.006018 0.000000 0.137906
#
#
# Mechanical properties :
#
#
# Convention : Reuss Voigt Hill
#
# Bulk Modulus (GPa) = 17.06684 21.67907 19.37296
# Shear Modulus (GPa) = 15.12239 23.99661 19.55950
#
# Velocity S-wave (km/s) = 2.71851 3.42449 3.09172
# Velocity P-wave (km/s) = 4.26548 5.12160 4.71302
#
# Compressibility (1/GPa) = 0.05859315
#
# Stress axis : x y z
#
# Youngs Moduli (GPa) = 76.81981 29.55966 81.56400
#
# Poissons Ratio (x) = 0.02721 0.05251
# Poissons Ratio (y) = 0.07072 -0.10662
# Poissons Ratio (z) = 0.04945 -0.03864
#
# Static dielectric constant tensor:
#      x y z
#    x 1.749040 0.000000 -0.023950 
#    y 0.000000 1.795130 0.000000 
#    z -0.023950 0.000000 1.778720 
# 
# From -- ./inp_files/12963.got.cif
#   From: 2010.05.17/outbox.cif.g08.bks.cpg/sg12_7_cif.got.tgz:12963.got - 2010.06.03 13:09:07.
