data_PCOD9179493
_publ_section_title
;
Structure prediction by ZEFSAII (Michael W. Deem and Ramdas Pophale) SiO2 
 PCOD9179493
Probable space group: C 2/M
;
_chemical_formula_sum "Si O2"
_cell_formula_units_Z 48
_cell_length_a 33.486266
_cell_length_b 8.986797
_cell_length_c 10.173159
_cell_angle_alpha 90.000000
_cell_angle_beta 65.603427
_cell_angle_gamma 90.000000
_cell_volume 2788.090161
_symmetry_space_group_name_H-M "C 2/M"
_symmetry_group_IT_number 12
_symmetry_cell_setting 'monoclinic'
loop_
_space_group_symop_operation_xyz
x,y,z
-x,y,-z
-x,-y,-z
x,-y,z
1/2+x,1/2+y,z
1/2-x,1/2+y,-z
1/2-x,1/2-y,-z
1/2+x,1/2-y,z
loop_
_atom_site_type_symbol
_atom_site_label
_atom_site_fract_x
_atom_site_fract_y
_atom_site_fract_z
Si Si1 0.111963 0.677372 0.567080
Si Si2 0.798770 0.170045 0.582085
Si Si3 0.474931 0.325164 0.396628
Si Si4 0.386275 0.679483 0.144919
Si Si5 0.711317 0.329194 0.722912
Si Si6 0.029949 0.324318 0.089518
O O1 0.109446 0.500000 0.580101
O O2 0.159008 0.729127 0.447974
O O3 0.107818 0.748157 0.718888
O O4 0.071774 0.743198 0.539474
O O5 0.753089 0.230260 0.701156
O O6 0.793032 0.172604 0.430728
O O7 0.807149 0.000000 0.609043
O O8 0.500000 0.311548 0.500000
O O9 0.468322 0.500000 0.376457
O O10 0.504111 0.250590 0.243752
O O11 0.388681 0.500000 0.153272
O O12 0.336963 0.717715 0.164216
O O13 0.424264 0.743054 0.001747
O O14 0.719392 0.500000 0.750601
O O15 0.036461 0.500000 0.103889
O O16 0.000000 0.308579 0.000000
#
# Coordination Sequence:
#
# PCOD9179493 Si02
#       6
#     8   8   8   8   8   8
#     4  11  20  31  49  73 102 136 173 215 262 311
#     4   9  16  26  42  65  96 134 170 207 255 308
#     4  11  24  40  57  77 103 138 179 221 264 312
#     4  10  19  31  50  74 103 138 174 215 259 307
#     4   8  15  26  40  65  98 131 167 208 256 303
#     4  11  22  35  54  81 107 138 176 216 264 315
#
# _framework density 17.216085
#
# number of rings (size 3 to 8) (size 9 to 14) (size 15 to 20)
#    0.000    2.000    1.667    4.500    0.000    6.667 
#    0.000    0.000    0.000    0.000    0.000    1.167 
#    0.000    0.000    0.000    0.000    0.000    0.000 
#
# Total GULP energy -133899.047121 kJ/mol
# GULP energy per Si atom -5579.126963 kJ/mol
# Density = 1.717690 g / cm^3
# Si number density = 17.216085 Si / 1000 Ang^3
#
#
#
# Elastic Constant Matrix: (Units=GPa)
#
#
# Indices 1 2 3 4 5 6 
#
# 1 107.9822 73.7673 40.3872 0.0000 -35.7008 0.0000
# 2 73.7673 137.2699 43.8626 0.0000 -17.8571 0.0000
# 3 40.3872 43.8626 38.8978 0.0000 -16.5824 0.0000
# 4 0.0000 0.0000 0.0000 16.4431 0.0000 -10.4277
# 5 -35.7008 -17.8571 -16.5824 0.0000 28.9096 0.0000
# 6 0.0000 0.0000 0.0000 -10.4277 0.0000 30.8631
#
#
#
# Elastic Compliance Matrix: (Units=1/GPa)
#
#
# Indices 1 2 3 4 5 6 
#
# 1 0.024470 -0.008067 -0.007349 0.000000 0.021020 0.000000
# 2 -0.008067 0.014052 -0.010611 0.000000 -0.007369 0.000000
# 3 -0.007349 -0.010611 0.051149 0.000000 0.013709 0.000000
# 4 0.000000 0.000000 0.000000 0.077400 0.000000 0.026151
# 5 0.021020 -0.007369 0.013709 0.000000 0.063860 0.000000
# 6 0.000000 0.000000 0.000000 0.026151 0.000000 0.041237
#
#
# Mechanical properties :
#
#
# Convention : Reuss Voigt Hill
#
# Bulk Modulus (GPa) = 26.58459 66.68715 46.63587
# Shear Modulus (GPa) = 14.84731 23.65202 19.24966
#
# Velocity S-wave (km/s) = 2.93987 3.71055 3.34746
# Velocity P-wave (km/s) = 5.19605 7.56155 6.48753
#
# Compressibility (1/GPa) = 0.03761578
#
# Stress axis : x y z
#
# Youngs Moduli (GPa) = 40.86609 71.16350 19.55088
#
# Poissons Ratio (x) = 0.57409 0.14369
# Poissons Ratio (y) = 0.32967 0.20746
# Poissons Ratio (z) = 0.30034 0.75512
#
# Static dielectric constant tensor:
#      x y z
#    x 1.592170 0.000000 -0.021750 
#    y 0.000000 1.576900 0.000000 
#    z -0.021750 0.000000 1.564740 
# 
# From -- ./inp_files/185736.got.cif
#   From: 2010.05.17/outbox.cif.g08.bks.cpg/sg12_93_cif.got.tgz:185736.got - 2010.06.03 13:09:07.
