data_PCOD9179106
_publ_section_title
;
Structure prediction by ZEFSAII (Michael W. Deem and Ramdas Pophale) SiO2 
 PCOD9179106
Probable space group: C 2/M
;
_chemical_formula_sum "Si O2"
_cell_formula_units_Z 64
_cell_length_a 25.100141
_cell_length_b 7.385917
_cell_length_c 15.836025
_cell_angle_alpha 90.000000
_cell_angle_beta 79.083878
_cell_angle_gamma 90.000000
_cell_volume 2882.680035
_symmetry_space_group_name_H-M "C 2/M"
_symmetry_group_IT_number 12
_symmetry_cell_setting 'monoclinic'
loop_
_space_group_symop_operation_xyz
x,y,z
-x,y,-z
-x,-y,-z
x,-y,z
1/2+x,1/2+y,z
1/2-x,1/2+y,-z
1/2-x,1/2-y,-z
1/2+x,1/2-y,z
loop_
_atom_site_type_symbol
_atom_site_label
_atom_site_fract_x
_atom_site_fract_y
_atom_site_fract_z
Si Si1 0.446293 0.220877 0.794224
Si Si2 0.748883 0.201658 0.236489
Si Si3 0.062019 0.720775 0.498905
Si Si4 0.800439 0.785149 0.924760
Si Si5 0.361756 0.222029 0.677969
Si Si6 0.088312 0.705271 0.020397
Si Si7 0.626678 0.787643 0.829638
Si Si8 0.437591 0.779196 0.312628
O O1 0.395038 0.278177 0.752370
O O2 0.500899 0.271183 0.729230
O O3 0.444508 0.000000 0.798359
O O4 0.446538 0.285822 0.891656
O O5 0.716831 0.199292 0.157787
O O6 0.700829 0.285737 0.307500
O O7 0.808102 0.278318 0.197913
O O8 0.759725 0.000000 0.264959
O O9 0.062101 0.500000 0.497208
O O10 0.102610 0.778093 0.413005
O O11 0.077339 0.779324 0.588733
O O12 0.000000 0.776115 0.500000
O O13 0.808475 0.000000 0.912274
O O14 0.750000 0.750000 0.000000
O O15 0.852916 0.702276 0.952465
O O16 0.360207 0.000000 0.679891
O O17 0.068136 0.500000 0.013472
O O18 0.100936 0.788057 0.924530
O O19 0.600373 0.714902 0.751985
O O20 0.613419 0.000000 0.837087
O O21 0.435806 0.000000 0.314264
#
# Coordination Sequence:
#
# PCOD9179106 Si02
#       8
#     8   8   8   8   8   8   8   8
#     4   9  15  26  46  73 103 131 168 217 263 311
#     4  11  21  34  52  74 104 141 177 216 259 307
#     4   9  14  24  46  75 104 131 161 213 276 319
#     4  12  22  32  50  76 104 135 176 219 259 301
#     4   9  16  26  45  76 104 127 165 217 269 313
#     4  10  19  31  48  72 106 142 175 211 255 306
#     4  10  21  34  48  71 105 145 181 213 254 311
#     4   9  17  29  47  73 105 137 173 217 266 315
#
# _framework density 22.201561999999999
#
# number of rings (size 3 to 8) (size 9 to 14) (size 15 to 20)
#    0.000    2.125    3.750    1.500    0.000    0.500 
#    0.000    3.125    0.000    0.750    0.000    2.625 
#    0.000    3.500    0.000    0.000    0.000    0.000 
#
# Total GULP energy -178543.903458 kJ/mol
# GULP energy per Si atom -5579.496983 kJ/mol
# Density = 2.215103 g / cm^3
# Si number density = 22.201562 Si / 1000 Ang^3
#
#
#
# Elastic Constant Matrix: (Units=GPa)
#
#
# Indices 1 2 3 4 5 6 
#
# 1 44.9076 -4.6870 47.9774 0.0000 -0.1813 0.0000
# 2 -4.6870 88.8585 3.7037 0.0000 -0.4347 0.0000
# 3 47.9774 3.7037 191.2643 0.0000 -14.0073 0.0000
# 4 0.0000 0.0000 0.0000 -8.9063 0.0000 0.8742
# 5 -0.1813 -0.4347 -14.0073 0.0000 42.1032 0.0000
# 6 0.0000 0.0000 0.0000 0.8742 0.0000 0.8978
#
#
#
# Elastic Compliance Matrix: (Units=1/GPa)
#
#
# Indices 1 2 3 4 5 6 
#
# 1 0.031009 0.001957 -0.008000 0.000000 -0.002508 0.000000
# 2 0.001957 0.011386 -0.000720 0.000000 -0.000113 0.000000
# 3 -0.008000 -0.000720 0.007427 0.000000 0.002429 0.000000
# 4 0.000000 0.000000 0.000000 -0.102486 0.000000 0.099788
# 5 -0.002508 -0.000113 0.002429 0.000000 0.024547 0.000000
# 6 0.000000 0.000000 0.000000 0.099788 0.000000 1.016663
#
#
# Mechanical properties :
#
#
# Convention : Reuss Voigt Hill
#
# Bulk Modulus (GPa) = 27.55072 46.55762 37.05417
# Shear Modulus (GPa) = 4.93014 25.35471 15.14242
#
# Velocity S-wave (km/s) = 1.49179 3.38305 2.61443
# Velocity P-wave (km/s) = 3.92474 6.02296 5.08328
#
# Compressibility (1/GPa) = 0.03629669
#
# Stress axis : x y z
#
# Youngs Moduli (GPa) = 32.24890 87.82332 134.64546
#
# Poissons Ratio (x) = -0.17185 1.07715
# Poissons Ratio (y) = -0.06310 0.09690
# Poissons Ratio (z) = 0.25799 0.06320
#
# Static dielectric constant tensor:
#      x y z
#    x 1.799870 0.000000 -0.041650 
#    y 0.000000 1.902200 0.000000 
#    z -0.041650 0.000000 1.853220 
# 
# From -- ./inp_files/243974.got.cif
#   From: 2010.05.17/outbox.cif.g08.bks.cpg/sg12_122_cif.got.tgz:243974.got - 2010.06.03 13:09:07.
