data_PCOD9179699
_publ_section_title
;
Structure prediction by ZEFSAII (Michael W. Deem and Ramdas Pophale) SiO2 
 PCOD9179699
Probable space group: C 2/M
;
_chemical_formula_sum "Si O2"
_cell_formula_units_Z 48
_cell_length_a 9.899582
_cell_length_b 14.514953
_cell_length_c 12.219976
_cell_angle_alpha 90.000000
_cell_angle_beta 87.031714
_cell_angle_gamma 90.000000
_cell_volume 1753.556575
_symmetry_space_group_name_H-M "C 2/M"
_symmetry_group_IT_number 12
_symmetry_cell_setting 'monoclinic'
loop_
_space_group_symop_operation_xyz
x,y,z
-x,y,-z
-x,-y,-z
x,-y,z
1/2+x,1/2+y,z
1/2-x,1/2+y,-z
1/2-x,1/2-y,-z
1/2+x,1/2-y,z
loop_
_atom_site_type_symbol
_atom_site_label
_atom_site_fract_x
_atom_site_fract_y
_atom_site_fract_z
Si Si1 0.339436 0.139080 0.437848
Si Si2 0.463473 0.100744 0.741905
Si Si3 0.236071 0.105588 0.906480
Si Si4 0.872901 0.894518 0.751300
Si Si5 0.844319 0.697339 0.103038
Si Si6 0.892882 0.142967 0.413134
O O1 0.480679 0.102789 0.383587
O O2 0.229436 0.116062 0.347489
O O3 0.255431 0.106929 0.547727
O O4 0.370073 0.248242 0.434532
O O5 0.309781 0.113488 0.785222
O O6 0.551056 0.171378 0.807941
O O7 0.500520 0.000000 0.784173
O O8 0.141365 0.194607 0.921451
O O9 0.188353 0.000000 0.921744
O O10 0.345680 0.132108 0.996344
O O11 0.804855 0.825840 0.840338
O O12 0.024024 0.875290 0.700954
O O13 0.866596 0.000000 0.791096
O O14 0.000000 0.109375 0.500000
#
# Coordination Sequence:
#
# PCOD9179699 Si02
#       6
#     8   8   8   8   8   8
#     4   9  17  30  47  70  99 130 164 201 246 292
#     4  10  19  32  53  76  98 129 170 209 243 288
#     4  10  20  33  52  76 101 132 167 203 247 297
#     4  10  19  31  51  75  98 129 170 210 246 290
#     4  10  19  32  52  75 103 130 164 209 249 288
#     4   9  18  30  47  71 100 131 163 202 250 297
#
# _framework density 27.372942999999999
#
# number of rings (size 3 to 8) (size 9 to 14) (size 15 to 20)
#    0.000    2.333    0.000    4.500    0.000    5.000 
#    0.000    0.000    0.000   20.000    0.000   18.667 
#    0.000    0.000    0.000    0.000    0.000    0.000 
#
# Total GULP energy -134096.703843 kJ/mol
# GULP energy per Si atom -5587.362660 kJ/mol
# Density = 2.731064 g / cm^3
# Si number density = 27.372943 Si / 1000 Ang^3
#
#
#
# Elastic Constant Matrix: (Units=GPa)
#
#
# Indices 1 2 3 4 5 6 
#
# 1 146.8220 22.6529 37.8912 0.0000 -31.8752 0.0000
# 2 22.6529 205.7836 7.0550 0.0000 -5.7210 0.0000
# 3 37.8912 7.0550 152.7067 0.0000 -33.6517 0.0000
# 4 0.0000 0.0000 0.0000 16.8586 0.0000 -3.3548
# 5 -31.8752 -5.7210 -33.6517 0.0000 53.1165 0.0000
# 6 0.0000 0.0000 0.0000 -3.3548 0.0000 43.0092
#
#
#
# Elastic Compliance Matrix: (Units=1/GPa)
#
#
# Indices 1 2 3 4 5 6 
#
# 1 0.008091 -0.000740 -0.001070 0.000000 0.004098 0.000000
# 2 -0.000740 0.004944 -0.000029 0.000000 0.000070 0.000000
# 3 -0.001070 -0.000029 0.007756 0.000000 0.004268 0.000000
# 4 0.000000 0.000000 0.000000 0.060252 0.000000 0.004700
# 5 0.004098 0.000070 0.004268 0.000000 0.023997 0.000000
# 6 0.000000 0.000000 0.000000 0.004700 0.000000 0.023617
#
#
# Mechanical properties :
#
#
# Convention : Reuss Voigt Hill
#
# Bulk Modulus (GPa) = 58.44164 71.16782 64.80473
# Shear Modulus (GPa) = 36.22109 51.77775 43.99942
#
# Velocity S-wave (km/s) = 3.64159 4.35393 4.01360
# Velocity P-wave (km/s) = 6.25124 7.16459 6.72345
#
# Compressibility (1/GPa) = 0.01711109
#
# Stress axis : x y z
#
# Youngs Moduli (GPa) = 123.59429 202.27003 128.93133
#
# Poissons Ratio (x) = 0.14969 0.13802
# Poissons Ratio (y) = 0.09147 0.00379
# Poissons Ratio (z) = 0.13230 0.00595
#
# Static dielectric constant tensor:
#      x y z
#    x 2.194390 0.000000 -0.017900 
#    y 0.000000 2.159440 0.000000 
#    z -0.017900 0.000000 2.222380 
# 
# From -- ./inp_files/204295.got.cif
#   From: 2010.05.17/outbox.cif.g08.bks.cpg/sg12_103_cif.got.tgz:204295.got - 2010.06.03 13:09:07.
