data_PCOD9179618
_publ_section_title
;
Structure prediction by ZEFSAII (Michael W. Deem and Ramdas Pophale) SiO2 
 PCOD9179618
Probable space group: C 2/M
;
_chemical_formula_sum "Si O2"
_cell_formula_units_Z 64
_cell_length_a 33.065143
_cell_length_b 8.874073
_cell_length_c 24.965095
_cell_angle_alpha 90.000000
_cell_angle_beta 153.598223
_cell_angle_gamma 90.000000
_cell_volume 3257.298648
_symmetry_space_group_name_H-M "C 2/M"
_symmetry_group_IT_number 12
_symmetry_cell_setting 'monoclinic'
loop_
_space_group_symop_operation_xyz
x,y,z
-x,y,-z
-x,-y,-z
x,-y,z
1/2+x,1/2+y,z
1/2-x,1/2+y,-z
1/2-x,1/2-y,-z
1/2+x,1/2-y,z
loop_
_atom_site_type_symbol
_atom_site_label
_atom_site_fract_x
_atom_site_fract_y
_atom_site_fract_z
Si Si1 0.790786 0.180590 0.876222
Si Si2 0.058617 0.320079 0.121996
Si Si3 0.924221 0.318653 0.520797
Si Si4 0.732306 0.820314 0.263067
Si Si5 0.524935 0.822656 0.298427
Si Si6 0.013108 0.820384 0.853828
Si Si7 0.106135 0.830266 0.699305
Si Si8 0.154847 0.169948 0.881911
O O1 0.809303 0.247145 0.839543
O O2 0.692441 0.245691 0.776294
O O3 0.785306 0.000000 0.868579
O O4 0.878758 0.223520 0.016524
O O5 0.045651 0.500000 0.114080
O O6 0.163276 0.291912 0.230019
O O7 0.028095 0.237223 0.139263
O O8 0.000000 0.276495 0.000000
O O9 0.926136 0.500000 0.520441
O O10 0.830392 0.252269 0.388312
O O11 0.931819 0.274021 0.593163
O O12 0.009357 0.254836 0.587461
O O13 0.739618 0.000000 0.264551
O O14 0.543267 0.743843 0.263495
O O15 0.420141 0.778699 0.182700
O O16 0.539026 0.000000 0.309894
O O17 0.010108 0.000000 0.848058
O O18 0.132133 0.842735 0.792540
O O19 0.097000 0.000000 0.666102
O O20 0.152802 0.000000 0.902797
O O21 0.250000 0.250000 0.000000
#
# Coordination Sequence:
#
# PCOD9179618 Si02
#       8
#     8   8   8   8   8   8   8   8
#     4  11  23  37  56  87 123 156 194 243 296 347
#     4  10  21  40  64  90 120 153 190 236 294 357
#     4  10  22  41  62  85 117 157 199 244 292 343
#     4  11  23  40  64  89 115 153 196 241 292 352
#     4  10  21  37  58  82 114 156 196 239 291 347
#     4  11  23  37  60  92 124 155 192 244 296 349
#     4  10  21  36  55  81 114 155 200 243 286 342
#     4  10  19  31  50  77 111 151 195 242 291 344
#
# _framework density 19.648181999999998
#
# number of rings (size 3 to 8) (size 9 to 14) (size 15 to 20)
#    0.000    1.625    1.250    3.375    0.000    8.250 
#    0.000    3.125    0.000    0.000    0.000    0.000 
#    0.000    0.000    0.000    0.000    0.000    0.000 
#
# Total GULP energy -178630.064565 kJ/mol
# GULP energy per Si atom -5582.189518 kJ/mol
# Density = 1.960346 g / cm^3
# Si number density = 19.648182 Si / 1000 Ang^3
#
#
#
# Elastic Constant Matrix: (Units=GPa)
#
#
# Indices 1 2 3 4 5 6 
#
# 1 80.0689 23.2621 0.4528 0.0000 0.1804 0.0000
# 2 23.2621 60.4011 20.5207 0.0000 4.6850 0.0000
# 3 0.4528 20.5207 50.9969 0.0000 5.9097 0.0000
# 4 0.0000 0.0000 0.0000 24.2284 0.0000 0.0203
# 5 0.1804 4.6850 5.9097 0.0000 28.8329 0.0000
# 6 0.0000 0.0000 0.0000 0.0203 0.0000 34.5472
#
#
#
# Elastic Compliance Matrix: (Units=1/GPa)
#
#
# Indices 1 2 3 4 5 6 
#
# 1 0.014322 -0.006360 0.002379 0.000000 0.000456 0.000000
# 2 -0.006360 0.022071 -0.008619 0.000000 -0.001780 0.000000
# 3 0.002379 -0.008619 0.023452 0.000000 -0.003421 0.000000
# 4 0.000000 0.000000 0.000000 0.041274 0.000000 -0.000024
# 5 0.000456 -0.001780 -0.003421 0.000000 0.035670 0.000000
# 6 0.000000 0.000000 0.000000 -0.000024 0.000000 0.028946
#
#
# Mechanical properties :
#
#
# Convention : Reuss Voigt Hill
#
# Bulk Modulus (GPa) = 28.86175 31.10421 29.98298
# Shear Modulus (GPa) = 24.69334 27.33712 26.01523
#
# Velocity S-wave (km/s) = 3.54895 3.73410 3.64270
# Velocity P-wave (km/s) = 5.61378 5.86995 5.74329
#
# Compressibility (1/GPa) = 0.03464793
#
# Stress axis : x y z
#
# Youngs Moduli (GPa) = 69.82077 45.30756 42.63949
#
# Poissons Ratio (x) = 0.28814 -0.10144
# Poissons Ratio (y) = 0.44403 0.36749
# Poissons Ratio (z) = -0.16610 0.39049
#
# Static dielectric constant tensor:
#      x y z
#    x 1.711150 0.000000 -0.027140 
#    y 0.000000 1.663990 0.000000 
#    z -0.027140 0.000000 1.675600 
# 
# From -- ./inp_files/353432.got.cif
#   From: 2010.05.17/outbox.cif.g08.bks.cpg/sg12_177_cif.got.tgz:353432.got - 2010.06.03 13:09:07.
