data_PCOD9179208
_publ_section_title
;
Structure prediction by ZEFSAII (Michael W. Deem and Ramdas Pophale) SiO2 
 PCOD9179208
Probable space group: C 2/M
;
_chemical_formula_sum "Si O2"
_cell_formula_units_Z 56
_cell_length_a 28.132381
_cell_length_b 7.357664
_cell_length_c 14.187233
_cell_angle_alpha 90.000000
_cell_angle_beta 59.849140
_cell_angle_gamma 90.000000
_cell_volume 2539.291541
_symmetry_space_group_name_H-M "C 2/M"
_symmetry_group_IT_number 12
_symmetry_cell_setting 'monoclinic'
loop_
_space_group_symop_operation_xyz
x,y,z
-x,y,-z
-x,-y,-z
x,-y,z
1/2+x,1/2+y,z
1/2-x,1/2+y,-z
1/2-x,1/2-y,-z
1/2+x,1/2-y,z
loop_
_atom_site_type_symbol
_atom_site_label
_atom_site_fract_x
_atom_site_fract_y
_atom_site_fract_z
Si Si1 0.150965 0.714735 0.239024
Si Si2 0.012243 0.278433 0.094417
Si Si3 0.701756 0.783012 0.622576
Si Si4 0.727087 0.218623 0.807393
Si Si5 0.867443 0.722368 0.955107
Si Si6 0.059902 0.277952 0.476901
Si Si7 0.583398 0.222135 0.667111
O O1 0.139951 0.500000 0.243380
O O2 0.212508 0.737635 0.215149
O O3 0.107004 0.785570 0.358237
O O4 0.143760 0.785336 0.140198
O O5 0.012059 0.500000 0.094345
O O6 0.964632 0.221219 0.213769
O O7 0.072421 0.222276 0.069275
O O8 0.000000 0.220188 0.000000
O O9 0.750000 0.750000 0.500000
O O10 0.717058 0.713597 0.711230
O O11 0.643073 0.716200 0.643301
O O12 0.696073 0.000000 0.636871
O O13 0.680171 0.282412 0.926097
O O14 0.723336 0.000000 0.808476
O O15 0.866569 0.500000 0.956069
O O16 0.060624 0.500000 0.477152
O O17 0.071484 0.220038 0.572201
O O18 0.000000 0.223148 0.500000
O O19 0.583604 0.000000 0.666708
#
# Coordination Sequence:
#
# PCOD9179208 Si02
#       7
#     8   8   8   8   8   8   8
#     4  10  19  31  49  71  95 125 161 197 232 277
#     4   9  15  24  41  65  93 123 153 189 237 287
#     4  10  20  33  49  70  96 126 158 193 234 279
#     4  10  20  33  48  68  97 128 157 193 236 279
#     4   9  17  29  45  68  97 126 157 194 236 281
#     4   9  16  26  42  66  93 117 145 188 237 275
#     4   9  16  26  41  63  91 119 149 188 232 276
#
# _framework density 22.053394000000001
#
# number of rings (size 3 to 8) (size 9 to 14) (size 15 to 20)
#    0.000    2.571    0.000    3.000    0.000    8.571 
#    0.000    0.000    0.000    0.429    0.000    4.000 
#    0.000    5.143    0.000    0.000    0.000    0.000 
#
# Total GULP energy -156553.180909 kJ/mol
# GULP energy per Si atom -5591.185032 kJ/mol
# Density = 2.200320 g / cm^3
# Si number density = 22.053394 Si / 1000 Ang^3
#
#
#
# Elastic Constant Matrix: (Units=GPa)
#
#
# Indices 1 2 3 4 5 6 
#
# 1 253.5390 -6.0513 170.8731 0.0000 6.9160 0.0000
# 2 -6.0513 78.9431 2.8900 0.0000 4.3195 -0.0002
# 3 170.8731 2.8900 282.0091 0.0000 5.2695 0.0000
# 4 0.0000 0.0000 0.0000 -0.0591 0.0000 -7.3368
# 5 6.9160 4.3195 5.2695 0.0000 52.0184 0.0000
# 6 0.0000 -0.0002 0.0000 -7.3368 0.0000 15.3140
#
#
#
# Elastic Compliance Matrix: (Units=1/GPa)
#
#
# Indices 1 2 3 4 5 6 
#
# 1 0.006716 0.000693 -0.004066 0.000000 -0.000539 0.000000
# 2 0.000693 0.012800 -0.000531 0.000000 -0.001101 0.000000
# 3 -0.004066 -0.000531 0.006016 0.000000 -0.000025 0.000000
# 4 0.000000 0.000000 0.000000 -0.279793 0.000000 -0.134046
# 5 -0.000539 -0.001101 -0.000025 0.000000 0.019390 0.000000
# 6 0.000000 0.000000 0.000000 -0.134046 0.000000 0.001080
#
#
# Mechanical properties :
#
#
# Convention : Reuss Voigt Hill
#
# Bulk Modulus (GPa) = 56.41976 105.54608 80.98292
# Shear Modulus (GPa) = -22.71940 43.23995 10.26027
#
# Velocity S-wave (km/s) = -3.21315 4.43278 2.15930
# Velocity P-wave (km/s) = 3.44572 8.61177 6.55879
#
# Compressibility (1/GPa) = 0.01772429
#
# Stress axis : x y z
#
# Youngs Moduli (GPa) = 148.90087 78.12402 166.23181
#
# Poissons Ratio (x) = -0.05415 0.67594
# Poissons Ratio (y) = -0.10321 0.08820
# Poissons Ratio (z) = 0.60547 0.04145
#
# Static dielectric constant tensor:
#      x y z
#    x 1.737920 0.000000 0.012480 
#    y 0.000000 1.910700 0.000000 
#    z 0.012480 0.000000 1.756390 
# 
# From -- ./inp_files/174454.got.cif
#   From: 2010.05.17/outbox.cif.g08.bks.cpg/sg12_88_cif.got.tgz:174454.got - 2010.06.03 13:09:07.
