data_PCOD9179813
_publ_section_title
;
Structure prediction by ZEFSAII (Michael W. Deem and Ramdas Pophale) SiO2 
 PCOD9179813
Probable space group: C 2/M
;
_chemical_formula_sum "Si O2"
_cell_formula_units_Z 64
_cell_length_a 25.209792
_cell_length_b 8.590150
_cell_length_c 16.762694
_cell_angle_alpha 90.000000
_cell_angle_beta 116.834547
_cell_angle_gamma 90.000000
_cell_volume 3239.152793
_symmetry_space_group_name_H-M "C 2/M"
_symmetry_group_IT_number 12
_symmetry_cell_setting 'monoclinic'
loop_
_space_group_symop_operation_xyz
x,y,z
-x,y,-z
-x,-y,-z
x,-y,z
1/2+x,1/2+y,z
1/2-x,1/2+y,-z
1/2-x,1/2-y,-z
1/2+x,1/2-y,z
loop_
_atom_site_type_symbol
_atom_site_label
_atom_site_fract_x
_atom_site_fract_y
_atom_site_fract_z
Si Si1 0.657176 0.674803 0.986139
Si Si2 0.066209 0.175503 0.071863
Si Si3 0.850998 0.679161 0.756107
Si Si4 0.060936 0.689949 0.498906
Si Si5 0.638364 0.183484 0.694590
Si Si6 0.433511 0.182207 0.198747
Si Si7 0.435827 0.191591 0.683011
Si Si8 0.237932 0.315626 0.170388
O O1 0.674496 0.500000 0.975854
O O2 0.607892 0.673321 0.022858
O O3 0.712620 0.753506 0.069037
O O4 0.620760 0.748437 0.888767
O O5 0.091534 0.303818 0.148074
O O6 0.069001 0.000000 0.109384
O O7 0.000000 0.207128 0.000000
O O8 0.834751 0.500000 0.730352
O O9 0.877414 0.745249 0.691802
O O10 0.799897 0.749301 0.778662
O O11 0.060102 0.500000 0.498831
O O12 0.115334 0.737329 0.592916
O O13 0.065687 0.738547 0.410491
O O14 0.000000 0.741281 0.500000
O O15 0.584352 0.196902 0.720641
O O16 0.694538 0.272829 0.767270
O O17 0.653729 0.000000 0.701120
O O18 0.500880 0.244667 0.236010
O O19 0.435387 0.000000 0.179504
O O20 0.436499 0.000000 0.686136
O O21 0.228846 0.500000 0.163141
#
# Coordination Sequence:
#
# PCOD9179813 Si02
#       8
#     8   8   8   8   8   8   8   8
#     4  10  20  33  50  73 102 137 176 214 252 300
#     4   9  17  29  45  67  98 134 169 206 251 302
#     4   9  18  31  49  73  99 132 171 209 249 295
#     4   9  15  29  54  83 108 130 162 207 259 308
#     4  10  20  34  55  80 103 132 172 214 255 304
#     4  10  19  31  51  80 108 132 165 212 264 309
#     4   9  16  29  52  81 109 132 163 212 261 305
#     4  10  21  37  53  70 101 143 180 211 249 298
#
# _framework density 19.758251000000001
#
# number of rings (size 3 to 8) (size 9 to 14) (size 15 to 20)
#    0.000    2.500    1.250    1.500    0.000    2.250 
#    0.000    0.625    0.000    1.875    0.000    0.000 
#    0.000    0.000    0.000    0.000    0.000    0.000 
#
# Total GULP energy -178283.195668 kJ/mol
# GULP energy per Si atom -5571.349865 kJ/mol
# Density = 1.971328 g / cm^3
# Si number density = 19.758251 Si / 1000 Ang^3
#
#
#
# Elastic Constant Matrix: (Units=GPa)
#
#
# Indices 1 2 3 4 5 6 
#
# 1 35.0377 5.4829 7.1719 0.0000 0.5531 0.0000
# 2 5.4829 13.4750 14.7906 0.0000 0.8334 0.0000
# 3 7.1719 14.7906 94.6898 0.0000 -0.3934 0.0000
# 4 0.0000 0.0000 0.0000 13.4655 0.0000 4.1498
# 5 0.5531 0.8334 -0.3934 0.0000 32.1681 0.0000
# 6 0.0000 0.0000 0.0000 4.1498 0.0000 12.9653
#
#
#
# Elastic Compliance Matrix: (Units=1/GPa)
#
#
# Indices 1 2 3 4 5 6 
#
# 1 0.030499 -0.011900 -0.000452 0.000000 -0.000222 0.000000
# 2 -0.011900 0.094411 -0.013856 0.000000 -0.002411 0.000000
# 3 -0.000452 -0.013856 0.012762 0.000000 0.000523 0.000000
# 4 0.000000 0.000000 0.000000 0.082391 0.000000 -0.026371
# 5 -0.000222 -0.002411 0.000523 0.000000 0.031159 0.000000
# 6 0.000000 0.000000 0.000000 -0.026371 0.000000 0.085569
#
#
# Mechanical properties :
#
#
# Convention : Reuss Voigt Hill
#
# Bulk Modulus (GPa) = 11.72938 22.01037 16.86987
# Shear Modulus (GPa) = 11.97247 19.43694 15.70470
#
# Velocity S-wave (km/s) = 2.46427 3.13986 2.82235
# Velocity P-wave (km/s) = 3.74782 4.93042 4.37922
#
# Compressibility (1/GPa) = 0.08525598
#
# Stress axis : x y z
#
# Youngs Moduli (GPa) = 32.78805 10.59198 78.36066
#
# Poissons Ratio (x) = 0.12604 0.03543
# Poissons Ratio (y) = 0.39017 1.08575
# Poissons Ratio (z) = 0.01483 0.14676
#
# Static dielectric constant tensor:
#      x y z
#    x 1.729360 0.000000 -0.028670 
#    y 0.000000 1.713840 0.000000 
#    z -0.028670 0.000000 1.699880 
# 
# From -- ./inp_files/249137.got.cif
#   From: 2010.05.17/outbox.cif.g08.bks.cpg/sg12_125_cif.got.tgz:249137.got - 2010.06.03 13:09:07.
