data_PCOD9179456
_publ_section_title
;
Structure prediction by ZEFSAII (Michael W. Deem and Ramdas Pophale) SiO2 
 PCOD9179456
Probable space group: C 2/M
;
_chemical_formula_sum "Si O2"
_cell_formula_units_Z 64
_cell_length_a 23.653989
_cell_length_b 8.942208
_cell_length_c 20.866559
_cell_angle_alpha 90.000000
_cell_angle_beta 60.650752
_cell_angle_gamma 90.000000
_cell_volume 3847.169194
_symmetry_space_group_name_H-M "C 2/M"
_symmetry_group_IT_number 12
_symmetry_cell_setting 'monoclinic'
loop_
_space_group_symop_operation_xyz
x,y,z
-x,y,-z
-x,-y,-z
x,-y,z
1/2+x,1/2+y,z
1/2-x,1/2+y,-z
1/2-x,1/2-y,-z
1/2+x,1/2-y,z
loop_
_atom_site_type_symbol
_atom_site_label
_atom_site_fract_x
_atom_site_fract_y
_atom_site_fract_z
Si Si1 0.237216 0.170291 0.406713
Si Si2 0.441588 0.179843 0.288361
Si Si3 0.851982 0.328440 0.449804
Si Si4 0.285308 0.679038 0.918433
Si Si5 0.811548 0.180198 0.122769
Si Si6 0.331608 0.321801 0.260426
Si Si7 0.562597 0.680171 0.159589
Si Si8 0.054605 0.818195 0.018567
O O1 0.173240 0.232654 0.476723
O O2 0.293108 0.170407 0.430639
O O3 0.267172 0.270995 0.334125
O O4 0.229006 0.000000 0.389585
O O5 0.412552 0.226047 0.373826
O O6 0.392280 0.243676 0.261917
O O7 0.512747 0.241482 0.234894
O O8 0.439463 0.000000 0.287188
O O9 0.862569 0.500000 0.463926
O O10 0.280006 0.500000 0.926144
O O11 0.249264 0.739806 0.875623
O O12 0.361630 0.716720 0.874251
O O13 0.250000 0.750000 0.000000
O O14 0.824909 0.217150 0.189423
O O15 0.874662 0.223605 0.046261
O O16 0.803774 0.000000 0.122544
O O17 0.340336 0.500000 0.260746
O O18 0.555609 0.500000 0.168280
O O19 0.543939 0.727324 0.097509
O O20 0.052695 0.000000 0.019166
O O21 0.000000 0.764069 0.000000
#
# Coordination Sequence:
#
# PCOD9179456 Si02
#       8
#     8   8   8   8   8   8   8   8
#     4   9  16  26  43  68  99 132 166 204 240 285
#     4  10  20  32  48  73 105 134 164 208 250 292
#     4   8  15  27  42  64  96 133 167 197 238 291
#     4  11  22  37  56  74  96 127 166 215 257 294
#     4  10  20  35  53  73  97 130 171 208 247 295
#     4  10  19  31  50  73 102 138 168 201 247 302
#     4  10  20  34  51  71  96 130 168 203 248 301
#     4   9  16  29  49  70  95 127 162 197 235 289
#
# _framework density 16.635608999999999
#
# number of rings (size 3 to 8) (size 9 to 14) (size 15 to 20)
#    0.000    2.375    1.250    3.000    0.000    7.500 
#    0.000    0.000    0.000    1.500    0.000    0.875 
#    0.000    7.000    0.000    0.000    0.000    0.000 
#
# Total GULP energy -178416.696319 kJ/mol
# GULP energy per Si atom -5575.521760 kJ/mol
# Density = 1.659775 g / cm^3
# Si number density = 16.635609 Si / 1000 Ang^3
#
#
#
# Elastic Constant Matrix: (Units=GPa)
#
#
# Indices 1 2 3 4 5 6 
#
# 1 58.3946 17.6763 17.7800 -0.0001 -22.1226 -0.0003
# 2 17.6763 33.6363 26.2551 -0.0002 -11.2028 -0.0006
# 3 17.7800 26.2551 93.2077 0.0000 -32.4095 0.0000
# 4 -0.0001 -0.0002 0.0000 27.2486 0.0000 -3.1018
# 5 -22.1226 -11.2028 -32.4095 0.0000 20.9991 0.0000
# 6 -0.0003 -0.0006 0.0000 -3.1018 0.0000 21.8128
#
#
#
# Elastic Compliance Matrix: (Units=1/GPa)
#
#
# Indices 1 2 3 4 5 6 
#
# 1 0.039128 -0.014061 0.017744 0.000000 0.061106 0.000000
# 2 -0.014061 0.043814 -0.014423 0.000000 -0.013698 0.000001
# 3 0.017744 -0.014423 0.032872 0.000000 0.061733 0.000000
# 4 0.000000 0.000000 0.000000 0.037303 0.000000 0.005304
# 5 0.061106 -0.013698 0.061733 0.000000 0.199966 0.000001
# 6 0.000000 0.000001 0.000000 0.005304 0.000001 0.046599
#
#
# Mechanical properties :
#
#
# Convention : Reuss Voigt Hill
#
# Bulk Modulus (GPa) = 10.60041 34.29573 22.44807
# Shear Modulus (GPa) = 11.04713 22.24725 16.64719
#
# Velocity S-wave (km/s) = 2.57974 3.66092 3.16681
# Velocity P-wave (km/s) = 3.90633 6.20728 5.18603
#
# Compressibility (1/GPa) = 0.09433598
#
# Stress axis : x y z
#
# Youngs Moduli (GPa) = 25.55695 22.82354 30.42117
#
# Poissons Ratio (x) = 0.32092 -0.53980
# Poissons Ratio (y) = 0.35935 0.43875
# Poissons Ratio (z) = -0.45349 0.32918
#
# Static dielectric constant tensor:
#      x y z
#    x 1.544610 0.000000 -0.011960 
#    y 0.000000 1.561150 0.000000 
#    z -0.011960 0.000000 1.568720 
# 
# From -- ./inp_files/319774.got.cif
#   From: 2010.05.17/outbox.cif.g08.bks.cpg/sg12_160_cif.got.tgz:319774.got - 2010.06.03 13:09:07.
