data_PCOD9179725
_publ_section_title
;
Structure prediction by ZEFSAII (Michael W. Deem and Ramdas Pophale) SiO2 
 PCOD9179725
Probable space group: C 2/M
;
_chemical_formula_sum "Si O2"
_cell_formula_units_Z 64
_cell_length_a 26.516234
_cell_length_b 7.508419
_cell_length_c 15.137483
_cell_angle_alpha 90.000000
_cell_angle_beta 100.662058
_cell_angle_gamma 90.000000
_cell_volume 2961.765501
_symmetry_space_group_name_H-M "C 2/M"
_symmetry_group_IT_number 12
_symmetry_cell_setting 'monoclinic'
loop_
_space_group_symop_operation_xyz
x,y,z
-x,y,-z
-x,-y,-z
x,-y,z
1/2+x,1/2+y,z
1/2-x,1/2+y,-z
1/2-x,1/2-y,-z
1/2+x,1/2-y,z
loop_
_atom_site_type_symbol
_atom_site_label
_atom_site_fract_x
_atom_site_fract_y
_atom_site_fract_z
Si Si1 0.302718 0.713159 0.641946
Si Si2 0.796068 0.717877 0.291016
Si Si3 0.899868 0.288194 0.571975
Si Si4 0.025451 0.212228 0.097184
Si Si5 0.762965 0.787486 0.903497
Si Si6 0.504523 0.214301 0.285553
Si Si7 0.139308 0.782547 0.162387
Si Si8 0.089520 0.281806 0.622743
O O1 0.299903 0.500000 0.641592
O O2 0.245010 0.775324 0.646418
O O3 0.339567 0.759221 0.572500
O O4 0.336520 0.773658 0.736898
O O5 0.796188 0.500000 0.292117
O O6 0.774111 0.776149 0.188057
O O7 0.854260 0.774538 0.325570
O O8 0.906373 0.500000 0.572947
O O9 0.940473 0.219042 0.658296
O O10 0.915319 0.222512 0.480207
O O11 0.997087 0.239515 0.180742
O O12 0.082617 0.285052 0.128866
O O13 0.030302 0.000000 0.086838
O O14 0.000000 0.283976 0.000000
O O15 0.820256 0.725958 0.898514
O O16 0.762724 0.000000 0.893788
O O17 0.750000 0.750000 0.000000
O O18 0.457660 0.276618 0.331606
O O19 0.505300 0.000000 0.290358
O O20 0.137916 0.000000 0.163870
O O21 0.088927 0.500000 0.622933
#
# Coordination Sequence:
#
# PCOD9179725 Si02
#       8
#     8   8   8   8   8   8   8   8
#     4   9  16  30  53  73  93 127 167 204 244 295
#     4   8  16  31  50  71  96 131 170 201 242 304
#     4  10  19  31  51  77 101 131 170 207 249 298
#     4  10  20  34  53  75  98 130 169 206 252 303
#     4   9  17  30  49  71  93 123 163 200 242 295
#     4  10  20  34  52  74 102 135 170 208 248 294
#     4   8  15  30  48  65  92 127 157 192 239 294
#     4   9  18  33  51  72 103 138 168 203 249 302
#
# _framework density 21.608732
#
# number of rings (size 3 to 8) (size 9 to 14) (size 15 to 20)
#    0.000    2.875    1.250    1.875    0.000    3.250 
#    0.000    3.750    0.000    3.000    0.000    0.000 
#    0.000    0.000    0.000    0.000    0.000    0.000 
#
# Total GULP energy -178488.968426 kJ/mol
# GULP energy per Si atom -5577.780263 kJ/mol
# Density = 2.155955 g / cm^3
# Si number density = 21.608732 Si / 1000 Ang^3
#
#
#
# Elastic Constant Matrix: (Units=GPa)
#
#
# Indices 1 2 3 4 5 6 
#
# 1 103.4108 -2.3666 44.4985 0.0000 -12.8501 0.0000
# 2 -2.3666 53.1488 -5.4903 0.0000 6.6942 0.0000
# 3 44.4985 -5.4903 114.5101 0.0000 -19.6371 0.0000
# 4 0.0000 0.0000 0.0000 -127.1621 0.0000 -60.6074
# 5 -12.8501 6.6942 -19.6371 0.0000 33.9216 0.0000
# 6 0.0000 0.0000 0.0000 -60.6074 0.0000 -8.2343
#
#
#
# Elastic Compliance Matrix: (Units=1/GPa)
#
#
# Indices 1 2 3 4 5 6 
#
# 1 0.011735 -0.000170 -0.004219 0.000000 0.002036 0.000000
# 2 -0.000170 0.019307 0.000363 0.000000 -0.003664 0.000000
# 3 -0.004219 0.000363 0.011217 0.000000 0.004824 0.000000
# 4 0.000000 0.000000 0.000000 0.003135 0.000000 -0.023078
# 5 0.002036 -0.003664 0.004824 0.000000 0.033767 0.000000
# 6 0.000000 0.000000 0.000000 -0.023078 0.000000 0.048421
#
#
# Mechanical properties :
#
#
# Convention : Reuss Voigt Hill
#
# Bulk Modulus (GPa) = 29.23355 38.26145 33.74750
# Shear Modulus (GPa) = 34.00546 -4.66642 14.66952
#
# Velocity S-wave (km/s) = 3.97128 -1.47112 2.60834
# Velocity P-wave (km/s) = 5.88099 3.85478 4.97219
#
# Compressibility (1/GPa) = 0.03420727
#
# Stress axis : x y z
#
# Youngs Moduli (GPa) = 85.21632 51.79586 89.15063
#
# Poissons Ratio (x) = 0.00880 0.37613
# Poissons Ratio (y) = 0.01447 -0.03239
# Poissons Ratio (z) = 0.35953 -0.01882
#
# Static dielectric constant tensor:
#      x y z
#    x 1.792370 0.000000 -0.008520 
#    y 0.000000 1.823320 0.000000 
#    z -0.008520 0.000000 1.785080 
# 
# From -- ./inp_files/174651.got.cif
#   From: 2010.05.17/outbox.cif.g08.bks.cpg/sg12_88_cif.got.tgz:174651.got - 2010.06.03 13:09:07.
