data_PCOD9179696
_publ_section_title
;
Structure prediction by ZEFSAII (Michael W. Deem and Ramdas Pophale) SiO2 
 PCOD9179696
Probable space group: C 2/M
;
_chemical_formula_sum "Si O2"
_cell_formula_units_Z 56
_cell_length_a 7.310264
_cell_length_b 18.371352
_cell_length_c 25.092156
_cell_angle_alpha 90.000000
_cell_angle_beta 49.262284
_cell_angle_gamma 90.000000
_cell_volume 2553.361252
_symmetry_space_group_name_H-M "C 2/M"
_symmetry_group_IT_number 12
_symmetry_cell_setting 'monoclinic'
loop_
_space_group_symop_operation_xyz
x,y,z
-x,y,-z
-x,-y,-z
x,-y,z
1/2+x,1/2+y,z
1/2-x,1/2+y,-z
1/2-x,1/2-y,-z
1/2+x,1/2-y,z
loop_
_atom_site_type_symbol
_atom_site_label
_atom_site_fract_x
_atom_site_fract_y
_atom_site_fract_z
Si Si1 0.046209 0.148235 0.769285
Si Si2 0.825954 0.085287 0.650615
Si Si3 0.538770 0.182087 0.223711
Si Si4 0.822996 0.360674 0.076244
Si Si5 0.077571 0.195649 0.927680
Si Si6 0.195833 0.164700 0.509453
Si Si7 0.938487 0.582134 0.625450
O O1 0.257388 0.156303 0.773578
O O2 0.178789 0.106255 0.696764
O O3 0.994898 0.231473 0.761657
O O4 0.814134 0.113374 0.843873
O O5 0.695096 0.133640 0.720787
O O6 0.630159 0.085818 0.638683
O O7 0.064489 0.126889 0.584492
O O8 0.865534 0.000000 0.655939
O O9 0.655235 0.175800 0.142984
O O10 0.946260 0.283393 0.068212
O O11 0.603633 0.336930 0.080201
O O12 0.000000 0.400661 0.000000
O O13 0.000000 0.169055 0.000000
O O14 0.250000 0.250000 0.500000
O O15 0.444302 0.129096 0.443298
O O16 0.000000 0.152631 0.500000
O O17 0.928274 0.500000 0.609058
#
# Coordination Sequence:
#
# PCOD9179696 Si02
#       7
#     8   8   8   8   8   8   8
#     4   9  17  28  44  66  90 117 149 186 226 265
#     4   9  17  30  48  69  92 119 153 187 217 258
#     4   9  17  28  44  66  90 117 149 186 226 265
#     4   9  15  23  37  59  85 112 143 180 223 264
#     4   9  15  23  37  59  85 112 143 180 223 264
#     4  10  19  31  51  75  95 118 148 184 224 262
#     4   9  17  30  48  69  92 119 153 187 217 258
#
# _framework density 21.931875000000002
#
# number of rings (size 3 to 8) (size 9 to 14) (size 15 to 20)
#    0.000    2.857    0.000    3.000    0.000    2.857 
#    0.000    0.000    0.000    5.143    0.000    0.000 
#    0.000    0.000    0.000    0.000    0.000    7.714 
#
# Total GULP energy -156155.197771 kJ/mol
# GULP energy per Si atom -5576.971349 kJ/mol
# Density = 2.188196 g / cm^3
# Si number density = 21.931875 Si / 1000 Ang^3
#
#
#
# Elastic Constant Matrix: (Units=GPa)
#
#
# Indices 1 2 3 4 5 6 
#
# 1 44.3091 -10.3407 -3.7702 -0.0007 -7.6867 0.0001
# 2 -10.3407 103.7264 94.9564 -0.0003 -4.3160 0.0003
# 3 -3.7702 94.9564 222.4498 -0.0019 -12.1491 0.0004
# 4 -0.0007 -0.0003 -0.0019 -18.6767 0.0002 7.3266
# 5 -7.6867 -4.3160 -12.1491 0.0002 22.8163 0.0003
# 6 0.0001 0.0003 0.0004 7.3266 0.0003 11.3501
#
#
#
# Elastic Compliance Matrix: (Units=1/GPa)
#
#
# Indices 1 2 3 4 5 6 
#
# 1 0.024807 0.003308 -0.000516 -0.000001 0.008708 0.000000
# 2 0.003308 0.016274 -0.006861 0.000000 0.000539 0.000000
# 3 -0.000516 -0.006861 0.007555 -0.000001 0.002551 0.000000
# 4 -0.000001 0.000000 -0.000001 -0.042724 0.000000 0.027579
# 5 0.008708 0.000539 0.002551 0.000000 0.048223 -0.000001
# 6 0.000000 0.000000 0.000000 0.027579 -0.000001 0.070303
#
#
# Mechanical properties :
#
#
# Convention : Reuss Voigt Hill
#
# Bulk Modulus (GPa) = 24.69291 59.13072 41.91181
# Shear Modulus (GPa) = 34.22869 22.40726 28.31797
#
# Velocity S-wave (km/s) = 3.95483 3.19983 3.59720
# Velocity P-wave (km/s) = 5.66901 6.37742 6.03362
#
# Compressibility (1/GPa) = 0.04049745
#
# Stress axis : x y z
#
# Youngs Moduli (GPa) = 40.31042 61.44686 132.36474
#
# Poissons Ratio (x) = -0.20325 0.06829
# Poissons Ratio (y) = -0.13334 0.90821
# Poissons Ratio (z) = 0.02080 0.42161
#
# Static dielectric constant tensor:
#      x y z
#    x 1.892870 0.000000 -0.000250 
#    y 0.000000 1.752650 0.000000 
#    z -0.000250 0.000000 1.872080 
# 
# From -- ./inp_files/372777.got.cif
#   From: 2010.05.17/outbox.cif.g08.bks.cpg/sg12_187_cif.got.tgz:372777.got - 2010.06.03 13:09:07.
