data_PCOD9179486
_publ_section_title
;
Structure prediction by ZEFSAII (Michael W. Deem and Ramdas Pophale) SiO2 
 PCOD9179486
Probable space group: C 2/M
;
_chemical_formula_sum "Si O2"
_cell_formula_units_Z 48
_cell_length_a 28.263567
_cell_length_b 8.771707
_cell_length_c 13.937650
_cell_angle_alpha 90.000000
_cell_angle_beta 120.816501
_cell_angle_gamma 90.000000
_cell_volume 2967.556154
_symmetry_space_group_name_H-M "C 2/M"
_symmetry_group_IT_number 12
_symmetry_cell_setting 'monoclinic'
loop_
_space_group_symop_operation_xyz
x,y,z
-x,y,-z
-x,-y,-z
x,-y,z
1/2+x,1/2+y,z
1/2-x,1/2+y,-z
1/2-x,1/2-y,-z
1/2+x,1/2-y,z
loop_
_atom_site_type_symbol
_atom_site_label
_atom_site_fract_x
_atom_site_fract_y
_atom_site_fract_z
Si Si1 0.163733 0.681385 0.869249
Si Si2 0.333187 0.182889 0.552269
Si Si3 0.060095 0.316621 0.459080
Si Si4 0.721499 0.318364 0.323194
Si Si5 0.766798 0.681465 0.870151
Si Si6 0.442199 0.681784 0.331512
O O1 0.156219 0.500000 0.852337
O O2 0.210295 0.736406 0.842698
O O3 0.106987 0.765242 0.787934
O O4 0.188877 0.715500 0.000269
O O5 0.390242 0.223896 0.560461
O O6 0.321392 0.263186 0.640899
O O7 0.281927 0.221400 0.429074
O O8 0.332062 0.000000 0.565162
O O9 0.057733 0.500000 0.465418
O O10 0.070270 0.246201 0.574825
O O11 0.001074 0.253236 0.364657
O O12 0.718855 0.500000 0.309029
O O13 0.714608 0.238385 0.214120
O O14 0.757663 0.500000 0.860148
O O15 0.446344 0.500000 0.339674
#
# Coordination Sequence:
#
# PCOD9179486 Si02
#       6
#     8   8   8   8   8   8
#     4  10  20  34  51  72  99 131 165 199 242 292
#     4   9  19  33  49  71  98 130 165 199 238 286
#     4  10  19  33  52  72  99 133 166 202 244 290
#     4  10  19  31  50  74 101 131 161 197 241 290
#     4  10  20  33  51  74 100 129 162 202 243 288
#     4  11  21  32  49  74 102 130 163 203 245 290
#
# _framework density 16.174925999999999
#
# number of rings (size 3 to 8) (size 9 to 14) (size 15 to 20)
#    0.000    2.000    0.000    5.500    0.000    5.333 
#    0.000    0.000    0.000    1.000    0.000    7.000 
#    0.000    0.000    0.000    0.000    0.000    0.000 
#
# Total GULP energy -133995.486357 kJ/mol
# GULP energy per Si atom -5583.145265 kJ/mol
# Density = 1.613811 g / cm^3
# Si number density = 16.174926 Si / 1000 Ang^3
#
#
#
# Elastic Constant Matrix: (Units=GPa)
#
#
# Indices 1 2 3 4 5 6 
#
# 1 129.4291 49.9111 55.6228 0.0000 -4.3975 0.0000
# 2 49.9111 68.4775 36.9234 0.0000 -0.0070 0.0000
# 3 55.6228 36.9234 66.4963 0.0000 -3.5334 0.0000
# 4 0.0000 0.0000 0.0000 24.6486 0.0000 -0.2570
# 5 -4.3975 -0.0070 -3.5334 0.0000 23.0519 0.0000
# 6 0.0000 0.0000 0.0000 -0.2570 0.0000 28.3481
#
#
#
# Elastic Compliance Matrix: (Units=1/GPa)
#
#
# Indices 1 2 3 4 5 6 
#
# 1 0.013308 -0.005330 -0.008103 0.000000 0.001295 0.000000
# 2 -0.005330 0.023052 -0.008464 0.000000 -0.002307 0.000000
# 3 -0.008103 -0.008464 0.026651 0.000000 0.002537 0.000000
# 4 0.000000 0.000000 0.000000 0.040574 0.000000 0.000368
# 5 0.001295 -0.002307 0.002537 0.000000 0.044015 0.000000
# 6 0.000000 0.000000 0.000000 0.000368 0.000000 0.035279
#
#
# Mechanical properties :
#
#
# Convention : Reuss Voigt Hill
#
# Bulk Modulus (GPa) = 52.03972 61.03528 56.53750
# Shear Modulus (GPa) = 21.45173 23.33943 22.39558
#
# Velocity S-wave (km/s) = 3.64570 3.80272 3.72504
# Velocity P-wave (km/s) = 7.06855 7.55628 7.31648
#
# Compressibility (1/GPa) = 0.01921609
#
# Stress axis : x y z
#
# Youngs Moduli (GPa) = 75.14107 43.37999 37.52155
#
# Poissons Ratio (x) = 0.23124 0.30405
# Poissons Ratio (y) = 0.40054 0.31758
# Poissons Ratio (z) = 0.60890 0.36716
#
# Static dielectric constant tensor:
#      x y z
#    x 1.522730 0.000000 0.007930 
#    y 0.000000 1.538990 0.000000 
#    z 0.007930 0.000000 1.528770 
# 
# From -- ./inp_files/180259.got.cif
#   From: 2010.05.17/outbox.cif.g08.bks.cpg/sg12_91_cif.got.tgz:180259.got - 2010.06.03 13:09:07.
