data_PCOD9179500
_publ_section_title
;
Structure prediction by ZEFSAII (Michael W. Deem and Ramdas Pophale) SiO2 
 PCOD9179500
Probable space group: C 2/M
;
_chemical_formula_sum "Si O2"
_cell_formula_units_Z 48
_cell_length_a 19.819735
_cell_length_b 7.294676
_cell_length_c 13.526496
_cell_angle_alpha 90.000000
_cell_angle_beta 100.857232
_cell_angle_gamma 90.000000
_cell_volume 1920.634332
_symmetry_space_group_name_H-M "C 2/M"
_symmetry_group_IT_number 12
_symmetry_cell_setting 'monoclinic'
loop_
_space_group_symop_operation_xyz
x,y,z
-x,y,-z
-x,-y,-z
x,-y,z
1/2+x,1/2+y,z
1/2-x,1/2+y,-z
1/2-x,1/2-y,-z
1/2+x,1/2-y,z
loop_
_atom_site_type_symbol
_atom_site_label
_atom_site_fract_x
_atom_site_fract_y
_atom_site_fract_z
Si Si1 0.990444 0.722881 0.317425
Si Si2 0.364974 0.223277 0.569401
Si Si3 0.032694 0.277116 0.905561
Si Si4 0.339810 0.778113 0.345838
Si Si5 0.193119 0.710302 0.240192
Si Si6 0.325664 0.781361 0.980279
O O1 0.989699 0.500000 0.319380
O O2 0.001039 0.781108 0.206492
O O3 0.915104 0.780939 0.331221
O O4 0.054907 0.776817 0.401853
O O5 0.331560 0.282634 0.457514
O O6 0.330412 0.289026 0.661276
O O7 0.361879 0.000000 0.566897
O O8 0.028867 0.500000 0.903425
O O9 0.112472 0.220023 0.932788
O O10 0.000000 0.217695 0.000000
O O11 0.275759 0.712765 0.264175
O O12 0.338435 0.000000 0.341166
O O13 0.168195 0.500000 0.234649
O O14 0.168085 0.791573 0.129917
O O15 0.333650 0.000000 0.975329
O O16 0.250000 0.750000 0.000000
#
# Coordination Sequence:
#
# PCOD9179500 Si02
#       6
#     8   8   8   8   8   8
#     4   9  16  27  46  71  95 120 156 201 242 279
#     4   9  17  30  48  71  98 127 160 198 240 283
#     4   9  16  27  45  69  95 122 156 199 241 280
#     4  10  19  31  50  74  98 125 160 202 241 279
#     4  10  20  33  49  70  99 132 161 192 235 288
#     4  10  20  33  50  73  99 127 159 196 239 285
#
# _framework density 24.991743
#
# number of rings (size 3 to 8) (size 9 to 14) (size 15 to 20)
#    0.000    2.500    0.000    3.000    0.000    8.000 
#    0.000    0.000    0.000    3.500    0.000    0.000 
#    0.000    0.000    0.000    0.000    0.000    0.000 
#
# Total GULP energy -134233.401478 kJ/mol
# GULP energy per Si atom -5593.058395 kJ/mol
# Density = 2.493486 g / cm^3
# Si number density = 24.991743 Si / 1000 Ang^3
#
#
#
# Elastic Constant Matrix: (Units=GPa)
#
#
# Indices 1 2 3 4 5 6 
#
# 1 55.7988 -13.9609 -22.9368 0.0000 -0.4079 0.0000
# 2 -13.9609 104.5881 -2.0804 0.0000 -3.2551 0.0000
# 3 -22.9368 -2.0804 90.0814 0.0000 5.7229 0.0000
# 4 0.0000 0.0000 0.0000 -4.0501 0.0000 5.2533
# 5 -0.4079 -3.2551 5.7229 0.0000 45.2922 0.0000
# 6 0.0000 0.0000 0.0000 5.2533 0.0000 9.1646
#
#
#
# Elastic Compliance Matrix: (Units=1/GPa)
#
#
# Indices 1 2 3 4 5 6 
#
# 1 0.020859 0.002883 0.005396 0.000000 -0.000287 0.000000
# 2 0.002883 0.009984 0.000925 0.000000 0.000627 0.000000
# 3 0.005396 0.000925 0.012590 0.000000 -0.001476 0.000000
# 4 0.000000 0.000000 0.000000 -0.141617 0.000000 0.081177
# 5 -0.000287 0.000627 -0.001476 0.000000 0.022308 0.000000
# 6 0.000000 0.000000 0.000000 0.081177 0.000000 0.062584
#
#
# Mechanical properties :
#
#
# Convention : Reuss Voigt Hill
#
# Bulk Modulus (GPa) = 16.17083 19.16801 17.66942
# Shear Modulus (GPa) = -451.00678 29.37779 -210.81450
#
# Velocity S-wave (km/s) = -13.44820 3.43228 -9.19439
# Velocity P-wave (km/s) = 15.31843 4.83671 10.27766
#
# Compressibility (1/GPa) = 0.06183973
#
# Stress axis : x y z
#
# Youngs Moduli (GPa) = 47.94152 100.16005 79.42741
#
# Poissons Ratio (x) = -0.28873 -0.42858
# Poissons Ratio (y) = -0.13820 -0.07345
# Poissons Ratio (z) = -0.25869 -0.09263
#
# Static dielectric constant tensor:
#      x y z
#    x 1.956570 0.000000 -0.024490 
#    y 0.000000 2.018360 0.000000 
#    z -0.024490 0.000000 1.916600 
# 
# From -- ./inp_files/153505.got.cif
#   From: 2010.05.17/outbox.cif.g08.bks.cpg/sg12_77_cif.got.tgz:153505.got - 2010.06.03 13:09:07.
