data_PCOD9179323
_publ_section_title
;
Structure prediction by ZEFSAII (Michael W. Deem and Ramdas Pophale) SiO2 
 PCOD9179323
Probable space group: C 2/M
;
_chemical_formula_sum "Si O2"
_cell_formula_units_Z 40
_cell_length_a 16.158514
_cell_length_b 7.517335
_cell_length_c 13.723719
_cell_angle_alpha 90.000000
_cell_angle_beta 118.092825
_cell_angle_gamma 90.000000
_cell_volume 1470.609016
_symmetry_space_group_name_H-M "C 2/M"
_symmetry_group_IT_number 12
_symmetry_cell_setting 'monoclinic'
loop_
_space_group_symop_operation_xyz
x,y,z
-x,y,-z
-x,-y,-z
x,-y,z
1/2+x,1/2+y,z
1/2-x,1/2+y,-z
1/2-x,1/2-y,-z
1/2+x,1/2-y,z
loop_
_atom_site_type_symbol
_atom_site_label
_atom_site_fract_x
_atom_site_fract_y
_atom_site_fract_z
Si Si1 0.805803 0.287060 0.930524
Si Si2 0.874908 0.295413 0.470426
Si Si3 0.155427 0.718354 0.335457
Si Si4 0.511547 0.204609 0.873174
Si Si5 0.119582 0.791832 0.740252
O O1 0.815974 0.500000 0.923838
O O2 0.910995 0.217451 0.009993
O O3 0.750000 0.250000 0.000000
O O4 0.728094 0.226917 0.809640
O O5 0.901782 0.500000 0.491600
O O6 0.889340 0.217933 0.586436
O O7 0.762043 0.279609 0.395865
O O8 0.913675 0.226685 0.389222
O O9 0.157429 0.500000 0.335292
O O10 0.090296 0.780094 0.210158
O O11 0.561749 0.201964 0.794404
O O12 0.496257 0.000000 0.892162
O O13 0.119314 0.000000 0.764397
#
# Coordination Sequence:
#
# PCOD9179323 Si02
#       5
#     8   8   8   8   8
#     4   8  15  28  47  70  95 124 155 190 234 280
#     4  10  20  34  51  70  95 128 162 196 238 285
#     4   9  19  35  53  71  93 124 161 200 241 284
#     4   9  17  32  53  74  96 123 158 199 240 280
#     4  10  19  31  49  74 101 127 158 194 233 281
#
# _framework density 27.199615000000001
#
# number of rings (size 3 to 8) (size 9 to 14) (size 15 to 20)
#    0.000    2.800    0.000    1.200    0.000    3.200 
#    0.000    5.000    0.000    6.000    0.000    0.000 
#    0.000    0.000    0.000    0.000    0.000    0.000 
#
# Total GULP energy -111803.479347 kJ/mol
# GULP energy per Si atom -5590.173967 kJ/mol
# Density = 2.713771 g / cm^3
# Si number density = 27.199615 Si / 1000 Ang^3
#
#
#
# Elastic Constant Matrix: (Units=GPa)
#
#
# Indices 1 2 3 4 5 6 
#
# 1 114.1756 1.6560 20.4984 0.0000 -1.6224 0.0000
# 2 1.6560 85.3937 -4.7729 0.0000 -7.1871 0.0000
# 3 20.4984 -4.7729 196.5926 0.0000 1.2099 0.0000
# 4 0.0000 0.0000 0.0000 4.4135 0.0000 8.3154
# 5 -1.6224 -7.1871 1.2099 0.0000 66.1376 0.0000
# 6 0.0000 0.0000 0.0000 8.3154 0.0000 6.0519
#
#
#
# Elastic Compliance Matrix: (Units=1/GPa)
#
#
# Indices 1 2 3 4 5 6 
#
# 1 0.008933 -0.000208 -0.000938 0.000000 0.000214 0.000000
# 2 -0.000208 0.011839 0.000301 0.000000 0.001276 0.000000
# 3 -0.000938 0.000301 0.005192 0.000000 -0.000085 0.000000
# 4 0.000000 0.000000 0.000000 -0.142612 0.000000 0.195952
# 5 0.000214 0.001276 -0.000085 0.000000 0.015265 0.000000
# 6 0.000000 0.000000 0.000000 0.195952 0.000000 -0.104005
#
#
# Mechanical properties :
#
#
# Convention : Reuss Voigt Hill
#
# Bulk Modulus (GPa) = 41.19394 47.88055 44.53724
# Shear Modulus (GPa) = -25.56151 40.57263 7.50556
#
# Velocity S-wave (km/s) = -3.06890 3.86639 1.66296
# Velocity P-wave (km/s) = 1.61876 6.12973 4.48297
#
# Compressibility (1/GPa) = 0.02427542
#
# Stress axis : x y z
#
# Youngs Moduli (GPa) = 111.94638 84.46869 192.59365
#
# Poissons Ratio (x) = 0.01754 0.18061
# Poissons Ratio (y) = 0.02325 -0.05801
# Poissons Ratio (z) = 0.10498 -0.02544
#
# Static dielectric constant tensor:
#      x y z
#    x 2.222630 0.000000 0.028920 
#    y 0.000000 2.068500 0.000000 
#    z 0.028920 0.000000 2.147020 
# 
# From -- ./inp_files/211445.got.cif
#   From: 2010.05.17/outbox.cif.g08.bks.cpg/sg12_106_cif.got.tgz:211445.got - 2010.06.03 13:09:07.
