data_PCOD9179590
_publ_section_title
;
Structure prediction by ZEFSAII (Michael W. Deem and Ramdas Pophale) SiO2 
 PCOD9179590
Probable space group: C 2/M
;
_chemical_formula_sum "Si O2"
_cell_formula_units_Z 64
_cell_length_a 27.692731
_cell_length_b 7.375105
_cell_length_c 19.468270
_cell_angle_alpha 90.000000
_cell_angle_beta 134.164981
_cell_angle_gamma 90.000000
_cell_volume 2852.228616
_symmetry_space_group_name_H-M "C 2/M"
_symmetry_group_IT_number 12
_symmetry_cell_setting 'monoclinic'
loop_
_space_group_symop_operation_xyz
x,y,z
-x,y,-z
-x,-y,-z
x,-y,z
1/2+x,1/2+y,z
1/2-x,1/2+y,-z
1/2-x,1/2-y,-z
1/2+x,1/2-y,z
loop_
_atom_site_type_symbol
_atom_site_label
_atom_site_fract_x
_atom_site_fract_y
_atom_site_fract_z
Si Si1 0.206734 0.778183 0.663801
Si Si2 0.681434 0.221519 0.117881
Si Si3 0.286883 0.784107 0.608244
Si Si4 0.057997 0.278083 0.255482
Si Si5 0.569173 0.284148 0.600437
Si Si6 0.465006 0.792647 0.037847
Si Si7 0.552109 0.782258 0.746229
Si Si8 0.678481 0.215022 0.960932
O O1 0.262173 0.718909 0.774148
O O2 0.237895 0.718368 0.621384
O O3 0.134596 0.716889 0.622897
O O4 0.203704 0.000000 0.658546
O O5 0.683730 0.000000 0.124892
O O6 0.606113 0.287612 0.054210
O O7 0.689957 0.281651 0.048793
O O8 0.250000 0.750000 0.500000
O O9 0.364631 0.717099 0.679245
O O10 0.292982 0.000000 0.625460
O O11 0.060350 0.500000 0.257671
O O12 0.011053 0.218489 0.144658
O O13 0.017749 0.223314 0.285400
O O14 0.500000 0.211096 0.500000
O O15 0.569825 0.500000 0.590456
O O16 0.566060 0.259867 0.680053
O O17 0.450944 0.000000 0.047807
O O18 0.500000 0.801274 0.000000
O O19 0.614829 0.714315 0.854886
O O20 0.551223 0.000000 0.748946
O O21 0.667152 0.000000 0.954167
O O22 0.750000 0.250000 0.000000
#
# Coordination Sequence:
#
# PCOD9179590 Si02
#       8
#     8   8   8   8   8   8   8   8
#     4   9  18  33  51  74 105 137 174 217 262 313
#     4   9  15  26  45  71 101 132 162 201 251 298
#     4  10  21  36  56  79 104 137 174 219 271 317
#     4   9  17  31  49  76 111 139 169 214 267 320
#     4  10  22  38  56  77 103 141 185 227 268 315
#     4   9  14  22  42  72 103 132 163 202 250 302
#     4  10  20  35  54  80 113 143 175 219 271 324
#     4  10  19  31  50  76 108 142 174 210 254 306
#
# _framework density 22.438594999999999
#
# number of rings (size 3 to 8) (size 9 to 14) (size 15 to 20)
#    0.000    2.500    1.250    1.500    1.750    4.750 
#    0.000    0.625    0.000    0.750    0.000    0.000 
#    0.000    2.500    0.000    0.000    0.000    0.000 
#
# Total GULP energy -178368.029317 kJ/mol
# GULP energy per Si atom -5574.000916 kJ/mol
# Density = 2.238752 g / cm^3
# Si number density = 22.438595 Si / 1000 Ang^3
#
#
#
# Elastic Constant Matrix: (Units=GPa)
#
#
# Indices 1 2 3 4 5 6 
#
# 1 246.2589 10.4813 125.1916 0.0000 15.1079 0.0000
# 2 10.4813 77.1780 1.6082 0.0000 3.6382 0.0001
# 3 125.1916 1.6082 184.7639 0.0000 7.2062 0.0000
# 4 0.0000 0.0000 0.0000 8.9159 0.0000 -17.2527
# 5 15.1079 3.6382 7.2062 0.0000 37.5695 0.0000
# 6 0.0000 0.0001 0.0000 -17.2527 0.0000 14.1709
#
#
#
# Elastic Compliance Matrix: (Units=1/GPa)
#
#
# Indices 1 2 3 4 5 6 
#
# 1 0.006341 -0.000694 -0.004225 0.000000 -0.001672 0.000000
# 2 -0.000694 0.013093 0.000398 0.000000 -0.001065 0.000000
# 3 -0.004225 0.000398 0.008269 0.000000 0.000074 0.000000
# 4 0.000000 0.000000 0.000000 -0.082722 0.000000 -0.100712
# 5 -0.001672 -0.001065 0.000074 0.000000 0.027379 0.000000
# 6 0.000000 0.000000 0.000000 -0.100712 0.000000 -0.052046
#
#
# Mechanical properties :
#
#
# Convention : Reuss Voigt Hill
#
# Bulk Modulus (GPa) = 53.59036 86.97367 70.28201
# Shear Modulus (GPa) = -77.61094 36.85925 -20.37584
#
# Velocity S-wave (km/s) = -5.88755 4.05739 -3.01669
# Velocity P-wave (km/s) = 4.72045 7.79710 4.38817
#
# Compressibility (1/GPa) = 0.01866007
#
# Stress axis : x y z
#
# Youngs Moduli (GPa) = 157.70728 76.37517 120.93649
#
# Poissons Ratio (x) = 0.05302 0.51098
# Poissons Ratio (y) = 0.10949 -0.04813
# Poissons Ratio (z) = 0.66634 -0.03040
#
# Static dielectric constant tensor:
#      x y z
#    x 1.783310 0.000000 0.011810 
#    y 0.000000 1.914300 0.000000 
#    z 0.011810 0.000000 1.786170 
# 
# From -- ./inp_files/289130.got.cif
#   From: 2010.05.17/outbox.cif.g08.bks.cpg/sg12_145_cif.got.tgz:289130.got - 2010.06.03 13:09:07.
