data_PCOD9179008
_publ_section_title
;
Structure prediction by ZEFSAII (Michael W. Deem and Ramdas Pophale) SiO2 
 PCOD9179008
Probable space group: C 2/M
;
_chemical_formula_sum "Si O2"
_cell_formula_units_Z 40
_cell_length_a 14.132580
_cell_length_b 8.077416
_cell_length_c 18.216547
_cell_angle_alpha 90.000000
_cell_angle_beta 55.757107
_cell_angle_gamma 90.000000
_cell_volume 1719.042645
_symmetry_space_group_name_H-M "C 2/M"
_symmetry_group_IT_number 12
_symmetry_cell_setting 'monoclinic'
loop_
_space_group_symop_operation_xyz
x,y,z
-x,y,-z
-x,-y,-z
x,-y,z
1/2+x,1/2+y,z
1/2-x,1/2+y,-z
1/2-x,1/2-y,-z
1/2+x,1/2-y,z
loop_
_atom_site_type_symbol
_atom_site_label
_atom_site_fract_x
_atom_site_fract_y
_atom_site_fract_z
Si Si1 0.919215 0.312286 0.599773
Si Si2 0.460999 0.500000 0.896517
Si Si3 0.275504 0.318683 0.787409
Si Si4 0.723972 0.805828 0.593075
Si Si5 0.309619 0.500000 0.100106
Si Si6 0.045986 0.316884 0.784429
O O1 0.958181 0.500000 0.599921
O O2 0.884294 0.210919 0.686743
O O3 0.798726 0.314627 0.610281
O O4 0.000000 0.241069 0.500000
O O5 0.575580 0.500000 0.898450
O O6 0.470793 0.665257 0.844055
O O7 0.354195 0.500000 0.997832
O O8 0.281087 0.500000 0.819567
O O9 0.259232 0.164088 0.847718
O O10 0.160718 0.318963 0.786024
O O11 0.750000 0.750000 0.500000
O O12 0.596386 0.794483 0.680573
O O13 0.756939 0.000000 0.588349
O O14 0.994004 0.500000 0.813855
#
# Coordination Sequence:
#
# PCOD9179008 Si02
#       6
#     8   4   8   8   4   8
#     4  10  19  31  48  69  96 131 163 197 239 284
#     4   9  16  24  42  56  84 122 145 194 231 276
#     4   9  16  27  42  59  87 121 152 189 231 281
#     4  10  20  31  47  69  95 130 163 198 236 284
#     4   9  16  26  37  62  84 114 159 184 233 282
#     4   8  16  27  39  60  85 117 154 184 231 278
#
# _framework density 23.268764999999998
#
# number of rings (size 3 to 8) (size 9 to 14) (size 15 to 20)
#    0.000    2.800    1.000    2.400    5.600    2.400 
#    0.000    4.000    0.000    0.000    0.000    0.000 
#    0.000    1.600    0.800    0.000    0.000    0.000 
#
# Total GULP energy -111675.543107 kJ/mol
# GULP energy per Si atom -5583.777155 kJ/mol
# Density = 2.321580 g / cm^3
# Si number density = 23.268765 Si / 1000 Ang^3
#
#
#
# Elastic Constant Matrix: (Units=GPa)
#
#
# Indices 1 2 3 4 5 6 
#
# 1 59.9929 18.7797 -8.9053 0.0000 0.9278 0.0000
# 2 18.7797 207.0018 133.3679 0.0000 -11.2678 0.0001
# 3 -8.9053 133.3679 182.0552 0.0000 -12.6302 0.0000
# 4 0.0000 0.0000 0.0000 4.8696 0.0000 5.5571
# 5 0.9278 -11.2678 -12.6302 0.0000 12.0525 0.0000
# 6 0.0000 0.0001 0.0000 5.5571 0.0000 13.9362
#
#
#
# Elastic Compliance Matrix: (Units=1/GPa)
#
#
# Indices 1 2 3 4 5 6 
#
# 1 0.018641 -0.004339 0.004001 0.000000 -0.001300 0.000000
# 2 -0.004339 0.010190 -0.007541 0.000000 0.001958 0.000000
# 3 0.004001 -0.007541 0.011542 0.000000 0.004737 0.000000
# 4 0.000000 0.000000 0.000000 0.376824 0.000000 -0.150258
# 5 -0.001300 0.001958 0.004737 0.000000 0.089865 0.000000
# 6 0.000000 0.000000 0.000000 -0.150258 0.000000 0.131671
#
#
# Mechanical properties :
#
#
# Convention : Reuss Voigt Hill
#
# Bulk Modulus (GPa) = 40.63006 81.72606 61.17806
# Shear Modulus (GPa) = 7.54494 26.55884 17.05189
#
# Velocity S-wave (km/s) = 1.80265 3.38212 2.71001
# Velocity P-wave (km/s) = 4.67246 7.10285 6.01175
#
# Compressibility (1/GPa) = 0.02461232
#
# Stress axis : x y z
#
# Youngs Moduli (GPa) = 53.64539 98.13770 86.64356
#
# Poissons Ratio (x) = 0.42586 -0.34662
# Poissons Ratio (y) = 0.23279 0.65339
# Poissons Ratio (z) = -0.21461 0.74007
#
# Static dielectric constant tensor:
#      x y z
#    x 2.163030 0.000000 -0.023680 
#    y 0.000000 1.841290 0.000000 
#    z -0.023680 0.000000 1.872120 
# 
# From -- ./inp_files/280727.got.cif
#   From: 2010.05.17/outbox.cif.g08.bks.cpg/sg12_141_cif.got.tgz:280727.got - 2010.06.03 13:09:07.
