data_PCOD9179421
_publ_section_title
;
Structure prediction by ZEFSAII (Michael W. Deem and Ramdas Pophale) SiO2 
 PCOD9179421
Probable space group: C 2/M
;
_chemical_formula_sum "Si O2"
_cell_formula_units_Z 48
_cell_length_a 14.794757
_cell_length_b 14.647025
_cell_length_c 13.837771
_cell_angle_alpha 90.000000
_cell_angle_beta 139.523970
_cell_angle_gamma 90.000000
_cell_volume 1946.502623
_symmetry_space_group_name_H-M "C 2/M"
_symmetry_group_IT_number 12
_symmetry_cell_setting 'monoclinic'
loop_
_space_group_symop_operation_xyz
x,y,z
-x,y,-z
-x,-y,-z
x,-y,z
1/2+x,1/2+y,z
1/2-x,1/2+y,-z
1/2-x,1/2-y,-z
1/2+x,1/2-y,z
loop_
_atom_site_type_symbol
_atom_site_label
_atom_site_fract_x
_atom_site_fract_y
_atom_site_fract_z
Si Si1 0.869408 0.743080 0.020480
Si Si2 0.365697 0.194220 0.462089
Si Si3 0.123120 0.099294 0.518995
Si Si4 0.011313 0.396946 0.743187
Si Si5 0.665680 0.906292 0.145458
Si Si6 0.292778 0.606137 0.837779
O O1 0.979668 0.680450 0.166651
O O2 0.750000 0.750000 0.000000
O O3 0.794500 0.684010 0.876411
O O4 0.900112 0.838567 0.994376
O O5 0.500000 0.190605 0.500000
O O6 0.371935 0.296373 0.513959
O O7 0.388348 0.124564 0.568491
O O8 0.242792 0.159581 0.291111
O O9 0.266330 0.094269 0.695448
O O10 0.000000 0.099503 0.500000
O O11 0.107792 0.000000 0.454311
O O12 0.005442 0.500000 0.777537
O O13 0.151241 0.392925 0.789669
O O14 0.718267 0.000000 0.139854
O O15 0.500000 0.907078 0.000000
O O16 0.326174 0.500000 0.847634
#
# Coordination Sequence:
#
# PCOD9179421 Si02
#       6
#     8   8   8   8   8   8
#     4  10  19  31  49  78 109 142 180 241 290 335
#     4   9  15  26  45  68 100 134 174 225 274 330
#     4   9  17  29  49  78 106 138 186 235 279 329
#     4   9  17  27  43  70 103 135 174 229 287 328
#     4  10  20  35  56  82 113 151 192 236 289 349
#     4   9  16  27  43  68  98 135 178 223 274 331
#
# _framework density 24.659611999999999
#
# number of rings (size 3 to 8) (size 9 to 14) (size 15 to 20)
#    0.000    2.667    1.667    1.000    2.333    2.667 
#    0.000    0.833    0.000    1.500    0.000    0.000 
#    0.000    0.000    0.000    0.000    0.000    0.000 
#
# Total GULP energy -133765.267893 kJ/mol
# GULP energy per Si atom -5573.552829 kJ/mol
# Density = 2.460349 g / cm^3
# Si number density = 24.659612 Si / 1000 Ang^3
#
#
#
# Elastic Constant Matrix: (Units=GPa)
#
#
# Indices 1 2 3 4 5 6 
#
# 1 46.9077 13.8585 14.3051 0.0000 8.1868 0.0000
# 2 13.8585 188.5666 42.6323 0.0000 -26.5415 0.0000
# 3 14.3051 42.6323 106.1572 0.0000 -11.2491 0.0000
# 4 0.0000 0.0000 0.0000 28.1888 0.0000 -9.2650
# 5 8.1868 -26.5415 -11.2491 0.0000 37.3393 0.0000
# 6 0.0000 0.0000 0.0000 -9.2650 0.0000 21.2478
#
#
#
# Elastic Compliance Matrix: (Units=1/GPa)
#
#
# Indices 1 2 3 4 5 6 
#
# 1 0.024313 -0.002158 -0.003241 0.000000 -0.007841 0.000000
# 2 -0.002158 0.006520 -0.001845 0.000000 0.004551 0.000000
# 3 -0.003241 -0.001845 0.010881 0.000000 0.002677 0.000000
# 4 0.000000 0.000000 0.000000 0.041410 0.000000 0.018056
# 5 -0.007841 0.004551 0.002677 0.000000 0.032542 0.000000
# 6 0.000000 0.000000 0.000000 0.018056 0.000000 0.054937
#
#
# Mechanical properties :
#
#
# Convention : Reuss Voigt Hill
#
# Bulk Modulus (GPa) = 36.72881 53.69148 45.21014
# Shear Modulus (GPa) = 25.75128 35.41090 30.58109
#
# Velocity S-wave (km/s) = 3.23502 3.79355 3.52537
# Velocity P-wave (km/s) = 5.37406 6.40378 5.91138
#
# Compressibility (1/GPa) = 0.02722659
#
# Stress axis : x y z
#
# Youngs Moduli (GPa) = 41.13090 153.38474 91.90035
#
# Poissons Ratio (x) = 0.33098 0.29780
# Poissons Ratio (y) = 0.08875 0.16957
# Poissons Ratio (z) = 0.13329 0.28302
#
# Static dielectric constant tensor:
#      x y z
#    x 2.003760 0.000000 0.034810 
#    y 0.000000 0.892430 0.000000 
#    z 0.034810 0.000000 1.921890 
# 
# From -- ./inp_files/166878.got.cif
#   From: 2010.05.17/outbox.cif.g08.bks.cpg/sg12_84_cif.got.tgz:166878.got - 2010.06.03 13:09:07.
