data_PCOD9179905
_publ_section_title
;
Structure prediction by ZEFSAII (Michael W. Deem and Ramdas Pophale) SiO2 
 PCOD9179905
Probable space group: C 2/M
;
_chemical_formula_sum "Si O2"
_cell_formula_units_Z 64
_cell_length_a 25.849029
_cell_length_b 7.350857
_cell_length_c 15.427900
_cell_angle_alpha 90.000000
_cell_angle_beta 107.344536
_cell_angle_gamma 90.000000
_cell_volume 2798.197184
_symmetry_space_group_name_H-M "C 2/M"
_symmetry_group_IT_number 12
_symmetry_cell_setting 'monoclinic'
loop_
_space_group_symop_operation_xyz
x,y,z
-x,y,-z
-x,-y,-z
x,-y,z
1/2+x,1/2+y,z
1/2-x,1/2+y,-z
1/2-x,1/2-y,-z
1/2+x,1/2-y,z
loop_
_atom_site_type_symbol
_atom_site_label
_atom_site_fract_x
_atom_site_fract_y
_atom_site_fract_z
Si Si1 0.216149 0.783865 0.397148
Si Si2 0.373249 0.780058 0.243680
Si Si3 0.599504 0.720212 0.398137
Si Si4 0.363776 0.278115 0.890454
Si Si5 0.056662 0.290897 0.560290
Si Si6 0.570623 0.286935 0.910961
Si Si7 0.753060 0.722129 0.229086
Si Si8 0.045844 0.221753 0.202214
O O1 0.250000 0.750000 0.500000
O O2 0.155753 0.716406 0.384542
O O3 0.244573 0.717254 0.324271
O O4 0.210757 0.000000 0.382209
O O5 0.411009 0.713262 0.341886
O O6 0.398559 0.729404 0.164512
O O7 0.311177 0.717291 0.222970
O O8 0.372243 0.000000 0.248505
O O9 0.599638 0.500000 0.403033
O O10 0.592890 0.788428 0.491985
O O11 0.553288 0.775490 0.306344
O O12 0.362398 0.500000 0.889864
O O13 0.301558 0.220178 0.847961
O O14 0.402258 0.225494 0.829225
O O15 0.393184 0.214067 0.992517
O O16 0.044268 0.500000 0.577953
O O17 0.000000 0.205972 0.500000
O O18 0.563096 0.500000 0.927634
O O19 0.510076 0.212417 0.867453
O O20 0.754044 0.500000 0.227717
O O21 0.044831 0.000000 0.201589
#
# Coordination Sequence:
#
# PCOD9179905 Si02
#       8
#     8   8   8   8   8   8   8   8
#     4  10  19  32  51  75 101 131 169 210 252 302
#     4  10  21  36  52  71 100 141 178 207 249 305
#     4  10  19  31  52  79 103 130 165 211 263 304
#     4   9  16  30  53  79 103 130 168 211 255 305
#     4  10  21  36  52  72 102 141 180 212 247 302
#     4  10  20  32  53  81 103 129 168 216 260 295
#     4   9  17  32  52  72 100 137 173 206 245 305
#     4   9  16  30  51  79 109 130 160 209 261 310
#
# _framework density 22.871867000000002
#
# number of rings (size 3 to 8) (size 9 to 14) (size 15 to 20)
#    0.000    2.375    1.250    1.875    0.000    4.250 
#    0.000    0.625    0.000    3.000    0.000    0.000 
#    0.000    0.000    0.000    0.000    0.000    0.000 
#
# Total GULP energy -178822.261679 kJ/mol
# GULP energy per Si atom -5588.195677 kJ/mol
# Density = 2.281981 g / cm^3
# Si number density = 22.871867 Si / 1000 Ang^3
#
#
#
# Elastic Constant Matrix: (Units=GPa)
#
#
# Indices 1 2 3 4 5 6 
#
# 1 104.8707 -8.5376 21.7178 0.0000 18.8040 0.0000
# 2 -8.5376 83.6627 -13.7114 0.0000 4.5163 0.0000
# 3 21.7178 -13.7114 127.3042 0.0000 26.0603 0.0000
# 4 0.0000 0.0000 0.0000 7.6619 0.0000 -10.3363
# 5 18.8040 4.5163 26.0603 0.0000 38.1094 0.0000
# 6 0.0000 0.0000 0.0000 -10.3363 0.0000 1.6567
#
#
#
# Elastic Compliance Matrix: (Units=1/GPa)
#
#
# Indices 1 2 3 4 5 6 
#
# 1 0.010664 0.001245 -0.000672 0.000000 -0.004950 0.000000
# 2 0.001245 0.012560 0.001827 0.000000 -0.003352 0.000000
# 3 -0.000672 0.001827 0.009468 0.000000 -0.006360 0.000000
# 4 0.000000 0.000000 0.000000 -0.017597 0.000000 -0.109790
# 5 -0.004950 -0.003352 -0.006360 0.000000 0.033429 0.000000
# 6 0.000000 0.000000 0.000000 -0.109790 0.000000 -0.081383
#
#
# Mechanical properties :
#
#
# Convention : Reuss Voigt Hill
#
# Bulk Modulus (GPa) = 26.67214 34.97501 30.82358
# Shear Modulus (GPa) = -198.71528 30.57685 -84.06921
#
# Velocity S-wave (km/s) = -9.33116 3.66030 -6.06930
# Velocity P-wave (km/s) = 10.21799 5.76096 5.96735
#
# Compressibility (1/GPa) = 0.03749230
#
# Stress axis : x y z
#
# Youngs Moduli (GPa) = 93.77704 79.61696 105.61406
#
# Poissons Ratio (x) = -0.09915 0.07095
# Poissons Ratio (y) = -0.11678 -0.19291
# Poissons Ratio (z) = 0.06300 -0.14542
#
# Static dielectric constant tensor:
#      x y z
#    x 1.836550 0.000000 0.023540 
#    y 0.000000 1.900550 0.000000 
#    z 0.023540 0.000000 1.806770 
# 
# From -- ./inp_files/174673.got.cif
#   From: 2010.05.17/outbox.cif.g08.bks.cpg/sg12_88_cif.got.tgz:174673.got - 2010.06.03 13:09:07.
