data_PCOD9179897
_publ_section_title
;
Structure prediction by ZEFSAII (Michael W. Deem and Ramdas Pophale) SiO2 
 PCOD9179897
Probable space group: C 2/M
;
_chemical_formula_sum "Si O2"
_cell_formula_units_Z 56
_cell_length_a 19.876756
_cell_length_b 9.013022
_cell_length_c 26.889344
_cell_angle_alpha 90.000000
_cell_angle_beta 31.324820
_cell_angle_gamma 90.000000
_cell_volume 2504.418747
_symmetry_space_group_name_H-M "C 2/M"
_symmetry_group_IT_number 12
_symmetry_cell_setting 'monoclinic'
loop_
_space_group_symop_operation_xyz
x,y,z
-x,y,-z
-x,-y,-z
x,-y,z
1/2+x,1/2+y,z
1/2-x,1/2+y,-z
1/2-x,1/2-y,-z
1/2+x,1/2-y,z
loop_
_atom_site_type_symbol
_atom_site_label
_atom_site_fract_x
_atom_site_fract_y
_atom_site_fract_z
Si Si1 0.333933 0.672506 0.878912
Si Si2 0.047132 0.829824 0.655878
Si Si3 0.257704 0.322877 0.382875
Si Si4 0.990399 0.321906 0.589156
Si Si5 0.636008 0.673923 0.936675
Si Si6 0.290655 0.673883 0.218593
Si Si7 0.032481 0.675709 0.821672
O O1 0.317799 0.500000 0.901267
O O2 0.438103 0.684631 0.767716
O O3 0.203725 0.740420 0.938462
O O4 0.401026 0.756597 0.882310
O O5 0.180927 0.806306 0.600845
O O6 0.025472 0.724804 0.623074
O O7 0.042328 0.000000 0.640868
O O8 0.265629 0.500000 0.365735
O O9 0.352415 0.232540 0.287510
O O10 0.108693 0.274617 0.479385
O O11 0.986441 0.500000 0.588535
O O12 0.843544 0.270742 0.672676
O O13 0.620977 0.500000 0.959539
O O14 0.724430 0.683801 0.831243
O O15 0.500000 0.727220 0.000000
O O16 0.309649 0.500000 0.218340
O O17 0.415269 0.760212 0.159484
O O18 0.023601 0.500000 0.828060
#
# Coordination Sequence:
#
# PCOD9179897 Si02
#       7
#     8   8   8   8   8   8   8
#     4  10  20  37  61  87 117 153 190 234 288 343
#     4   9  17  29  48  76 111 146 185 235 284 332
#     4   9  19  34  50  76 112 152 195 237 285 336
#     4  10  19  31  52  78 109 151 195 236 284 339
#     4  10  21  39  65  95 122 147 183 232 284 344
#     4  10  21  38  58  83 117 154 189 233 289 342
#     4  11  23  38  58  82 113 155 200 240 282 337
#
# _framework density 22.360476999999999
#
# number of rings (size 3 to 8) (size 9 to 14) (size 15 to 20)
#    0.000    2.143    1.429    3.000    0.000    4.857 
#    0.000    3.571    0.000    0.000    0.000    0.000 
#    0.000    0.000    0.000    0.000    0.000    0.000 
#
# Total GULP energy -156488.927236 kJ/mol
# GULP energy per Si atom -5588.890258 kJ/mol
# Density = 2.230958 g / cm^3
# Si number density = 22.360477 Si / 1000 Ang^3
#
#
#
# Elastic Constant Matrix: (Units=GPa)
#
#
# Indices 1 2 3 4 5 6 
#
# 1 134.7880 65.1687 34.4292 -0.0008 -27.0811 0.0029
# 2 65.1687 74.4016 21.5884 -0.0017 -22.1098 0.0050
# 3 34.4292 21.5884 93.2686 0.0000 -28.9313 0.0010
# 4 -0.0008 -0.0017 0.0000 12.7441 0.0004 -11.9831
# 5 -27.0811 -22.1098 -28.9313 0.0004 42.6901 -0.0017
# 6 0.0029 0.0050 0.0010 -11.9831 -0.0017 24.3827
#
#
#
# Elastic Compliance Matrix: (Units=1/GPa)
#
#
# Indices 1 2 3 4 5 6 
#
# 1 0.013425 -0.010700 -0.001971 0.000000 0.001639 0.000001
# 2 -0.010700 0.024565 0.000133 -0.000001 0.006025 -0.000004
# 3 -0.001971 0.000133 0.013994 0.000000 0.008302 0.000000
# 4 0.000000 -0.000001 0.000000 0.145881 0.000001 0.071695
# 5 0.001639 0.006025 0.008302 0.000001 0.033211 0.000001
# 6 0.000001 -0.000004 0.000000 0.071695 0.000001 0.076248
#
#
# Mechanical properties :
#
#
# Convention : Reuss Voigt Hill
#
# Bulk Modulus (GPa) = 37.16427 60.53674 48.85050
# Shear Modulus (GPa) = 14.64688 28.04817 21.34752
#
# Velocity S-wave (km/s) = 2.56214 3.54554 3.09317
# Velocity P-wave (km/s) = 5.04077 6.62518 5.88653
#
# Compressibility (1/GPa) = 0.02690757
#
# Stress axis : x y z
#
# Youngs Moduli (GPa) = 74.48640 40.70862 71.46051
#
# Poissons Ratio (x) = 0.43560 0.14082
# Poissons Ratio (y) = 0.79703 -0.00949
# Poissons Ratio (z) = 0.14678 -0.00541
#
# Static dielectric constant tensor:
#      x y z
#    x 1.826590 0.000000 0.011490 
#    y 0.000000 1.752200 0.000000 
#    z 0.011490 0.000000 1.902770 
# 
# From -- ./inp_files/380590.got.cif
#   From: 2010.05.17/outbox.cif.g08.bks.cpg/sg12_191_cif.got.tgz:380590.got - 2010.06.03 13:09:07.
