data_PCOD9179977
_publ_section_title
;
Structure prediction by ZEFSAII (Michael W. Deem and Ramdas Pophale) SiO2 
 PCOD9179977
Probable space group: C 2/M
;
_chemical_formula_sum "Si O2"
_cell_formula_units_Z 56
_cell_length_a 30.477920
_cell_length_b 8.813289
_cell_length_c 17.223234
_cell_angle_alpha 90.000000
_cell_angle_beta 133.801412
_cell_angle_gamma 90.000000
_cell_volume 3339.033079
_symmetry_space_group_name_H-M "C 2/M"
_symmetry_group_IT_number 12
_symmetry_cell_setting 'monoclinic'
loop_
_space_group_symop_operation_xyz
x,y,z
-x,y,-z
-x,-y,-z
x,-y,z
1/2+x,1/2+y,z
1/2-x,1/2+y,-z
1/2-x,1/2-y,-z
1/2+x,1/2-y,z
loop_
_atom_site_type_symbol
_atom_site_label
_atom_site_fract_x
_atom_site_fract_y
_atom_site_fract_z
Si Si1 0.553300 0.818119 0.410720
Si Si2 0.803381 0.818576 0.012061
Si Si3 0.163311 0.681784 0.435394
Si Si4 0.413239 0.181803 0.237869
Si Si5 0.743947 0.319358 0.216768
Si Si6 0.217034 0.319645 0.340409
Si Si7 0.877042 0.819159 0.359753
O O1 0.599448 0.781850 0.397222
O O2 0.483549 0.779866 0.308319
O O3 0.577703 0.735977 0.517428
O O4 0.556606 0.000000 0.428344
O O5 0.866672 0.751216 0.119196
O O6 0.803406 0.000000 0.021431
O O7 0.750000 0.750000 0.000000
O O8 0.788577 0.783348 0.904366
O O9 0.173697 0.500000 0.456475
O O10 0.170376 0.717608 0.352927
O O11 0.217340 0.767130 0.546352
O O12 0.395598 0.246031 0.300657
O O13 0.406567 0.000000 0.230727
O O14 0.753646 0.500000 0.232636
O O15 0.707689 0.263737 0.247720
O O16 0.809515 0.238731 0.297534
O O17 0.217180 0.500000 0.328617
O O18 0.877473 0.000000 0.354329
#
# Coordination Sequence:
#
# PCOD9179977 Si02
#       7
#     8   8   8   8   8   8   8
#     4  10  21  37  56  78 110 150 182 216 267 327
#     4  11  23  38  58  79 104 141 184 229 272 317
#     4   9  18  33  53  77 110 144 176 217 266 322
#     4  11  23  38  56  78 108 147 186 221 268 323
#     4  11  22  36  55  78 109 144 177 220 275 325
#     4  10  19  31  52  83 109 137 178 222 269 319
#     4  12  23  34  53  81 111 144 182 223 266 318
#
# _framework density 16.771322999999999
#
# number of rings (size 3 to 8) (size 9 to 14) (size 15 to 20)
#    0.000    1.429    2.857    3.429    0.000    5.143 
#    0.000    0.000    0.000    0.857    0.000    6.000 
#    0.000    0.000    0.000    0.000    0.000    0.000 
#
# Total GULP energy -156416.369320 kJ/mol
# GULP energy per Si atom -5586.298904 kJ/mol
# Density = 1.673315 g / cm^3
# Si number density = 16.771323 Si / 1000 Ang^3
#
#
#
# Elastic Constant Matrix: (Units=GPa)
#
#
# Indices 1 2 3 4 5 6 
#
# 1 56.9378 30.5021 50.7588 0.0000 -14.4370 0.0000
# 2 30.5021 54.6011 56.3552 0.0000 -4.6630 0.0000
# 3 50.7588 56.3552 129.1317 0.0000 -4.7673 0.0000
# 4 0.0000 0.0000 0.0000 30.6677 0.0000 -2.6461
# 5 -14.4370 -4.6630 -4.7673 0.0000 29.7863 0.0000
# 6 0.0000 0.0000 0.0000 -2.6461 0.0000 22.9686
#
#
#
# Elastic Compliance Matrix: (Units=1/GPa)
#
#
# Indices 1 2 3 4 5 6 
#
# 1 0.033458 -0.008150 -0.009097 0.000000 0.013485 0.000000
# 2 -0.008150 0.035563 -0.012330 0.000000 -0.000356 0.000000
# 3 -0.009097 -0.012330 0.016565 0.000000 -0.003688 0.000000
# 4 0.000000 0.000000 0.000000 0.032935 0.000000 0.003794
# 5 0.013485 -0.000356 -0.003688 0.000000 0.039462 0.000000
# 6 0.000000 0.000000 0.000000 0.003794 0.000000 0.043975
#
#
# Mechanical properties :
#
#
# Convention : Reuss Voigt Hill
#
# Bulk Modulus (GPa) = 37.83291 57.32253 47.57772
# Shear Modulus (GPa) = 18.52387 23.55483 21.03935
#
# Velocity S-wave (km/s) = 3.32700 3.75169 3.54571
# Velocity P-wave (km/s) = 6.11275 7.28148 6.72256
#
# Compressibility (1/GPa) = 0.02643201
#
# Stress axis : x y z
#
# Youngs Moduli (GPa) = 29.88827 28.11906 60.36958
#
# Poissons Ratio (x) = 0.22917 0.54918
# Poissons Ratio (y) = 0.24359 0.74435
# Poissons Ratio (z) = 0.27189 0.34670
#
# Static dielectric constant tensor:
#      x y z
#    x 1.568190 0.000000 -0.013580 
#    y 0.000000 1.563390 0.000000 
#    z -0.013580 0.000000 1.542370 
# 
# From -- ./inp_files/237795.got.cif
#   From: 2010.05.17/outbox.cif.g08.bks.cpg/sg12_119_cif.got.tgz:237795.got - 2010.06.03 13:09:07.
