data_PCOD9179756
_publ_section_title
;
Structure prediction by ZEFSAII (Michael W. Deem and Ramdas Pophale) SiO2 
 PCOD9179756
Probable space group: C 2/M
;
_chemical_formula_sum "Si O2"
_cell_formula_units_Z 48
_cell_length_a 22.356369
_cell_length_b 9.058144
_cell_length_c 16.121058
_cell_angle_alpha 90.000000
_cell_angle_beta 59.916643
_cell_angle_gamma 90.000000
_cell_volume 2824.875152
_symmetry_space_group_name_H-M "C 2/M"
_symmetry_group_IT_number 12
_symmetry_cell_setting 'monoclinic'
loop_
_space_group_symop_operation_xyz
x,y,z
-x,y,-z
-x,-y,-z
x,-y,z
1/2+x,1/2+y,z
1/2-x,1/2+y,-z
1/2-x,1/2-y,-z
1/2+x,1/2-y,z
loop_
_atom_site_type_symbol
_atom_site_label
_atom_site_fract_x
_atom_site_fract_y
_atom_site_fract_z
Si Si1 0.267484 0.825550 0.356462
Si Si2 0.997070 0.174957 0.403669
Si Si3 0.645267 0.174305 0.537076
Si Si4 0.623657 0.825379 0.225476
Si Si5 0.819877 0.676492 0.986486
Si Si6 0.781785 0.824150 0.174021
O O1 0.319863 0.805066 0.396978
O O2 0.195017 0.755949 0.436904
O O3 0.292891 0.744860 0.256316
O O4 0.259168 0.000000 0.347321
O O5 0.066549 0.232279 0.312302
O O6 0.000000 0.204560 0.500000
O O7 0.930687 0.258767 0.413923
O O8 0.989435 0.000000 0.396922
O O9 0.644296 0.000000 0.519363
O O10 0.701001 0.795711 0.206211
O O11 0.610544 0.000000 0.246642
O O12 0.625382 0.795842 0.125134
O O13 0.811123 0.500000 0.999315
O O14 0.828359 0.748270 0.070634
O O15 0.750000 0.750000 0.000000
O O16 0.791687 0.000000 0.166579
#
# Coordination Sequence:
#
# PCOD9179756 Si02
#       6
#     8   8   8   8   8   8
#     4  10  20  34  53  76 101 130 166 208 250 293
#     4  11  23  35  50  74 102 133 168 205 246 294
#     4  10  21  36  53  73 100 134 168 204 249 298
#     4   9  19  33  49  72 102 135 167 201 247 298
#     4   9  17  30  48  72 102 133 167 208 252 297
#     4  10  19  31  51  78 104 133 168 205 250 300
#
# _framework density 16.991900999999999
#
# number of rings (size 3 to 8) (size 9 to 14) (size 15 to 20)
#    0.000    2.167    0.000    4.500    0.000   10.000 
#    0.000    0.000    0.000    1.000    0.000    7.000 
#    0.000    0.000    0.000    0.000    0.000    0.000 
#
# Total GULP energy -133916.909807 kJ/mol
# GULP energy per Si atom -5579.871242 kJ/mol
# Density = 1.695323 g / cm^3
# Si number density = 16.991901 Si / 1000 Ang^3
#
#
#
# Elastic Constant Matrix: (Units=GPa)
#
#
# Indices 1 2 3 4 5 6 
#
# 1 34.6929 37.3632 16.3549 0.0000 -7.1137 0.0000
# 2 37.3632 91.5199 73.0085 0.0000 0.2427 0.0000
# 3 16.3549 73.0085 122.8658 0.0000 4.9145 0.0000
# 4 0.0000 0.0000 0.0000 31.7568 0.0000 -1.0855
# 5 -7.1137 0.2427 4.9145 0.0000 17.5098 0.0000
# 6 0.0000 0.0000 0.0000 -1.0855 0.0000 24.4386
#
#
#
# Elastic Compliance Matrix: (Units=1/GPa)
#
#
# Indices 1 2 3 4 5 6 
#
# 1 0.069550 -0.038538 0.012632 0.000000 0.025245 0.000000
# 2 -0.038538 0.042308 -0.019580 0.000000 -0.010748 0.000000
# 3 0.012632 -0.019580 0.018079 0.000000 0.000329 0.000000
# 4 0.000000 0.000000 0.000000 0.031537 0.000000 0.001401
# 5 0.025245 -0.010748 0.000329 0.000000 0.067424 0.000000
# 6 0.000000 0.000000 0.000000 0.001401 0.000000 0.040981
#
#
# Mechanical properties :
#
#
# Convention : Reuss Voigt Hill
#
# Bulk Modulus (GPa) = 25.66411 55.83687 40.75049
# Shear Modulus (GPa) = 13.37471 22.89785 18.13628
#
# Velocity S-wave (km/s) = 2.80861 3.67491 3.27057
# Velocity P-wave (km/s) = 5.06500 7.13715 6.18842
#
# Compressibility (1/GPa) = 0.03896492
#
# Stress axis : x y z
#
# Youngs Moduli (GPa) = 14.37817 23.63613 55.31220
#
# Poissons Ratio (x) = 0.91089 -0.69870
# Poissons Ratio (y) = 0.55410 1.08303
# Poissons Ratio (z) = -0.18163 0.46280
#
# Static dielectric constant tensor:
#      x y z
#    x 1.559970 0.000000 0.022450 
#    y 0.000000 1.561160 0.000000 
#    z 0.022450 0.000000 1.589850 
# 
# From -- ./inp_files/229855.got.cif
#   From: 2010.05.17/outbox.cif.g08.bks.cpg/sg12_115_cif.got.tgz:229855.got - 2010.06.03 13:09:07.
