data_PCOD9179380
_publ_section_title
;
Structure prediction by ZEFSAII (Michael W. Deem and Ramdas Pophale) SiO2 
 PCOD9179380
Probable space group: C 2/M
;
_chemical_formula_sum "Si O2"
_cell_formula_units_Z 64
_cell_length_a 32.791113
_cell_length_b 8.901508
_cell_length_c 15.521002
_cell_angle_alpha 90.000000
_cell_angle_beta 131.935341
_cell_angle_gamma 90.000000
_cell_volume 3370.185075
_symmetry_space_group_name_H-M "C 2/M"
_symmetry_group_IT_number 12
_symmetry_cell_setting 'monoclinic'
loop_
_space_group_symop_operation_xyz
x,y,z
-x,y,-z
-x,-y,-z
x,-y,z
1/2+x,1/2+y,z
1/2-x,1/2+y,-z
1/2-x,1/2-y,-z
1/2+x,1/2-y,z
loop_
_atom_site_type_symbol
_atom_site_label
_atom_site_fract_x
_atom_site_fract_y
_atom_site_fract_z
Si Si1 0.441521 0.179474 0.691521
Si Si2 0.408837 0.322532 0.814662
Si Si3 0.126762 0.819309 0.046773
Si Si4 0.297354 0.169529 0.618156
Si Si5 0.740806 0.831814 0.239198
Si Si6 0.641849 0.821100 0.571614
Si Si7 0.435028 0.677582 0.395231
Si Si8 0.448913 0.319714 0.221641
O O1 0.446110 0.244374 0.795071
O O2 0.387122 0.226430 0.559936
O O3 0.493466 0.238607 0.711709
O O4 0.441639 0.000000 0.695967
O O5 0.419525 0.500000 0.828936
O O6 0.404441 0.271050 0.908439
O O7 0.349189 0.278077 0.694609
O O8 0.187946 0.752805 0.125812
O O9 0.131510 0.000000 0.059522
O O10 0.091060 0.780262 0.913293
O O11 0.250000 0.250000 0.500000
O O12 0.276297 0.155926 0.685342
O O13 0.310747 0.000000 0.605392
O O14 0.799305 0.750296 0.323705
O O15 0.746208 0.000000 0.210344
O O16 0.600063 0.772203 0.587473
O O17 0.647826 0.000000 0.576984
O O18 0.500000 0.699817 0.500000
O O19 0.423741 0.500000 0.393511
O O20 0.424015 0.715523 0.279885
O O21 0.458532 0.500000 0.233437
#
# Coordination Sequence:
#
# PCOD9179380 Si02
#       8
#     8   8   8   8   8   8   8   8
#     4  11  23  36  54  84 118 151 189 235 283 333
#     4  10  20  34  53  77 109 150 191 233 276 326
#     4   9  20  39  60  82 112 151 193 232 276 331
#     4  10  19  31  49  75 107 145 187 232 281 332
#     4  10  21  36  56  81 111 148 189 233 279 330
#     4  11  23  37  57  85 118 150 184 232 284 337
#     4  10  20  37  62  89 114 143 181 229 285 342
#     4  10  21  39  62  85 112 148 187 231 283 341
#
# _framework density 18.990055000000002
#
# number of rings (size 3 to 8) (size 9 to 14) (size 15 to 20)
#    0.000    1.875    1.250    2.625    0.000    7.250 
#    0.000    3.125    0.000    0.000    0.000    0.000 
#    0.000    0.000    0.000    0.000    0.000    0.000 
#
# Total GULP energy -178532.144341 kJ/mol
# GULP energy per Si atom -5579.129511 kJ/mol
# Density = 1.894683 g / cm^3
# Si number density = 18.990055 Si / 1000 Ang^3
#
#
#
# Elastic Constant Matrix: (Units=GPa)
#
#
# Indices 1 2 3 4 5 6 
#
# 1 76.3553 26.3630 27.9103 0.0000 -6.5428 0.0000
# 2 26.3630 39.6951 24.0154 0.0000 -4.0633 0.0000
# 3 27.9103 24.0154 91.1972 0.0000 -18.1936 0.0000
# 4 0.0000 0.0000 0.0000 18.7937 0.0000 5.3220
# 5 -6.5428 -4.0633 -18.1936 0.0000 25.6530 0.0000
# 6 0.0000 0.0000 0.0000 5.3220 0.0000 30.8461
#
#
#
# Elastic Compliance Matrix: (Units=1/GPa)
#
#
# Indices 1 2 3 4 5 6 
#
# 1 0.017577 -0.010039 -0.002514 0.000000 0.001110 0.000000
# 2 -0.010039 0.035721 -0.006658 0.000000 -0.001625 0.000000
# 3 -0.002514 -0.006658 0.015317 0.000000 0.009167 0.000000
# 4 0.000000 0.000000 0.000000 0.055942 0.000000 -0.009652
# 5 0.001110 -0.001625 0.009167 0.000000 0.045509 0.000000
# 6 0.000000 0.000000 0.000000 -0.009652 0.000000 0.034084
#
#
# Mechanical properties :
#
#
# Convention : Reuss Voigt Hill
#
# Bulk Modulus (GPa) = 33.12142 40.42501 36.77321
# Shear Modulus (GPa) = 19.79116 23.65581 21.72349
#
# Velocity S-wave (km/s) = 3.23179 3.53327 3.38589
# Velocity P-wave (km/s) = 5.60404 6.16271 5.89000
#
# Compressibility (1/GPa) = 0.03019194
#
# Stress axis : x y z
#
# Youngs Moduli (GPa) = 56.89289 27.99458 65.28700
#
# Poissons Ratio (x) = 0.28103 0.16415
# Poissons Ratio (y) = 0.57113 0.43471
# Poissons Ratio (z) = 0.14305 0.18640
#
# Static dielectric constant tensor:
#      x y z
#    x 1.656700 0.000000 -0.036210 
#    y 0.000000 1.663820 0.000000 
#    z -0.036210 0.000000 1.618770 
# 
# From -- ./inp_files/244229.got.cif
#   From: 2010.05.17/outbox.cif.g08.bks.cpg/sg12_123_cif.got.tgz:244229.got - 2010.06.03 13:09:07.
