data_PCOD9179306
_publ_section_title
;
Structure prediction by ZEFSAII (Michael W. Deem and Ramdas Pophale) SiO2 
 PCOD9179306
Probable space group: C 2/M
;
_chemical_formula_sum "Si O2"
_cell_formula_units_Z 56
_cell_length_a 14.731003
_cell_length_b 7.489715
_cell_length_c 31.866518
_cell_angle_alpha 90.000000
_cell_angle_beta 134.284373
_cell_angle_gamma 90.000000
_cell_volume 2516.948846
_symmetry_space_group_name_H-M "C 2/M"
_symmetry_group_IT_number 12
_symmetry_cell_setting 'monoclinic'
loop_
_space_group_symop_operation_xyz
x,y,z
-x,y,-z
-x,-y,-z
x,-y,z
1/2+x,1/2+y,z
1/2-x,1/2+y,-z
1/2-x,1/2-y,-z
1/2+x,1/2-y,z
loop_
_atom_site_type_symbol
_atom_site_label
_atom_site_fract_x
_atom_site_fract_y
_atom_site_fract_z
Si Si1 0.741249 0.789318 0.565868
Si Si2 0.416361 0.214419 0.014537
Si Si3 0.684767 0.706579 0.891474
Si Si4 0.600233 0.719607 0.210486
Si Si5 0.737883 0.218340 0.658043
Si Si6 0.656623 0.705463 0.138881
Si Si7 0.050692 0.284579 0.436392
O O1 0.770367 0.719972 0.621495
O O2 0.858442 0.765487 0.572517
O O3 0.619078 0.717918 0.501026
O O4 0.716967 0.000000 0.563482
O O5 0.505467 0.284798 0.080101
O O6 0.411449 0.000000 0.017173
O O7 0.500000 0.255152 0.000000
O O8 0.276674 0.284191 0.957501
O O9 0.667533 0.500000 0.897392
O O10 0.545569 0.782041 0.839051
O O11 0.764911 0.708812 0.873785
O O12 0.599493 0.500000 0.210137
O O13 0.670911 0.778679 0.275287
O O14 0.670975 0.776300 0.190553
O O15 0.592156 0.274258 0.616939
O O16 0.742594 0.000000 0.660692
O O17 0.695371 0.500000 0.150720
O O18 0.048457 0.500000 0.438212
#
# Coordination Sequence:
#
# PCOD9179306 Si02
#       7
#     8   8   8   8   8   8   8
#     4   9  17  30  50  75  98 123 159 197 232 276
#     4   8  15  29  49  70  92 121 154 189 236 288
#     4   9  18  34  52  68  92 126 159 191 233 287
#     4   9  19  33  48  69  96 128 162 192 231 282
#     4   9  17  31  50  69  94 130 165 192 225 279
#     4  10  19  31  49  73  97 119 152 200 242 276
#     4   9  17  30  50  75  99 123 155 197 240 276
#
# _framework density 22.249161999999998
#
# number of rings (size 3 to 8) (size 9 to 14) (size 15 to 20)
#    0.000    3.000    0.000    1.714    0.000    6.000 
#    0.000    2.143    0.000    6.857    0.000    0.000 
#    0.000    0.000    0.000    0.000    0.000    0.000 
#
# Total GULP energy -156239.792930 kJ/mol
# GULP energy per Si atom -5579.992605 kJ/mol
# Density = 2.219852 g / cm^3
# Si number density = 22.249162 Si / 1000 Ang^3
#
#
#
# Elastic Constant Matrix: (Units=GPa)
#
#
# Indices 1 2 3 4 5 6 
#
# 1 66.2243 -10.4445 53.5570 0.0000 -9.7721 0.0000
# 2 -10.4445 54.1886 4.5691 0.0000 0.0713 0.0000
# 3 53.5570 4.5691 141.9732 0.0000 -22.2074 0.0000
# 4 0.0000 0.0000 0.0000 7.3908 0.0000 -1.6171
# 5 -9.7721 0.0713 -22.2074 0.0000 29.9783 0.0000
# 6 0.0000 0.0000 0.0000 -1.6171 0.0000 11.4410
#
#
#
# Elastic Compliance Matrix: (Units=1/GPa)
#
#
# Indices 1 2 3 4 5 6 
#
# 1 0.023135 0.005194 -0.008728 0.000000 0.001063 0.000000
# 2 0.005194 0.019678 -0.002641 0.000000 -0.000310 0.000000
# 3 -0.008728 -0.002641 0.011285 0.000000 0.005521 0.000000
# 4 0.000000 0.000000 0.000000 0.139621 0.000000 0.019735
# 5 0.001063 -0.000310 0.005521 0.000000 0.037794 0.000000
# 6 0.000000 0.000000 0.000000 0.019735 0.000000 0.090195
#
#
# Mechanical properties :
#
#
# Convention : Reuss Voigt Hill
#
# Bulk Modulus (GPa) = 23.95402 39.74993 31.85197
# Shear Modulus (GPa) = 14.36888 24.07564 19.22226
#
# Velocity S-wave (km/s) = 2.54405 3.29309 2.94250
# Velocity P-wave (km/s) = 4.40672 5.68892 5.08837
#
# Compressibility (1/GPa) = 0.04174665
#
# Stress axis : x y z
#
# Youngs Moduli (GPa) = 43.22509 50.81766 88.61624
#
# Poissons Ratio (x) = -0.26393 0.77344
# Poissons Ratio (y) = -0.22449 0.23404
# Poissons Ratio (z) = 0.37727 0.13421
#
# Static dielectric constant tensor:
#      x y z
#    x 1.809910 0.000000 -0.004070 
#    y 0.000000 1.818430 0.000000 
#    z -0.004070 0.000000 1.822890 
# 
# From -- ./inp_files/377777.got.cif
#   From: 2010.05.17/outbox.cif.g08.bks.cpg/sg12_189_cif.got.tgz:377777.got - 2010.06.03 13:09:07.
