data_PCOD9179169
_publ_section_title
;
Structure prediction by ZEFSAII (Michael W. Deem and Ramdas Pophale) SiO2 
 PCOD9179169
Probable space group: C 2/M
;
_chemical_formula_sum "Si O2"
_cell_formula_units_Z 64
_cell_length_a 30.953125
_cell_length_b 8.953382
_cell_length_c 15.414814
_cell_angle_alpha 90.000000
_cell_angle_beta 78.357458
_cell_angle_gamma 90.000000
_cell_volume 4184.093599
_symmetry_space_group_name_H-M "C 2/M"
_symmetry_group_IT_number 12
_symmetry_cell_setting 'monoclinic'
loop_
_space_group_symop_operation_xyz
x,y,z
-x,y,-z
-x,-y,-z
x,-y,z
1/2+x,1/2+y,z
1/2-x,1/2+y,-z
1/2-x,1/2-y,-z
1/2+x,1/2-y,z
loop_
_atom_site_type_symbol
_atom_site_label
_atom_site_fract_x
_atom_site_fract_y
_atom_site_fract_z
Si Si1 0.373015 0.178757 0.250600
Si Si2 0.307990 0.820119 0.118240
Si Si3 0.283807 0.821120 0.603384
Si Si4 0.684539 0.677886 0.580818
Si Si5 0.444888 0.679419 0.931710
Si Si6 0.455349 0.320125 0.129890
Si Si7 0.144969 0.679901 0.080713
Si Si8 0.713932 0.819670 0.199149
O O1 0.339929 0.221887 0.185080
O O2 0.352789 0.245791 0.346290
O O3 0.420698 0.242725 0.206754
O O4 0.374251 0.000000 0.254615
O O5 0.260306 0.747995 0.149979
O O6 0.303631 0.000000 0.120067
O O7 0.330343 0.775048 0.018400
O O8 0.311793 0.739754 0.518092
O O9 0.232219 0.787066 0.605293
O O10 0.294352 0.776895 0.697516
O O11 0.289174 0.000000 0.592235
O O12 0.679171 0.500000 0.583133
O O13 0.441694 0.500000 0.928463
O O14 0.493434 0.721674 0.877648
O O15 0.403736 0.752626 0.900992
O O16 0.443825 0.719960 0.034574
O O17 0.451927 0.500000 0.138335
O O18 0.141801 0.500000 0.081733
O O19 0.174986 0.725535 0.149901
O O20 0.717613 0.000000 0.195029
#
# Coordination Sequence:
#
# PCOD9179169 Si02
#       8
#     8   8   8   8   8   8   8   8
#     4  11  20  30  47  72  99 128 157 193 238 283
#     4  10  20  31  43  66  99 130 164 198 228 269
#     4   9  18  32  47  67  92 122 159 199 239 279
#     4  10  19  31  49  69  92 124 158 196 240 285
#     4   9  18  32  49  69  93 124 161 200 238 277
#     4   9  18  32  49  69  94 124 160 198 237 283
#     4  10  20  33  47  68  97 129 165 200 234 276
#     4  10  20  33  49  67  93 130 167 199 234 277
#
# _framework density 15.296025
#
# number of rings (size 3 to 8) (size 9 to 14) (size 15 to 20)
#    0.000    2.250    2.500    1.875    0.000    3.000 
#    0.000    1.250    0.000    0.000    0.000    0.875 
#    0.000    7.000    0.000    0.000    0.000    0.000 
#
# Total GULP energy -178509.807240 kJ/mol
# GULP energy per Si atom -5578.431476 kJ/mol
# Density = 1.526121 g / cm^3
# Si number density = 15.296025 Si / 1000 Ang^3
#
#
#
# Elastic Constant Matrix: (Units=GPa)
#
#
# Indices 1 2 3 4 5 6 
#
# 1 123.6235 37.5080 75.6214 0.0000 -12.7905 0.0000
# 2 37.5080 20.8204 35.0457 0.0000 -9.9314 0.0000
# 3 75.6214 35.0457 107.3374 0.0000 -14.4523 0.0000
# 4 0.0000 0.0000 0.0000 20.6980 0.0000 -5.7491
# 5 -12.7905 -9.9314 -14.4523 0.0000 25.9514 0.0000
# 6 0.0000 0.0000 0.0000 -5.7491 0.0000 26.7424
#
#
#
# Elastic Compliance Matrix: (Units=1/GPa)
#
#
# Indices 1 2 3 4 5 6 
#
# 1 0.019282 -0.028647 -0.004787 0.000000 -0.004125 0.000000
# 2 -0.028647 0.163832 -0.028938 0.000000 0.032463 0.000000
# 3 -0.004787 -0.028938 0.021976 0.000000 -0.001195 0.000000
# 4 0.000000 0.000000 0.000000 0.051382 0.000000 0.011046
# 5 -0.004125 0.032463 -0.001195 0.000000 0.048258 0.000000
# 6 0.000000 0.000000 0.000000 0.011046 0.000000 0.039769
#
#
# Mechanical properties :
#
#
# Convention : Reuss Voigt Hill
#
# Bulk Modulus (GPa) = 12.44607 60.90350 36.67479
# Shear Modulus (GPa) = 10.08015 21.58543 15.83279
#
# Velocity S-wave (km/s) = 2.56989 3.76064 3.22077
# Velocity P-wave (km/s) = 4.11828 7.66548 6.15304
#
# Compressibility (1/GPa) = 0.08034662
#
# Stress axis : x y z
#
# Youngs Moduli (GPa) = 51.86160 6.10381 45.50427
#
# Poissons Ratio (x) = 0.17486 0.21781
# Poissons Ratio (y) = 1.48571 1.31678
# Poissons Ratio (z) = 0.24824 0.17663
#
# Static dielectric constant tensor:
#      x y z
#    x 1.488500 0.000000 0.004610 
#    y 0.000000 1.506870 0.000000 
#    z 0.004610 0.000000 1.498030 
# 
# From -- ./inp_files/244016.got.cif
#   From: 2010.05.17/outbox.cif.g08.bks.cpg/sg12_123_cif.got.tgz:244016.got - 2010.06.03 13:09:07.
