data_PCOD9179850
_publ_section_title
;
Structure prediction by ZEFSAII (Michael W. Deem and Ramdas Pophale) SiO2 
 PCOD9179850
Probable space group: C 2/M
;
_chemical_formula_sum "Si O2"
_cell_formula_units_Z 56
_cell_length_a 24.370056
_cell_length_b 9.310779
_cell_length_c 12.765413
_cell_angle_alpha 90.000000
_cell_angle_beta 107.139712
_cell_angle_gamma 90.000000
_cell_volume 2767.888239
_symmetry_space_group_name_H-M "C 2/M"
_symmetry_group_IT_number 12
_symmetry_cell_setting 'monoclinic'
loop_
_space_group_symop_operation_xyz
x,y,z
-x,y,-z
-x,-y,-z
x,-y,z
1/2+x,1/2+y,z
1/2-x,1/2+y,-z
1/2-x,1/2-y,-z
1/2+x,1/2-y,z
loop_
_atom_site_type_symbol
_atom_site_label
_atom_site_fract_x
_atom_site_fract_y
_atom_site_fract_z
Si Si1 0.793741 0.164715 0.095492
Si Si2 0.688434 0.666907 0.307818
Si Si3 0.099838 0.833742 0.453185
Si Si4 0.011817 0.664800 0.274837
Si Si5 0.424153 0.334332 0.092534
Si Si6 0.301472 0.326415 0.340920
Si Si7 0.901360 0.334506 0.874468
O O1 0.857147 0.169021 0.083110
O O2 0.797826 0.215026 0.217433
O O3 0.774345 0.000000 0.088200
O O4 0.750000 0.250000 0.000000
O O5 0.697888 0.500000 0.286208
O O6 0.646115 0.671241 0.383883
O O7 0.747902 0.747056 0.363911
O O8 0.654982 0.749379 0.196012
O O9 0.046874 0.735481 0.389745
O O10 0.137260 0.788485 0.574230
O O11 0.081528 0.000000 0.454284
O O12 0.995737 0.500000 0.286343
O O13 0.055301 0.665740 0.199468
O O14 0.959436 0.761221 0.205819
O O15 0.442369 0.500000 0.088854
O O16 0.429648 0.244763 0.988725
O O17 0.295655 0.500000 0.348619
O O18 0.887846 0.500000 0.892782
#
# Coordination Sequence:
#
# PCOD9179850 Si02
#       7
#     8   8   8   8   8   8   8
#     4  10  23  40  57  79 106 138 177 218 259 309
#     4  10  19  31  51  82 113 139 173 217 266 317
#     4   9  19  35  55  79 108 141 176 217 264 315
#     4  10  21  36  55  80 109 140 175 216 264 318
#     4  11  22  36  55  79 107 140 179 221 265 311
#     4  10  20  36  56  77 105 143 182 218 263 315
#     4  10  20  34  53  79 110 142 176 215 263 319
#
# _framework density 20.232030000000002
#
# number of rings (size 3 to 8) (size 9 to 14) (size 15 to 20)
#    0.000    2.000    0.000    3.429    0.000    8.571 
#    0.000    0.714    0.000    4.286    0.000    0.000 
#    0.000    0.000    0.000    0.000    0.000    0.000 
#
# Total GULP energy -156465.793744 kJ/mol
# GULP energy per Si atom -5588.064062 kJ/mol
# Density = 2.018598 g / cm^3
# Si number density = 20.232030 Si / 1000 Ang^3
#
#
#
# Elastic Constant Matrix: (Units=GPa)
#
#
# Indices 1 2 3 4 5 6 
#
# 1 22.6717 24.8737 25.5157 0.0000 23.6411 0.0000
# 2 24.8737 108.1736 67.3828 0.0000 31.0081 0.0000
# 3 25.5157 67.3828 132.7163 0.0000 43.8351 0.0000
# 4 0.0000 0.0000 0.0000 29.0446 0.0000 12.1275
# 5 23.6411 31.0081 43.8351 0.0000 37.3691 0.0000
# 6 0.0000 0.0000 0.0000 12.1275 0.0000 22.2224
#
#
#
# Elastic Compliance Matrix: (Units=1/GPa)
#
#
# Indices 1 2 3 4 5 6 
#
# 1 0.140297 -0.012124 0.008449 0.000000 -0.088608 0.000000
# 2 -0.012124 0.015209 -0.006132 0.000000 0.002243 0.000000
# 3 0.008449 -0.006132 0.014870 0.000000 -0.017700 0.000000
# 4 0.000000 0.000000 0.000000 0.044591 0.000000 -0.024335
# 5 -0.088608 0.002243 -0.017700 0.000000 0.101718 0.000000
# 6 0.000000 0.000000 0.000000 -0.024335 0.000000 0.058280
#
#
# Mechanical properties :
#
#
# Convention : Reuss Voigt Hill
#
# Bulk Modulus (GPa) = 6.63296 55.45622 31.04459
# Shear Modulus (GPa) = 11.24023 27.44652 19.34338
#
# Velocity S-wave (km/s) = 2.35960 3.68718 3.09540
# Velocity P-wave (km/s) = 3.27249 6.75253 5.30594
#
# Compressibility (1/GPa) = 0.15076215
#
# Stress axis : x y z
#
# Youngs Moduli (GPa) = 7.12775 65.75131 67.25039
#
# Poissons Ratio (x) = 0.79714 -0.56818
# Poissons Ratio (y) = 0.08641 0.41236
# Poissons Ratio (z) = -0.06022 0.40317
#
# Static dielectric constant tensor:
#      x y z
#    x 1.723500 0.000000 -0.023150 
#    y 0.000000 1.692360 0.000000 
#    z -0.023150 0.000000 1.726670 
# 
# From -- ./inp_files/180997.got.cif
#   From: 2010.05.17/outbox.cif.g08.bks.cpg/sg12_91_cif.got.tgz:180997.got - 2010.06.03 13:09:07.
