data_PCOD9179472
_publ_section_title
;
Structure prediction by ZEFSAII (Michael W. Deem and Ramdas Pophale) SiO2 
 PCOD9179472
Probable space group: C 2/M
;
_chemical_formula_sum "Si O2"
_cell_formula_units_Z 56
_cell_length_a 5.184600
_cell_length_b 20.108158
_cell_length_c 27.030604
_cell_angle_alpha 90.000000
_cell_angle_beta 108.321382
_cell_angle_gamma 90.000000
_cell_volume 2675.164807
_symmetry_space_group_name_H-M "C 2/M"
_symmetry_group_IT_number 12
_symmetry_cell_setting 'monoclinic'
loop_
_space_group_symop_operation_xyz
x,y,z
-x,y,-z
-x,-y,-z
x,-y,z
1/2+x,1/2+y,z
1/2-x,1/2+y,-z
1/2-x,1/2-y,-z
1/2+x,1/2-y,z
loop_
_atom_site_type_symbol
_atom_site_label
_atom_site_fract_x
_atom_site_fract_y
_atom_site_fract_z
Si Si1 0.132425 0.428709 0.062096
Si Si2 0.328303 0.280249 0.557821
Si Si3 0.130624 0.149108 0.061028
Si Si4 0.549385 0.797424 0.726378
Si Si5 0.398082 0.074303 0.653955
Si Si6 0.281853 0.573261 0.583609
Si Si7 0.865589 0.216210 0.835707
O O1 0.108163 0.500000 0.086116
O O2 0.441737 0.411136 0.068808
O O3 0.942347 0.372946 0.074746
O O4 0.000000 0.433643 0.000000
O O5 0.250000 0.250000 0.500000
O O6 0.633849 0.256325 0.584929
O O7 0.283839 0.358890 0.552750
O O8 0.104800 0.197967 0.105289
O O9 0.000000 0.170429 0.000000
O O10 0.278543 0.753666 0.719600
O O11 0.494471 0.861748 0.689918
O O12 0.677254 0.824371 0.786242
O O13 0.538710 0.077956 0.608392
O O14 0.072429 0.075798 0.628760
O O15 0.471159 0.000000 0.678022
O O16 0.266516 0.500000 0.557909
O O17 0.661188 0.279286 0.828939
#
# Coordination Sequence:
#
# PCOD9179472 Si02
#       7
#     8   8   8   8   8   8   8
#     4   9  17  30  47  68  95 124 159 207 256 305
#     4  10  21  37  55  82 117 153 195 241 277 317
#     4  10  19  31  50  73  97 131 172 212 259 316
#     4  10  21  37  58  82 109 147 185 221 281 348
#     4  10  21  37  58  86 116 144 183 240 291 334
#     4  10  21  37  58  84 116 152 188 232 288 336
#     4  10  21  36  52  72 103 136 171 218 266 325
#
# _framework density 20.933292000000002
#
# number of rings (size 3 to 8) (size 9 to 14) (size 15 to 20)
#    0.000    2.143    0.000    3.000    0.000    5.714 
#    0.000    4.286    0.000    1.714    0.000    0.000 
#    0.000    0.000    0.000    0.000    0.000    0.000 
#
# Total GULP energy -155897.472597 kJ/mol
# GULP energy per Si atom -5567.766878 kJ/mol
# Density = 2.088565 g / cm^3
# Si number density = 20.933292 Si / 1000 Ang^3
#
#
#
# Elastic Constant Matrix: (Units=GPa)
#
#
# Indices 1 2 3 4 5 6 
#
# 1 97.0944 7.6451 -1.0962 0.0000 -6.9151 0.0000
# 2 7.6451 119.3986 41.9392 0.0000 -5.3534 0.0000
# 3 -1.0962 41.9392 54.6715 0.0000 2.2943 0.0000
# 4 0.0000 0.0000 0.0000 -1.7709 0.0000 2.1992
# 5 -6.9151 -5.3534 2.2943 0.0000 14.9838 0.0000
# 6 0.0000 0.0000 0.0000 2.1992 0.0000 49.0161
#
#
#
# Elastic Compliance Matrix: (Units=1/GPa)
#
#
# Indices 1 2 3 4 5 6 
#
# 1 0.010686 -0.000663 0.000530 0.000000 0.004614 0.000000
# 2 -0.000663 0.011970 -0.009423 0.000000 0.005413 0.000000
# 3 0.000530 -0.009423 0.025827 0.000000 -0.007077 0.000000
# 4 0.000000 0.000000 0.000000 -0.534895 0.000000 0.023999
# 5 0.004614 0.005413 -0.007077 0.000000 0.071885 0.000000
# 6 0.000000 0.000000 0.000000 0.023999 0.000000 0.019325
#
#
# Mechanical properties :
#
#
# Convention : Reuss Voigt Hill
#
# Bulk Modulus (GPa) = 34.04857 40.90449 37.47653
# Shear Modulus (GPa) = -13.65012 27.29092 6.82040
#
# Velocity S-wave (km/s) = -2.55635 3.61461 1.80700
# Velocity P-wave (km/s) = 2.75451 6.08304 4.72179
#
# Compressibility (1/GPa) = 0.02936981
#
# Stress axis : x y z
#
# Youngs Moduli (GPa) = 93.57995 83.53937 38.71879
#
# Poissons Ratio (x) = 0.05542 -0.02050
# Poissons Ratio (y) = 0.06208 0.36485
# Poissons Ratio (z) = -0.04955 0.78720
#
# Static dielectric constant tensor:
#      x y z
#    x 1.913440 0.000000 0.057000 
#    y 0.000000 1.808150 0.000000 
#    z 0.057000 0.000000 1.673280 
# 
# From -- ./inp_files/354962.got.cif
#   From: 2010.05.17/outbox.cif.g08.bks.cpg/sg12_178_cif.got.tgz:354962.got - 2010.06.03 13:09:07.
