data_PCOD9179148
_publ_section_title
;
Structure prediction by ZEFSAII (Michael W. Deem and Ramdas Pophale) SiO2 
 PCOD9179148
Probable space group: C 2/M
;
_chemical_formula_sum "Si O2"
_cell_formula_units_Z 58
_cell_length_a 24.363289
_cell_length_b 7.310066
_cell_length_c 15.329669
_cell_angle_alpha 90.000000
_cell_angle_beta 103.913453
_cell_angle_gamma 90.000000
_cell_volume 2650.068793
_symmetry_space_group_name_H-M "C 2/M"
_symmetry_group_IT_number 12
_symmetry_cell_setting 'monoclinic'
loop_
_space_group_symop_operation_xyz
x,y,z
-x,y,-z
-x,-y,-z
x,-y,z
1/2+x,1/2+y,z
1/2-x,1/2+y,-z
1/2-x,1/2-y,-z
1/2+x,1/2-y,z
loop_
_atom_site_type_symbol
_atom_site_label
_atom_site_fract_x
_atom_site_fract_y
_atom_site_fract_z
Si Si1 0.686002 0.717552 0.507113
Si Si2 0.404452 0.722578 0.668189
Si Si3 0.500000 0.000000 0.500000
Si Si4 0.186311 0.218785 0.010559
Si Si5 0.030033 0.220114 0.651138
Si Si6 0.282602 0.278515 0.294936
Si Si7 0.340932 0.710211 0.807769
Si Si8 0.631252 0.721907 0.817346
O O1 0.676825 0.500000 0.507128
O O2 0.750000 0.750000 0.500000
O O3 0.640267 0.789385 0.421337
O O4 0.685045 0.784003 0.606152
O O5 0.401104 0.500000 0.669276
O O6 0.467423 0.767346 0.662584
O O7 0.386176 0.788949 0.757118
O O8 0.464407 0.161343 0.433458
O O9 0.142831 0.285103 0.919806
O O10 0.181456 0.000000 0.013907
O O11 0.250000 0.250000 0.000000
O O12 0.172600 0.291072 0.102126
O O13 0.075306 0.270712 0.742772
O O14 0.034261 0.000000 0.636795
O O15 0.280827 0.500000 0.295462
O O16 0.218473 0.213050 0.266645
O O17 0.315712 0.220437 0.221601
O O18 0.357890 0.500000 0.828986
O O19 0.631596 0.500000 0.819904
#
# Coordination Sequence:
#
# PCOD9179148 Si02
#       8
#     8   8   2   8   8   8   8   8
#     4  10  19  31  48  76 107 146 190 233 284 358
#     4   9  19  37  58  78 115 161 200 236 305 374
#     4  12  26  44  64 102 118 152 230 256 288 382
#     4  10  19  33  56  88 120 153 200 254 308 368
#     4  10  23  45  66  87 126 170 199 259 316 354
#     4  10  19  31  50  79 111 148 194 236 291 368
#     4  10  19  33  54  85 116 151 197 250 298 364
#     4   9  19  37  59  81 117 159 202 244 309 378
#
# _framework density 21.886223999999999
#
# number of rings (size 3 to 8) (size 9 to 14) (size 15 to 20)
#    0.000    2.207    2.759    0.207    1.931    0.000 
#    4.966    0.690    0.000    4.138    0.000    0.966 
#    0.000    0.000    0.000    0.000    0.000    0.276 
#
# Total GULP energy -161715.068878 kJ/mol
# GULP energy per Si atom -5576.381685 kJ/mol
# Density = 2.183641 g / cm^3
# Si number density = 21.886224 Si / 1000 Ang^3
#
#
#
# Elastic Constant Matrix: (Units=GPa)
#
#
# Indices 1 2 3 4 5 6 
#
# 1 37.2067 -5.2709 -10.9057 0.0000 16.0068 0.0000
# 2 -5.2709 103.9461 11.8410 0.0000 2.9999 0.0000
# 3 -10.9057 11.8410 114.2131 0.0000 11.8562 0.0000
# 4 0.0000 0.0000 0.0000 -1.8312 0.0000 2.9524
# 5 16.0068 2.9999 11.8562 0.0000 35.9571 0.0000
# 6 0.0000 0.0000 0.0000 2.9524 0.0000 8.1697
#
#
#
# Elastic Compliance Matrix: (Units=1/GPa)
#
#
# Indices 1 2 3 4 5 6 
#
# 1 0.036414 0.001779 0.005168 0.000000 -0.018063 0.000000
# 2 0.001779 0.009831 -0.000706 0.000000 -0.001379 0.000000
# 3 0.005168 -0.000706 0.009894 0.000000 -0.005504 0.000000
# 4 0.000000 0.000000 0.000000 -0.345046 0.000000 0.124695
# 5 -0.018063 -0.001379 -0.005504 0.000000 0.037782 0.000000
# 6 0.000000 0.000000 0.000000 0.124695 0.000000 0.077340
#
#
# Mechanical properties :
#
#
# Convention : Reuss Voigt Hill
#
# Bulk Modulus (GPa) = 14.57298 27.41051 20.99175
# Shear Modulus (GPa) = -30.60113 25.77254 -2.41429
#
# Velocity S-wave (km/s) = -3.74330 3.43530 -1.05143
# Velocity P-wave (km/s) = 3.46555 5.31849 2.85274
#
# Compressibility (1/GPa) = 0.06862015
#
# Stress axis : x y z
#
# Youngs Moduli (GPa) = 27.46161 101.72081 101.07596
#
# Poissons Ratio (x) = -0.18097 -0.52233
# Poissons Ratio (y) = -0.04886 0.07137
# Poissons Ratio (z) = -0.14191 0.07183
#
# Static dielectric constant tensor:
#      x y z
#    x 1.766030 0.000000 -0.034060 
#    y 0.000000 1.895230 0.000000 
#    z -0.034060 0.000000 1.826130 
# 
# From -- ./inp_files/237726.got.cif
#   From: 2010.05.17/outbox.cif.g08.bks.cpg/sg12_119_cif.got.tgz:237726.got - 2010.06.03 13:09:07.
