data_PCOD9179207
_publ_section_title
;
Structure prediction by ZEFSAII (Michael W. Deem and Ramdas Pophale) SiO2 
 PCOD9179207
Probable space group: C 2/M
;
_chemical_formula_sum "Si O2"
_cell_formula_units_Z 64
_cell_length_a 23.362337
_cell_length_b 9.350102
_cell_length_c 20.776246
_cell_angle_alpha 90.000000
_cell_angle_beta 57.538222
_cell_angle_gamma 90.000000
_cell_volume 3829.246626
_symmetry_space_group_name_H-M "C 2/M"
_symmetry_group_IT_number 12
_symmetry_cell_setting 'monoclinic'
loop_
_space_group_symop_operation_xyz
x,y,z
-x,y,-z
-x,-y,-z
x,-y,z
1/2+x,1/2+y,z
1/2-x,1/2+y,-z
1/2-x,1/2-y,-z
1/2+x,1/2-y,z
loop_
_atom_site_type_symbol
_atom_site_label
_atom_site_fract_x
_atom_site_fract_y
_atom_site_fract_z
Si Si1 0.437639 0.335219 0.948543
Si Si2 0.356263 0.336230 0.445565
Si Si3 0.282458 0.164050 0.386203
Si Si4 0.206358 0.669573 0.322348
Si Si5 0.912724 0.164942 0.118050
Si Si6 0.072854 0.330309 0.485998
Si Si7 0.804526 0.668437 0.010130
Si Si8 0.719983 0.832327 0.822745
O O1 0.429006 0.500000 0.932571
O O2 0.516259 0.293160 0.891552
O O3 0.426617 0.334624 0.032644
O O4 0.379357 0.235337 0.955580
O O5 0.374598 0.500000 0.419463
O O6 0.340516 0.242367 0.392174
O O7 0.284843 0.340325 0.527899
O O8 0.408670 0.260572 0.462143
O O9 0.259211 0.257286 0.339668
O O10 0.299258 0.000000 0.359596
O O11 0.217271 0.500000 0.312036
O O12 0.132293 0.694916 0.397754
O O13 0.219496 0.744311 0.246366
O O14 0.849565 0.268676 0.164965
O O15 0.896587 0.000000 0.145283
O O16 0.074746 0.500000 0.500635
O O17 0.000000 0.296097 0.500000
O O18 0.804759 0.500000 0.996021
O O19 0.785313 0.686995 0.097179
O O20 0.750000 0.750000 0.000000
O O21 0.726405 0.000000 0.805142
#
# Coordination Sequence:
#
# PCOD9179207 Si02
#       8
#     8   8   8   8   8   8   8   8
#     4   8  14  26  45  68  93 118 147 186 230 275
#     4   9  16  26  43  68  94 119 150 188 231 279
#     4   9  16  27  44  66  93 121 148 185 232 279
#     4  10  19  31  49  71  95 125 159 197 244 296
#     4   8  14  26  45  68  92 119 148 181 227 280
#     4   9  18  32  49  70  96 127 165 206 246 289
#     4  10  20  32  48  70  96 128 166 206 245 287
#     4  10  20  32  47  70  98 126 157 197 245 293
#
# _framework density 16.713470000000001
#
# number of rings (size 3 to 8) (size 9 to 14) (size 15 to 20)
#    0.000    2.875    0.000    2.625    0.000    5.750 
#    0.000    2.500    0.000    1.500    0.000    3.500 
#    0.000    0.000    0.000    0.000    0.000    0.000 
#
# Total GULP energy -178267.872405 kJ/mol
# GULP energy per Si atom -5570.871013 kJ/mol
# Density = 1.667543 g / cm^3
# Si number density = 16.713470 Si / 1000 Ang^3
#
#
#
# Elastic Constant Matrix: (Units=GPa)
#
#
# Indices 1 2 3 4 5 6 
#
# 1 132.2963 82.5683 24.3928 0.0000 -3.8078 0.0000
# 2 82.5683 120.8071 37.6024 0.0000 -0.8849 -0.0001
# 3 24.3928 37.6024 35.7081 0.0000 -4.8668 0.0000
# 4 0.0000 0.0000 0.0000 21.9327 0.0000 1.3239
# 5 -3.8078 -0.8849 -4.8668 0.0000 9.0643 0.0000
# 6 0.0000 -0.0001 0.0000 1.3239 0.0000 27.1771
#
#
#
# Elastic Compliance Matrix: (Units=1/GPa)
#
#
# Indices 1 2 3 4 5 6 
#
# 1 0.013453 -0.009719 0.001819 0.000000 0.005679 0.000000
# 2 -0.009719 0.019669 -0.015502 0.000000 -0.010486 0.000000
# 3 0.001819 -0.015502 0.046379 0.000000 0.024152 0.000000
# 4 0.000000 0.000000 0.000000 0.045729 0.000000 -0.002228
# 5 0.005679 -0.010486 0.024152 0.000000 0.124653 0.000000
# 6 0.000000 0.000000 0.000000 -0.002228 0.000000 0.036904
#
#
# Mechanical properties :
#
#
# Convention : Reuss Voigt Hill
#
# Bulk Modulus (GPa) = 30.58515 64.21537 47.40026
# Shear Modulus (GPa) = 14.51425 21.25134 17.88279
#
# Velocity S-wave (km/s) = 2.95009 3.56969 3.27458
# Velocity P-wave (km/s) = 5.47206 7.44950 6.53599
#
# Compressibility (1/GPa) = 0.03269560
#
# Stress axis : x y z
#
# Youngs Moduli (GPa) = 74.33421 50.84190 21.56167
#
# Poissons Ratio (x) = 0.49414 -0.03922
# Poissons Ratio (y) = 0.72247 0.33425
# Poissons Ratio (z) = -0.13521 0.78816
#
# Static dielectric constant tensor:
#      x y z
#    x 1.548790 0.000000 -0.004820 
#    y 0.000000 1.560750 0.000000 
#    z -0.004820 0.000000 1.586800 
# 
# From -- ./inp_files/323654.got.cif
#   From: 2010.05.17/outbox.cif.g08.bks.cpg/sg12_162_cif.got.tgz:323654.got - 2010.06.03 13:09:07.
