data_PCOD9179107
_publ_section_title
;
Structure prediction by ZEFSAII (Michael W. Deem and Ramdas Pophale) SiO2 
 PCOD9179107
Probable space group: C 2/M
;
_chemical_formula_sum "Si O2"
_cell_formula_units_Z 48
_cell_length_a 5.394215
_cell_length_b 25.583642
_cell_length_c 16.852357
_cell_angle_alpha 90.000000
_cell_angle_beta 80.862422
_cell_angle_gamma 90.000000
_cell_volume 2296.173754
_symmetry_space_group_name_H-M "C 2/M"
_symmetry_group_IT_number 12
_symmetry_cell_setting 'monoclinic'
loop_
_space_group_symop_operation_xyz
x,y,z
-x,y,-z
-x,-y,-z
x,-y,z
1/2+x,1/2+y,z
1/2-x,1/2+y,-z
1/2-x,1/2-y,-z
1/2+x,1/2-y,z
loop_
_atom_site_type_symbol
_atom_site_label
_atom_site_fract_x
_atom_site_fract_y
_atom_site_fract_z
Si Si1 0.672503 0.729663 0.092068
Si Si2 0.041963 0.440768 0.092163
Si Si3 0.703271 0.941537 0.596308
Si Si4 0.981284 0.114016 0.858793
Si Si5 0.739048 0.660509 0.523003
Si Si6 0.165214 0.904196 0.674264
O O1 0.427534 0.762794 0.128653
O O2 0.584318 0.670254 0.101259
O O3 0.750000 0.750000 0.000000
O O4 0.061418 0.500000 0.121027
O O5 0.303944 0.412711 0.098499
O O6 0.786027 0.414970 0.136377
O O7 0.000000 0.441125 0.000000
O O8 0.734219 0.894677 0.529964
O O9 0.431432 0.933828 0.651317
O O10 0.930060 0.935045 0.647550
O O11 0.715855 0.000000 0.560467
O O12 0.104192 0.113487 0.765615
O O13 0.500000 0.687973 0.500000
O O14 0.694520 0.645495 0.615505
O O15 0.000000 0.688365 0.500000
#
# Coordination Sequence:
#
# PCOD9179107 Si02
#       6
#     8   8   8   8   8   8
#     4  10  23  40  64  95 113 138 187 246 318 383
#     4  11  26  43  60  83 116 163 205 231 277 354
#     4  10  19  31  48  72 110 157 201 237 269 322
#     4  12  24  40  65  87 121 152 194 257 303 346
#     4   8  16  29  44  66 103 141 191 228 267 324
#     4  10  21  32  47  77 106 144 185 230 289 332
#
# _framework density 20.904340999999999
#
# number of rings (size 3 to 8) (size 9 to 14) (size 15 to 20)
#    0.000    1.833    0.000    3.500    7.000   11.333 
#    0.000    0.000    0.000    0.000    0.000    0.000 
#    0.000   36.000    0.000    0.000    0.000    0.000 
#
# Total GULP energy -133932.230150 kJ/mol
# GULP energy per Si atom -5580.509590 kJ/mol
# Density = 2.085676 g / cm^3
# Si number density = 20.904341 Si / 1000 Ang^3
#
#
#
# Elastic Constant Matrix: (Units=GPa)
#
#
# Indices 1 2 3 4 5 6 
#
# 1 205.1804 52.8014 8.0596 0.0000 -11.1303 0.0000
# 2 52.8014 118.6956 27.9918 0.0000 -8.5328 0.0000
# 3 8.0596 27.9918 67.6274 0.0000 -11.1181 0.0000
# 4 0.0000 0.0000 0.0000 -3.4742 0.0000 -15.0969
# 5 -11.1303 -8.5328 -11.1181 0.0000 30.4867 0.0000
# 6 0.0000 0.0000 0.0000 -15.0969 0.0000 8.8317
#
#
#
# Elastic Compliance Matrix: (Units=1/GPa)
#
#
# Indices 1 2 3 4 5 6 
#
# 1 0.005582 -0.002521 0.000635 0.000000 0.001564 0.000000
# 2 -0.002521 0.010522 -0.003959 0.000000 0.000581 0.000000
# 3 0.000635 -0.003959 0.017239 0.000000 0.005411 0.000000
# 4 0.000000 0.000000 0.000000 -0.034152 0.000000 -0.058380
# 5 0.001564 0.000581 0.005411 0.000000 0.035508 0.000000
# 6 0.000000 0.000000 0.000000 -0.058380 0.000000 0.013435
#
#
# Mechanical properties :
#
#
# Convention : Reuss Voigt Hill
#
# Bulk Modulus (GPa) = 46.18027 63.24545 54.71286
# Shear Modulus (GPa) = 74.58079 27.34555 50.96317
#
# Velocity S-wave (km/s) = 5.97952 3.62073 4.94289
# Velocity P-wave (km/s) = 8.35536 6.91375 7.66851
#
# Compressibility (1/GPa) = 0.02165427
#
# Stress axis : x y z
#
# Youngs Moduli (GPa) = 179.13689 95.04217 58.00633
#
# Poissons Ratio (x) = 0.23957 -0.03685
# Poissons Ratio (y) = 0.45154 0.22966
# Poissons Ratio (z) = -0.11379 0.37629
#
# Static dielectric constant tensor:
#      x y z
#    x 1.847370 0.000000 -0.003020 
#    y 0.000000 1.764180 0.000000 
#    z -0.003020 0.000000 1.736190 
# 
# From -- ./inp_files/253143.got.cif
#   From: 2010.05.17/outbox.cif.g08.bks.cpg/sg12_127_cif.got.tgz:253143.got - 2010.06.03 13:09:07.
