data_PCOD9179919
_publ_section_title
;
Structure prediction by ZEFSAII (Michael W. Deem and Ramdas Pophale) SiO2 
 PCOD9179919
Probable space group: C 2/M
;
_chemical_formula_sum "Si O2"
_cell_formula_units_Z 58
_cell_length_a 19.883134
_cell_length_b 7.994174
_cell_length_c 14.721747
_cell_angle_alpha 90.000000
_cell_angle_beta 95.924355
_cell_angle_gamma 90.000000
_cell_volume 2327.512473
_symmetry_space_group_name_H-M "C 2/M"
_symmetry_group_IT_number 12
_symmetry_cell_setting 'monoclinic'
loop_
_space_group_symop_operation_xyz
x,y,z
-x,y,-z
-x,-y,-z
x,-y,z
1/2+x,1/2+y,z
1/2-x,1/2+y,-z
1/2-x,1/2-y,-z
1/2+x,1/2-y,z
loop_
_atom_site_type_symbol
_atom_site_label
_atom_site_fract_x
_atom_site_fract_y
_atom_site_fract_z
Si Si1 0.590781 0.196735 0.906634
Si Si2 0.266160 0.696059 0.147591
Si Si3 0.486740 0.806878 0.273147
Si Si4 0.735685 0.304965 0.640595
Si Si5 0.500000 0.500000 0.500000
Si Si6 0.625457 0.693312 0.304122
Si Si7 0.124152 0.807263 0.099505
Si Si8 0.598581 0.189449 0.563240
O O1 0.661790 0.275778 0.887363
O O2 0.534874 0.262305 0.828262
O O3 0.594966 0.000000 0.889002
O O4 0.583299 0.223562 0.012641
O O5 0.248939 0.500000 0.142197
O O6 0.269602 0.748614 0.253845
O O7 0.204590 0.792597 0.091935
O O8 0.548758 0.707853 0.325273
O O9 0.424437 0.802197 0.333524
O O10 0.508057 0.000000 0.268664
O O11 0.718978 0.500000 0.633352
O O12 0.815189 0.279859 0.632369
O O13 0.679543 0.209801 0.575557
O O14 0.559034 0.349079 0.518094
O O15 0.644903 0.500000 0.300289
O O16 0.619652 0.765530 0.200460
O O17 0.103994 0.000000 0.099789
O O18 0.580535 0.000000 0.527533
#
# Coordination Sequence:
#
# PCOD9179919 Si02
#       8
#     8   8   8   8   2   8   8   8
#     4  11  21  33  51  76 113 160 209 265 319 367
#     4  10  19  31  52  79 112 155 207 263 316 367
#     4  10  23  40  61  90 123 164 211 260 315 376
#     4  10  19  36  63  94 125 163 213 260 309 376
#     4  12  26  44  72 110 136 166 198 248 324 378
#     4  10  22  37  59  87 122 169 218 266 314 369
#     4  10  21  35  48  74 115 161 212 266 317 365
#     4  11  23  43  71 104 136 166 205 254 312 382
#
# _framework density 24.919307
#
# number of rings (size 3 to 8) (size 9 to 14) (size 15 to 20)
#    0.000    1.655    2.069    2.690    0.966    4.414 
#    0.000    2.759    0.000    0.828    0.000    0.000 
#    0.000    0.000    0.000    0.000    0.000    0.000 
#
# Total GULP energy -161985.904558 kJ/mol
# GULP energy per Si atom -5585.720847 kJ/mol
# Density = 2.486259 g / cm^3
# Si number density = 24.919307 Si / 1000 Ang^3
#
#
#
# Elastic Constant Matrix: (Units=GPa)
#
#
# Indices 1 2 3 4 5 6 
#
# 1 95.0175 7.8418 37.9711 0.0000 36.1396 0.0000
# 2 7.8418 108.4018 44.2290 0.0000 21.7879 0.0000
# 3 37.9711 44.2290 133.9286 0.0000 15.5210 0.0000
# 4 0.0000 0.0000 0.0000 11.8203 0.0000 12.5917
# 5 36.1396 21.7879 15.5210 0.0000 34.9391 0.0000
# 6 0.0000 0.0000 0.0000 12.5917 0.0000 24.8357
#
#
#
# Elastic Compliance Matrix: (Units=1/GPa)
#
#
# Indices 1 2 3 4 5 6 
#
# 1 0.020467 0.004949 -0.004877 0.000000 -0.022090 0.000000
# 2 0.004949 0.012904 -0.004363 0.000000 -0.011228 0.000000
# 3 -0.004877 -0.004363 0.009900 0.000000 0.003368 0.000000
# 4 0.000000 0.000000 0.000000 0.183948 0.000000 -0.093262
# 5 -0.022090 -0.011228 0.003368 0.000000 0.056975 0.000000
# 6 0.000000 0.000000 0.000000 -0.093262 0.000000 0.087549
#
#
# Mechanical properties :
#
#
# Convention : Reuss Voigt Hill
#
# Bulk Modulus (GPa) = 28.82850 57.49240 43.16045
# Shear Modulus (GPa) = 12.75874 30.80609 21.78242
#
# Velocity S-wave (km/s) = 2.26520 3.51983 2.95976
# Velocity P-wave (km/s) = 4.29364 6.29606 5.38868
#
# Compressibility (1/GPa) = 0.03468789
#
# Stress axis : x y z
#
# Youngs Moduli (GPa) = 48.86006 77.49587 101.00888
#
# Poissons Ratio (x) = -0.38354 0.49263
# Poissons Ratio (y) = -0.24182 0.44075
# Poissons Ratio (z) = 0.23830 0.33815
#
# Static dielectric constant tensor:
#      x y z
#    x 2.000570 0.000000 -0.051400 
#    y 0.000000 1.911450 0.000000 
#    z -0.051400 0.000000 2.014200 
# 
# From -- ./inp_files/281575.got.cif
#   From: 2010.05.17/outbox.cif.g08.bks.cpg/sg12_141_cif.got.tgz:281575.got - 2010.06.03 13:09:07.
