data_PCOD9179133
_publ_section_title
;
Structure prediction by ZEFSAII (Michael W. Deem and Ramdas Pophale) SiO2 
 PCOD9179133
Probable space group: C 2/M
;
_chemical_formula_sum "Si O2"
_cell_formula_units_Z 64
_cell_length_a 21.007130
_cell_length_b 7.694490
_cell_length_c 23.974311
_cell_angle_alpha 90.000000
_cell_angle_beta 126.867253
_cell_angle_gamma 90.000000
_cell_volume 3100.257153
_symmetry_space_group_name_H-M "C 2/M"
_symmetry_group_IT_number 12
_symmetry_cell_setting 'monoclinic'
loop_
_space_group_symop_operation_xyz
x,y,z
-x,y,-z
-x,-y,-z
x,-y,z
1/2+x,1/2+y,z
1/2-x,1/2+y,-z
1/2-x,1/2-y,-z
1/2+x,1/2-y,z
loop_
_atom_site_type_symbol
_atom_site_label
_atom_site_fract_x
_atom_site_fract_y
_atom_site_fract_z
Si Si1 0.360410 0.791751 0.215105
Si Si2 0.009746 0.790915 0.628372
Si Si3 0.630843 0.699289 0.594913
Si Si4 0.608371 0.208800 0.111110
Si Si5 0.575793 0.788200 0.977090
Si Si6 0.832841 0.790667 0.510757
Si Si7 0.330013 0.790801 0.075508
Si Si8 0.250934 0.297526 0.745850
O O1 0.442767 0.755906 0.290424
O O2 0.344204 0.721728 0.144987
O O3 0.294315 0.725834 0.223459
O O4 0.351886 0.000000 0.207887
O O5 0.917616 0.734133 0.582264
O O6 0.061904 0.727991 0.601138
O O7 0.010482 0.000000 0.624510
O O8 0.605950 0.500000 0.571414
O O9 0.654213 0.774213 0.546621
O O10 0.712131 0.703737 0.673287
O O11 0.516187 0.256329 0.066288
O O12 0.658384 0.280971 0.188506
O O13 0.615462 0.000000 0.117135
O O14 0.628254 0.269059 0.058151
O O15 0.604619 0.724488 0.933132
O O16 0.579693 0.000000 0.980183
O O17 0.750000 0.750000 0.500000
O O18 0.832909 0.000000 0.508773
O O19 0.335617 0.000000 0.081958
O O20 0.250000 0.750000 0.000000
O O21 0.231347 0.500000 0.727775
#
# Coordination Sequence:
#
# PCOD9179133 Si02
#       8
#     8   8   8   8   8   8   8   8
#     4   9  19  33  49  73 105 136 168 207 260 315
#     4   9  18  35  59  81 103 135 179 226 258 297
#     4   9  18  35  58  80 101 135 182 217 249 302
#     4   9  16  30  50  69  92 127 171 212 250 300
#     4   8  16  30  48  68  91 125 170 213 250 296
#     4  10  21  37  57  83 112 140 171 213 265 316
#     4  10  19  32  49  71  99 131 168 211 255 303
#     4  10  19  31  48  74 104 131 161 208 261 304
#
# _framework density 20.643449
#
# number of rings (size 3 to 8) (size 9 to 14) (size 15 to 20)
#    0.000    2.750    0.000    2.250    0.000    3.500 
#    2.250    1.875    0.000    3.750    0.000    0.000 
#    0.000    0.000    0.000    0.000    0.000    0.000 
#
# Total GULP energy -178163.425894 kJ/mol
# GULP energy per Si atom -5567.607059 kJ/mol
# Density = 2.059646 g / cm^3
# Si number density = 20.643449 Si / 1000 Ang^3
#
#
#
# Elastic Constant Matrix: (Units=GPa)
#
#
# Indices 1 2 3 4 5 6 
#
# 1 88.8610 0.3618 64.4532 0.0000 -5.3477 0.0000
# 2 0.3618 34.6623 -4.7735 0.0000 -4.4515 0.0000
# 3 64.4532 -4.7735 132.1861 0.0000 -4.2188 0.0000
# 4 0.0000 0.0000 0.0000 17.1317 0.0000 4.1300
# 5 -5.3477 -4.4515 -4.2188 0.0000 33.4308 0.0000
# 6 0.0000 0.0000 0.0000 4.1300 0.0000 12.3415
#
#
#
# Elastic Compliance Matrix: (Units=1/GPa)
#
#
# Indices 1 2 3 4 5 6 
#
# 1 0.017556 -0.001159 -0.008552 0.000000 0.001575 0.000000
# 2 -0.001159 0.029616 0.001761 0.000000 0.003980 0.000000
# 3 -0.008552 0.001761 0.011810 0.000000 0.000357 0.000000
# 4 0.000000 0.000000 0.000000 0.063493 0.000000 -0.021248
# 5 0.001575 0.003980 0.000357 0.000000 0.030740 0.000000
# 6 0.000000 0.000000 0.000000 -0.021248 0.000000 0.088138
#
#
# Mechanical properties :
#
#
# Convention : Reuss Voigt Hill
#
# Bulk Modulus (GPa) = 23.21071 41.75470 32.48271
# Shear Modulus (GPa) = 18.40867 25.62533 22.01700
#
# Velocity S-wave (km/s) = 2.98945 3.52707 3.26933
# Velocity P-wave (km/s) = 4.81495 6.07104 5.47911
#
# Compressibility (1/GPa) = 0.04308355
#
# Stress axis : x y z
#
# Youngs Moduli (GPa) = 56.96135 33.76590 84.67515
#
# Poissons Ratio (x) = 0.03912 0.72411
# Poissons Ratio (y) = 0.06600 -0.14915
# Poissons Ratio (z) = 0.48711 -0.05948
#
# Static dielectric constant tensor:
#      x y z
#    x 1.799720 0.000000 -0.000730 
#    y 0.000000 1.784830 0.000000 
#    z -0.000730 0.000000 1.771930 
# 
# From -- ./inp_files/346205.got.cif
#   From: 2010.05.17/outbox.cif.g08.bks.cpg/sg12_174_cif.got.tgz:346205.got - 2010.06.03 13:09:07.
