data_PCOD9179029
_publ_section_title
;
Structure prediction by ZEFSAII (Michael W. Deem and Ramdas Pophale) SiO2 
 PCOD9179029
Probable space group: C 2/M
;
_chemical_formula_sum "Si O2"
_cell_formula_units_Z 32
_cell_length_a 17.413347
_cell_length_b 5.591663
_cell_length_c 25.283407
_cell_angle_alpha 90.000000
_cell_angle_beta 147.028725
_cell_angle_gamma 90.000000
_cell_volume 1339.775842
_symmetry_space_group_name_H-M "C 2/M"
_symmetry_group_IT_number 12
_symmetry_cell_setting 'monoclinic'
loop_
_space_group_symop_operation_xyz
x,y,z
-x,y,-z
-x,-y,-z
x,-y,z
1/2+x,1/2+y,z
1/2-x,1/2+y,-z
1/2-x,1/2-y,-z
1/2+x,1/2-y,z
loop_
_atom_site_type_symbol
_atom_site_label
_atom_site_fract_x
_atom_site_fract_y
_atom_site_fract_z
Si Si1 0.997070 0.500000 0.062939
Si Si2 0.266944 0.000000 0.376304
Si Si3 0.977847 0.000000 0.051195
Si Si4 0.191188 0.000000 0.849642
Si Si5 0.634582 0.500000 0.699575
Si Si6 0.856701 0.500000 0.135494
Si Si7 0.517277 0.000000 0.598882
Si Si8 0.149734 0.500000 0.273412
O O1 0.047430 0.241817 0.110769
O O2 0.825485 0.500000 0.966621
O O3 0.000000 0.500000 0.000000
O O4 0.183260 0.250668 0.323160
O O5 0.362456 0.000000 0.483888
O O6 0.373867 0.000000 0.387872
O O7 0.812861 0.000000 0.972288
O O8 0.000000 0.000000 0.000000
O O9 0.219768 0.000000 0.803741
O O10 0.119881 0.746871 0.819802
O O11 0.547446 0.749014 0.646086
O O12 0.739642 0.500000 0.710660
O O13 0.980772 0.500000 0.163950
#
# Coordination Sequence:
#
# PCOD9179029 Si02
#       8
#     4   4   4   4   4   4   4   4
#     4   8  14  25  42  65  87 113 151 189 218 260
#     4   9  17  30  49  70  91 121 162 200 232 278
#     4   8  14  25  42  65  87 113 151 189 218 260
#     4  10  19  31  48  70  96 126 155 192 235 281
#     4  10  19  31  49  72  95 120 156 201 243 279
#     4  10  19  31  48  70  96 126 155 192 235 281
#     4   9  17  30  49  70  91 121 162 200 232 278
#     4  10  19  31  49  72  95 120 156 201 243 279
#
# _framework density 23.884592000000001
#
# number of rings (size 3 to 8) (size 9 to 14) (size 15 to 20)
#    0.000    2.750    0.000    2.250    0.000    3.000 
#    0.000    0.000    0.000   15.000    0.000   28.000 
#    0.000    0.000    0.000    0.000    0.000    0.000 
#
# Total GULP energy -89189.844294 kJ/mol
# GULP energy per Si atom -5574.365268 kJ/mol
# Density = 2.383023 g / cm^3
# Si number density = 23.884592 Si / 1000 Ang^3
#
#
#
# Elastic Constant Matrix: (Units=GPa)
#
#
# Indices 1 2 3 4 5 6 
#
# 1 20.6854 36.7413 9.7182 0.0008 6.7443 0.0010
# 2 36.7413 311.1217 51.4929 -0.0005 -8.5920 0.0023
# 3 9.7182 51.4929 99.8357 0.0000 -9.9262 -0.0004
# 4 0.0008 -0.0005 0.0000 71.7111 -0.0002 11.8655
# 5 6.7443 -8.5920 -9.9262 -0.0002 31.2664 -0.0004
# 6 0.0010 0.0023 -0.0004 11.8655 -0.0004 32.5155
#
#
#
# Elastic Compliance Matrix: (Units=1/GPa)
#
#
# Indices 1 2 3 4 5 6 
#
# 1 0.071261 -0.008178 -0.004616 -0.000001 -0.019084 -0.000002
# 2 -0.008178 0.004458 -0.001245 0.000000 0.002594 0.000000
# 3 -0.004616 -0.001245 0.011537 0.000000 0.004316 0.000000
# 4 -0.000001 0.000000 0.000000 0.014841 0.000000 -0.005416
# 5 -0.019084 0.002594 0.004316 0.000000 0.038183 0.000001
# 6 -0.000002 0.000000 0.000000 -0.005416 0.000001 0.032731
#
#
# Mechanical properties :
#
#
# Convention : Reuss Voigt Hill
#
# Bulk Modulus (GPa) = 16.89857 69.72750 43.31304
# Shear Modulus (GPa) = 22.64343 49.34462 35.99402
#
# Velocity S-wave (km/s) = 3.08236 4.55021 3.88622
# Velocity P-wave (km/s) = 4.44504 7.54074 6.18955
#
# Compressibility (1/GPa) = 0.05917659
#
# Stress axis : x y z
#
# Youngs Moduli (GPa) = 14.03299 224.33010 86.67656
#
# Poissons Ratio (x) = 1.83468 0.40008
# Poissons Ratio (y) = 0.11477 0.10793
# Poissons Ratio (z) = 0.06477 0.27933
#
# Static dielectric constant tensor:
#      x y z
#    x 1.960550 0.000000 0.064680 
#    y 0.000000 1.842490 0.000000 
#    z 0.064680 0.000000 1.891130 
# 
# From -- ./inp_files/247572.got.cif
#   From: 2010.05.17/outbox.cif.g08.bks.cpg/sg12_124_cif.got.tgz:247572.got - 2010.06.03 13:09:07.
