data_PCOD9179857
_publ_section_title
;
Structure prediction by ZEFSAII (Michael W. Deem and Ramdas Pophale) SiO2 
 PCOD9179857
Probable space group: C 2/M
;
_chemical_formula_sum "Si O2"
_cell_formula_units_Z 60
_cell_length_a 18.385032
_cell_length_b 25.286281
_cell_length_c 13.143304
_cell_angle_alpha 90.000000
_cell_angle_beta 32.641708
_cell_angle_gamma 90.000000
_cell_volume 3295.731941
_symmetry_space_group_name_H-M "C 2/M"
_symmetry_group_IT_number 12
_symmetry_cell_setting 'monoclinic'
loop_
_space_group_symop_operation_xyz
x,y,z
-x,y,-z
-x,-y,-z
x,-y,z
1/2+x,1/2+y,z
1/2-x,1/2+y,-z
1/2-x,1/2-y,-z
1/2+x,1/2-y,z
loop_
_atom_site_type_symbol
_atom_site_label
_atom_site_fract_x
_atom_site_fract_y
_atom_site_fract_z
Si Si1 0.281980 0.803599 0.401755
Si Si2 0.796949 0.437516 0.145643
Si Si3 0.786336 0.596080 0.534404
Si Si4 0.773538 0.062671 0.173713
Si Si5 0.907390 0.561740 0.796930
Si Si6 0.000000 0.350566 0.000000
Si Si7 0.524521 0.441138 0.735533
Si Si8 0.420959 0.634389 0.498282
O O1 0.250000 0.750000 0.500000
O O2 0.278514 0.847015 0.494112
O O3 0.420610 0.814023 0.175030
O O4 0.170504 0.822036 0.450052
O O5 0.821410 0.500000 0.143427
O O6 0.900873 0.392927 0.063234
O O7 0.661769 0.414912 0.354747
O O8 0.809312 0.433738 0.009402
O O9 0.738818 0.592122 0.705930
O O10 0.679182 0.562864 0.592859
O O11 0.943486 0.580365 0.348814
O O12 0.664748 0.083287 0.219152
O O13 0.748283 0.000000 0.223674
O O14 0.921017 0.066005 0.950236
O O15 0.923580 0.500000 0.756587
O O16 0.500181 0.500000 0.722094
O O17 0.498236 0.394962 0.686025
O O18 0.500000 0.658202 0.500000
#
# Coordination Sequence:
#
# PCOD9179857 Si02
#       8
#     8   8   8   8   8   4   8   8
#     4  10  23  43  63  84 105 144 194 252 302 340
#     4  10  19  31  56  89 121 157 189 223 284 356
#     4  11  20  35  55  80 109 146 195 241 283 341
#     4  10  20  33  50  78 121 161 188 225 278 338
#     4  10  19  31  51  82 120 154 187 226 278 344
#     4  10  19  40  62  82 116 144 185 248 292 336
#     4  10  20  33  51  80 118 159 194 226 272 343
#     4  10  21  37  58  83 120 153 190 239 288 348
#
# _framework density 18.205365
#
# number of rings (size 3 to 8) (size 9 to 14) (size 15 to 20)
#    0.000    1.867    1.333    3.400    0.000    4.267 
#    4.800    1.333    0.000    1.600    0.000    0.000 
#    0.000    0.000    0.000    0.000    0.000    0.000 
#
# Total GULP energy -167120.424117 kJ/mol
# GULP energy per Si atom -5570.680804 kJ/mol
# Density = 1.816393 g / cm^3
# Si number density = 18.205365 Si / 1000 Ang^3
#
#
#
# Elastic Constant Matrix: (Units=GPa)
#
#
# Indices 1 2 3 4 5 6 
#
# 1 97.3885 38.0073 29.7118 -0.0029 9.2245 0.0018
# 2 38.0073 77.6627 44.3287 -0.0029 10.2817 0.0020
# 3 29.7118 44.3287 85.9642 -0.0043 9.1579 0.0044
# 4 -0.0029 -0.0029 -0.0043 26.2835 0.0043 10.4002
# 5 9.2245 10.2817 9.1579 0.0043 28.6190 -0.0044
# 6 0.0018 0.0020 0.0044 10.4002 -0.0044 13.9509
#
#
#
# Elastic Compliance Matrix: (Units=1/GPa)
#
#
# Indices 1 2 3 4 5 6 
#
# 1 0.012952 -0.005179 -0.001614 0.000002 -0.001797 -0.000002
# 2 -0.005179 0.020698 -0.008561 0.000001 -0.003027 -0.000002
# 3 -0.001614 -0.008561 0.016795 0.000005 -0.001778 -0.000008
# 4 0.000002 0.000001 0.000005 0.053966 -0.000017 -0.040231
# 5 -0.001797 -0.003027 -0.001778 -0.000017 0.037178 0.000026
# 6 -0.000002 -0.000002 -0.000008 -0.040231 0.000026 0.101672
#
#
# Mechanical properties :
#
#
# Convention : Reuss Voigt Hill
#
# Bulk Modulus (GPa) = 50.66833 53.90124 52.28479
# Shear Modulus (GPa) = 17.82229 23.70183 20.76206
#
# Velocity S-wave (km/s) = 3.13223 3.61212 3.38070
# Velocity P-wave (km/s) = 6.40102 6.86062 6.63480
#
# Compressibility (1/GPa) = 0.01973619
#
# Stress axis : x y z
#
# Youngs Moduli (GPa) = 77.20686 48.31409 59.54296
#
# Poissons Ratio (x) = 0.25023 0.09613
# Poissons Ratio (y) = 0.39987 0.50972
# Poissons Ratio (z) = 0.12465 0.41360
#
# Static dielectric constant tensor:
#      x y z
#    x 1.704350 0.000000 -0.040530 
#    y 0.000000 1.594020 0.000000 
#    z -0.040530 0.000000 1.666640 
# 
# From -- ./inp_files/160471.got.cif
#   From: 2010.05.17/outbox.cif.g08.bks.cpg/sg12_81_cif.got.tgz:160471.got - 2010.06.03 13:09:07.
