data_PCOD9179866
_publ_section_title
;
Structure prediction by ZEFSAII (Michael W. Deem and Ramdas Pophale) SiO2 
 PCOD9179866
Probable space group: C 2/M
;
_chemical_formula_sum "Si O2"
_cell_formula_units_Z 64
_cell_length_a 26.823615
_cell_length_b 20.645306
_cell_length_c 12.899705
_cell_angle_alpha 90.000000
_cell_angle_beta 156.422904
_cell_angle_gamma 90.000000
_cell_volume 2857.324734
_symmetry_space_group_name_H-M "C 2/M"
_symmetry_group_IT_number 12
_symmetry_cell_setting 'monoclinic'
loop_
_space_group_symop_operation_xyz
x,y,z
-x,y,-z
-x,-y,-z
x,-y,z
1/2+x,1/2+y,z
1/2-x,1/2+y,-z
1/2-x,1/2-y,-z
1/2+x,1/2-y,z
loop_
_atom_site_type_symbol
_atom_site_label
_atom_site_fract_x
_atom_site_fract_y
_atom_site_fract_z
Si Si1 0.057904 0.578153 0.366131
Si Si2 0.755001 0.425607 0.092611
Si Si3 0.142078 0.570787 0.307403
Si Si4 0.213295 0.424696 0.087070
Si Si5 0.622097 0.304486 0.915257
Si Si6 0.398948 0.300189 0.887854
Si Si7 0.156222 0.205924 0.618276
Si Si8 0.729420 0.814487 0.377082
O O1 0.049463 0.500000 0.342106
O O2 0.139380 0.592222 0.622385
O O3 0.127918 0.599721 0.395875
O O4 0.915883 0.599532 0.108481
O O5 0.712221 0.500000 0.033141
O O6 0.806556 0.426001 0.074717
O O7 0.653963 0.368817 0.911835
O O8 0.199334 0.500000 0.427166
O O9 0.210686 0.609175 0.347634
O O10 0.000000 0.565912 0.000000
O O11 0.241076 0.500000 0.170431
O O12 0.315009 0.369094 0.300660
O O13 0.486041 0.276856 0.626120
O O14 0.608535 0.325336 0.011021
O O15 0.736453 0.252853 0.130014
O O16 0.399856 0.221671 0.896317
O O17 0.275246 0.305194 0.582469
O O18 0.500000 0.326355 0.000000
O O19 0.175545 0.208037 0.530104
#
# Coordination Sequence:
#
# PCOD9179866 Si02
#       8
#     8   8   8   8   8   8   8   8
#     4   9  18  35  61  94 130 165 209 263 319 380
#     4  10  22  42  68  93 124 166 215 269 323 384
#     4  10  19  31  51  86 127 164 201 247 307 373
#     4  10  22  41  67  97 125 163 215 268 324 383
#     4  11  25  43  64  96 130 169 216 261 323 386
#     4  10  19  36  58  82 118 158 206 251 298 365
#     4  11  25  42  64  94 133 171 211 266 322 379
#     4  10  20  34  57  86 118 163 206 250 305 364
#
# _framework density 22.398575000000001
#
# number of rings (size 3 to 8) (size 9 to 14) (size 15 to 20)
#    0.000    1.875    1.250    2.250    1.750    5.500 
#    0.000    1.250    0.000    0.750    0.000    0.000 
#    0.000    0.000    0.000    0.000    0.000    0.000 
#
# Total GULP energy -178351.379254 kJ/mol
# GULP energy per Si atom -5573.480602 kJ/mol
# Density = 2.234759 g / cm^3
# Si number density = 22.398575 Si / 1000 Ang^3
#
#
#
# Elastic Constant Matrix: (Units=GPa)
#
#
# Indices 1 2 3 4 5 6 
#
# 1 59.8352 21.7738 7.4753 0.0000 -1.0905 0.0000
# 2 21.7738 80.9661 27.8066 0.0000 14.6197 0.0000
# 3 7.4753 27.8066 81.6660 0.0000 13.6187 0.0000
# 4 0.0000 0.0000 0.0000 20.3827 0.0000 0.9911
# 5 -1.0905 14.6197 13.6187 0.0000 29.9626 0.0000
# 6 0.0000 0.0000 0.0000 0.9911 0.0000 35.3314
#
#
#
# Elastic Compliance Matrix: (Units=1/GPa)
#
#
# Indices 1 2 3 4 5 6 
#
# 1 0.018861 -0.005575 -0.000429 0.000000 0.003602 0.000000
# 2 -0.005575 0.016376 -0.004003 0.000000 -0.006374 0.000000
# 3 -0.000429 -0.004003 0.014417 0.000000 -0.004615 0.000000
# 4 0.000000 0.000000 0.000000 0.049128 0.000000 -0.001378
# 5 0.003602 -0.006374 -0.004615 0.000000 0.038714 0.000000
# 6 0.000000 0.000000 0.000000 -0.001378 0.000000 0.028342
#
#
# Mechanical properties :
#
#
# Convention : Reuss Voigt Hill
#
# Bulk Modulus (GPa) = 33.73808 37.39764 35.56786
# Shear Modulus (GPa) = 25.54542 28.16279 26.85411
#
# Velocity S-wave (km/s) = 3.38078 3.54976 3.46630
# Velocity P-wave (km/s) = 5.50771 5.79083 5.65104
#
# Compressibility (1/GPa) = 0.02964010
#
# Stress axis : x y z
#
# Youngs Moduli (GPa) = 53.02071 61.06623 69.36382
#
# Poissons Ratio (x) = 0.34045 0.02974
# Poissons Ratio (y) = 0.29560 0.27763
# Poissons Ratio (z) = 0.02273 0.24442
#
# Static dielectric constant tensor:
#      x y z
#    x 1.829910 0.000000 -0.014880 
#    y 0.000000 2.119070 0.000000 
#    z -0.014880 0.000000 1.914820 
# 
# From -- ./inp_files/251955.got.cif
#   From: 2010.05.17/outbox.cif.g08.bks.cpg/sg12_126_cif.got.tgz:251955.got - 2010.06.03 13:09:07.
