data_PCOD9179559
_publ_section_title
;
Structure prediction by ZEFSAII (Michael W. Deem and Ramdas Pophale) SiO2 
 PCOD9179559
Probable space group: C 2/M
;
_chemical_formula_sum "Si O2"
_cell_formula_units_Z 48
_cell_length_a 25.758775
_cell_length_b 8.959017
_cell_length_c 18.294975
_cell_angle_alpha 90.000000
_cell_angle_beta 135.234140
_cell_angle_gamma 90.000000
_cell_volume 2973.174272
_symmetry_space_group_name_H-M "C 2/M"
_symmetry_group_IT_number 12
_symmetry_cell_setting 'monoclinic'
loop_
_space_group_symop_operation_xyz
x,y,z
-x,y,-z
-x,-y,-z
x,-y,z
1/2+x,1/2+y,z
1/2-x,1/2+y,-z
1/2-x,1/2-y,-z
1/2+x,1/2-y,z
loop_
_atom_site_type_symbol
_atom_site_label
_atom_site_fract_x
_atom_site_fract_y
_atom_site_fract_z
Si Si1 0.450894 0.322561 0.782345
Si Si2 0.068340 0.671098 0.625653
Si Si3 0.560637 0.829141 0.995345
Si Si4 0.952059 0.679831 0.624171
Si Si5 0.665816 0.820080 0.223752
Si Si6 0.162092 0.177607 0.602867
O O1 0.446433 0.500000 0.772619
O O2 0.447169 0.247704 0.699420
O O3 0.384258 0.260350 0.765950
O O4 0.526107 0.272708 0.898413
O O5 0.094134 0.500000 0.658558
O O6 0.129862 0.770787 0.648907
O O7 0.000000 0.669865 0.500000
O O8 0.029305 0.721194 0.661382
O O9 0.634165 0.781094 0.111577
O O10 0.568092 0.000000 0.976388
O O11 0.500000 0.830563 0.000000
O O12 0.948430 0.500000 0.622065
O O13 0.886253 0.741381 0.507489
O O14 0.751711 0.785367 0.317305
O O15 0.655719 0.000000 0.221290
O O16 0.153203 0.000000 0.586270
#
# Coordination Sequence:
#
# PCOD9179559 Si02
#       6
#     8   8   8   8   8   8
#     4  11  21  31  48  74  98 122 158 203 241 272
#     4   8  16  31  49  68  91 124 162 193 230 282
#     4   8  15  31  51  67  90 126 161 190 228 284
#     4  10  20  34  50  68  96 132 162 190 233 289
#     4   9  19  34  50  70  98 131 159 185 232 292
#     4  10  19  31  50  75  99 123 156 198 236 274
#
# _framework density 16.144361
#
# number of rings (size 3 to 8) (size 9 to 14) (size 15 to 20)
#    0.000    2.667    0.000    4.500    0.000    8.667 
#    0.000    0.000    0.000    1.000    0.000    0.000 
#    0.000    0.000    0.000    0.000    0.000    0.000 
#
# Total GULP energy -133714.719246 kJ/mol
# GULP energy per Si atom -5571.446635 kJ/mol
# Density = 1.610762 g / cm^3
# Si number density = 16.144361 Si / 1000 Ang^3
#
#
#
# Elastic Constant Matrix: (Units=GPa)
#
#
# Indices 1 2 3 4 5 6 
#
# 1 101.5915 58.6964 66.2434 0.0000 -8.7104 0.0000
# 2 58.6964 74.1874 53.1704 0.0000 -6.9997 0.0000
# 3 66.2434 53.1704 97.5459 0.0000 -10.7778 0.0000
# 4 0.0000 0.0000 0.0000 19.8553 0.0000 -1.0628
# 5 -8.7104 -6.9997 -10.7778 0.0000 -2.5928 0.0000
# 6 0.0000 0.0000 0.0000 -1.0628 0.0000 26.0477
#
#
#
# Elastic Compliance Matrix: (Units=1/GPa)
#
#
# Indices 1 2 3 4 5 6 
#
# 1 0.021979 -0.011101 -0.009403 0.000000 -0.004780 0.000000
# 2 -0.011101 0.027566 -0.007941 0.000000 -0.004114 0.000000
# 3 -0.009403 -0.007941 0.018382 0.000000 -0.023384 0.000000
# 4 0.000000 0.000000 0.000000 0.050475 0.000000 0.002059
# 5 -0.004780 -0.004114 -0.023384 0.000000 -0.261317 0.000000
# 6 0.000000 0.000000 0.000000 0.002059 0.000000 0.038475
#
#
# Mechanical properties :
#
#
# Convention : Reuss Voigt Hill
#
# Bulk Modulus (GPa) = 90.61451 69.94947 80.28199
# Shear Modulus (GPa) = -113.97076 15.00968 -49.48054
#
# Velocity S-wave (km/s) = -8.41119 3.05243 -5.54214
# Velocity P-wave (km/s) = 6.17100 7.47293 2.98022
#
# Compressibility (1/GPa) = 0.01103576
#
# Stress axis : x y z
#
# Youngs Moduli (GPa) = 45.49891 36.27644 54.40091
#
# Poissons Ratio (x) = 0.40272 0.51152
# Poissons Ratio (y) = 0.50510 0.43202
# Poissons Ratio (z) = 0.42781 0.28809
#
# Static dielectric constant tensor:
#      x y z
#    x 1.537150 0.000000 0.001790 
#    y 0.000000 1.539230 0.000000 
#    z 0.001790 0.000000 1.544790 
# 
# From -- ./inp_files/281804.got.cif
#   From: 2010.05.17/outbox.cif.g08.bks.cpg/sg12_141_cif.got.tgz:281804.got - 2010.06.03 13:09:07.
