data_PCOD9179153
_publ_section_title
;
Structure prediction by ZEFSAII (Michael W. Deem and Ramdas Pophale) SiO2 
 PCOD9179153
Probable space group: C 2/M
;
_chemical_formula_sum "Si O2"
_cell_formula_units_Z 44
_cell_length_a 28.764783
_cell_length_b 13.172855
_cell_length_c 6.445174
_cell_angle_alpha 90.000000
_cell_angle_beta 118.460115
_cell_angle_gamma 90.000000
_cell_volume 2147.030316
_symmetry_space_group_name_H-M "C 2/M"
_symmetry_group_IT_number 12
_symmetry_cell_setting 'monoclinic'
loop_
_space_group_symop_operation_xyz
x,y,z
-x,y,-z
-x,-y,-z
x,-y,z
1/2+x,1/2+y,z
1/2-x,1/2+y,-z
1/2-x,1/2-y,-z
1/2+x,1/2-y,z
loop_
_atom_site_type_symbol
_atom_site_label
_atom_site_fract_x
_atom_site_fract_y
_atom_site_fract_z
Si Si1 0.211197 0.616366 0.609546
Si Si2 0.500000 0.220268 0.500000
Si Si3 0.116349 0.708333 0.658039
Si Si4 0.038280 0.107787 0.886455
Si Si5 0.805455 0.253596 0.797763
Si Si6 0.136907 0.115633 0.390253
O O1 0.227358 0.500000 0.674541
O O2 0.155390 0.637987 0.605110
O O3 0.204560 0.643087 0.351106
O O4 0.255220 0.695579 0.789285
O O5 0.555639 0.168867 0.549035
O O6 0.478077 0.295630 0.277528
O O7 0.115245 0.816620 0.533502
O O8 0.147552 0.728069 0.939624
O O9 0.035319 0.000000 0.763694
O O10 0.094406 0.113249 0.115269
O O11 0.000000 0.103334 0.000000
O O12 0.817983 0.177818 0.630982
O O13 0.149414 0.000000 0.477490
#
# Coordination Sequence:
#
# PCOD9179153 Si02
#       6
#     8   4   8   8   8   8
#     4  10  23  43  64  87 116 151 197 252 299 347
#     4  12  21  34  55  82 122 166 194 238 286 344
#     4  11  23  37  59  90 121 158 201 239 292 352
#     4  10  19  31  48  77 118 162 199 232 280 344
#     4  10  21  41  64  89 118 152 195 243 302 355
#     4  10  20  33  53  87 125 157 194 236 286 353
#
# _framework density 20.493421999999999
#
# number of rings (size 3 to 8) (size 9 to 14) (size 15 to 20)
#    0.000    1.636    3.636    1.364    0.000    2.909 
#    0.000    0.455    0.000    1.091    0.000    0.000 
#    0.000    0.000    0.000    0.000    0.000    0.000 
#
# Total GULP energy -122524.474706 kJ/mol
# GULP energy per Si atom -5569.294305 kJ/mol
# Density = 2.044678 g / cm^3
# Si number density = 20.493422 Si / 1000 Ang^3
#
#
#
# Elastic Constant Matrix: (Units=GPa)
#
#
# Indices 1 2 3 4 5 6 
#
# 1 116.5616 9.3704 10.1423 0.0000 19.0348 0.0000
# 2 9.3704 48.2721 8.1064 0.0000 -3.0598 0.0000
# 3 10.1423 8.1064 88.8914 0.0000 11.3247 0.0000
# 4 0.0000 0.0000 0.0000 26.2812 0.0000 -5.2051
# 5 19.0348 -3.0598 11.3247 0.0000 27.0868 0.0000
# 6 0.0000 0.0000 0.0000 -5.2051 0.0000 22.4334
#
#
#
# Elastic Compliance Matrix: (Units=1/GPa)
#
#
# Indices 1 2 3 4 5 6 
#
# 1 0.009959 -0.002396 0.000009 0.000000 -0.007272 0.000000
# 2 -0.002396 0.021907 -0.002381 0.000000 0.005154 0.000000
# 3 0.000009 -0.002381 0.012148 0.000000 -0.005354 0.000000
# 4 0.000000 0.000000 0.000000 0.039883 0.000000 0.009254
# 5 -0.007272 0.005154 -0.005354 0.000000 0.044850 0.000000
# 6 0.000000 0.000000 0.000000 0.009254 0.000000 0.046724
#
#
# Mechanical properties :
#
#
# Convention : Reuss Voigt Hill
#
# Bulk Modulus (GPa) = 29.00391 34.32926 31.66658
# Shear Modulus (GPa) = 25.44552 30.23402 27.83977
#
# Velocity S-wave (km/s) = 3.52752 3.84514 3.68975
# Velocity P-wave (km/s) = 5.54749 6.04162 5.79982
#
# Compressibility (1/GPa) = 0.03447811
#
# Stress axis : x y z
#
# Youngs Moduli (GPa) = 100.41594 45.64658 82.31858
#
# Poissons Ratio (x) = 0.10935 -0.00072
# Poissons Ratio (y) = 0.24055 0.19601
# Poissons Ratio (z) = -0.00088 0.10869
#
# Static dielectric constant tensor:
#      x y z
#    x 1.767220 0.000000 -0.059460 
#    y 0.000000 1.763100 0.000000 
#    z -0.059460 0.000000 1.665230 
# 
# From -- ./inp_files/31345.got.cif
#   From: 2010.05.17/outbox.cif.g08.bks.cpg/sg12_16_cif.got.tgz:31345.got - 2010.06.03 13:09:07.
