data_PCOD9179011
_publ_section_title
;
Structure prediction by ZEFSAII (Michael W. Deem and Ramdas Pophale) SiO2 
 PCOD9179011
Probable space group: C 2/M
;
_chemical_formula_sum "Si O2"
_cell_formula_units_Z 40
_cell_length_a 14.732212
_cell_length_b 9.638706
_cell_length_c 14.144990
_cell_angle_alpha 90.000000
_cell_angle_beta 117.980207
_cell_angle_gamma 90.000000
_cell_volume 1773.797357
_symmetry_space_group_name_H-M "C 2/M"
_symmetry_group_IT_number 12
_symmetry_cell_setting 'monoclinic'
loop_
_space_group_symop_operation_xyz
x,y,z
-x,y,-z
-x,-y,-z
x,-y,z
1/2+x,1/2+y,z
1/2-x,1/2+y,-z
1/2-x,1/2-y,-z
1/2+x,1/2-y,z
loop_
_atom_site_type_symbol
_atom_site_label
_atom_site_fract_x
_atom_site_fract_y
_atom_site_fract_z
Si Si1 0.353392 0.832506 0.523054
Si Si2 0.701848 0.344963 0.191916
Si Si3 0.348142 0.652915 0.044339
Si Si4 0.423235 0.165173 0.339592
Si Si5 0.972468 0.655328 0.873320
O O1 0.250000 0.750000 0.500000
O O2 0.461454 0.782220 0.623697
O O3 0.383025 0.808256 0.427094
O O4 0.339153 0.000000 0.529454
O O5 0.701011 0.500000 0.237684
O O6 0.642676 0.364008 0.064441
O O7 0.819723 0.302338 0.231475
O O8 0.639131 0.217703 0.204565
O O9 0.333118 0.500000 0.078870
O O10 0.250000 0.750000 0.000000
O O11 0.447252 0.734076 0.126752
O O12 0.435960 0.000000 0.339480
O O13 0.985629 0.500000 0.842023
O O14 0.000000 0.644538 0.000000
#
# Coordination Sequence:
#
# PCOD9179011 Si02
#       5
#     8   8   8   8   8
#     4   9  17  33  56  78 103 136 169 205 253 311
#     4   9  17  32  52  71  94 129 171 205 244 302
#     4  10  19  31  48  69  97 133 170 208 250 295
#     4   8  16  33  55  75 102 139 171 203 254 313
#     4   9  17  30  48  68  93 125 161 202 247 292
#
# _framework density 22.550488999999999
#
# number of rings (size 3 to 8) (size 9 to 14) (size 15 to 20)
#    0.000    3.000    0.000    2.400    0.000    3.200 
#    3.600    4.000    0.000    0.000    0.000    0.000 
#    0.000    0.000    0.000    0.000    0.000    0.000 
#
# Total GULP energy -111354.685388 kJ/mol
# GULP energy per Si atom -5567.734269 kJ/mol
# Density = 2.249916 g / cm^3
# Si number density = 22.550489 Si / 1000 Ang^3
#
#
#
# Elastic Constant Matrix: (Units=GPa)
#
#
# Indices 1 2 3 4 5 6 
#
# 1 117.3700 58.6394 47.0229 0.0000 45.9685 0.0000
# 2 58.6394 147.6985 28.0936 0.0000 38.3276 0.0000
# 3 47.0229 28.0936 103.5823 0.0000 38.2161 0.0000
# 4 0.0000 0.0000 0.0000 17.9322 0.0000 16.3214
# 5 45.9685 38.3276 38.2161 0.0000 54.4717 0.0000
# 6 0.0000 0.0000 0.0000 16.3214 0.0000 31.9021
#
#
#
# Elastic Compliance Matrix: (Units=1/GPa)
#
#
# Indices 1 2 3 4 5 6 
#
# 1 0.014264 -0.003080 -0.002696 0.000000 -0.007978 0.000000
# 2 -0.003080 0.008949 0.000452 0.000000 -0.004015 0.000000
# 3 -0.002696 0.000452 0.013538 0.000000 -0.007540 0.000000
# 4 0.000000 0.000000 0.000000 0.104362 0.000000 -0.053393
# 5 -0.007978 -0.004015 -0.007540 0.000000 0.033207 0.000000
# 6 0.000000 0.000000 0.000000 -0.053393 0.000000 0.058662
#
#
# Mechanical properties :
#
#
# Convention : Reuss Voigt Hill
#
# Bulk Modulus (GPa) = 38.30999 70.68474 54.49736
# Shear Modulus (GPa) = 19.81534 36.52086 28.16810
#
# Velocity S-wave (km/s) = 2.96752 4.02869 3.53811
# Velocity P-wave (km/s) = 5.36349 7.28379 6.39611
#
# Compressibility (1/GPa) = 0.02610285
#
# Stress axis : x y z
#
# Youngs Moduli (GPa) = 70.10744 111.74208 73.86856
#
# Poissons Ratio (x) = 0.34414 0.19918
# Poissons Ratio (y) = 0.21591 -0.03341
# Poissons Ratio (z) = 0.18904 -0.05054
#
# Static dielectric constant tensor:
#      x y z
#    x 1.986360 0.000000 -0.112090 
#    y 0.000000 1.854340 0.000000 
#    z -0.112090 0.000000 1.979760 
# 
# From -- ./inp_files/296342.got.cif
#   From: 2010.05.17/outbox.cif.g08.bks.cpg/sg12_149_cif.got.tgz:296342.got - 2010.06.03 13:09:07.
