data_PCOD9179393
_publ_section_title
;
Structure prediction by ZEFSAII (Michael W. Deem and Ramdas Pophale) SiO2 
 PCOD9179393
Probable space group: C 2/M
;
_chemical_formula_sum "Si O2"
_cell_formula_units_Z 56
_cell_length_a 24.686185
_cell_length_b 7.527625
_cell_length_c 14.539980
_cell_angle_alpha 90.000000
_cell_angle_beta 68.453301
_cell_angle_gamma 90.000000
_cell_volume 2513.124861
_symmetry_space_group_name_H-M "C 2/M"
_symmetry_group_IT_number 12
_symmetry_cell_setting 'monoclinic'
loop_
_space_group_symop_operation_xyz
x,y,z
-x,y,-z
-x,-y,-z
x,-y,z
1/2+x,1/2+y,z
1/2-x,1/2+y,-z
1/2-x,1/2-y,-z
1/2+x,1/2-y,z
loop_
_atom_site_type_symbol
_atom_site_label
_atom_site_fract_x
_atom_site_fract_y
_atom_site_fract_z
Si Si1 0.102067 0.706412 0.174432
Si Si2 0.434062 0.286704 0.514521
Si Si3 0.766516 0.213838 0.383327
Si Si4 0.672811 0.797283 0.296416
Si Si5 0.475378 0.714199 0.298241
Si Si6 0.615392 0.714703 0.786897
Si Si7 0.560893 0.791218 0.004270
O O1 0.117784 0.500000 0.150343
O O2 0.151172 0.783217 0.212510
O O3 0.040146 0.713742 0.265795
O O4 0.085311 0.785309 0.085189
O O5 0.500000 0.242186 0.500000
O O6 0.427296 0.500000 0.529625
O O7 0.385100 0.199018 0.605330
O O8 0.432463 0.240163 0.408314
O O9 0.750000 0.250000 0.500000
O O10 0.720589 0.283086 0.335537
O O11 0.829629 0.274521 0.307603
O O12 0.766062 0.000000 0.377955
O O13 0.691563 0.000000 0.265104
O O14 0.480961 0.500000 0.295817
O O15 0.444036 0.774524 0.225526
O O16 0.615698 0.500000 0.785371
O O17 0.609864 0.772970 0.895226
O O18 0.549932 0.000000 0.028387
O O19 0.500000 0.716118 0.000000
#
# Coordination Sequence:
#
# PCOD9179393 Si02
#       7
#     8   8   8   8   8   8   8
#     4  10  20  34  52  77 109 141 174 221 274 324
#     4  10  19  31  49  76 110 143 176 220 273 329
#     4  10  22  41  61  83 111 147 190 231 273 327
#     4  10  21  36  55  78 108 146 184 226 276 328
#     4  10  19  31  49  76 107 140 175 217 272 327
#     4  10  21  36  56  80 109 144 185 231 275 325
#     4  10  20  35  55  81 112 145 183 228 277 329
#
# _framework density 22.283014999999999
#
# number of rings (size 3 to 8) (size 9 to 14) (size 15 to 20)
#    0.000    2.000    2.857    0.857    0.000    4.000 
#    0.000    0.714    0.000    0.000    0.000    0.000 
#    0.000    0.000    0.000    0.000    0.000    0.000 
#
# Total GULP energy -156202.269288 kJ/mol
# GULP energy per Si atom -5578.652475 kJ/mol
# Density = 2.223230 g / cm^3
# Si number density = 22.283015 Si / 1000 Ang^3
#
#
#
# Elastic Constant Matrix: (Units=GPa)
#
#
# Indices 1 2 3 4 5 6 
#
# 1 135.2487 6.5913 48.0809 0.0000 31.4986 0.0000
# 2 6.5913 56.5597 -1.8890 0.0000 4.2514 0.0000
# 3 48.0809 -1.8890 116.1650 0.0000 24.3975 0.0000
# 4 0.0000 0.0000 0.0000 7.4828 0.0000 -8.3038
# 5 31.4986 4.2514 24.3975 0.0000 40.8912 0.0000
# 6 0.0000 0.0000 0.0000 -8.3038 0.0000 3.3795
#
#
#
# Elastic Compliance Matrix: (Units=1/GPa)
#
#
# Indices 1 2 3 4 5 6 
#
# 1 0.009788 -0.000804 -0.002856 0.000000 -0.005752 0.000000
# 2 -0.000804 0.017947 0.001013 0.000000 -0.001851 0.000000
# 3 -0.002856 0.001013 0.010709 0.000000 -0.004295 0.000000
# 4 0.000000 0.000000 0.000000 -0.077396 0.000000 -0.190171
# 5 -0.005752 -0.001851 -0.004295 0.000000 0.031641 0.000000
# 6 0.000000 0.000000 0.000000 -0.190171 0.000000 -0.171368
#
#
# Mechanical properties :
#
#
# Convention : Reuss Voigt Hill
#
# Bulk Modulus (GPa) = 30.16508 45.94887 38.05698
# Shear Modulus (GPa) = -30.80040 27.36339 -1.71851
#
# Velocity S-wave (km/s) = -3.72188 3.50807 -0.87914
# Velocity P-wave (km/s) = 2.21432 6.08885 4.01067
#
# Compressibility (1/GPa) = 0.03315092
#
# Stress axis : x y z
#
# Youngs Moduli (GPa) = 102.16648 55.71933 93.37827
#
# Poissons Ratio (x) = 0.04478 0.26671
# Poissons Ratio (y) = 0.08211 -0.09462
# Poissons Ratio (z) = 0.29181 -0.05646
#
# Static dielectric constant tensor:
#      x y z
#    x 1.851400 0.000000 0.067050 
#    y 0.000000 1.868240 0.000000 
#    z 0.067050 0.000000 1.833330 
# 
# From -- ./inp_files/243662.got.cif
#   From: 2010.05.17/outbox.cif.g08.bks.cpg/sg12_122_cif.got.tgz:243662.got - 2010.06.03 13:09:07.
