data_PCOD9179056
_publ_section_title
;
Structure prediction by ZEFSAII (Michael W. Deem and Ramdas Pophale) SiO2 
 PCOD9179056
Probable space group: C 2/M
;
_chemical_formula_sum "Si O2"
_cell_formula_units_Z 64
_cell_length_a 29.696622
_cell_length_b 7.418888
_cell_length_c 12.999676
_cell_angle_alpha 90.000000
_cell_angle_beta 84.708149
_cell_angle_gamma 90.000000
_cell_volume 2851.828463
_symmetry_space_group_name_H-M "C 2/M"
_symmetry_group_IT_number 12
_symmetry_cell_setting 'monoclinic'
loop_
_space_group_symop_operation_xyz
x,y,z
-x,y,-z
-x,-y,-z
x,-y,z
1/2+x,1/2+y,z
1/2-x,1/2+y,-z
1/2-x,1/2-y,-z
1/2+x,1/2-y,z
loop_
_atom_site_type_symbol
_atom_site_label
_atom_site_fract_x
_atom_site_fract_y
_atom_site_fract_z
Si Si1 0.051701 0.219797 0.476430
Si Si2 0.953144 0.779762 0.958170
Si Si3 0.382372 0.719843 0.354884
Si Si4 0.872232 0.779225 0.124990
Si Si5 0.229655 0.788014 0.892231
Si Si6 0.913248 0.219936 0.755182
Si Si7 0.684461 0.713921 0.264951
Si Si8 0.698024 0.715115 0.490315
O O1 0.080842 0.277620 0.568759
O O2 0.071427 0.276968 0.361933
O O3 0.000000 0.274852 0.500000
O O4 0.053210 0.000000 0.475547
O O5 0.944820 0.721449 0.842441
O O6 0.954031 0.000000 0.958097
O O7 0.909667 0.724278 0.034372
O O8 0.000000 0.720510 0.000000
O O9 0.383616 0.500000 0.352172
O O10 0.386886 0.777445 0.236488
O O11 0.334355 0.779231 0.412111
O O12 0.821036 0.714629 0.113112
O O13 0.871702 0.000000 0.123126
O O14 0.268164 0.738451 0.802096
O O15 0.224387 0.000000 0.883703
O O16 0.250000 0.750000 0.000000
O O17 0.860985 0.277376 0.782426
O O18 0.914828 0.000000 0.755677
O O19 0.678566 0.500000 0.274927
O O20 0.685497 0.787747 0.380546
O O21 0.691401 0.500000 0.487932
O O22 0.750000 0.750000 0.500000
#
# Coordination Sequence:
#
# PCOD9179056 Si02
#       8
#     8   8   8   8   8   8   8   8
#     4   9  16  24  40  65  93 132 171 205 250 308
#     4   9  17  26  39  60  88 126 164 199 247 304
#     4   9  16  28  43  64  97 131 166 203 250 303
#     4   9  18  30  44  65  95 130 164 205 250 297
#     4  11  22  36  54  76 102 136 174 212 257 303
#     4   9  16  28  43  64  96 131 168 209 256 307
#     4  10  19  33  52  73 102 137 171 210 259 310
#     4  10  19  31  48  71 100 137 173 209 256 305
#
# _framework density 22.441742000000001
#
# number of rings (size 3 to 8) (size 9 to 14) (size 15 to 20)
#    0.000    2.500    1.250    1.875    1.750    3.500 
#    0.000    0.000    0.000    0.000    0.000    0.000 
#    0.000   14.500    0.000    0.000    0.250    0.000 
#
# Total GULP energy -178744.159995 kJ/mol
# GULP energy per Si atom -5585.755000 kJ/mol
# Density = 2.239066 g / cm^3
# Si number density = 22.441742 Si / 1000 Ang^3
#
#
#
# Elastic Constant Matrix: (Units=GPa)
#
#
# Indices 1 2 3 4 5 6 
#
# 1 165.0197 -1.5835 66.3445 0.0000 16.7828 0.0000
# 2 -1.5835 67.7809 -1.4003 0.0000 2.1656 0.0000
# 3 66.3445 -1.4003 145.2399 0.0000 17.5357 0.0000
# 4 0.0000 0.0000 0.0000 -11.0285 0.0000 -2.5394
# 5 16.7828 2.1656 17.5357 0.0000 40.9051 0.0000
# 6 0.0000 0.0000 0.0000 -2.5394 0.0000 9.8656
#
#
#
# Elastic Compliance Matrix: (Units=1/GPa)
#
#
# Indices 1 2 3 4 5 6 
#
# 1 0.007536 0.000164 -0.003234 0.000000 -0.001714 0.000000
# 2 0.000164 0.014791 0.000180 0.000000 -0.000927 0.000000
# 3 -0.003234 0.000180 0.008653 0.000000 -0.002392 0.000000
# 4 0.000000 0.000000 0.000000 -0.085601 0.000000 -0.022033
# 5 -0.001714 -0.000927 -0.002392 0.000000 0.026225 0.000000
# 6 0.000000 0.000000 0.000000 -0.022033 0.000000 0.095691
#
#
# Mechanical properties :
#
#
# Convention : Reuss Voigt Hill
#
# Bulk Modulus (GPa) = 39.68395 56.08466 47.88430
# Shear Modulus (GPa) = 61.36928 28.92711 45.14820
#
# Velocity S-wave (km/s) = 5.23502 3.59414 4.49017
# Velocity P-wave (km/s) = 7.36628 6.50148 6.94735
#
# Compressibility (1/GPa) = 0.02519911
#
# Stress axis : x y z
#
# Youngs Moduli (GPa) = 132.69792 67.61059 115.56841
#
# Poissons Ratio (x) = -0.01109 0.37372
# Poissons Ratio (y) = -0.02177 -0.02076
# Poissons Ratio (z) = 0.42912 -0.01215
#
# Static dielectric constant tensor:
#      x y z
#    x 1.796260 0.000000 0.018140 
#    y 0.000000 1.826010 0.000000 
#    z 0.018140 0.000000 1.797130 
# 
# From -- ./inp_files/182078.got.cif
#   From: 2010.05.17/outbox.cif.g08.bks.cpg/sg12_92_cif.got.tgz:182078.got - 2010.06.03 13:09:07.
