data_PCOD9179776
_publ_section_title
;
Structure prediction by ZEFSAII (Michael W. Deem and Ramdas Pophale) SiO2 
 PCOD9179776
Probable space group: C 2/M
;
_chemical_formula_sum "Si O2"
_cell_formula_units_Z 56
_cell_length_a 19.487394
_cell_length_b 8.949785
_cell_length_c 28.590471
_cell_angle_alpha 90.000000
_cell_angle_beta 39.243263
_cell_angle_gamma 90.000000
_cell_volume 3154.471890
_symmetry_space_group_name_H-M "C 2/M"
_symmetry_group_IT_number 12
_symmetry_cell_setting 'monoclinic'
loop_
_space_group_symop_operation_xyz
x,y,z
-x,y,-z
-x,-y,-z
x,-y,z
1/2+x,1/2+y,z
1/2-x,1/2+y,-z
1/2-x,1/2-y,-z
1/2+x,1/2-y,z
loop_
_atom_site_type_symbol
_atom_site_label
_atom_site_fract_x
_atom_site_fract_y
_atom_site_fract_z
Si Si1 0.097956 0.675508 0.543661
Si Si2 0.403584 0.677550 0.085611
Si Si3 0.811988 0.324680 0.397783
Si Si4 0.368744 0.177480 0.203788
Si Si5 0.027906 0.822285 0.761173
Si Si6 0.156294 0.323000 0.198214
Si Si7 0.120472 0.178249 0.318433
O O1 0.096071 0.500000 0.533530
O O2 0.134170 0.690449 0.579129
O O3 0.191019 0.759537 0.465636
O O4 0.979732 0.748032 0.601779
O O5 0.414137 0.500000 0.090316
O O6 0.402601 0.767186 0.134498
O O7 0.285156 0.698688 0.125070
O O8 0.500000 0.721082 0.000000
O O9 0.810436 0.500000 0.386592
O O10 0.883776 0.235681 0.322949
O O11 0.434753 0.263239 0.208375
O O12 0.239448 0.208361 0.276858
O O13 0.384201 0.000000 0.199968
O O14 0.914630 0.750755 0.804643
O O15 0.021644 0.000000 0.763448
O O16 0.133369 0.500000 0.213057
O O17 0.123568 0.247695 0.264714
O O18 0.105440 0.000000 0.323266
#
# Coordination Sequence:
#
# PCOD9179776 Si02
#       7
#     8   8   8   8   8   8   8
#     4  10  19  31  51  78 108 143 184 231 277 322
#     4   9  19  38  63  89 115 143 178 220 267 322
#     4  10  20  33  51  76 109 145 182 230 280 323
#     4  10  22  38  57  82 113 147 183 224 274 327
#     4  12  23  36  55  80 112 147 186 229 274 326
#     4  10  19  33  56  83 111 144 181 222 268 322
#     4  10  19  33  54  79 107 142 185 231 273 323
#
# _framework density 17.752576000000001
#
# number of rings (size 3 to 8) (size 9 to 14) (size 15 to 20)
#    0.000    1.857    1.429    3.429    0.000    3.714 
#    0.000    1.429    0.000    4.286    0.000    0.000 
#    0.000    0.000    0.000    0.000    0.000    0.000 
#
# Total GULP energy -156398.449403 kJ/mol
# GULP energy per Si atom -5585.658907 kJ/mol
# Density = 1.771217 g / cm^3
# Si number density = 17.752576 Si / 1000 Ang^3
#
#
#
# Elastic Constant Matrix: (Units=GPa)
#
#
# Indices 1 2 3 4 5 6 
#
# 1 99.5702 62.8100 28.2079 0.0000 -7.0923 0.0001
# 2 62.8100 99.2415 33.7614 0.0000 -6.9848 0.0005
# 3 28.2079 33.7614 76.8202 0.0000 -15.9824 0.0001
# 4 0.0000 0.0000 0.0000 25.9723 0.0000 -0.0450
# 5 -7.0923 -6.9848 -15.9824 0.0000 14.8675 0.0000
# 6 0.0001 0.0005 0.0001 -0.0450 0.0000 26.8884
#
#
#
# Elastic Compliance Matrix: (Units=1/GPa)
#
#
# Indices 1 2 3 4 5 6 
#
# 1 0.016959 -0.010130 -0.001394 0.000000 0.001832 0.000000
# 2 -0.010130 0.017899 -0.004383 0.000000 -0.001135 0.000000
# 3 -0.001394 -0.004383 0.019178 0.000000 0.017892 0.000000
# 4 0.000000 0.000000 0.000000 0.038503 0.000000 0.000064
# 5 0.001832 -0.001135 0.017892 0.000000 0.086835 0.000000
# 6 0.000000 0.000000 0.000000 0.000064 0.000000 0.037191
#
#
# Mechanical properties :
#
#
# Convention : Reuss Voigt Hill
#
# Bulk Modulus (GPa) = 45.00028 58.35448 51.67738
# Shear Modulus (GPa) = 19.54769 23.60250 21.57510
#
# Velocity S-wave (km/s) = 3.32191 3.65022 3.48993
# Velocity P-wave (km/s) = 6.33380 7.12094 6.73888
#
# Compressibility (1/GPa) = 0.02222208
#
# Stress axis : x y z
#
# Youngs Moduli (GPa) = 58.96686 55.86969 52.14359
#
# Poissons Ratio (x) = 0.56596 0.07268
# Poissons Ratio (y) = 0.59733 0.22853
# Poissons Ratio (z) = 0.08219 0.24486
#
# Static dielectric constant tensor:
#      x y z
#    x 1.599400 0.000000 -0.018290 
#    y 0.000000 1.587770 0.000000 
#    z -0.018290 0.000000 1.585230 
# 
# From -- ./inp_files/342556.got.cif
#   From: 2010.05.17/outbox.cif.g08.bks.cpg/sg12_172_cif.got.tgz:342556.got - 2010.06.03 13:09:07.
