data_PCOD9179246
_publ_section_title
;
Structure prediction by ZEFSAII (Michael W. Deem and Ramdas Pophale) SiO2 
 PCOD9179246
Probable space group: C 2/M
;
_chemical_formula_sum "Si O2"
_cell_formula_units_Z 48
_cell_length_a 14.112674
_cell_length_b 9.377116
_cell_length_c 27.802185
_cell_angle_alpha 90.000000
_cell_angle_beta 145.431849
_cell_angle_gamma 90.000000
_cell_volume 2087.546795
_symmetry_space_group_name_H-M "C 2/M"
_symmetry_group_IT_number 12
_symmetry_cell_setting 'monoclinic'
loop_
_space_group_symop_operation_xyz
x,y,z
-x,y,-z
-x,-y,-z
x,-y,z
1/2+x,1/2+y,z
1/2-x,1/2+y,-z
1/2-x,1/2-y,-z
1/2+x,1/2-y,z
loop_
_atom_site_type_symbol
_atom_site_label
_atom_site_fract_x
_atom_site_fract_y
_atom_site_fract_z
Si Si1 0.402687 0.838254 0.158086
Si Si2 0.379113 0.663898 0.683942
Si Si3 0.182379 0.339962 0.194716
Si Si4 0.644288 0.336119 0.518937
Si Si5 0.934415 0.840171 0.026642
Si Si6 0.410990 0.163730 0.354323
O O1 0.456606 0.733227 0.223108
O O2 0.564167 0.852053 0.192249
O O3 0.358542 0.000000 0.156484
O O4 0.253950 0.785837 0.061045
O O5 0.401892 0.500000 0.678504
O O6 0.301774 0.761859 0.609960
O O7 0.235356 0.661785 0.665757
O O8 0.222476 0.500000 0.195442
O O9 0.338606 0.250756 0.279117
O O10 0.065303 0.256927 0.108752
O O11 0.500000 0.338531 0.500000
O O12 0.673849 0.500000 0.517317
O O13 0.566545 0.242659 0.443784
O O14 0.927190 0.000000 0.045339
O O15 0.000000 0.851410 0.000000
O O16 0.445471 0.000000 0.356516
#
# Coordination Sequence:
#
# PCOD9179246 Si02
#       6
#     8   8   8   8   8   8
#     4   9  18  32  49  70  96 126 160 198 240 284
#     4   9  16  25  40  64  93 125 159 194 234 279
#     4  10  19  31  49  72  97 125 159 199 241 284
#     4   9  15  23  37  60  93 128 158 191 233 278
#     4  10  21  36  52  70  94 125 160 198 242 290
#     4   9  16  26  41  63  93 126 159 194 233 279
#
# _framework density 22.993497000000001
#
# number of rings (size 3 to 8) (size 9 to 14) (size 15 to 20)
#    0.000    2.667    0.000    2.500    0.000    7.667 
#    0.000    0.000    0.000    0.000    0.000    1.167 
#    0.000    0.000    0.000    0.000    0.000    0.000 
#
# Total GULP energy -134194.422090 kJ/mol
# GULP energy per Si atom -5591.434254 kJ/mol
# Density = 2.294116 g / cm^3
# Si number density = 22.993497 Si / 1000 Ang^3
#
#
#
# Elastic Constant Matrix: (Units=GPa)
#
#
# Indices 1 2 3 4 5 6 
#
# 1 46.7540 0.5958 10.2326 0.0000 14.1994 0.0000
# 2 0.5958 227.0126 160.0035 0.0000 -14.6883 0.0000
# 3 10.2326 160.0035 231.3652 0.0000 0.4868 0.0000
# 4 0.0000 0.0000 0.0000 40.6389 0.0000 2.5275
# 5 14.1994 -14.6883 0.4868 0.0000 34.1623 0.0000
# 6 0.0000 0.0000 0.0000 2.5275 0.0000 -4.8450
#
#
#
# Elastic Compliance Matrix: (Units=1/GPa)
#
#
# Indices 1 2 3 4 5 6 
#
# 1 0.024742 0.000055 -0.001111 0.000000 -0.010244 0.000000
# 2 0.000055 0.009112 -0.006312 0.000000 0.003985 0.000000
# 3 -0.001111 -0.006312 0.008741 0.000000 -0.002377 0.000000
# 4 0.000000 0.000000 0.000000 0.023834 0.000000 0.012433
# 5 -0.010244 0.003985 -0.002377 0.000000 0.035277 0.000000
# 6 0.000000 0.000000 0.000000 0.012433 0.000000 -0.199911
#
#
# Mechanical properties :
#
#
# Convention : Reuss Voigt Hill
#
# Bulk Modulus (GPa) = 35.89393 94.08839 64.99116
# Shear Modulus (GPa) = -67.40102 36.27789 -15.56157
#
# Velocity S-wave (km/s) = -5.42003 3.97639 -2.60432
# Velocity P-wave (km/s) = 4.85022 7.87976 4.39125
#
# Compressibility (1/GPa) = 0.02785986
#
# Stress axis : x y z
#
# Youngs Moduli (GPa) = 40.41663 109.75025 114.39692
#
# Poissons Ratio (x) = -0.00606 0.12708
# Poissons Ratio (y) = -0.00223 0.72208
# Poissons Ratio (z) = 0.04490 0.69275
#
# Static dielectric constant tensor:
#      x y z
#    x 1.954800 0.000000 0.057090 
#    y 0.000000 1.819550 0.000000 
#    z 0.057090 0.000000 1.817120 
# 
# From -- ./inp_files/244906.got.cif
#   From: 2010.05.17/outbox.cif.g08.bks.cpg/sg12_123_cif.got.tgz:244906.got - 2010.06.03 13:09:07.
