data_PCOD9179362
_publ_section_title
;
Structure prediction by ZEFSAII (Michael W. Deem and Ramdas Pophale) SiO2 
 PCOD9179362
Probable space group: C 2/M
;
_chemical_formula_sum "Si O2"
_cell_formula_units_Z 56
_cell_length_a 22.280120
_cell_length_b 13.809712
_cell_length_c 11.700730
_cell_angle_alpha 90.000000
_cell_angle_beta 61.579508
_cell_angle_gamma 90.000000
_cell_volume 3166.214159
_symmetry_space_group_name_H-M "C 2/M"
_symmetry_group_IT_number 12
_symmetry_cell_setting 'monoclinic'
loop_
_space_group_symop_operation_xyz
x,y,z
-x,y,-z
-x,-y,-z
x,-y,z
1/2+x,1/2+y,z
1/2-x,1/2+y,-z
1/2-x,1/2-y,-z
1/2+x,1/2-y,z
loop_
_atom_site_type_symbol
_atom_site_label
_atom_site_fract_x
_atom_site_fract_y
_atom_site_fract_z
Si Si1 0.300488 0.615797 0.036776
Si Si2 0.823917 0.882952 0.273887
Si Si3 0.069891 0.711529 0.475698
Si Si4 0.184055 0.383825 0.522669
Si Si5 0.097893 0.110680 0.581956
Si Si6 0.244231 0.111407 0.316964
Si Si7 0.818055 0.755635 0.812991
O O1 0.300751 0.500000 0.018096
O O2 0.331790 0.637140 0.133462
O O3 0.223904 0.660583 0.111572
O O4 0.335739 0.676523 0.904310
O O5 0.749678 0.850377 0.388308
O O6 0.883464 0.854179 0.307277
O O7 0.821764 0.000000 0.286758
O O8 0.116784 0.656735 0.525258
O O9 0.053298 0.813886 0.552255
O O10 0.117821 0.729151 0.322825
O O11 0.000000 0.663088 0.500000
O O12 0.182853 0.500000 0.519908
O O13 0.199684 0.357777 0.640115
O O14 0.172136 0.111161 0.451479
O O15 0.072871 0.000000 0.605044
O O16 0.232770 0.179950 0.220067
O O17 0.257218 0.000000 0.270771
#
# Coordination Sequence:
#
# PCOD9179362 Si02
#       7
#     8   8   8   8   8   8   8
#     4  10  19  31  49  75 102 126 155 201 253 296
#     4   8  14  27  49  73  94 118 151 197 252 293
#     4  11  22  32  47  70 100 137 170 191 231 287
#     4   9  17  30  48  72 101 126 154 199 248 291
#     4   8  16  29  46  69  94 123 160 201 244 285
#     4   8  15  28  48  73  99 123 152 199 253 295
#     4  10  20  31  49  74 102 130 162 196 245 287
#
# _framework density 17.686738999999999
#
# number of rings (size 3 to 8) (size 9 to 14) (size 15 to 20)
#    0.000    2.857    1.429    2.143    2.000    2.857 
#    0.000    0.000    0.000    0.857    0.000    3.000 
#    0.000    6.286    0.000    0.000    0.000    0.000 
#
# Total GULP energy -156036.343662 kJ/mol
# GULP energy per Si atom -5572.726559 kJ/mol
# Density = 1.764648 g / cm^3
# Si number density = 17.686739 Si / 1000 Ang^3
#
#
#
# Elastic Constant Matrix: (Units=GPa)
#
#
# Indices 1 2 3 4 5 6 
#
# 1 60.0496 2.1558 10.6849 0.0000 10.8703 0.0000
# 2 2.1558 49.7200 3.7248 0.0000 2.0544 0.0000
# 3 10.6849 3.7248 44.8308 0.0000 12.6768 0.0000
# 4 0.0000 0.0000 0.0000 21.2906 0.0000 9.0291
# 5 10.8703 2.0544 12.6768 0.0000 16.8006 0.0000
# 6 0.0000 0.0000 0.0000 9.0291 0.0000 14.8163
#
#
#
# Elastic Compliance Matrix: (Units=1/GPa)
#
#
# Indices 1 2 3 4 5 6 
#
# 1 0.018928 -0.000258 -0.001317 0.000000 -0.011222 0.000000
# 2 -0.000258 0.020273 -0.001232 0.000000 -0.001382 0.000000
# 3 -0.001317 -0.001232 0.028525 0.000000 -0.020521 0.000000
# 4 0.000000 0.000000 0.000000 0.063338 0.000000 -0.038599
# 5 -0.011222 -0.001382 -0.020521 0.000000 0.082435 0.000000
# 6 0.000000 0.000000 0.000000 -0.038599 0.000000 0.091015
#
#
# Mechanical properties :
#
#
# Convention : Reuss Voigt Hill
#
# Bulk Modulus (GPa) = 16.09993 20.85905 18.47949
# Shear Modulus (GPa) = 15.11339 19.78384 17.44862
#
# Velocity S-wave (km/s) = 2.92636 3.34813 3.14433
# Velocity P-wave (km/s) = 4.53219 5.17357 4.86346
#
# Compressibility (1/GPa) = 0.06211207
#
# Stress axis : x y z
#
# Youngs Moduli (GPa) = 52.83233 49.32615 35.05711
#
# Poissons Ratio (x) = 0.01274 0.04616
# Poissons Ratio (y) = 0.01365 0.04319
# Poissons Ratio (z) = 0.06956 0.06077
#
# Static dielectric constant tensor:
#      x y z
#    x 1.597510 0.000000 0.033870 
#    y 0.000000 1.660070 0.000000 
#    z 0.033870 0.000000 1.611950 
# 
# From -- ./inp_files/175718.got.cif
#   From: 2010.05.17/outbox.cif.g08.bks.cpg/sg12_88_cif.got.tgz:175718.got - 2010.06.03 13:09:07.
