data_PCOD9179852
_publ_section_title
;
Structure prediction by ZEFSAII (Michael W. Deem and Ramdas Pophale) SiO2 
 PCOD9179852
Probable space group: C 2/M
;
_chemical_formula_sum "Si O2"
_cell_formula_units_Z 40
_cell_length_a 8.282437
_cell_length_b 24.137578
_cell_length_c 7.704215
_cell_angle_alpha 90.000000
_cell_angle_beta 97.999853
_cell_angle_gamma 90.000000
_cell_volume 1525.222339
_symmetry_space_group_name_H-M "C 2/M"
_symmetry_group_IT_number 12
_symmetry_cell_setting 'monoclinic'
loop_
_space_group_symop_operation_xyz
x,y,z
-x,y,-z
-x,-y,-z
x,-y,z
1/2+x,1/2+y,z
1/2-x,1/2+y,-z
1/2-x,1/2-y,-z
1/2+x,1/2-y,z
loop_
_atom_site_type_symbol
_atom_site_label
_atom_site_fract_x
_atom_site_fract_y
_atom_site_fract_z
Si Si1 0.850441 0.064580 0.775847
Si Si2 0.161735 0.441872 0.403877
Si Si3 0.534345 0.335198 0.717282
Si Si4 0.460485 0.859750 0.184706
Si Si5 0.731219 0.236641 0.698463
O O1 0.803919 0.063687 0.563360
O O2 0.692457 0.096206 0.833945
O O3 0.009188 0.104301 0.798759
O O4 0.865926 0.000000 0.831614
O O5 0.178488 0.500000 0.309251
O O6 0.000000 0.444922 0.500000
O O7 0.119790 0.390996 0.279573
O O8 0.500000 0.337301 0.500000
O O9 0.686463 0.295147 0.775909
O O10 0.387782 0.298211 0.775249
O O11 0.412562 0.807724 0.294015
O O12 0.500000 0.840988 0.000000
O O13 0.750000 0.250000 0.500000
#
# Coordination Sequence:
#
# PCOD9179852 Si02
#       5
#     8   8   8   8   8
#     4   9  18  32  50  77 111 145 184 229 279 336
#     4   8  15  28  47  73 106 141 177 219 268 325
#     4   9  18  32  54  80 105 140 185 232 277 324
#     4  10  19  31  51  82 113 144 186 236 285 330
#     4   9  19  34  52  77 108 144 187 229 278 335
#
# _framework density 26.225684000000001
#
# number of rings (size 3 to 8) (size 9 to 14) (size 15 to 20)
#    0.000    3.000    0.000    1.800    0.000   15.600 
#    0.000    4.000    0.000    0.000    0.000    8.400 
#    0.000   36.800    0.000    0.000    0.000    0.000 
#
# Total GULP energy -111803.821194 kJ/mol
# GULP energy per Si atom -5590.191060 kJ/mol
# Density = 2.616599 g / cm^3
# Si number density = 26.225684 Si / 1000 Ang^3
#
#
#
# Elastic Constant Matrix: (Units=GPa)
#
#
# Indices 1 2 3 4 5 6 
#
# 1 65.7381 72.1091 19.9812 0.0000 -9.8560 0.0000
# 2 72.1091 225.5949 31.3323 0.0000 -21.4335 0.0000
# 3 19.9812 31.3323 83.2005 0.0000 -10.9694 0.0000
# 4 0.0000 0.0000 0.0000 -10.5500 0.0000 -2.4793
# 5 -9.8560 -21.4335 -10.9694 0.0000 25.0213 0.0000
# 6 0.0000 0.0000 0.0000 -2.4793 0.0000 24.8312
#
#
#
# Elastic Compliance Matrix: (Units=1/GPa)
#
#
# Indices 1 2 3 4 5 6 
#
# 1 0.024242 -0.007147 -0.002843 0.000000 0.002181 0.000000
# 2 -0.007147 0.007080 -0.000553 0.000000 0.003007 0.000000
# 3 -0.002843 -0.000553 0.013479 0.000000 0.004315 0.000000
# 4 0.000000 0.000000 0.000000 -0.092613 0.000000 -0.009247
# 5 0.002181 0.003007 0.004315 0.000000 0.045292 0.000000
# 6 0.000000 0.000000 0.000000 -0.009247 0.000000 0.039349
#
#
# Mechanical properties :
#
#
# Convention : Reuss Voigt Hill
#
# Bulk Modulus (GPa) = 42.16756 69.04208 55.60482
# Shear Modulus (GPa) = 75.96449 24.60124 50.28286
#
# Velocity S-wave (km/s) = 5.38782 3.06610 4.38346
# Velocity P-wave (km/s) = 7.40394 6.23842 6.84603
#
# Compressibility (1/GPa) = 0.02371491
#
# Stress axis : x y z
#
# Youngs Moduli (GPa) = 41.25007 141.25029 74.18794
#
# Poissons Ratio (x) = 1.00948 0.21092
# Poissons Ratio (y) = 0.29480 0.04105
# Poissons Ratio (z) = 0.11728 0.07816
#
# Static dielectric constant tensor:
#      x y z
#    x 2.149300 0.000000 0.006370 
#    y 0.000000 2.093380 0.000000 
#    z 0.006370 0.000000 2.018710 
# 
# From -- ./inp_files/39340.got.cif
#   From: 2010.05.17/outbox.cif.g08.bks.cpg/sg12_20_cif.got.tgz:39340.got - 2010.06.03 13:09:07.
