data_PCOD9179186
_publ_section_title
;
Structure prediction by ZEFSAII (Michael W. Deem and Ramdas Pophale) SiO2 
 PCOD9179186
Probable space group: C 2/M
;
_chemical_formula_sum "Si O2"
_cell_formula_units_Z 40
_cell_length_a 17.878815
_cell_length_b 9.153101
_cell_length_c 11.990017
_cell_angle_alpha 90.000000
_cell_angle_beta 115.770839
_cell_angle_gamma 90.000000
_cell_volume 1766.972836
_symmetry_space_group_name_H-M "C 2/M"
_symmetry_group_IT_number 12
_symmetry_cell_setting 'monoclinic'
loop_
_space_group_symop_operation_xyz
x,y,z
-x,y,-z
-x,-y,-z
x,-y,z
1/2+x,1/2+y,z
1/2-x,1/2+y,-z
1/2-x,1/2-y,-z
1/2+x,1/2-y,z
loop_
_atom_site_type_symbol
_atom_site_label
_atom_site_fract_x
_atom_site_fract_y
_atom_site_fract_z
Si Si1 0.057337 0.164915 0.658578
Si Si2 0.497119 0.827306 0.170416
Si Si3 0.842518 0.665630 0.441637
Si Si4 0.819677 0.668473 0.694729
Si Si5 0.164752 0.836027 0.936791
O O1 0.007606 0.279916 0.702155
O O2 0.087999 0.224955 0.560735
O O3 0.139971 0.155592 0.790128
O O4 0.022782 0.000000 0.636098
O O5 0.590957 0.790615 0.196265
O O6 0.417830 0.743689 0.068560
O O7 0.486125 0.000000 0.150967
O O8 0.861615 0.500000 0.418935
O O9 0.831662 0.667821 0.567747
O O10 0.754920 0.720476 0.334127
O O11 0.799627 0.500000 0.713198
O O12 0.172759 0.000000 0.986218
O O13 0.250000 0.750000 0.000000
#
# Coordination Sequence:
#
# PCOD9179186 Si02
#       5
#     8   8   8   8   8
#     4   9  19  32  47  71  98 125 159 199 240 283
#     4   9  17  31  50  71  96 126 160 198 238 282
#     4  10  19  31  49  70  96 132 167 197 234 281
#     4   9  19  33  48  69  98 132 164 196 237 283
#     4   9  18  31  50  73  96 123 155 196 243 288
#
# _framework density 22.637587
#
# number of rings (size 3 to 8) (size 9 to 14) (size 15 to 20)
#    1.200    1.600    0.000    1.800    0.000    3.200 
#    0.000    4.000    0.000    1.200    0.000    8.400 
#    0.000    0.000    0.000    0.000    0.000    0.000 
#
# Total GULP energy -111465.740766 kJ/mol
# GULP energy per Si atom -5573.287038 kJ/mol
# Density = 2.258606 g / cm^3
# Si number density = 22.637587 Si / 1000 Ang^3
#
#
#
# Elastic Constant Matrix: (Units=GPa)
#
#
# Indices 1 2 3 4 5 6 
#
# 1 57.8310 40.2210 17.2852 0.0000 25.0223 0.0000
# 2 40.2210 106.4221 15.4143 0.0000 28.3794 0.0000
# 3 17.2852 15.4143 62.3639 0.0000 18.9946 0.0000
# 4 0.0000 0.0000 0.0000 27.2200 0.0000 11.8310
# 5 25.0223 28.3794 18.9946 0.0000 54.7945 0.0000
# 6 0.0000 0.0000 0.0000 11.8310 0.0000 25.9255
#
#
#
# Elastic Compliance Matrix: (Units=1/GPa)
#
#
# Indices 1 2 3 4 5 6 
#
# 1 0.026717 -0.007737 -0.003351 0.000000 -0.007032 0.000000
# 2 -0.007737 0.013209 -0.000126 0.000000 -0.003265 0.000000
# 3 -0.003351 -0.000126 0.018458 0.000000 -0.004803 0.000000
# 4 0.000000 0.000000 0.000000 0.045828 0.000000 -0.020913
# 5 -0.007032 -0.003265 -0.004803 0.000000 0.024817 0.000000
# 6 0.000000 0.000000 0.000000 -0.020913 0.000000 0.048116
#
#
# Mechanical properties :
#
#
# Convention : Reuss Voigt Hill
#
# Bulk Modulus (GPa) = 27.81191 41.38423 34.59807
# Shear Modulus (GPa) = 23.63425 31.83441 27.73433
#
# Velocity S-wave (km/s) = 3.23465 3.75409 3.50400
# Velocity P-wave (km/s) = 5.12474 6.09194 5.62915
#
# Compressibility (1/GPa) = 0.03595582
#
# Stress axis : x y z
#
# Youngs Moduli (GPa) = 37.42977 75.70343 54.17786
#
# Poissons Ratio (x) = 0.58570 0.18155
# Poissons Ratio (y) = 0.28959 0.00684
# Poissons Ratio (z) = 0.12543 0.00956
#
# Static dielectric constant tensor:
#      x y z
#    x 1.840150 0.000000 0.008930 
#    y 0.000000 1.799580 0.000000 
#    z 0.008930 0.000000 1.951740 
# 
# From -- ./inp_files/273541.got.cif
#   From: 2010.05.17/outbox.cif.g08.bks.cpg/sg12_137_cif.got.tgz:273541.got - 2010.06.03 13:09:07.
