data_PCOD9179073
_publ_section_title
;
Structure prediction by ZEFSAII (Michael W. Deem and Ramdas Pophale) SiO2 
 PCOD9179073
Probable space group: C 2/M
;
_chemical_formula_sum "Si O2"
_cell_formula_units_Z 64
_cell_length_a 17.408327
_cell_length_b 14.190316
_cell_length_c 18.616940
_cell_angle_alpha 90.000000
_cell_angle_beta 124.843645
_cell_angle_gamma 90.000000
_cell_volume 3774.412532
_symmetry_space_group_name_H-M "C 2/M"
_symmetry_group_IT_number 12
_symmetry_cell_setting 'monoclinic'
loop_
_space_group_symop_operation_xyz
x,y,z
-x,y,-z
-x,-y,-z
x,-y,z
1/2+x,1/2+y,z
1/2-x,1/2+y,-z
1/2-x,1/2-y,-z
1/2+x,1/2-y,z
loop_
_atom_site_type_symbol
_atom_site_label
_atom_site_fract_x
_atom_site_fract_y
_atom_site_fract_z
Si Si1 0.049257 0.250380 0.168045
Si Si2 0.483086 0.613390 0.572618
Si Si3 0.297398 0.782115 0.639324
Si Si4 0.362853 0.108682 0.897153
Si Si5 0.717123 0.387171 0.466921
Si Si6 0.687312 0.610465 0.704430
Si Si7 0.606630 0.606094 0.086781
Si Si8 0.653856 0.747486 0.990370
O O1 0.100862 0.275164 0.269284
O O2 0.072002 0.332865 0.122577
O O3 0.100482 0.160407 0.158896
O O4 0.938416 0.232360 0.107756
O O5 0.500000 0.647537 0.500000
O O6 0.475411 0.500000 0.564511
O O7 0.386254 0.641818 0.557655
O O8 0.580202 0.635153 0.664702
O O9 0.268803 0.679044 0.594737
O O10 0.288261 0.852567 0.566832
O O11 0.228999 0.824691 0.663736
O O12 0.258391 0.117125 0.808378
O O13 0.362828 0.156933 0.974100
O O14 0.389030 0.000000 0.912703
O O15 0.720613 0.500000 0.457544
O O16 0.688370 0.500000 0.680419
O O17 0.641192 0.500000 0.111652
O O18 0.658787 0.667623 0.054900
O O19 0.500000 0.604345 0.000000
O O20 0.750000 0.750000 0.000000
#
# Coordination Sequence:
#
# PCOD9179073 Si02
#       8
#     8   8   8   8   8   8   8   8
#     4   9  19  33  49  70  93 123 164 198 230 282
#     4   9  15  26  46  69  94 119 148 194 242 279
#     4  10  19  31  48  71  96 127 157 191 243 284
#     4   9  18  32  50  71  97 129 163 196 229 276
#     4  10  20  32  47  72 101 124 154 196 242 289
#     4   9  16  29  51  76  97 121 158 198 238 285
#     4   8  15  31  52  69  88 120 156 189 230 278
#     4  10  20  32  47  71 101 125 154 198 240 281
#
# _framework density 16.956281000000001
#
# number of rings (size 3 to 8) (size 9 to 14) (size 15 to 20)
#    0.000    2.750    1.250    1.500    0.000    3.500 
#    0.000    0.000    0.000    0.000    0.000    7.875 
#    0.000    0.000    0.000    0.000    0.000    0.000 
#
# Total GULP energy -178200.593898 kJ/mol
# GULP energy per Si atom -5568.768559 kJ/mol
# Density = 1.691769 g / cm^3
# Si number density = 16.956281 Si / 1000 Ang^3
#
#
#
# Elastic Constant Matrix: (Units=GPa)
#
#
# Indices 1 2 3 4 5 6 
#
# 1 64.8847 23.5935 39.5680 0.0000 14.8343 0.0000
# 2 23.5935 88.5695 14.0028 0.0000 0.3638 0.0000
# 3 39.5680 14.0028 82.4081 0.0000 14.1399 0.0000
# 4 0.0000 0.0000 0.0000 19.0774 0.0000 0.8575
# 5 14.8343 0.3638 14.1399 0.0000 19.3209 0.0000
# 6 0.0000 0.0000 0.0000 0.8575 0.0000 12.2340
#
#
#
# Elastic Compliance Matrix: (Units=1/GPa)
#
#
# Indices 1 2 3 4 5 6 
#
# 1 0.026074 -0.005413 -0.009357 0.000000 -0.013070 0.000000
# 2 -0.005413 0.012759 -0.000276 0.000000 0.004117 0.000000
# 3 -0.009357 -0.000276 0.017658 0.000000 -0.005734 0.000000
# 4 0.000000 0.000000 0.000000 0.052584 0.000000 -0.003686
# 5 -0.013070 0.004117 -0.005734 0.000000 0.065911 0.000000
# 6 0.000000 0.000000 0.000000 -0.003686 0.000000 0.081998
#
#
# Mechanical properties :
#
#
# Convention : Reuss Voigt Hill
#
# Bulk Modulus (GPa) = 37.87806 43.35455 40.61631
# Shear Modulus (GPa) = 16.89901 20.70631 18.80266
#
# Velocity S-wave (km/s) = 3.16036 3.49830 3.33361
# Velocity P-wave (km/s) = 5.97531 6.47622 6.23080
#
# Compressibility (1/GPa) = 0.02640051
#
# Stress axis : x y z
#
# Youngs Moduli (GPa) = 38.35170 78.37551 56.63088
#
# Poissons Ratio (x) = 0.42423 0.52991
# Poissons Ratio (y) = 0.20759 0.01561
# Poissons Ratio (z) = 0.35887 0.02160
#
# Static dielectric constant tensor:
#      x y z
#    x 1.563200 0.000000 0.020650 
#    y 0.000000 1.585230 0.000000 
#    z 0.020650 0.000000 1.626770 
# 
# From -- ./inp_files/270351.got.cif
#   From: 2010.05.17/outbox.cif.g08.bks.cpg/sg12_136_cif.got.tgz:270351.got - 2010.06.03 13:09:07.
