data_PCOD9179830
_publ_section_title
;
Structure prediction by ZEFSAII (Michael W. Deem and Ramdas Pophale) SiO2 
 PCOD9179830
Probable space group: C 2/M
;
_chemical_formula_sum "Si O2"
_cell_formula_units_Z 56
_cell_length_a 17.692356
_cell_length_b 22.280152
_cell_length_c 7.743713
_cell_angle_alpha 90.000000
_cell_angle_beta 97.171695
_cell_angle_gamma 90.000000
_cell_volume 3028.600590
_symmetry_space_group_name_H-M "C 2/M"
_symmetry_group_IT_number 12
_symmetry_cell_setting 'monoclinic'
loop_
_space_group_symop_operation_xyz
x,y,z
-x,y,-z
-x,-y,-z
x,-y,z
1/2+x,1/2+y,z
1/2-x,1/2+y,-z
1/2-x,1/2-y,-z
1/2+x,1/2-y,z
loop_
_atom_site_type_symbol
_atom_site_label
_atom_site_fract_x
_atom_site_fract_y
_atom_site_fract_z
Si Si1 0.295295 0.431519 0.674956
Si Si2 0.185054 0.268818 0.268732
Si Si3 0.399589 0.339186 0.593751
Si Si4 0.589231 0.565103 0.969649
Si Si5 0.564489 0.675452 0.763858
Si Si6 0.078396 0.698624 0.936698
Si Si7 0.816719 0.680192 0.343575
O O1 0.272143 0.500000 0.629179
O O2 0.349228 0.398055 0.551539
O O3 0.228893 0.382888 0.687065
O O4 0.353349 0.433857 0.853317
O O5 0.137375 0.207971 0.287719
O O6 0.179297 0.306014 0.447700
O O7 0.267729 0.238477 0.262171
O O8 0.146039 0.302699 0.098191
O O9 0.405653 0.305734 0.414074
O O10 0.482138 0.351781 0.692542
O O11 0.596404 0.500000 0.884855
O O12 0.610164 0.621719 0.860759
O O13 0.500000 0.570396 0.000000
O O14 0.560655 0.732095 0.885016
O O15 0.110074 0.674457 0.761522
O O16 0.000000 0.673897 0.000000
#
# Coordination Sequence:
#
# PCOD9179830 Si02
#       7
#     8   8   8   8   8   8   8
#     4  10  21  39  58  76 108 156 198 237 284 331
#     4  10  20  37  55  83 117 152 185 232 286 347
#     4  10  19  31  51  80 118 148 182 227 275 337
#     4  10  19  32  49  73 107 150 198 232 265 322
#     4  11  19  30  50  82 118 149 182 228 277 332
#     4  12  22  34  60  86 116 150 189 237 293 342
#     4  10  22  38  55  82 117 151 192 235 284 341
#
# _framework density 18.490387999999999
#
# number of rings (size 3 to 8) (size 9 to 14) (size 15 to 20)
#    0.000    1.571    4.286    2.571    0.000    1.143 
#    0.000    1.429    0.000    0.429    0.000    1.000 
#    0.000    0.000    0.000    0.000    0.000    0.000 
#
# Total GULP energy -155870.127012 kJ/mol
# GULP energy per Si atom -5566.790250 kJ/mol
# Density = 1.844830 g / cm^3
# Si number density = 18.490388 Si / 1000 Ang^3
#
#
#
# Elastic Constant Matrix: (Units=GPa)
#
#
# Indices 1 2 3 4 5 6 
#
# 1 68.3718 23.0719 21.2075 0.0000 -10.4373 0.0000
# 2 23.0719 73.5327 13.7054 0.0000 1.7315 0.0000
# 3 21.2075 13.7054 63.1852 0.0000 1.6157 0.0000
# 4 0.0000 0.0000 0.0000 20.6494 0.0000 2.7186
# 5 -10.4373 1.7315 1.6157 0.0000 19.8708 0.0000
# 6 0.0000 0.0000 0.0000 2.7186 0.0000 20.9855
#
#
#
# Elastic Compliance Matrix: (Units=1/GPa)
#
#
# Indices 1 2 3 4 5 6 
#
# 1 0.020031 -0.005468 -0.005830 0.000000 0.011472 0.000000
# 2 -0.005468 0.015685 -0.001461 0.000000 -0.004120 0.000000
# 3 -0.005830 -0.001461 0.018213 0.000000 -0.004416 0.000000
# 4 0.000000 0.000000 0.000000 0.049268 0.000000 -0.006383
# 5 0.011472 -0.004120 -0.004416 0.000000 0.057069 0.000000
# 6 0.000000 0.000000 0.000000 -0.006383 0.000000 0.048479
#
#
# Mechanical properties :
#
#
# Convention : Reuss Voigt Hill
#
# Bulk Modulus (GPa) = 35.20071 35.67326 35.43698
# Shear Modulus (GPa) = 20.51414 22.10812 21.31113
#
# Velocity S-wave (km/s) = 3.33445 3.46158 3.39861
# Velocity P-wave (km/s) = 5.82266 5.94234 5.88281
#
# Compressibility (1/GPa) = 0.02840852
#
# Stress axis : x y z
#
# Youngs Moduli (GPa) = 49.92283 63.75690 54.90487
#
# Poissons Ratio (x) = 0.34865 0.32012
# Poissons Ratio (y) = 0.27300 0.08024
# Poissons Ratio (z) = 0.29107 0.09317
#
# Static dielectric constant tensor:
#      x y z
#    x 1.728240 0.000000 -0.011690 
#    y 0.000000 1.650810 0.000000 
#    z -0.011690 0.000000 1.691380 
# 
# From -- ./inp_files/76953.got.cif
#   From: 2010.05.17/outbox.cif.g08.bks.cpg/sg12_39_cif.got.tgz:76953.got - 2010.06.03 13:09:07.
