data_PCOD9179690
_publ_section_title
;
Structure prediction by ZEFSAII (Michael W. Deem and Ramdas Pophale) SiO2 
 PCOD9179690
Probable space group: C 2/M
;
_chemical_formula_sum "Si O2"
_cell_formula_units_Z 64
_cell_length_a 30.733082
_cell_length_b 8.721374
_cell_length_c 31.521574
_cell_angle_alpha 90.000000
_cell_angle_beta 28.542257
_cell_angle_gamma 90.000000
_cell_volume 4036.930085
_symmetry_space_group_name_H-M "C 2/M"
_symmetry_group_IT_number 12
_symmetry_cell_setting 'monoclinic'
loop_
_space_group_symop_operation_xyz
x,y,z
-x,y,-z
-x,-y,-z
x,-y,z
1/2+x,1/2+y,z
1/2-x,1/2+y,-z
1/2-x,1/2-y,-z
1/2+x,1/2-y,z
loop_
_atom_site_type_symbol
_atom_site_label
_atom_site_fract_x
_atom_site_fract_y
_atom_site_fract_z
Si Si1 0.327627 0.316704 0.711445
Si Si2 0.874516 0.182793 0.249179
Si Si3 0.130426 0.816007 0.567509
Si Si4 0.340595 0.817401 0.368077
Si Si5 0.977366 0.317180 0.083912
Si Si6 0.137827 0.182969 0.895186
Si Si7 0.676889 0.816732 0.379090
Si Si8 0.971526 0.184765 0.429798
O O1 0.316077 0.500000 0.722967
O O2 0.241595 0.237152 0.807128
O O3 0.329437 0.263181 0.661046
O O4 0.424139 0.276378 0.649891
O O5 0.880140 0.237009 0.292730
O O6 0.945920 0.264079 0.157036
O O7 0.773231 0.222659 0.318628
O O8 0.885041 0.000000 0.237115
O O9 0.233031 0.776298 0.464306
O O10 0.115387 0.736421 0.625479
O O11 0.061706 0.772871 0.588877
O O12 0.127615 0.000000 0.575752
O O13 0.346960 0.000000 0.358093
O O14 0.975385 0.500000 0.081680
O O15 0.906481 0.245378 0.110662
O O16 0.075290 0.253564 0.985664
O O17 0.131116 0.000000 0.901194
O O18 0.595259 0.762289 0.479085
O O19 0.673823 0.000000 0.376016
O O20 0.961363 0.000000 0.442636
#
# Coordination Sequence:
#
# PCOD9179690 Si02
#       8
#     8   8   8   8   8   8   8   8
#     4  11  22  35  52  72  99 137 179 215 250 296
#     4  11  21  33  50  75 105 137 169 205 253 304
#     4   9  18  33  50  70  99 131 167 210 257 300
#     4  10  19  31  51  74  99 130 169 210 254 303
#     4  11  21  34  54  76 100 131 168 209 253 303
#     4  11  21  35  52  73 102 133 167 210 256 301
#     4  11  22  33  48  71 103 138 175 213 250 296
#     4  10  21  36  52  71  99 138 178 214 252 299
#
# _framework density 15.853631
#
# number of rings (size 3 to 8) (size 9 to 14) (size 15 to 20)
#    0.000    1.500    2.500    4.875    0.000    4.500 
#    0.000    0.000    0.000    0.000    0.000    0.875 
#    0.000    0.000    0.000    0.000    0.000    0.000 
#
# Total GULP energy -178754.706576 kJ/mol
# GULP energy per Si atom -5586.084580 kJ/mol
# Density = 1.581755 g / cm^3
# Si number density = 15.853631 Si / 1000 Ang^3
#
#
#
# Elastic Constant Matrix: (Units=GPa)
#
#
# Indices 1 2 3 4 5 6 
#
# 1 78.3472 36.3216 58.0521 -0.0027 8.0706 -0.0004
# 2 36.3216 74.5085 53.0361 -0.0022 5.7531 0.0035
# 3 58.0521 53.0361 116.2902 -0.0095 10.1791 0.0048
# 4 -0.0027 -0.0022 -0.0095 27.4434 0.0043 4.9859
# 5 8.0706 5.7531 10.1791 0.0043 22.0862 -0.0009
# 6 -0.0004 0.0035 0.0048 4.9859 -0.0009 21.1505
#
#
#
# Elastic Compliance Matrix: (Units=1/GPa)
#
#
# Indices 1 2 3 4 5 6 
#
# 1 0.021241 -0.004095 -0.008493 -0.000001 -0.002781 0.000003
# 2 -0.004095 0.020685 -0.007345 -0.000001 -0.000506 -0.000002
# 3 -0.008493 -0.007345 0.016412 0.000005 -0.002547 -0.000004
# 4 -0.000001 -0.000001 0.000005 0.038069 -0.000009 -0.008974
# 5 -0.002781 -0.000506 -0.002547 -0.000009 0.047599 0.000005
# 6 0.000003 -0.000002 -0.000004 -0.008974 0.000005 0.049396
#
#
# Mechanical properties :
#
#
# Convention : Reuss Voigt Hill
#
# Bulk Modulus (GPa) = 54.13501 62.66284 58.39892
# Shear Modulus (GPa) = 20.88337 22.25176 21.56757
#
# Velocity S-wave (km/s) = 3.63335 3.75050 3.69239
# Velocity P-wave (km/s) = 7.19878 7.63981 7.42257
#
# Compressibility (1/GPa) = 0.01847234
#
# Stress axis : x y z
#
# Youngs Moduli (GPa) = 47.07815 48.34423 60.93234
#
# Poissons Ratio (x) = 0.19796 0.51748
# Poissons Ratio (y) = 0.19277 0.44757
# Poissons Ratio (z) = 0.39982 0.35510
#
# Static dielectric constant tensor:
#      x y z
#    x 1.513590 0.000000 -0.002260 
#    y 0.000000 1.530800 0.000010 
#    z -0.002260 0.000010 1.517390 
# 
# From -- ./inp_files/384552.got.cif
#   From: 2010.05.17/outbox.cif.g08.bks.cpg/sg12_193_cif.got.tgz:384552.got - 2010.06.03 13:09:07.
