data_PCOD9179714
_publ_section_title
;
Structure prediction by ZEFSAII (Michael W. Deem and Ramdas Pophale) SiO2 
 PCOD9179714
Probable space group: C 2/M
;
_chemical_formula_sum "Si O2"
_cell_formula_units_Z 56
_cell_length_a 16.215706
_cell_length_b 7.413101
_cell_length_c 24.442543
_cell_angle_alpha 90.000000
_cell_angle_beta 135.895669
_cell_angle_gamma 90.000000
_cell_volume 2044.894294
_symmetry_space_group_name_H-M "C 2/M"
_symmetry_group_IT_number 12
_symmetry_cell_setting 'monoclinic'
loop_
_space_group_symop_operation_xyz
x,y,z
-x,y,-z
-x,-y,-z
x,-y,z
1/2+x,1/2+y,z
1/2-x,1/2+y,-z
1/2-x,1/2-y,-z
1/2+x,1/2-y,z
loop_
_atom_site_type_symbol
_atom_site_label
_atom_site_fract_x
_atom_site_fract_y
_atom_site_fract_z
Si Si1 0.718569 0.781203 0.904788
Si Si2 0.331882 0.215803 0.237075
Si Si3 0.947016 0.205738 0.801080
Si Si4 0.406813 0.209023 0.660079
Si Si5 0.472785 0.279010 0.049136
Si Si6 0.098557 0.786220 0.617084
Si Si7 0.342590 0.279617 0.477788
O O1 0.738446 0.728241 0.850236
O O2 0.590283 0.708239 0.859337
O O3 0.835656 0.723861 0.992694
O O4 0.711479 0.000000 0.904250
O O5 0.465411 0.291207 0.291375
O O6 0.311034 0.252280 0.290732
O O7 0.333686 0.000000 0.233811
O O8 0.894763 0.288795 0.720748
O O9 0.905825 0.000000 0.782863
O O10 0.944048 0.283455 0.861398
O O11 0.290866 0.287592 0.575304
O O12 0.413247 0.000000 0.648162
O O13 0.478885 0.500000 0.053308
O O14 0.500000 0.225706 0.000000
O O15 0.135907 0.722845 0.575259
O O16 0.963942 0.718837 0.564492
O O17 0.088605 0.000000 0.607224
O O18 0.338023 0.500000 0.477682
#
# Coordination Sequence:
#
# PCOD9179714 Si02
#       7
#     8   8   8   8   8   8   8
#     4   9  18  34  53  69  94 133 163 187 232 291
#     4   9  18  30  46  70  96 124 158 193 233 282
#     4  10  19  31  51  76  97 120 158 204 238 272
#     4   9  18  34  52  68  94 130 161 190 232 288
#     4   9  18  32  50  73  99 127 160 196 235 280
#     4   9  17  31  51  71  93 123 159 198 236 277
#     4   8  16  32  51  69  91 126 165 192 228 286
#
# _framework density 27.385276999999999
#
# number of rings (size 3 to 8) (size 9 to 14) (size 15 to 20)
#    0.000    3.000    0.000    2.571    0.000    4.000 
#    0.000    5.000    0.000    3.857    0.000    0.000 
#    0.000    0.000    0.000    0.000    0.000    0.000 
#
# Total GULP energy -156497.678995 kJ/mol
# GULP energy per Si atom -5589.202821 kJ/mol
# Density = 2.732295 g / cm^3
# Si number density = 27.385277 Si / 1000 Ang^3
#
#
#
# Elastic Constant Matrix: (Units=GPa)
#
#
# Indices 1 2 3 4 5 6 
#
# 1 64.0610 -1.3214 10.6627 0.0000 -3.9383 0.0000
# 2 -1.3214 100.7637 -1.1117 0.0000 0.4828 0.0000
# 3 10.6627 -1.1117 187.6285 0.0000 -3.6257 0.0000
# 4 0.0000 0.0000 0.0000 16.0256 0.0000 -5.9994
# 5 -3.9383 0.4828 -3.6257 0.0000 59.5463 0.0000
# 6 0.0000 0.0000 0.0000 -5.9994 0.0000 11.8976
#
#
#
# Elastic Compliance Matrix: (Units=1/GPa)
#
#
# Indices 1 2 3 4 5 6 
#
# 1 0.015821 0.000193 -0.000879 0.000000 0.000991 0.000000
# 2 0.000193 0.009928 0.000047 0.000000 -0.000065 0.000000
# 3 -0.000879 0.000047 0.005385 0.000000 0.000269 0.000000
# 4 0.000000 0.000000 0.000000 0.076921 0.000000 0.038787
# 5 0.000991 -0.000065 0.000269 0.000000 0.016876 0.000000
# 6 0.000000 0.000000 0.000000 0.038787 0.000000 0.103609
#
#
# Mechanical properties :
#
#
# Convention : Reuss Voigt Hill
#
# Bulk Modulus (GPa) = 33.49450 40.99024 37.24237
# Shear Modulus (GPa) = 20.85329 40.44215 30.64772
#
# Velocity S-wave (km/s) = 2.76248 3.84706 3.34897
# Velocity P-wave (km/s) = 4.73629 5.89353 5.34631
#
# Compressibility (1/GPa) = 0.02985565
#
# Stress axis : x y z
#
# Youngs Moduli (GPa) = 63.20589 100.72959 185.69742
#
# Poissons Ratio (x) = -0.01944 0.16319
# Poissons Ratio (y) = -0.01220 -0.00865
# Poissons Ratio (z) = 0.05555 -0.00469
#
# Static dielectric constant tensor:
#      x y z
#    x 2.284870 0.000000 -0.025980 
#    y 0.000000 2.030250 0.000000 
#    z -0.025980 0.000000 2.108360 
# 
# From -- ./inp_files/342549.got.cif
#   From: 2010.05.17/outbox.cif.g08.bks.cpg/sg12_172_cif.got.tgz:342549.got - 2010.06.03 13:09:07.
