data_PCOD9179239
_publ_section_title
;
Structure prediction by ZEFSAII (Michael W. Deem and Ramdas Pophale) SiO2 
 PCOD9179239
Probable space group: C 2/M
;
_chemical_formula_sum "Si O2"
_cell_formula_units_Z 48
_cell_length_a 32.198392
_cell_length_b 7.348029
_cell_length_c 14.619794
_cell_angle_alpha 90.000000
_cell_angle_beta 141.964318
_cell_angle_gamma 90.000000
_cell_volume 2131.249204
_symmetry_space_group_name_H-M "C 2/M"
_symmetry_group_IT_number 12
_symmetry_cell_setting 'monoclinic'
loop_
_space_group_symop_operation_xyz
x,y,z
-x,y,-z
-x,-y,-z
x,-y,z
1/2+x,1/2+y,z
1/2-x,1/2+y,-z
1/2-x,1/2-y,-z
1/2+x,1/2-y,z
loop_
_atom_site_type_symbol
_atom_site_label
_atom_site_fract_x
_atom_site_fract_y
_atom_site_fract_z
Si Si1 0.270450 0.280331 0.261082
Si Si2 0.397090 0.721379 0.368982
Si Si3 0.309791 0.282990 0.531275
Si Si4 0.077702 0.777758 0.140234
Si Si5 0.034228 0.777779 0.698965
Si Si6 0.382277 0.287050 0.987798
O O1 0.272411 0.500000 0.265778
O O2 0.325543 0.217589 0.283311
O O3 0.290956 0.213488 0.398190
O O4 0.193705 0.228936 0.108621
O O5 0.396551 0.500000 0.367123
O O6 0.418884 0.778047 0.305220
O O7 0.458088 0.775783 0.542395
O O8 0.316765 0.500000 0.533405
O O9 0.250000 0.250000 0.500000
O O10 0.378623 0.215168 0.697477
O O11 0.112588 0.715520 0.106399
O O12 0.078856 0.000000 0.145956
O O13 0.000000 0.722917 0.000000
O O14 0.034700 0.000000 0.701161
O O15 0.065068 0.711940 0.847452
O O16 0.398678 0.500000 0.007936
#
# Coordination Sequence:
#
# PCOD9179239 Si02
#       6
#     8   8   8   8   8   8
#     4  10  20  31  48  71  97 127 156 187 232 284
#     4   8  15  29  47  71  97 121 154 196 238 276
#     4  10  19  32  49  69  95 126 155 188 231 279
#     4   9  18  30  46  70  95 118 153 199 236 267
#     4   8  15  28  48  71  95 121 155 199 237 271
#     4  10  19  31  49  72  96 123 157 196 235 274
#
# _framework density 22.522000999999999
#
# number of rings (size 3 to 8) (size 9 to 14) (size 15 to 20)
#    0.000    2.833    1.667    1.000    2.333    0.667 
#    0.000    0.000    0.000    3.000    0.000    2.333 
#    0.000    0.000    0.000    0.000    0.000    0.000 
#
# Total GULP energy -134035.013683 kJ/mol
# GULP energy per Si atom -5584.792237 kJ/mol
# Density = 2.247074 g / cm^3
# Si number density = 22.522001 Si / 1000 Ang^3
#
#
#
# Elastic Constant Matrix: (Units=GPa)
#
#
# Indices 1 2 3 4 5 6 
#
# 1 18.4273 -8.3064 -22.1074 0.0000 15.2329 0.0000
# 2 -8.3064 83.2992 -5.2746 0.0000 -9.3203 0.0000
# 3 -22.1074 -5.2746 65.6087 0.0000 -2.6492 0.0000
# 4 0.0000 0.0000 0.0000 -1.7548 0.0000 12.8302
# 5 15.2329 -9.3203 -2.6492 0.0000 37.3991 0.0000
# 6 0.0000 0.0000 0.0000 12.8302 0.0000 6.3746
#
#
#
# Elastic Compliance Matrix: (Units=1/GPa)
#
#
# Indices 1 2 3 4 5 6 
#
# 1 0.201954 0.016113 0.066376 0.000000 -0.073540 0.000000
# 2 0.016113 0.013717 0.006424 0.000000 -0.002689 0.000000
# 3 0.066376 0.006424 0.037204 0.000000 -0.022799 0.000000
# 4 0.000000 0.000000 0.000000 -0.036261 0.000000 0.072982
# 5 -0.073540 -0.002689 -0.022799 0.000000 0.054407 0.000000
# 6 0.000000 0.000000 0.000000 0.072982 0.000000 0.009982
#
#
# Mechanical properties :
#
#
# Convention : Reuss Voigt Hill
#
# Bulk Modulus (GPa) = 2.32180 10.66206 6.49193
# Shear Modulus (GPa) = 20.26382 21.93868 21.10125
#
# Velocity S-wave (km/s) = 3.00281 3.12444 3.06423
# Velocity P-wave (km/s) = 3.61326 4.21433 3.92531
#
# Compressibility (1/GPa) = 0.43070090
#
# Stress axis : x y z
#
# Youngs Moduli (GPa) = 4.95161 72.89962 26.87907
#
# Poissons Ratio (x) = -1.17463 -1.78413
# Poissons Ratio (y) = -0.07979 -0.17266
# Poissons Ratio (z) = -0.32867 -0.46828
#
# Static dielectric constant tensor:
#      x y z
#    x 1.798650 0.000000 -0.007520 
#    y 0.000000 1.904920 0.000000 
#    z -0.007520 0.000000 1.792810 
# 
# From -- ./inp_files/212845.got.cif
#   From: 2010.05.17/outbox.cif.g08.bks.cpg/sg12_107_cif.got.tgz:212845.got - 2010.06.03 13:09:07.
