data_PCOD9179904
_publ_section_title
;
Structure prediction by ZEFSAII (Michael W. Deem and Ramdas Pophale) SiO2 
 PCOD9179904
Probable space group: C 2/M
;
_chemical_formula_sum "Si O2"
_cell_formula_units_Z 64
_cell_length_a 17.614699
_cell_length_b 13.309262
_cell_length_c 31.171678
_cell_angle_alpha 90.000000
_cell_angle_beta 26.862687
_cell_angle_gamma 90.000000
_cell_volume 3302.078271
_symmetry_space_group_name_H-M "C 2/M"
_symmetry_group_IT_number 12
_symmetry_cell_setting 'monoclinic'
loop_
_space_group_symop_operation_xyz
x,y,z
-x,y,-z
-x,-y,-z
x,-y,z
1/2+x,1/2+y,z
1/2-x,1/2+y,-z
1/2-x,1/2-y,-z
1/2+x,1/2-y,z
loop_
_atom_site_type_symbol
_atom_site_label
_atom_site_fract_x
_atom_site_fract_y
_atom_site_fract_z
Si Si1 0.604976 0.726563 0.714720
Si Si2 0.635479 0.807904 0.091937
Si Si3 0.856537 0.776054 0.772107
Si Si4 0.922201 0.737877 0.602419
Si Si5 0.804087 0.890740 0.088122
Si Si6 0.288260 0.615080 0.568296
Si Si7 0.203366 0.385410 0.773332
Si Si8 0.533742 0.885190 0.622368
O O1 0.475836 0.738320 0.819382
O O2 0.509450 0.676643 0.722652
O O3 0.782899 0.686225 0.642130
O O4 0.657243 0.836210 0.668340
O O5 0.753302 0.872475 0.064324
O O6 0.492107 0.869885 0.139299
O O7 0.750000 0.750000 0.000000
O O8 0.759219 0.706453 0.854717
O O9 0.747566 0.853062 0.799604
O O10 0.923806 0.693209 0.704762
O O11 0.809504 0.811360 0.689224
O O12 0.053921 0.812205 0.514270
O O13 0.025469 0.658556 0.578821
O O14 0.729668 0.000000 0.138852
O O15 0.000000 0.895723 0.000000
O O16 0.323710 0.500000 0.561677
O O17 0.207502 0.616367 0.561169
O O18 0.252642 0.500000 0.740588
O O19 0.472404 0.000000 0.654346
#
# Coordination Sequence:
#
# PCOD9179904 Si02
#       8
#     8   8   8   8   8   8   8   8
#     4   9  20  33  51  75 101 138 176 213 268 320
#     4  10  20  35  55  77 105 137 171 219 273 323
#     4   9  18  34  52  73 106 140 175 224 269 311
#     4  10  19  32  52  80 113 145 180 226 273 316
#     4  10  19  31  52  79 102 130 170 217 271 324
#     4  10  19  32  53  81 112 142 177 224 273 322
#     4  10  20  34  55  82 111 147 185 219 265 326
#     4   9  18  32  51  75 104 144 188 224 263 315
#
# _framework density 19.381733000000001
#
# number of rings (size 3 to 8) (size 9 to 14) (size 15 to 20)
#    0.000    2.375    0.000    2.625    0.000    6.000 
#    0.000    0.625    0.000   16.875    0.000    0.000 
#    0.000    0.000    0.000    0.000    0.000    0.000 
#
# Total GULP energy -178217.780510 kJ/mol
# GULP energy per Si atom -5569.305641 kJ/mol
# Density = 1.933762 g / cm^3
# Si number density = 19.381733 Si / 1000 Ang^3
#
#
#
# Elastic Constant Matrix: (Units=GPa)
#
#
# Indices 1 2 3 4 5 6 
#
# 1 148.3756 32.1598 25.0360 0.0014 -8.8759 -0.0003
# 2 32.1598 20.1494 4.9946 -0.0006 -5.8635 0.0000
# 3 25.0360 4.9946 65.1816 0.0028 -4.0480 -0.0019
# 4 0.0014 -0.0006 0.0028 11.9162 -0.0023 -2.8582
# 5 -8.8759 -5.8635 -4.0480 -0.0023 21.6917 0.0003
# 6 -0.0003 0.0000 -0.0019 -2.8582 0.0003 3.5506
#
#
#
# Elastic Compliance Matrix: (Units=1/GPa)
#
#
# Indices 1 2 3 4 5 6 
#
# 1 0.010820 -0.016733 -0.002913 -0.000002 -0.000640 -0.000003
# 2 -0.016733 0.080439 0.001203 0.000010 0.015121 0.000007
# 3 -0.002913 0.001203 0.016506 -0.000001 0.002213 0.000008
# 4 -0.000002 0.000010 -0.000001 0.104001 0.000012 0.083720
# 5 -0.000640 0.015121 0.002213 0.000012 0.050339 0.000007
# 6 -0.000003 0.000007 0.000008 0.083720 0.000007 0.349034
#
#
# Mechanical properties :
#
#
# Convention : Reuss Voigt Hill
#
# Bulk Modulus (GPa) = 14.10900 39.78748 26.94824
# Shear Modulus (GPa) = 7.44433 18.86610 13.15522
#
# Velocity S-wave (km/s) = 1.96195 3.12331 2.60810
# Velocity P-wave (km/s) = 3.52529 5.79480 4.79621
#
# Compressibility (1/GPa) = 0.07087674
#
# Stress axis : x y z
#
# Youngs Moduli (GPa) = 92.42294 12.43180 60.58372
#
# Poissons Ratio (x) = 0.20802 0.17650
# Poissons Ratio (y) = 1.54653 -0.07285
# Poissons Ratio (z) = 0.26926 -0.01495
#
# Static dielectric constant tensor:
#      x y z
#    x 1.767030 0.000000 -0.011820 
#    y 0.000000 1.650180 0.000000 
#    z -0.011820 0.000000 1.693170 
# 
# From -- ./inp_files/379078.got.cif
#   From: 2010.05.17/outbox.cif.g08.bks.cpg/sg12_190_cif.got.tgz:379078.got - 2010.06.03 13:09:07.
