data_PCOD9179465
_publ_section_title
;
Structure prediction by ZEFSAII (Michael W. Deem and Ramdas Pophale) SiO2 
 PCOD9179465
Probable space group: C 2/M
;
_chemical_formula_sum "Si O2"
_cell_formula_units_Z 48
_cell_length_a 15.702029
_cell_length_b 9.475869
_cell_length_c 14.015914
_cell_angle_alpha 90.000000
_cell_angle_beta 90.814849
_cell_angle_gamma 90.000000
_cell_volume 2085.222132
_symmetry_space_group_name_H-M "C 2/M"
_symmetry_group_IT_number 12
_symmetry_cell_setting 'monoclinic'
loop_
_space_group_symop_operation_xyz
x,y,z
-x,y,-z
-x,-y,-z
x,-y,z
1/2+x,1/2+y,z
1/2-x,1/2+y,-z
1/2-x,1/2-y,-z
1/2+x,1/2-y,z
loop_
_atom_site_type_symbol
_atom_site_label
_atom_site_fract_x
_atom_site_fract_y
_atom_site_fract_z
Si Si1 0.325922 0.338399 0.094480
Si Si2 0.323742 0.831395 0.443561
Si Si3 0.936612 0.662276 0.615576
Si Si4 0.088995 0.339284 0.061113
Si Si5 0.999429 0.162234 0.780645
Si Si6 0.247359 0.337252 0.282431
O O1 0.319152 0.500000 0.058597
O O2 0.410295 0.333504 0.163559
O O3 0.251972 0.308053 0.169830
O O4 0.343547 0.229508 0.010378
O O5 0.250000 0.750000 0.500000
O O6 0.408796 0.803689 0.506634
O O7 0.309425 0.769238 0.338828
O O8 0.310977 0.000000 0.445071
O O9 0.966783 0.500000 0.620502
O O10 0.996271 0.762334 0.678318
O O11 0.845690 0.669390 0.671382
O O12 0.109495 0.500000 0.089049
O O13 0.065038 0.242523 0.149931
O O14 0.000000 0.344562 0.000000
O O15 0.974324 0.000000 0.768826
O O16 0.276757 0.500000 0.295962
#
# Coordination Sequence:
#
# PCOD9179465 Si02
#       6
#     8   8   8   8   8   8
#     4   9  18  33  51  72  97 124 158 198 238 280
#     4   9  17  30  49  71  95 126 162 197 234 280
#     4   9  18  32  49  70  96 125 157 195 237 279
#     4   9  17  30  49  71  95 125 159 194 234 283
#     4  10  19  31  50  73  96 125 159 196 237 282
#     4   9  18  33  52  72  96 126 159 198 239 279
#
# _framework density 23.019129
#
# number of rings (size 3 to 8) (size 9 to 14) (size 15 to 20)
#    0.000    2.833    0.000    2.500    0.000    6.667 
#    0.000    1.667    0.000    5.000    0.000    0.000 
#    0.000    0.000    0.000    0.000    0.000    0.000 
#
# Total GULP energy -134173.799482 kJ/mol
# GULP energy per Si atom -5590.574978 kJ/mol
# Density = 2.296674 g / cm^3
# Si number density = 23.019129 Si / 1000 Ang^3
#
#
#
# Elastic Constant Matrix: (Units=GPa)
#
#
# Indices 1 2 3 4 5 6 
#
# 1 81.3433 28.2934 3.0483 0.0000 -2.2086 0.0000
# 2 28.2934 111.6747 64.3341 0.0000 13.8143 0.0000
# 3 3.0483 64.3341 119.3823 0.0000 5.5130 0.0000
# 4 0.0000 0.0000 0.0000 45.8920 0.0000 7.0711
# 5 -2.2086 13.8143 5.5130 0.0000 43.8176 0.0000
# 6 0.0000 0.0000 0.0000 7.0711 0.0000 21.0228
#
#
#
# Elastic Compliance Matrix: (Units=1/GPa)
#
#
# Indices 1 2 3 4 5 6 
#
# 1 0.014054 -0.005151 0.002323 0.000000 0.002040 0.000000
# 2 -0.005151 0.015346 -0.007949 0.000000 -0.004098 0.000000
# 3 0.002323 -0.007949 0.012553 0.000000 0.001044 0.000000
# 4 0.000000 0.000000 0.000000 0.022981 0.000000 -0.007730
# 5 0.002040 -0.004098 0.001044 0.000000 0.024085 0.000000
# 6 0.000000 0.000000 0.000000 -0.007730 0.000000 0.050167
#
#
# Mechanical properties :
#
#
# Convention : Reuss Voigt Hill
#
# Bulk Modulus (GPa) = 49.02556 55.97245 52.49901
# Shear Modulus (GPa) = 29.84371 36.59478 33.21924
#
# Velocity S-wave (km/s) = 3.60456 3.99150 3.80296
# Velocity P-wave (km/s) = 6.21835 6.75360 6.49149
#
# Compressibility (1/GPa) = 0.02039752
#
# Stress axis : x y z
#
# Youngs Moduli (GPa) = 71.15617 65.16449 79.66500
#
# Poissons Ratio (x) = 0.33567 -0.18505
# Poissons Ratio (y) = 0.36653 0.63325
# Poissons Ratio (z) = -0.16528 0.51799
#
# Static dielectric constant tensor:
#      x y z
#    x 1.986060 0.000000 0.008840 
#    y 0.000000 1.766040 0.000000 
#    z 0.008840 0.000000 1.860780 
# 
# From -- ./inp_files/172339.got.cif
#   From: 2010.05.17/outbox.cif.g08.bks.cpg/sg12_87_cif.got.tgz:172339.got - 2010.06.03 13:09:07.
