data_PCOD9179630
_publ_section_title
;
Structure prediction by ZEFSAII (Michael W. Deem and Ramdas Pophale) SiO2 
 PCOD9179630
Probable space group: C 2/M
;
_chemical_formula_sum "Si O2"
_cell_formula_units_Z 56
_cell_length_a 30.906761
_cell_length_b 8.636735
_cell_length_c 22.616121
_cell_angle_alpha 90.000000
_cell_angle_beta 33.486879
_cell_angle_gamma 90.000000
_cell_volume 3330.890885
_symmetry_space_group_name_H-M "C 2/M"
_symmetry_group_IT_number 12
_symmetry_cell_setting 'monoclinic'
loop_
_space_group_symop_operation_xyz
x,y,z
-x,y,-z
-x,-y,-z
x,-y,z
1/2+x,1/2+y,z
1/2-x,1/2+y,-z
1/2-x,1/2-y,-z
1/2+x,1/2-y,z
loop_
_atom_site_type_symbol
_atom_site_label
_atom_site_fract_x
_atom_site_fract_y
_atom_site_fract_z
Si Si1 0.236074 0.187052 0.635064
Si Si2 0.406611 0.813344 0.394801
Si Si3 0.540330 0.186925 0.016155
Si Si4 0.283899 0.813034 0.209871
Si Si5 0.576088 0.314844 0.753684
Si Si6 0.986863 0.314561 0.424606
Si Si7 0.880390 0.814564 0.651598
O O1 0.317981 0.237029 0.512418
O O2 0.228910 0.248731 0.709732
O O3 0.160301 0.237976 0.684118
O O4 0.236592 0.000000 0.636718
O O5 0.431958 0.744742 0.303640
O O6 0.461932 0.770306 0.386946
O O7 0.406580 0.000000 0.390532
O O8 0.491165 0.253981 0.126213
O O9 0.537469 0.000000 0.022599
O O10 0.500000 0.233221 0.000000
O O11 0.631145 0.236022 0.910677
O O12 0.209926 0.767843 0.253852
O O13 0.284150 0.000000 0.213439
O O14 0.575601 0.500000 0.754648
O O15 0.980491 0.500000 0.437571
O O16 0.926426 0.238842 0.540040
O O17 0.072429 0.260727 0.348127
O O18 0.885467 0.000000 0.650391
#
# Coordination Sequence:
#
# PCOD9179630 Si02
#       7
#     8   8   8   8   8   8   8
#     4  10  20  34  51  76 108 140 172 210 258 308
#     4  10  21  36  53  74 105 144 177 209 254 313
#     4  10  20  36  56  75 101 140 179 215 256 306
#     4  10  20  33  53  79 105 138 175 211 258 308
#     4  11  23  35  52  78 106 139 177 218 261 304
#     4  10  19  32  52  76 104 138 174 207 254 315
#     4  10  19  31  50  78 108 134 167 214 262 304
#
# _framework density 16.812318000000001
#
# number of rings (size 3 to 8) (size 9 to 14) (size 15 to 20)
#    0.000    1.857    2.857    2.571    0.000    3.714 
#    0.000    0.000    0.000    0.857    0.000    0.000 
#    0.000    0.000    0.000    0.000    0.000    0.000 
#
# Total GULP energy -156303.895652 kJ/mol
# GULP energy per Si atom -5582.281988 kJ/mol
# Density = 1.677405 g / cm^3
# Si number density = 16.812318 Si / 1000 Ang^3
#
#
#
# Elastic Constant Matrix: (Units=GPa)
#
#
# Indices 1 2 3 4 5 6 
#
# 1 131.2119 21.7300 88.6299 0.0196 -11.9956 -0.0083
# 2 21.7300 14.7565 25.2719 0.0209 -2.2111 -0.0092
# 3 88.6299 25.2719 134.3981 0.0127 3.7867 -0.0087
# 4 0.0196 0.0209 0.0127 19.4260 -0.0080 4.4650
# 5 -11.9956 -2.2111 3.7867 -0.0080 27.1605 -0.0008
# 6 -0.0083 -0.0092 -0.0087 4.4650 -0.0008 25.2329
#
#
#
# Elastic Compliance Matrix: (Units=1/GPa)
#
#
# Indices 1 2 3 4 5 6 
#
# 1 0.015689 -0.005665 -0.009501 0.000000 0.007793 0.000000
# 2 -0.005665 0.105260 -0.016292 -0.000105 0.008338 0.000050
# 3 -0.009501 -0.016292 0.016992 0.000014 -0.007891 -0.000006
# 4 0.000000 -0.000105 0.000014 0.053660 0.000005 -0.009495
# 5 0.007793 0.008338 -0.007891 0.000005 0.042039 0.000003
# 6 0.000000 0.000050 -0.000006 -0.009495 0.000003 0.041311
#
#
# Mechanical properties :
#
#
# Convention : Reuss Voigt Hill
#
# Bulk Modulus (GPa) = 13.32874 61.29224 37.31049
# Shear Modulus (GPa) = 13.77881 24.01285 18.89583
#
# Velocity S-wave (km/s) = 2.86591 3.78337 3.35614
# Velocity P-wave (km/s) = 4.34700 7.45795 6.10400
#
# Compressibility (1/GPa) = 0.07502587
#
# Stress axis : x y z
#
# Youngs Moduli (GPa) = 63.73726 9.50025 58.85181
#
# Poissons Ratio (x) = 0.05382 0.55914
# Poissons Ratio (y) = 0.36107 0.95881
# Poissons Ratio (z) = 0.60556 0.15478
#
# Static dielectric constant tensor:
#      x y z
#    x 1.575760 0.000000 -0.028380 
#    y 0.000000 1.568980 0.000000 
#    z -0.028380 0.000000 1.535640 
# 
# From -- ./inp_files/287363.got.cif
#   From: 2010.05.17/outbox.cif.g08.bks.cpg/sg12_144_cif.got.tgz:287363.got - 2010.06.03 13:09:07.
