data_PCOD9179476
_publ_section_title
;
Structure prediction by ZEFSAII (Michael W. Deem and Ramdas Pophale) SiO2 
 PCOD9179476
Probable space group: C 2/M
;
_chemical_formula_sum "Si O2"
_cell_formula_units_Z 64
_cell_length_a 30.866796
_cell_length_b 8.930423
_cell_length_c 23.636485
_cell_angle_alpha 90.000000
_cell_angle_beta 39.146808
_cell_angle_gamma 90.000000
_cell_volume 4113.285569
_symmetry_space_group_name_H-M "C 2/M"
_symmetry_group_IT_number 12
_symmetry_cell_setting 'monoclinic'
loop_
_space_group_symop_operation_xyz
x,y,z
-x,y,-z
-x,-y,-z
x,-y,z
1/2+x,1/2+y,z
1/2-x,1/2+y,-z
1/2-x,1/2-y,-z
1/2+x,1/2-y,z
loop_
_atom_site_type_symbol
_atom_site_label
_atom_site_fract_x
_atom_site_fract_y
_atom_site_fract_z
Si Si1 0.502235 0.820913 0.377815
Si Si2 0.146666 0.678551 0.416982
Si Si3 0.852178 0.820967 0.373236
Si Si4 0.004738 0.179209 0.250352
Si Si5 0.733215 0.678320 0.426729
Si Si6 0.218477 0.178322 0.113567
Si Si7 0.630839 0.678845 0.311093
Si Si8 0.142428 0.322227 0.084508
O O1 0.427648 0.788723 0.479758
O O2 0.506825 0.751225 0.310699
O O3 0.561192 0.750719 0.357182
O O4 0.511123 0.000000 0.365677
O O5 0.153183 0.500000 0.405651
O O6 0.204015 0.743337 0.400765
O O7 0.148473 0.752794 0.353729
O O8 0.932132 0.781185 0.295352
O O9 0.807009 0.737285 0.372354
O O10 0.818198 0.785773 0.468784
O O11 0.845744 0.000000 0.371613
O O12 0.070668 0.238747 0.150168
O O13 0.007819 0.000000 0.253145
O O14 0.733865 0.500000 0.418849
O O15 0.189484 0.209966 0.204881
O O16 0.174754 0.267939 0.111376
O O17 0.208830 0.000000 0.112332
O O18 0.298363 0.211925 0.021337
O O19 0.622466 0.500000 0.323826
O O20 0.131385 0.500000 0.097232
#
# Coordination Sequence:
#
# PCOD9179476 Si02
#       8
#     8   8   8   8   8   8   8   8
#     4  11  22  34  48  70 100 135 173 208 243 286
#     4  11  23  36  50  70 101 135 171 210 247 291
#     4   9  19  33  50  72 100 130 162 204 250 294
#     4  11  20  32  50  74 103 134 166 201 247 299
#     4  10  19  33  52  73  97 129 168 205 246 294
#     4   9  19  34  49  70  98 130 166 207 250 294
#     4  11  22  35  52  71  97 134 174 210 247 292
#     4  10  19  31  50  73  99 129 164 205 250 298
#
# _framework density 15.559339
#
# number of rings (size 3 to 8) (size 9 to 14) (size 15 to 20)
#    0.000    1.750    2.500    2.625    0.000    5.500 
#    0.000    0.000    0.000    0.000    0.000    0.875 
#    0.000    7.000    0.000    0.000    0.000    0.000 
#
# Total GULP energy -178660.609998 kJ/mol
# GULP energy per Si atom -5583.144062 kJ/mol
# Density = 1.552393 g / cm^3
# Si number density = 15.559339 Si / 1000 Ang^3
#
#
#
# Elastic Constant Matrix: (Units=GPa)
#
#
# Indices 1 2 3 4 5 6 
#
# 1 129.1482 53.8230 61.0917 0.0039 -9.8140 -0.0010
# 2 53.8230 52.6299 44.4233 0.0029 -4.5604 0.0015
# 3 61.0917 44.4233 72.4538 0.0044 -11.6984 -0.0002
# 4 0.0039 0.0029 0.0044 23.8862 -0.0017 -0.8383
# 5 -9.8140 -4.5604 -11.6984 -0.0017 23.4696 0.0001
# 6 -0.0010 0.0015 -0.0002 -0.8383 0.0001 27.6595
#
#
#
# Elastic Compliance Matrix: (Units=1/GPa)
#
#
# Indices 1 2 3 4 5 6 
#
# 1 0.014934 -0.009743 -0.006433 0.000000 0.001145 0.000001
# 2 -0.009743 0.046234 -0.021032 -0.000001 -0.005574 -0.000003
# 3 -0.006433 -0.021032 0.033743 -0.000002 0.010042 0.000001
# 4 0.000000 -0.000001 -0.000002 0.041910 0.000002 0.001270
# 5 0.001145 -0.005574 0.010042 0.000002 0.047010 0.000000
# 6 0.000001 -0.000003 0.000001 0.001270 0.000000 0.036192
#
#
# Mechanical properties :
#
#
# Convention : Reuss Voigt Hill
#
# Bulk Modulus (GPa) = 48.79463 63.65642 56.22553
# Shear Modulus (GPa) = 16.59639 21.32932 18.96286
#
# Velocity S-wave (km/s) = 3.26951 3.70650 3.49484
# Velocity P-wave (km/s) = 6.75880 7.70184 7.24568
#
# Compressibility (1/GPa) = 0.02049406
#
# Stress axis : x y z
#
# Youngs Moduli (GPa) = 66.96328 21.62919 29.63557
#
# Poissons Ratio (x) = 0.21073 0.19066
# Poissons Ratio (y) = 0.65240 0.62330
# Poissons Ratio (z) = 0.43080 0.45491
#
# Static dielectric constant tensor:
#      x y z
#    x 1.488640 0.000000 -0.018060 
#    y 0.000000 1.517420 0.000000 
#    z -0.018060 0.000000 1.519930 
# 
# From -- ./inp_files/326818.got.cif
#   From: 2010.05.17/outbox.cif.g08.bks.cpg/sg12_164_cif.got.tgz:326818.got - 2010.06.03 13:09:07.
