data_PCOD9179088
_publ_section_title
;
Structure prediction by ZEFSAII (Michael W. Deem and Ramdas Pophale) SiO2 
 PCOD9179088
Probable space group: C 2/M
;
_chemical_formula_sum "Si O2"
_cell_formula_units_Z 56
_cell_length_a 30.711575
_cell_length_b 7.371401
_cell_length_c 11.517948
_cell_angle_alpha 90.000000
_cell_angle_beta 65.269717
_cell_angle_gamma 90.000000
_cell_volume 2368.374792
_symmetry_space_group_name_H-M "C 2/M"
_symmetry_group_IT_number 12
_symmetry_cell_setting 'monoclinic'
loop_
_space_group_symop_operation_xyz
x,y,z
-x,y,-z
-x,-y,-z
x,-y,z
1/2+x,1/2+y,z
1/2-x,1/2+y,-z
1/2-x,1/2-y,-z
1/2+x,1/2-y,z
loop_
_atom_site_type_symbol
_atom_site_label
_atom_site_fract_x
_atom_site_fract_y
_atom_site_fract_z
Si Si1 0.975739 0.221193 0.408292
Si Si2 0.199260 0.720667 0.879078
Si Si3 0.121728 0.777312 0.584979
Si Si4 0.796243 0.205550 0.658482
Si Si5 0.945017 0.782694 0.855473
Si Si6 0.400347 0.709317 0.135268
Si Si7 0.345265 0.785335 0.836336
O O1 0.920941 0.275404 0.453945
O O2 0.000000 0.282151 0.500000
O O3 0.008026 0.281505 0.263569
O O4 0.976616 0.000000 0.407755
O O5 0.199352 0.500000 0.880218
O O6 0.247311 0.786959 0.763123
O O7 0.152409 0.783602 0.862593
O O8 0.191040 0.778336 0.021555
O O9 0.173020 0.713179 0.480729
O O10 0.105903 0.713537 0.729710
O O11 0.124017 0.000000 0.584775
O O12 0.832104 0.200042 0.728637
O O13 0.783875 0.000000 0.637621
O O14 0.898452 0.748528 0.826649
O O15 0.948788 0.000000 0.862084
O O16 0.934258 0.711163 0.996779
O O17 0.415476 0.500000 0.134972
O O18 0.339596 0.000000 0.828300
#
# Coordination Sequence:
#
# PCOD9179088 Si02
#       7
#     8   8   8   8   8   8   8
#     4   9  16  27  47  74  98 122 156 196 237 281
#     4   9  19  33  49  70  96 127 160 196 238 284
#     4   9  18  31  48  72  99 124 157 202 240 274
#     4  10  19  32  50  70  95 128 162 196 238 284
#     4   9  17  30  50  72  95 127 161 193 235 285
#     4   9  18  32  49  71  97 125 160 199 236 277
#     4  10  19  31  48  72 100 125 155 198 242 283
#
# _framework density 23.644905000000001
#
# number of rings (size 3 to 8) (size 9 to 14) (size 15 to 20)
#    0.000    2.714    0.000    1.714    0.000    4.571 
#    0.000    3.571    0.000    4.714    0.000    4.000 
#    0.000    0.000    0.000    0.000    0.000    0.000 
#
# Total GULP energy -156405.021918 kJ/mol
# GULP energy per Si atom -5585.893640 kJ/mol
# Density = 2.359109 g / cm^3
# Si number density = 23.644905 Si / 1000 Ang^3
#
#
#
# Elastic Constant Matrix: (Units=GPa)
#
#
# Indices 1 2 3 4 5 6 
#
# 1 16.3193 -11.1175 17.2982 0.0000 -11.1083 0.0000
# 2 -11.1175 92.9600 5.5054 0.0000 -3.5807 0.0000
# 3 17.2982 5.5054 130.9422 0.0000 -20.1027 0.0000
# 4 0.0000 0.0000 0.0000 -12.1995 0.0000 3.2770
# 5 -11.1083 -3.5807 -20.1027 0.0000 44.8648 0.0000
# 6 0.0000 0.0000 0.0000 3.2770 0.0000 -5.1327
#
#
#
# Elastic Compliance Matrix: (Units=1/GPa)
#
#
# Indices 1 2 3 4 5 6 
#
# 1 0.093781 0.012563 -0.009878 0.000000 0.019796 0.000000
# 2 0.012563 0.012488 -0.001669 0.000000 0.003359 0.000000
# 3 -0.009878 -0.001669 0.009253 0.000000 0.001567 0.000000
# 4 0.000000 0.000000 0.000000 -0.098939 0.000000 -0.063168
# 5 0.019796 0.003359 0.001567 0.000000 0.028161 0.000000
# 6 0.000000 0.000000 0.000000 -0.063168 0.000000 -0.235160
#
#
# Mechanical properties :
#
#
# Convention : Reuss Voigt Hill
#
# Bulk Modulus (GPa) = 8.50671 29.28821 18.89746
# Shear Modulus (GPa) = -32.62343 20.74223 -5.94060
#
# Velocity S-wave (km/s) = -3.71849 2.96503 -1.58678
# Velocity P-wave (km/s) = 3.85107 4.91279 2.15694
#
# Compressibility (1/GPa) = 0.11755419
#
# Stress axis : x y z
#
# Youngs Moduli (GPa) = 10.66313 80.07659 108.07728
#
# Poissons Ratio (x) = -1.00602 1.06759
# Poissons Ratio (y) = -0.13396 0.18038
# Poissons Ratio (z) = 0.10533 0.13365
#
# Static dielectric constant tensor:
#      x y z
#    x 1.835340 0.000000 -0.004360 
#    y 0.000000 1.922530 0.000000 
#    z -0.004360 0.000000 1.908420 
# 
# From -- ./inp_files/186466.got.cif
#   From: 2010.05.17/outbox.cif.g08.bks.cpg/sg12_94_cif.got.tgz:186466.got - 2010.06.03 13:09:07.
