data_PCOD9179677
_publ_section_title
;
Structure prediction by ZEFSAII (Michael W. Deem and Ramdas Pophale) SiO2 
 PCOD9179677
Probable space group: C 2/M
;
_chemical_formula_sum "Si O2"
_cell_formula_units_Z 64
_cell_length_a 14.082420
_cell_length_b 29.129481
_cell_length_c 7.763596
_cell_angle_alpha 90.000000
_cell_angle_beta 74.260436
_cell_angle_gamma 90.000000
_cell_volume 3065.319928
_symmetry_space_group_name_H-M "C 2/M"
_symmetry_group_IT_number 12
_symmetry_cell_setting 'monoclinic'
loop_
_space_group_symop_operation_xyz
x,y,z
-x,y,-z
-x,-y,-z
x,-y,z
1/2+x,1/2+y,z
1/2-x,1/2+y,-z
1/2-x,1/2-y,-z
1/2+x,1/2-y,z
loop_
_atom_site_type_symbol
_atom_site_label
_atom_site_fract_x
_atom_site_fract_y
_atom_site_fract_z
Si Si1 0.028944 0.677414 0.760505
Si Si2 0.660479 0.146930 0.023145
Si Si3 0.802409 0.641554 0.486430
Si Si4 0.283071 0.298494 0.182496
Si Si5 0.524039 0.718455 0.755648
Si Si6 0.583109 0.050919 0.691337
Si Si7 0.336005 0.293949 0.648543
Si Si8 0.364816 0.949763 0.926043
O O1 0.101149 0.673735 0.566379
O O2 0.998457 0.729018 0.804383
O O3 0.928880 0.650338 0.796376
O O4 0.096108 0.656570 0.882461
O O5 0.735742 0.187544 0.023771
O O6 0.700601 0.096082 0.036090
O O7 0.745984 0.657549 0.684548
O O8 0.849892 0.591146 0.427286
O O9 0.729485 0.661629 0.372143
O O10 0.400948 0.295826 0.130437
O O11 0.231426 0.251248 0.275603
O O12 0.600556 0.717463 0.555517
O O13 0.423219 0.695769 0.741491
O O14 0.463280 0.055626 0.758120
O O15 0.606016 0.000000 0.609573
O O16 0.604539 0.049727 0.886466
O O17 0.321932 0.000000 0.907467
#
# Coordination Sequence:
#
# PCOD9179677 Si02
#       8
#     8   8   8   8   8   8   8   8
#     4  11  18  30  49  67 100 124 166 197 228 280
#     4  11  21  30  45  76  98 133 160 193 242 281
#     4  11  18  32  50  73  95 128 163 197 235 287
#     4  11  21  31  48  72  95 130 165 194 240 288
#     4  10  19  34  47  68  97 130 165 198 234 282
#     4   9  16  29  51  74  97 124 160 201 238 284
#     4  10  19  31  51  71  94 128 166 199 236 283
#     4   9  16  29  48  71  98 129 160 192 238 294
#
# _framework density 20.878733
#
# number of rings (size 3 to 8) (size 9 to 14) (size 15 to 20)
#    0.000    1.750    6.250    2.250    0.000    1.000 
#    0.000    0.625    0.000    1.500    0.000    7.875 
#    0.000    2.000    0.000    0.000    0.000    0.000 
#
# Total GULP energy -178273.952225 kJ/mol
# GULP energy per Si atom -5571.061007 kJ/mol
# Density = 2.083121 g / cm^3
# Si number density = 20.878733 Si / 1000 Ang^3
#
#
#
# Elastic Constant Matrix: (Units=GPa)
#
#
# Indices 1 2 3 4 5 6 
#
# 1 110.0156 21.4062 11.4385 0.0000 7.1519 0.0000
# 2 21.4062 123.0978 17.0983 0.0000 -1.3212 0.0000
# 3 11.4385 17.0983 49.6708 0.0000 5.0439 0.0000
# 4 0.0000 0.0000 0.0000 28.3663 0.0000 -5.0079
# 5 7.1519 -1.3212 5.0439 0.0000 32.2504 0.0000
# 6 0.0000 0.0000 0.0000 -5.0079 0.0000 17.2855
#
#
#
# Elastic Compliance Matrix: (Units=1/GPa)
#
#
# Indices 1 2 3 4 5 6 
#
# 1 0.009665 -0.001492 -0.001512 0.000000 -0.001968 0.000000
# 2 -0.001492 0.008783 -0.002794 0.000000 0.001128 0.000000
# 3 -0.001512 -0.002794 0.021766 0.000000 -0.003183 0.000000
# 4 0.000000 0.000000 0.000000 0.037153 0.000000 0.010764
# 5 -0.001968 0.001128 -0.003183 0.000000 0.031988 0.000000
# 6 0.000000 0.000000 0.000000 0.010764 0.000000 0.060970
#
#
# Mechanical properties :
#
#
# Convention : Reuss Voigt Hill
#
# Bulk Modulus (GPa) = 34.94407 42.51889 38.73148
# Shear Modulus (GPa) = 26.11480 31.10320 28.60900
#
# Velocity S-wave (km/s) = 3.54048 3.86386 3.70570
# Velocity P-wave (km/s) = 5.78674 6.34939 6.07458
#
# Compressibility (1/GPa) = 0.02861716
#
# Stress axis : x y z
#
# Youngs Moduli (GPa) = 103.46553 113.85258 45.94313
#
# Poissons Ratio (x) = 0.16984 0.06948
# Poissons Ratio (y) = 0.15435 0.12839
# Poissons Ratio (z) = 0.15648 0.31816
#
# Static dielectric constant tensor:
#      x y z
#    x 1.778140 0.000000 0.045950 
#    y 0.000000 1.782670 0.000000 
#    z 0.045950 0.000000 1.970540 
# 
# From -- ./inp_files/67839.got.cif
#   From: 2010.05.17/outbox.cif.g08.bks.cpg/sg12_34_cif.got.tgz:67839.got - 2010.06.03 13:09:07.
