data_PCOD9179996
_publ_section_title
;
Structure prediction by ZEFSAII (Michael W. Deem and Ramdas Pophale) SiO2 
 PCOD9179996
Probable space group: C 2/M
;
_chemical_formula_sum "Si O2"
_cell_formula_units_Z 56
_cell_length_a 28.244048
_cell_length_b 18.598924
_cell_length_c 7.294316
_cell_angle_alpha 90.000000
_cell_angle_beta 140.829362
_cell_angle_gamma 90.000000
_cell_volume 2420.268340
_symmetry_space_group_name_H-M "C 2/M"
_symmetry_group_IT_number 12
_symmetry_cell_setting 'monoclinic'
loop_
_space_group_symop_operation_xyz
x,y,z
-x,y,-z
-x,-y,-z
x,-y,z
1/2+x,1/2+y,z
1/2-x,1/2+y,-z
1/2-x,1/2-y,-z
1/2+x,1/2-y,z
loop_
_atom_site_type_symbol
_atom_site_label
_atom_site_fract_x
_atom_site_fract_y
_atom_site_fract_z
Si Si1 0.828348 0.225167 0.020576
Si Si2 0.297219 0.418825 0.826106
Si Si3 0.700281 0.330239 0.545188
Si Si4 0.056046 0.310007 0.837743
Si Si5 0.125307 0.577333 0.429670
Si Si6 0.587035 0.767667 0.368032
Si Si7 0.839327 0.581274 0.042809
O O1 0.887499 0.246265 0.043832
O O2 0.856310 0.266811 0.285101
O O3 0.831106 0.140524 0.064806
O O4 0.748902 0.255535 0.709383
O O5 0.327843 0.500000 0.912471
O O6 0.302724 0.375288 0.651779
O O7 0.210912 0.424739 0.625245
O O8 0.618840 0.303715 0.365901
O O9 0.758495 0.381543 0.829791
O O10 0.112711 0.378239 0.970176
O O11 0.000000 0.324252 0.500000
O O12 0.996022 0.275078 0.799539
O O13 0.090604 0.500000 0.266952
O O14 0.097042 0.656538 0.287702
O O15 0.120534 0.579052 0.637957
O O16 0.827059 0.500000 0.944675
#
# Coordination Sequence:
#
# PCOD9179996 Si02
#       7
#     8   8   8   8   8   8   8
#     4  10  19  35  58  82 108 144 184 235 279 331
#     4  11  23  36  53  81 114 146 187 236 286 329
#     4  11  20  34  57  79 109 151 191 233 272 327
#     4   9  18  32  53  85 112 142 180 229 278 334
#     4  10  19  31  52  84 116 145 178 225 277 328
#     4  11  19  35  58  83 115 144 192 231 277 338
#     4  10  19  33  56  85 117 150 183 226 282 339
#
# _framework density 23.137930000000001
#
# number of rings (size 3 to 8) (size 9 to 14) (size 15 to 20)
#    0.000    1.714    5.714    2.143    0.000    0.857 
#    0.000    1.429    0.000    6.429    0.000    5.000 
#    0.000    0.000    0.000    0.000    0.000    0.000 
#
# Total GULP energy -155955.707048 kJ/mol
# GULP energy per Si atom -5569.846680 kJ/mol
# Density = 2.308527 g / cm^3
# Si number density = 23.137930 Si / 1000 Ang^3
#
#
#
# Elastic Constant Matrix: (Units=GPa)
#
#
# Indices 1 2 3 4 5 6 
#
# 1 156.6798 49.4130 8.8064 0.0000 25.6148 0.0000
# 2 49.4130 205.1324 32.4219 0.0000 34.8018 0.0000
# 3 8.8064 32.4219 41.5810 0.0000 19.0756 0.0000
# 4 0.0000 0.0000 0.0000 1.6048 0.0000 14.7572
# 5 25.6148 34.8018 19.0756 0.0000 32.2101 0.0000
# 6 0.0000 0.0000 0.0000 14.7572 0.0000 10.4930
#
#
#
# Elastic Compliance Matrix: (Units=1/GPa)
#
#
# Indices 1 2 3 4 5 6 
#
# 1 0.007612 -0.001132 0.002041 0.000000 -0.006039 0.000000
# 2 -0.001132 0.006306 -0.002697 0.000000 -0.004316 0.000000
# 3 0.002041 -0.002697 0.034502 0.000000 -0.019141 0.000000
# 4 0.000000 0.000000 0.000000 -0.052221 0.000000 0.073442
# 5 -0.006039 -0.004316 -0.019141 0.000000 0.051848 0.000000
# 6 0.000000 0.000000 0.000000 0.073442 0.000000 -0.007987
#
#
# Mechanical properties :
#
#
# Convention : Reuss Voigt Hill
#
# Bulk Modulus (GPa) = 22.29973 64.96396 43.63185
# Shear Modulus (GPa) = 85.34672 29.71170 57.52921
#
# Velocity S-wave (km/s) = 6.07998 3.58734 4.99175
# Velocity P-wave (km/s) = 7.67768 6.73026 7.21953
#
# Compressibility (1/GPa) = 0.04484359
#
# Stress axis : x y z
#
# Youngs Moduli (GPa) = 131.37253 158.57789 28.98412
#
# Poissons Ratio (x) = 0.17944 -0.05915
# Poissons Ratio (y) = 0.14865 0.07818
# Poissons Ratio (z) = -0.26810 0.42773
#
# Static dielectric constant tensor:
#      x y z
#    x 2.131180 0.000000 -0.162900 
#    y 0.000000 1.925580 0.000000 
#    z -0.162900 0.000000 1.959830 
# 
# From -- ./inp_files/112639.got.cif
#   From: 2010.05.17/outbox.cif.g08.bks.cpg/sg12_57_cif.got.tgz:112639.got - 2010.06.03 13:09:07.
