data_PCOD9179129
_publ_section_title
;
Structure prediction by ZEFSAII (Michael W. Deem and Ramdas Pophale) SiO2 
 PCOD9179129
Probable space group: C 2/M
;
_chemical_formula_sum "Si O2"
_cell_formula_units_Z 48
_cell_length_a 27.955280
_cell_length_b 8.653422
_cell_length_c 12.094920
_cell_angle_alpha 90.000000
_cell_angle_beta 71.689967
_cell_angle_gamma 90.000000
_cell_volume 2777.732714
_symmetry_space_group_name_H-M "C 2/M"
_symmetry_group_IT_number 12
_symmetry_cell_setting 'monoclinic'
loop_
_space_group_symop_operation_xyz
x,y,z
-x,y,-z
-x,-y,-z
x,-y,z
1/2+x,1/2+y,z
1/2-x,1/2+y,-z
1/2-x,1/2-y,-z
1/2+x,1/2-y,z
loop_
_atom_site_type_symbol
_atom_site_label
_atom_site_fract_x
_atom_site_fract_y
_atom_site_fract_z
Si Si1 0.926971 0.316607 0.260644
Si Si2 0.607837 0.315887 0.250551
Si Si3 0.945750 0.815443 0.488398
Si Si4 0.040143 0.317634 0.114406
Si Si5 0.193914 0.684206 0.038124
Si Si6 0.375653 0.681103 0.097980
O O1 0.919797 0.500000 0.261094
O O2 0.931573 0.262771 0.383573
O O3 0.884685 0.236116 0.216409
O O4 0.981512 0.281891 0.166432
O O5 0.602308 0.500000 0.234256
O O6 0.596462 0.288524 0.387224
O O7 0.565421 0.224044 0.212976
O O8 0.660166 0.259014 0.160428
O O9 0.000000 0.765524 0.500000
O O10 0.949921 0.000000 0.466246
O O11 0.046317 0.500000 0.085270
O O12 0.072523 0.220588 0.004355
O O13 0.193611 0.500000 0.049883
O O14 0.166382 0.730545 0.943323
O O15 0.250000 0.750000 0.000000
O O16 0.365408 0.500000 0.100425
#
# Coordination Sequence:
#
# PCOD9179129 Si02
#       6
#     8   8   8   8   8   8
#     4  11  22  33  49  74 109 149 186 223 266 317
#     4  10  19  33  54  80 110 143 184 225 268 316
#     4  10  20  34  52  76 110 151 190 225 260 311
#     4  10  19  31  48  73 107 144 182 223 267 316
#     4  11  22  39  62  85 109 135 174 224 278 328
#     4  11  22  35  53  77 106 140 180 223 274 326
#
# _framework density 17.280280999999999
#
# number of rings (size 3 to 8) (size 9 to 14) (size 15 to 20)
#    0.000    1.500    1.667    7.000    0.000    5.667 
#    0.000    0.000    0.000    1.000    0.000    0.000 
#    0.000    0.000    0.000    0.000    0.000    0.000 
#
# Total GULP energy -134005.686561 kJ/mol
# GULP energy per Si atom -5583.570273 kJ/mol
# Density = 1.724095 g / cm^3
# Si number density = 17.280281 Si / 1000 Ang^3
#
#
#
# Elastic Constant Matrix: (Units=GPa)
#
#
# Indices 1 2 3 4 5 6 
#
# 1 82.2763 31.1076 45.2601 0.0000 -2.1523 0.0000
# 2 31.1076 43.5602 17.0192 0.0000 -0.5950 0.0000
# 3 45.2601 17.0192 66.5629 0.0000 18.4979 0.0000
# 4 0.0000 0.0000 0.0000 -46.9359 0.0000 -28.1934
# 5 -2.1523 -0.5950 18.4979 0.0000 21.2542 0.0000
# 6 0.0000 0.0000 0.0000 -28.1934 0.0000 13.4174
#
#
#
# Elastic Compliance Matrix: (Units=1/GPa)
#
#
# Indices 1 2 3 4 5 6 
#
# 1 0.030969 -0.012129 -0.024709 0.000000 0.024302 0.000000
# 2 -0.012129 0.031454 0.000398 0.000000 -0.000694 0.000000
# 3 -0.024709 0.000398 0.042756 0.000000 -0.039703 0.000000
# 4 0.000000 0.000000 0.000000 -0.009418 0.000000 -0.019790
# 5 0.024302 -0.000694 -0.039703 0.000000 0.084045 0.000000
# 6 0.000000 0.000000 0.000000 -0.019790 0.000000 0.032946
#
#
# Mechanical properties :
#
#
# Convention : Reuss Voigt Hill
#
# Bulk Modulus (GPa) = 30.96238 42.13038 36.54638
# Shear Modulus (GPa) = 16.86918 4.14797 10.50858
#
# Velocity S-wave (km/s) = 3.12783 1.55101 2.46869
# Velocity P-wave (km/s) = 5.56786 5.25747 5.41489
#
# Compressibility (1/GPa) = 0.03229725
#
# Stress axis : x y z
#
# Youngs Moduli (GPa) = 32.29086 31.79285 23.38827
#
# Poissons Ratio (x) = 0.38563 0.57791
# Poissons Ratio (y) = 0.39167 -0.00931
# Poissons Ratio (z) = 0.79789 -0.01266
#
# Static dielectric constant tensor:
#      x y z
#    x 1.574480 0.000000 0.011120 
#    y 0.000000 1.582220 0.000000 
#    z 0.011120 0.000000 1.603660 
# 
# From -- ./inp_files/185746.got.cif
#   From: 2010.05.17/outbox.cif.g08.bks.cpg/sg12_93_cif.got.tgz:185746.got - 2010.06.03 13:09:07.
