data_PCOD9179031
_publ_section_title
;
Structure prediction by ZEFSAII (Michael W. Deem and Ramdas Pophale) SiO2 
 PCOD9179031
Probable space group: C 2/M
;
_chemical_formula_sum "Si O2"
_cell_formula_units_Z 64
_cell_length_a 19.724468
_cell_length_b 13.804636
_cell_length_c 13.821499
_cell_angle_alpha 90.000000
_cell_angle_beta 68.310828
_cell_angle_gamma 90.000000
_cell_volume 3497.000885
_symmetry_space_group_name_H-M "C 2/M"
_symmetry_group_IT_number 12
_symmetry_cell_setting 'monoclinic'
loop_
_space_group_symop_operation_xyz
x,y,z
-x,y,-z
-x,-y,-z
x,-y,z
1/2+x,1/2+y,z
1/2-x,1/2+y,-z
1/2-x,1/2-y,-z
1/2+x,1/2-y,z
loop_
_atom_site_type_symbol
_atom_site_label
_atom_site_fract_x
_atom_site_fract_y
_atom_site_fract_z
Si Si1 0.940572 0.735844 0.453694
Si Si2 0.688989 0.882957 0.390475
Si Si3 0.857626 0.615984 0.956049
Si Si4 0.255606 0.885711 0.846148
Si Si5 0.995632 0.387750 0.246554
Si Si6 0.567623 0.819207 0.904095
Si Si7 0.596384 0.392653 0.851786
Si Si8 0.159598 0.111007 0.600291
O O1 0.886290 0.659507 0.532894
O O2 0.980843 0.682329 0.343622
O O3 0.888871 0.820271 0.440069
O O4 0.000000 0.769912 0.500000
O O5 0.708541 0.846698 0.271834
O O6 0.756930 0.856846 0.424674
O O7 0.687053 0.000000 0.389347
O O8 0.854281 0.500000 0.974762
O O9 0.789922 0.651213 0.927192
O O10 0.928774 0.633854 0.850134
O O11 0.866590 0.664997 0.056094
O O12 0.168977 0.882603 0.878879
O O13 0.274947 0.000000 0.835983
O O14 0.997312 0.500000 0.275799
O O15 0.932376 0.370513 0.199419
O O16 0.552929 0.705789 0.891853
O O17 0.500000 0.862469 0.000000
O O18 0.563976 0.500000 0.885208
O O19 0.624324 0.390168 0.726427
O O20 0.160205 0.000000 0.564658
#
# Coordination Sequence:
#
# PCOD9179031 Si02
#       8
#     8   8   8   8   8   8   8   8
#     4  12  22  31  51  81 106 130 165 210 259 299
#     4   9  18  33  53  77 103 135 169 202 247 301
#     4   9  17  30  48  70  99 131 157 188 239 297
#     4   8  15  29  49  72  96 124 159 197 235 283
#     4  10  20  33  47  69 103 132 156 193 241 297
#     4  10  19  31  48  70  96 127 164 194 237 296
#     4   9  17  32  52  70  91 122 165 209 241 277
#     4   9  19  37  55  70  98 137 176 209 240 295
#
# _framework density 18.301397000000001
#
# number of rings (size 3 to 8) (size 9 to 14) (size 15 to 20)
#    0.000    2.500    1.250    3.375    0.000    4.500 
#    0.000    0.000    0.000    0.000    0.000    0.000 
#    0.000    0.000    0.000    0.000    0.000    0.000 
#
# Total GULP energy -178262.500445 kJ/mol
# GULP energy per Si atom -5570.703139 kJ/mol
# Density = 1.825974 g / cm^3
# Si number density = 18.301397 Si / 1000 Ang^3
#
#
#
# Elastic Constant Matrix: (Units=GPa)
#
#
# Indices 1 2 3 4 5 6 
#
# 1 62.9666 4.8019 5.8550 0.0000 28.7264 0.0000
# 2 4.8019 44.5228 -3.3177 0.0000 7.6907 0.0000
# 3 5.8550 -3.3177 21.5882 0.0000 12.5996 0.0000
# 4 0.0000 0.0000 0.0000 18.5189 0.0000 -0.7120
# 5 28.7264 7.6907 12.5996 0.0000 32.5002 0.0000
# 6 0.0000 0.0000 0.0000 -0.7120 0.0000 20.7330
#
#
#
# Elastic Compliance Matrix: (Units=1/GPa)
#
#
# Indices 1 2 3 4 5 6 
#
# 1 0.028160 0.002784 0.009954 0.000000 -0.029408 0.000000
# 2 0.002784 0.025072 0.010336 0.000000 -0.012401 0.000000
# 3 0.009954 0.010336 0.066912 0.000000 -0.037185 0.000000
# 4 0.000000 0.000000 0.000000 0.054070 0.000000 0.001857
# 5 -0.029408 -0.012401 -0.037185 0.000000 0.074113 0.000000
# 6 0.000000 0.000000 0.000000 0.001857 0.000000 0.048296
#
#
# Mechanical properties :
#
#
# Convention : Reuss Voigt Hill
#
# Bulk Modulus (GPa) = 6.01348 15.97290 10.99319
# Shear Modulus (GPa) = 16.34487 22.46631 19.40559
#
# Velocity S-wave (km/s) = 2.99171 3.50748 3.25981
# Velocity P-wave (km/s) = 3.90214 5.01496 4.49314
#
# Compressibility (1/GPa) = 0.16629305
#
# Stress axis : x y z
#
# Youngs Moduli (GPa) = 35.51139 39.88457 14.94492
#
# Poissons Ratio (x) = -0.11106 -0.14876
# Poissons Ratio (y) = -0.09888 -0.15446
# Poissons Ratio (z) = -0.35348 -0.41223
#
# Static dielectric constant tensor:
#      x y z
#    x 1.677300 0.000000 0.020520 
#    y 0.000000 1.632220 0.000000 
#    z 0.020520 0.000000 1.626890 
# 
# From -- ./inp_files/167251.got.cif
#   From: 2010.05.17/outbox.cif.g08.bks.cpg/sg12_84_cif.got.tgz:167251.got - 2010.06.03 13:09:07.
