data_PCOD9179612
_publ_section_title
;
Structure prediction by ZEFSAII (Michael W. Deem and Ramdas Pophale) SiO2 
 PCOD9179612
Probable space group: C 2/M
;
_chemical_formula_sum "Si O2"
_cell_formula_units_Z 64
_cell_length_a 25.639957
_cell_length_b 15.628982
_cell_length_c 13.996933
_cell_angle_alpha 90.000000
_cell_angle_beta 148.800449
_cell_angle_gamma 90.000000
_cell_volume 2905.545305
_symmetry_space_group_name_H-M "C 2/M"
_symmetry_group_IT_number 12
_symmetry_cell_setting 'monoclinic'
loop_
_space_group_symop_operation_xyz
x,y,z
-x,y,-z
-x,-y,-z
x,-y,z
1/2+x,1/2+y,z
1/2-x,1/2+y,-z
1/2-x,1/2-y,-z
1/2+x,1/2-y,z
loop_
_atom_site_type_symbol
_atom_site_label
_atom_site_fract_x
_atom_site_fract_y
_atom_site_fract_z
Si Si1 0.684088 0.278678 0.571578
Si Si2 0.399757 0.399527 0.402628
Si Si3 0.827430 0.596533 0.034105
Si Si4 0.134924 0.236310 0.000872
Si Si5 0.224186 0.091134 0.483951
Si Si6 0.741730 0.093814 0.876214
Si Si7 0.838077 0.594108 0.466997
Si Si8 0.991462 0.092677 0.099453
O O1 0.615990 0.342990 0.527371
O O2 0.776354 0.253149 0.784486
O O3 0.741610 0.324941 0.573882
O O4 0.622736 0.191051 0.455652
O O5 0.500000 0.375243 0.500000
O O6 0.410337 0.500000 0.443894
O O7 0.292627 0.391385 0.177967
O O8 0.852915 0.500000 0.043644
O O9 0.683105 0.672970 0.997822
O O10 0.839351 0.603576 0.166936
O O11 0.887881 0.671281 0.077362
O O12 0.252759 0.095176 0.416987
O O13 0.105362 0.085688 0.309779
O O14 0.268602 0.000000 0.589809
O O15 0.698881 0.092480 0.701208
O O16 0.788563 0.000000 0.968078
O O17 0.944494 0.175681 0.072634
O O18 0.889438 0.500000 0.561056
O O19 0.939607 0.000000 0.037448
O O20 0.000000 0.102900 0.000000
#
# Coordination Sequence:
#
# PCOD9179612 Si02
#       8
#     8   8   8   8   8   8   8   8
#     4  10  19  32  52  76 105 140 176 212 258 315
#     4   9  18  32  48  71 103 134 169 215 264 312
#     4   9  18  31  49  72  99 134 175 217 258 306
#     4  10  19  31  50  77 108 139 175 214 258 313
#     4  10  20  34  53  79 109 138 171 216 269 318
#     4   9  16  28  46  69  95 123 161 210 261 304
#     4   9  18  32  51  75 102 132 170 215 258 307
#     4  10  20  34  53  80 113 142 171 217 274 320
#
# _framework density 22.026847
#
# number of rings (size 3 to 8) (size 9 to 14) (size 15 to 20)
#    0.000    2.500    0.000    3.000    0.000    5.000 
#    0.000    2.500    0.000    1.500    0.000    0.000 
#    0.000    0.000    0.000    0.000    0.000    0.000 
#
# Total GULP energy -178171.885791 kJ/mol
# GULP energy per Si atom -5567.871431 kJ/mol
# Density = 2.197671 g / cm^3
# Si number density = 22.026847 Si / 1000 Ang^3
#
#
#
# Elastic Constant Matrix: (Units=GPa)
#
#
# Indices 1 2 3 4 5 6 
#
# 1 95.8508 74.8603 31.5054 0.0000 -10.4047 0.0000
# 2 74.8603 175.3488 25.8168 0.0000 -19.6348 0.0000
# 3 31.5054 25.8168 26.1412 0.0000 0.7733 0.0000
# 4 0.0000 0.0000 0.0000 20.6143 0.0000 -25.9886
# 5 -10.4047 -19.6348 0.7733 0.0000 24.7922 0.0000
# 6 0.0000 0.0000 0.0000 -25.9886 0.0000 92.5984
#
#
#
# Elastic Compliance Matrix: (Units=1/GPa)
#
#
# Indices 1 2 3 4 5 6 
#
# 1 0.022835 -0.005905 -0.021854 0.000000 0.005588 0.000000
# 2 -0.005905 0.009043 -0.001954 0.000000 0.004744 0.000000
# 3 -0.021854 -0.001954 0.066900 0.000000 -0.012806 0.000000
# 4 0.000000 0.000000 0.000000 0.075073 0.000000 0.021070
# 5 0.005588 0.004744 -0.012806 0.000000 0.046837 0.000000
# 6 0.000000 0.000000 0.000000 0.021070 0.000000 0.016713
#
#
# Mechanical properties :
#
#
# Convention : Reuss Voigt Hill
#
# Bulk Modulus (GPa) = 25.41157 62.41175 43.91166
# Shear Modulus (GPa) = 16.13193 38.61154 27.37174
#
# Velocity S-wave (km/s) = 2.70918 4.19134 3.52895
# Velocity P-wave (km/s) = 4.62038 7.19855 6.04843
#
# Compressibility (1/GPa) = 0.03935215
#
# Stress axis : x y z
#
# Youngs Moduli (GPa) = 43.79286 110.58266 14.94760
#
# Poissons Ratio (x) = 0.65304 0.32666
# Poissons Ratio (y) = 0.25862 0.02921
# Poissons Ratio (z) = 0.95703 0.21607
#
# Static dielectric constant tensor:
#      x y z
#    x 1.810150 0.000000 -0.017330 
#    y 0.000000 1.970190 0.000000 
#    z -0.017330 0.000000 1.860340 
# 
# From -- ./inp_files/246376.got.cif
#   From: 2010.05.17/outbox.cif.g08.bks.cpg/sg12_124_cif.got.tgz:246376.got - 2010.06.03 13:09:07.
