data_PCOD9179194
_publ_section_title
;
Structure prediction by ZEFSAII (Michael W. Deem and Ramdas Pophale) SiO2 
 PCOD9179194
Probable space group: C 2/M
;
_chemical_formula_sum "Si O2"
_cell_formula_units_Z 56
_cell_length_a 14.426391
_cell_length_b 7.380472
_cell_length_c 27.799033
_cell_angle_alpha 90.000000
_cell_angle_beta 52.759676
_cell_angle_gamma 90.000000
_cell_volume 2356.358940
_symmetry_space_group_name_H-M "C 2/M"
_symmetry_group_IT_number 12
_symmetry_cell_setting 'monoclinic'
loop_
_space_group_symop_operation_xyz
x,y,z
-x,y,-z
-x,-y,-z
x,-y,z
1/2+x,1/2+y,z
1/2-x,1/2+y,-z
1/2-x,1/2-y,-z
1/2+x,1/2-y,z
loop_
_atom_site_type_symbol
_atom_site_label
_atom_site_fract_x
_atom_site_fract_y
_atom_site_fract_z
Si Si1 0.082979 0.221879 0.326848
Si Si2 0.171904 0.778978 0.913596
Si Si3 0.414184 0.794305 0.851783
Si Si4 0.429645 0.281170 0.951599
Si Si5 0.334234 0.203960 0.238378
Si Si6 0.900535 0.218141 0.567321
Si Si7 0.354667 0.287801 0.341455
O O1 0.207621 0.283902 0.266179
O O2 0.078490 0.279253 0.384189
O O3 0.968181 0.278503 0.334097
O O4 0.085914 0.000000 0.325653
O O5 0.301515 0.713366 0.861278
O O6 0.065698 0.727906 0.912799
O O7 0.176040 0.000000 0.912441
O O8 0.130831 0.723212 0.979950
O O9 0.378943 0.797619 0.918930
O O10 0.541277 0.705982 0.811365
O O11 0.429535 0.000000 0.828910
O O12 0.422831 0.500000 0.951583
O O13 0.336036 0.195591 0.295926
O O14 0.336790 0.000000 0.217385
O O15 0.769266 0.268289 0.593193
O O16 0.000000 0.283632 0.500000
O O17 0.905695 0.000000 0.566388
O O18 0.373170 0.500000 0.325837
#
# Coordination Sequence:
#
# PCOD9179194 Si02
#       7
#     8   8   8   8   8   8   8
#     4   8  16  32  50  68  95 129 158 190 238 280
#     4   8  16  31  48  67  94 127 157 189 239 295
#     4  10  19  31  49  71  93 120 158 202 241 280
#     4   9  17  31  49  67  93 127 157 190 239 296
#     4   9  19  35  50  66  94 129 161 195 239 291
#     4   9  18  34  54  75 102 134 162 187 226 285
#     4  10  19  32  51  72  96 126 160 200 238 271
#
# _framework density 23.765478999999999
#
# number of rings (size 3 to 8) (size 9 to 14) (size 15 to 20)
#    0.000    3.000    0.000    2.571    0.000    2.571 
#    0.000    7.857    0.000    0.000    0.000    0.000 
#    0.000    0.000    0.000    0.000    0.000    0.000 
#
# Total GULP energy -156288.720420 kJ/mol
# GULP energy per Si atom -5581.740015 kJ/mol
# Density = 2.371139 g / cm^3
# Si number density = 23.765479 Si / 1000 Ang^3
#
#
#
# Elastic Constant Matrix: (Units=GPa)
#
#
# Indices 1 2 3 4 5 6 
#
# 1 160.5244 -2.8067 45.5257 -0.0001 -50.1877 -0.0006
# 2 -2.8067 93.9681 0.7735 -0.0004 -1.5622 -0.0011
# 3 45.5257 0.7735 64.1067 0.0000 -31.1026 0.0000
# 4 -0.0001 -0.0004 0.0000 4.5681 0.0000 8.9745
# 5 -50.1877 -1.5622 -31.1026 0.0000 39.3240 -0.0001
# 6 -0.0006 -0.0011 0.0000 8.9745 -0.0001 -27.7078
#
#
#
# Elastic Compliance Matrix: (Units=1/GPa)
#
#
# Indices 1 2 3 4 5 6 
#
# 1 0.010485 0.000528 -0.001541 0.000001 0.012184 0.000000
# 2 0.000528 0.010676 0.000047 0.000001 0.001136 0.000000
# 3 -0.001541 0.000047 0.025540 0.000000 0.018235 0.000000
# 4 0.000001 0.000001 0.000000 0.133781 0.000001 0.043331
# 5 0.012184 0.001136 0.018235 0.000001 0.055448 0.000000
# 6 0.000000 0.000000 0.000000 0.043331 0.000000 -0.022056
#
#
# Mechanical properties :
#
#
# Convention : Reuss Voigt Hill
#
# Bulk Modulus (GPa) = 22.33658 45.06491 33.70075
# Shear Modulus (GPa) = 21.67044 21.57730 21.62387
#
# Velocity S-wave (km/s) = 3.02295 3.01645 3.01970
# Velocity P-wave (km/s) = 4.64796 5.57992 5.13512
#
# Compressibility (1/GPa) = 0.04476961
#
# Stress axis : x y z
#
# Youngs Moduli (GPa) = 95.37262 93.66636 39.15394
#
# Poissons Ratio (x) = -0.04950 0.06035
# Poissons Ratio (y) = -0.05040 -0.00184
# Poissons Ratio (z) = 0.14700 -0.00439
#
# Static dielectric constant tensor:
#      x y z
#    x 1.886030 0.000000 -0.059770 
#    y 0.000000 1.905110 0.000000 
#    z -0.059770 0.000000 1.926340 
# 
# From -- ./inp_files/337842.got.cif
#   From: 2010.05.17/outbox.cif.g08.bks.cpg/sg12_169_cif.got.tgz:337842.got - 2010.06.03 13:09:07.
