data_PCOD9179736
_publ_section_title
;
Structure prediction by ZEFSAII (Michael W. Deem and Ramdas Pophale) SiO2 
 PCOD9179736
Probable space group: C 2/M
;
_chemical_formula_sum "Si O2"
_cell_formula_units_Z 56
_cell_length_a 21.013464
_cell_length_b 8.480081
_cell_length_c 16.557421
_cell_angle_alpha 90.000000
_cell_angle_beta 90.083270
_cell_angle_gamma 90.000000
_cell_volume 2950.461037
_symmetry_space_group_name_H-M "C 2/M"
_symmetry_group_IT_number 12
_symmetry_cell_setting 'monoclinic'
loop_
_space_group_symop_operation_xyz
x,y,z
-x,y,-z
-x,-y,-z
x,-y,z
1/2+x,1/2+y,z
1/2-x,1/2+y,-z
1/2-x,1/2-y,-z
1/2+x,1/2-y,z
loop_
_atom_site_type_symbol
_atom_site_label
_atom_site_fract_x
_atom_site_fract_y
_atom_site_fract_z
Si Si1 0.527305 0.680721 0.916517
Si Si2 0.294077 0.812654 0.260703
Si Si3 0.057902 0.688088 0.748395
Si Si4 0.232737 0.315928 0.113052
Si Si5 0.050519 0.190215 0.567897
Si Si6 0.149350 0.680053 0.975106
Si Si7 0.197245 0.189555 0.561438
O O1 0.505870 0.500000 0.912467
O O2 0.519758 0.755192 0.827738
O O3 0.601743 0.696934 0.936796
O O4 0.500000 0.754951 0.000000
O O5 0.367294 0.766175 0.239746
O O6 0.242765 0.724100 0.205798
O O7 0.286260 0.765125 0.352756
O O8 0.288464 0.000000 0.249470
O O9 0.055579 0.500000 0.745605
O O10 0.038313 0.751705 0.659865
O O11 0.248046 0.500000 0.098216
O O12 0.283765 0.202869 0.069877
O O13 0.165285 0.290727 0.069129
O O14 0.123282 0.235125 0.544671
O O15 0.000000 0.244861 0.500000
O O16 0.047830 0.000000 0.570165
O O17 0.126843 0.500000 0.962807
O O18 0.250000 0.250000 0.500000
O O19 0.199144 0.000000 0.566050
#
# Coordination Sequence:
#
# PCOD9179736 Si02
#       7
#     8   8   8   8   8   8   8
#     4  11  23  37  54  76 105 145 189 231 276 328
#     4  10  19  32  53  80 108 139 180 223 269 324
#     4  10  20  34  55  82 109 140 182 230 277 328
#     4  10  19  31  51  77 105 135 171 216 263 313
#     4   9  19  37  61  86 112 146 187 230 279 337
#     4  10  20  33  50  75 104 136 173 216 266 314
#     4  10  20  35  56  82 113 146 181 225 279 334
#
# _framework density 18.980084999999999
#
# number of rings (size 3 to 8) (size 9 to 14) (size 15 to 20)
#    0.000    2.000    1.429    2.571    0.000    4.857 
#    0.000    1.429    0.000    1.714    0.000    0.000 
#    0.000    0.000    0.000    0.000    0.000    0.000 
#
# Total GULP energy -156027.474215 kJ/mol
# GULP energy per Si atom -5572.409793 kJ/mol
# Density = 1.893689 g / cm^3
# Si number density = 18.980085 Si / 1000 Ang^3
#
#
#
# Elastic Constant Matrix: (Units=GPa)
#
#
# Indices 1 2 3 4 5 6 
#
# 1 33.4485 7.9306 54.5672 0.0000 4.7123 0.0000
# 2 7.9306 37.2417 29.6683 0.0000 5.5195 0.0000
# 3 54.5672 29.6683 161.8273 0.0000 3.8731 0.0000
# 4 0.0000 0.0000 0.0000 28.5154 0.0000 -2.3314
# 5 4.7123 5.5195 3.8731 0.0000 37.3583 0.0000
# 6 0.0000 0.0000 0.0000 -2.3314 0.0000 15.9124
#
#
#
# Elastic Compliance Matrix: (Units=1/GPa)
#
#
# Indices 1 2 3 4 5 6 
#
# 1 0.068800 0.005545 -0.024048 0.000000 -0.007004 0.000000
# 2 0.005545 0.032517 -0.007718 0.000000 -0.004703 0.000000
# 3 -0.024048 -0.007718 0.015642 0.000000 0.002552 0.000000
# 4 0.000000 0.000000 0.000000 0.035494 0.000000 0.005200
# 5 -0.007004 -0.004703 0.002552 0.000000 0.028082 0.000000
# 6 0.000000 0.000000 0.000000 0.005200 0.000000 0.063606
#
#
# Mechanical properties :
#
#
# Convention : Reuss Voigt Hill
#
# Bulk Modulus (GPa) = 15.50010 46.31662 30.90836
# Shear Modulus (GPa) = 15.71887 25.71398 20.71643
#
# Velocity S-wave (km/s) = 2.88093 3.68474 3.30734
# Velocity P-wave (km/s) = 4.38755 6.52371 5.55920
#
# Compressibility (1/GPa) = 0.06451570
#
# Stress axis : x y z
#
# Youngs Moduli (GPa) = 14.53488 30.75333 63.92973
#
# Poissons Ratio (x) = -0.17052 1.53737
# Poissons Ratio (y) = -0.08059 0.49344
# Poissons Ratio (z) = 0.34953 0.23737
#
# Static dielectric constant tensor:
#      x y z
#    x 1.700360 0.000000 0.000630 
#    y 0.000000 1.649020 0.000000 
#    z 0.000630 0.000000 1.675980 
# 
# From -- ./inp_files/230850.got.cif
#   From: 2010.05.17/outbox.cif.g08.bks.cpg/sg12_116_cif.got.tgz:230850.got - 2010.06.03 13:09:07.
