data_PCOD9179190
_publ_section_title
;
Structure prediction by ZEFSAII (Michael W. Deem and Ramdas Pophale) SiO2 
 PCOD9179190
Probable space group: C 2/M
;
_chemical_formula_sum "Si O2"
_cell_formula_units_Z 56
_cell_length_a 14.639551
_cell_length_b 9.422184
_cell_length_c 23.926859
_cell_angle_alpha 90.000000
_cell_angle_beta 127.344521
_cell_angle_gamma 90.000000
_cell_volume 2623.816439
_symmetry_space_group_name_H-M "C 2/M"
_symmetry_group_IT_number 12
_symmetry_cell_setting 'monoclinic'
loop_
_space_group_symop_operation_xyz
x,y,z
-x,y,-z
-x,-y,-z
x,-y,z
1/2+x,1/2+y,z
1/2-x,1/2+y,-z
1/2-x,1/2-y,-z
1/2+x,1/2-y,z
loop_
_atom_site_type_symbol
_atom_site_label
_atom_site_fract_x
_atom_site_fract_y
_atom_site_fract_z
Si Si1 0.231540 0.832219 0.081754
Si Si2 0.792618 0.658233 0.644728
Si Si3 0.012327 0.340827 0.647908
Si Si4 0.086250 0.169666 0.927514
Si Si5 0.144829 0.836502 0.782136
Si Si6 0.086064 0.839330 0.224502
Si Si7 0.599702 0.339603 0.491877
O O1 0.328219 0.773136 0.074487
O O2 0.256898 0.743103 0.146441
O O3 0.246357 0.000000 0.097833
O O4 0.114233 0.811380 0.003150
O O5 0.747787 0.500000 0.640712
O O6 0.913372 0.645900 0.657917
O O7 0.820706 0.742360 0.711019
O O8 0.706433 0.722327 0.566707
O O9 0.048913 0.500000 0.645508
O O10 0.950998 0.257689 0.575154
O O11 0.110283 0.248742 0.713969
O O12 0.961782 0.197812 0.854685
O O13 0.110471 0.000000 0.924798
O O14 0.030092 0.836289 0.779661
O O15 0.172696 0.000000 0.781216
O O16 0.128373 0.000000 0.239383
O O17 0.500000 0.352847 0.500000
O O18 0.630022 0.500000 0.482692
#
# Coordination Sequence:
#
# PCOD9179190 Si02
#       7
#     8   8   8   8   8   8   8
#     4   9  14  20  32  51  78 112 149 185 219 257
#     4   9  18  31  47  68  91 117 151 188 225 265
#     4  10  19  31  49  71  92 115 149 191 228 263
#     4   8  14  22  31  48  78 115 149 180 219 265
#     4   9  16  26  39  57  84 116 149 182 220 267
#     4   8  14  24  38  57  82 114 149 183 220 261
#     4  10  21  36  51  67  91 121 149 180 224 276
#
# _framework density 21.342957999999999
#
# number of rings (size 3 to 8) (size 9 to 14) (size 15 to 20)
#    0.000    3.000    0.000    2.571    0.000    5.429 
#    0.000    0.000    0.000    0.000    0.000    0.000 
#    0.000    1.143    0.000   13.143    0.000   13.429 
#
# Total GULP energy -156092.523159 kJ/mol
# GULP energy per Si atom -5574.732970 kJ/mol
# Density = 2.129438 g / cm^3
# Si number density = 21.342958 Si / 1000 Ang^3
#
#
#
# Elastic Constant Matrix: (Units=GPa)
#
#
# Indices 1 2 3 4 5 6 
#
# 1 41.2655 10.9048 1.1941 0.0000 -6.6707 0.0000
# 2 10.9048 130.8726 127.8437 0.0000 10.9936 0.0000
# 3 1.1941 127.8437 251.1878 0.0000 16.0084 0.0000
# 4 0.0000 0.0000 0.0000 -8.9068 0.0000 8.8515
# 5 -6.6707 10.9936 16.0084 0.0000 -42.9925 0.0000
# 6 0.0000 0.0000 0.0000 8.8515 0.0000 -5.4654
#
#
#
# Elastic Compliance Matrix: (Units=1/GPa)
#
#
# Indices 1 2 3 4 5 6 
#
# 1 0.024497 -0.003661 0.002001 0.000000 -0.003992 0.000000
# 2 -0.003661 0.015701 -0.008074 0.000000 0.001576 0.000000
# 3 0.002001 -0.008074 0.008042 0.000000 0.000619 0.000000
# 4 0.000000 0.000000 0.000000 0.184207 0.000000 0.298334
# 5 -0.003992 0.001576 0.000619 0.000000 -0.022007 0.000000
# 6 0.000000 0.000000 0.000000 0.298334 0.000000 0.300199
#
#
# Mechanical properties :
#
#
# Convention : Reuss Voigt Hill
#
# Bulk Modulus (GPa) = 34.75549 78.13457 56.44503
# Shear Modulus (GPa) = 9.26445 7.41927 8.34186
#
# Velocity S-wave (km/s) = 2.08571 1.86648 1.97913
# Velocity P-wave (km/s) = 4.70318 6.42912 5.63265
#
# Compressibility (1/GPa) = 0.02877243
#
# Stress axis : x y z
#
# Youngs Moduli (GPa) = 40.82053 63.69063 124.35486
#
# Poissons Ratio (x) = 0.23315 -0.24884
# Poissons Ratio (y) = 0.14943 1.00406
# Poissons Ratio (z) = -0.08168 0.51425
#
# Static dielectric constant tensor:
#      x y z
#    x 1.786950 0.000000 0.003450 
#    y 0.000000 1.767860 0.000000 
#    z 0.003450 0.000000 1.801200 
# 
# From -- ./inp_files/342603.got.cif
#   From: 2010.05.17/outbox.cif.g08.bks.cpg/sg12_172_cif.got.tgz:342603.got - 2010.06.03 13:09:07.
