data_PCOD9179896
_publ_section_title
;
Structure prediction by ZEFSAII (Michael W. Deem and Ramdas Pophale) SiO2 
 PCOD9179896
Probable space group: C 2/M
;
_chemical_formula_sum "Si O2"
_cell_formula_units_Z 60
_cell_length_a 29.968574
_cell_length_b 7.775783
_cell_length_c 12.970460
_cell_angle_alpha 90.000000
_cell_angle_beta 62.509800
_cell_angle_gamma 90.000000
_cell_volume 2681.224469
_symmetry_space_group_name_H-M "C 2/M"
_symmetry_group_IT_number 12
_symmetry_cell_setting 'monoclinic'
loop_
_space_group_symop_operation_xyz
x,y,z
-x,y,-z
-x,-y,-z
x,-y,z
1/2+x,1/2+y,z
1/2-x,1/2+y,-z
1/2-x,1/2-y,-z
1/2+x,1/2-y,z
loop_
_atom_site_type_symbol
_atom_site_label
_atom_site_fract_x
_atom_site_fract_y
_atom_site_fract_z
Si Si1 0.998545 0.294525 0.224790
Si Si2 0.348796 0.297457 0.698558
Si Si3 0.722034 0.201548 0.395110
Si Si4 0.329365 0.196103 0.352603
Si Si5 0.951803 0.792238 0.484918
Si Si6 0.386135 0.207014 0.876093
Si Si7 0.384067 0.805458 0.102621
Si Si8 0.500000 0.747729 0.000000
O O1 0.996513 0.500000 0.200760
O O2 0.960153 0.260874 0.357879
O O3 0.990600 0.188449 0.128262
O O4 0.054849 0.250397 0.204166
O O5 0.346336 0.500000 0.682031
O O6 0.301113 0.217941 0.692624
O O7 0.400103 0.228904 0.590753
O O8 0.353890 0.267747 0.814534
O O9 0.681068 0.268993 0.522554
O O10 0.774028 0.297537 0.359729
O O11 0.731023 0.000000 0.408894
O O12 0.364977 0.278823 0.228427
O O13 0.347436 0.000000 0.349833
O O14 0.000000 0.731449 0.500000
O O15 0.951639 0.000000 0.489531
O O16 0.383750 0.000000 0.883216
O O17 0.371211 0.274608 0.005520
O O18 0.444263 0.821261 0.040051
O O19 0.362853 0.000000 0.125508
#
# Coordination Sequence:
#
# PCOD9179896 Si02
#       8
#     8   8   8   8   8   8   8   4
#     4  10  19  31  52  78 108 145 185 227 265 316
#     4  11  22  36  55  77 107 146 185 228 276 328
#     4  10  21  37  59  86 112 138 179 233 277 324
#     4   9  19  37  60  84 112 146 179 217 277 334
#     4  10  21  36  51  72 108 150 186 223 273 327
#     4   9  18  33  52  78 109 141 180 226 270 314
#     4   9  17  32  55  82 113 148 182 221 269 325
#     4  10  19  32  53  86 121 148 181 224 269 318
#
# _framework density 22.377835999999999
#
# number of rings (size 3 to 8) (size 9 to 14) (size 15 to 20)
#    0.000    2.267    1.333    2.800    1.867    1.867 
#    0.000    1.667    0.000    1.600    0.000    0.000 
#    0.000    0.000    0.000    0.000    0.000    0.000 
#
# Total GULP energy -167210.538457 kJ/mol
# GULP energy per Si atom -5573.684615 kJ/mol
# Density = 2.232690 g / cm^3
# Si number density = 22.377836 Si / 1000 Ang^3
#
#
#
# Elastic Constant Matrix: (Units=GPa)
#
#
# Indices 1 2 3 4 5 6 
#
# 1 57.6485 0.3992 19.1262 0.0000 27.8826 0.0000
# 2 0.3992 47.7040 0.2909 0.0000 1.8114 0.0000
# 3 19.1262 0.2909 123.9956 0.0000 9.8459 0.0000
# 4 0.0000 0.0000 0.0000 35.6093 0.0000 -2.7211
# 5 27.8826 1.8114 9.8459 0.0000 40.3390 0.0000
# 6 0.0000 0.0000 0.0000 -2.7211 0.0000 -7.3493
#
#
#
# Elastic Compliance Matrix: (Units=1/GPa)
#
#
# Indices 1 2 3 4 5 6 
#
# 1 0.026945 0.000474 -0.002730 0.000000 -0.017980 0.000000
# 2 0.000474 0.021007 -0.000022 0.000000 -0.001265 0.000000
# 3 -0.002730 -0.000022 0.008501 0.000000 -0.000187 0.000000
# 4 0.000000 0.000000 0.000000 0.027310 0.000000 -0.010112
# 5 -0.017980 -0.001265 -0.000187 0.000000 0.037320 0.000000
# 6 0.000000 0.000000 0.000000 -0.010112 0.000000 -0.132324
#
#
# Mechanical properties :
#
#
# Convention : Reuss Voigt Hill
#
# Bulk Modulus (GPa) = 19.26890 29.88677 24.57784
# Shear Modulus (GPa) = 471.10773 27.68858 249.39816
#
# Velocity S-wave (km/s) = 14.52520 3.52137 10.56838
# Velocity P-wave (km/s) = 17.02756 5.46973 12.64626
#
# Compressibility (1/GPa) = 0.05189709
#
# Stress axis : x y z
#
# Youngs Moduli (GPa) = 37.11268 47.60359 117.63654
#
# Poissons Ratio (x) = -0.02256 0.32111
# Poissons Ratio (y) = -0.01759 0.00258
# Poissons Ratio (z) = 0.10131 0.00104
#
# Static dielectric constant tensor:
#      x y z
#    x 1.790400 0.000000 0.007110 
#    y 0.000000 1.868040 0.000000 
#    z 0.007110 0.000000 1.862440 
# 
# From -- ./inp_files/187361.got.cif
#   From: 2010.05.17/outbox.cif.g08.bks.cpg/sg12_94_cif.got.tgz:187361.got - 2010.06.03 13:09:07.
