data_PCOD9179210
_publ_section_title
;
Structure prediction by ZEFSAII (Michael W. Deem and Ramdas Pophale) SiO2 
 PCOD9179210
Probable space group: C 2/M
;
_chemical_formula_sum "Si O2"
_cell_formula_units_Z 64
_cell_length_a 22.833542
_cell_length_b 9.208899
_cell_length_c 15.738545
_cell_angle_alpha 90.000000
_cell_angle_beta 117.119812
_cell_angle_gamma 90.000000
_cell_volume 2945.523775
_symmetry_space_group_name_H-M "C 2/M"
_symmetry_group_IT_number 12
_symmetry_cell_setting 'monoclinic'
loop_
_space_group_symop_operation_xyz
x,y,z
-x,y,-z
-x,-y,-z
x,-y,z
1/2+x,1/2+y,z
1/2-x,1/2+y,-z
1/2-x,1/2-y,-z
1/2+x,1/2-y,z
loop_
_atom_site_type_symbol
_atom_site_label
_atom_site_fract_x
_atom_site_fract_y
_atom_site_fract_z
Si Si1 0.713103 0.662718 0.548102
Si Si2 0.118533 0.823578 0.623282
Si Si3 0.772755 0.675550 0.182596
Si Si4 0.822928 0.665154 0.767977
Si Si5 0.065940 0.163787 0.260271
Si Si6 0.044939 0.162440 0.955970
Si Si7 0.865407 0.666051 0.101398
Si Si8 0.978105 0.331720 0.325396
O O1 0.702462 0.500000 0.509448
O O2 0.750000 0.750000 0.500000
O O3 0.645024 0.714533 0.546503
O O4 0.764184 0.656981 0.660217
O O5 0.172155 0.747809 0.720200
O O6 0.051020 0.757962 0.614576
O O7 0.119559 0.000000 0.631766
O O8 0.772595 0.500000 0.191152
O O9 0.705592 0.745512 0.171497
O O10 0.799148 0.712613 0.106165
O O11 0.841624 0.500000 0.802860
O O12 0.879970 0.750096 0.757261
O O13 0.004114 0.151186 0.156048
O O14 0.040366 0.253466 0.324024
O O15 0.087069 0.000000 0.295709
O O16 0.107566 0.242272 0.958903
O O17 0.063139 0.000000 0.998067
O O18 0.000000 0.232903 0.000000
O O19 0.858017 0.500000 0.069520
O O20 0.921803 0.668735 0.213294
O O21 0.990212 0.500000 0.354740
#
# Coordination Sequence:
#
# PCOD9179210 Si02
#       8
#     8   8   8   8   8   8   8   8
#     4   9  19  32  48  70  96 125 155 190 231 276
#     4   9  16  27  43  67  95 121 153 193 234 274
#     4   9  16  27  44  67  92 119 154 194 234 275
#     4  10  20  33  48  70  98 125 155 193 235 278
#     4  10  19  31  49  71  95 126 158 191 235 281
#     4   9  18  31  47  69  96 124 155 191 231 276
#     4   8  15  26  42  66  92 117 150 191 231 271
#     4   9  16  27  44  67  93 121 154 194 235 274
#
# _framework density 21.727886000000002
#
# number of rings (size 3 to 8) (size 9 to 14) (size 15 to 20)
#    0.000    2.875    0.000    3.375    0.000    7.250 
#    0.000    0.000    0.000    1.500    0.000    5.250 
#    0.000    0.000    0.000    0.000    0.000    0.000 
#
# Total GULP energy -178460.094590 kJ/mol
# GULP energy per Si atom -5576.877956 kJ/mol
# Density = 2.167843 g / cm^3
# Si number density = 21.727886 Si / 1000 Ang^3
#
#
#
# Elastic Constant Matrix: (Units=GPa)
#
#
# Indices 1 2 3 4 5 6 
#
# 1 199.4263 106.8520 41.4678 0.0000 -79.2806 0.0000
# 2 106.8520 136.8456 36.5259 0.0000 -49.9947 0.0000
# 3 41.4678 36.5259 66.4146 0.0000 -16.9964 0.0000
# 4 0.0000 0.0000 0.0000 6.3156 0.0000 -17.1448
# 5 -79.2806 -49.9947 -16.9964 0.0000 57.3350 0.0000
# 6 0.0000 0.0000 0.0000 -17.1448 0.0000 33.7155
#
#
#
# Elastic Compliance Matrix: (Units=1/GPa)
#
#
# Indices 1 2 3 4 5 6 
#
# 1 0.013690 -0.005018 -0.002233 0.000000 0.013893 0.000000
# 2 -0.005018 0.013525 -0.003314 0.000000 0.003872 0.000000
# 3 -0.002233 -0.003314 0.018119 0.000000 -0.000606 0.000000
# 4 0.000000 0.000000 0.000000 -0.416196 0.000000 -0.211641
# 5 0.013893 0.003872 -0.000606 0.000000 0.039849 0.000000
# 6 0.000000 0.000000 0.000000 -0.211641 0.000000 -0.077963
#
#
# Mechanical properties :
#
#
# Convention : Reuss Voigt Hill
#
# Bulk Modulus (GPa) = 41.31588 85.81975 63.56782
# Shear Modulus (GPa) = -13.16559 33.99595 10.41518
#
# Velocity S-wave (km/s) = -2.46424 3.95982 2.19177
# Velocity P-wave (km/s) = 3.31056 7.77754 5.97704
#
# Compressibility (1/GPa) = 0.02420377
#
# Stress axis : x y z
#
# Youngs Moduli (GPa) = 73.04353 73.93687 55.19198
#
# Poissons Ratio (x) = 0.37103 0.12323
# Poissons Ratio (y) = 0.36655 0.18292
# Poissons Ratio (z) = 0.16309 0.24504
#
# Static dielectric constant tensor:
#      x y z
#    x 1.869220 0.000000 0.055000 
#    y 0.000000 1.777370 0.000000 
#    z 0.055000 0.000000 1.853140 
# 
# From -- ./inp_files/287554.got.cif
#   From: 2010.05.17/outbox.cif.g08.bks.cpg/sg12_144_cif.got.tgz:287554.got - 2010.06.03 13:09:07.
