data_PCOD9179607
_publ_section_title
;
Structure prediction by ZEFSAII (Michael W. Deem and Ramdas Pophale) SiO2 
 PCOD9179607
Probable space group: C 2/M
;
_chemical_formula_sum "Si O2"
_cell_formula_units_Z 56
_cell_length_a 27.629103
_cell_length_b 9.740555
_cell_length_c 17.271223
_cell_angle_alpha 90.000000
_cell_angle_beta 139.412878
_cell_angle_gamma 90.000000
_cell_volume 3024.057223
_symmetry_space_group_name_H-M "C 2/M"
_symmetry_group_IT_number 12
_symmetry_cell_setting 'monoclinic'
loop_
_space_group_symop_operation_xyz
x,y,z
-x,y,-z
-x,-y,-z
x,-y,z
1/2+x,1/2+y,z
1/2-x,1/2+y,-z
1/2-x,1/2-y,-z
1/2+x,1/2-y,z
loop_
_atom_site_type_symbol
_atom_site_label
_atom_site_fract_x
_atom_site_fract_y
_atom_site_fract_z
Si Si1 0.785494 0.666244 0.616024
Si Si2 0.842260 0.160388 0.415775
Si Si3 0.316641 0.346555 0.056452
Si Si4 0.397667 0.651937 0.319112
Si Si5 0.515426 0.155672 0.394055
Si Si6 0.452850 0.163794 0.868778
Si Si7 0.931161 0.345963 0.127389
O O1 0.786744 0.500000 0.600784
O O2 0.750000 0.750000 0.500000
O O3 0.731447 0.688529 0.624386
O O4 0.869570 0.710788 0.742924
O O5 0.841062 0.179225 0.321006
O O6 0.910000 0.256299 0.523907
O O7 0.860561 0.000000 0.452164
O O8 0.294788 0.500000 0.005331
O O9 0.360707 0.356581 0.190599
O O10 0.367805 0.268241 0.056772
O O11 0.250000 0.250000 0.000000
O O12 0.429778 0.500000 0.372859
O O13 0.459069 0.768042 0.383207
O O14 0.473842 0.152300 0.261035
O O15 0.531637 0.000000 0.437394
O O16 0.508021 0.181922 0.863774
O O17 0.443011 0.000000 0.870976
O O18 0.500000 0.218700 0.000000
O O19 0.899693 0.500000 0.076362
#
# Coordination Sequence:
#
# PCOD9179607 Si02
#       7
#     8   8   8   8   8   8   8
#     4  10  21  37  57  82 110 142 182 227 276 326
#     4  10  20  33  51  75 104 138 174 214 260 313
#     4  10  20  34  53  76 102 133 169 210 257 313
#     4   9  19  34  50  72 103 137 173 212 257 313
#     4  10  19  31  50  77 107 138 173 213 261 318
#     4   9  18  34  58  84 107 138 186 236 273 314
#     4   9  18  33  53  76 103 137 175 216 263 314
#
# _framework density 18.518167999999999
#
# number of rings (size 3 to 8) (size 9 to 14) (size 15 to 20)
#    0.000    2.429    0.000    2.143    0.000    6.286 
#    0.000    5.000    0.000    3.429    0.000    0.000 
#    0.000    0.000    0.000    0.000    0.000    0.000 
#
# Total GULP energy -155939.325186 kJ/mol
# GULP energy per Si atom -5569.261614 kJ/mol
# Density = 1.847602 g / cm^3
# Si number density = 18.518168 Si / 1000 Ang^3
#
#
#
# Elastic Constant Matrix: (Units=GPa)
#
#
# Indices 1 2 3 4 5 6 
#
# 1 107.8536 66.1847 42.2747 0.0000 -0.3220 0.0000
# 2 66.1847 98.8912 30.0570 0.0000 20.6284 0.0000
# 3 42.2747 30.0570 67.8957 0.0000 9.2297 0.0000
# 4 0.0000 0.0000 0.0000 19.3257 0.0000 7.9337
# 5 -0.3220 20.6284 9.2297 0.0000 29.4147 0.0000
# 6 0.0000 0.0000 0.0000 7.9337 0.0000 18.3955
#
#
#
# Elastic Compliance Matrix: (Units=1/GPa)
#
#
# Indices 1 2 3 4 5 6 
#
# 1 0.021790 -0.014658 -0.008887 0.000000 0.013307 0.000000
# 2 -0.014658 0.023041 0.001196 0.000000 -0.016694 0.000000
# 3 -0.008887 0.001196 0.020745 0.000000 -0.007445 0.000000
# 4 0.000000 0.000000 0.000000 0.062877 0.000000 -0.027118
# 5 0.013307 -0.016694 -0.007445 0.000000 0.048186 0.000000
# 6 0.000000 0.000000 0.000000 -0.027118 0.000000 0.066057
#
#
# Mechanical properties :
#
#
# Convention : Reuss Voigt Hill
#
# Bulk Modulus (GPa) = 47.89905 61.29702 54.59804
# Shear Modulus (GPa) = 16.98640 22.50211 19.74425
#
# Velocity S-wave (km/s) = 3.03195 3.48966 3.26883
# Velocity P-wave (km/s) = 6.17892 7.02922 6.61774
#
# Compressibility (1/GPa) = 0.02087724
#
# Stress axis : x y z
#
# Youngs Moduli (GPa) = 45.89300 43.40087 48.20495
#
# Poissons Ratio (x) = 0.63616 0.42841
# Poissons Ratio (y) = 0.67269 -0.05764
# Poissons Ratio (z) = 0.40786 -0.05190
#
# Static dielectric constant tensor:
#      x y z
#    x 1.627460 0.000000 -0.012280 
#    y 0.000000 1.625570 0.000000 
#    z -0.012280 0.000000 1.852510 
# 
# From -- ./inp_files/292546.got.cif
#   From: 2010.05.17/outbox.cif.g08.bks.cpg/sg12_147_cif.got.tgz:292546.got - 2010.06.03 13:09:07.
