data_PCOD9179510
_publ_section_title
;
Structure prediction by ZEFSAII (Michael W. Deem and Ramdas Pophale) SiO2 
 PCOD9179510
Probable space group: C 2/M
;
_chemical_formula_sum "Si O2"
_cell_formula_units_Z 64
_cell_length_a 20.605302
_cell_length_b 8.020684
_cell_length_c 24.721493
_cell_angle_alpha 90.000000
_cell_angle_beta 121.575720
_cell_angle_gamma 90.000000
_cell_volume 3480.796511
_symmetry_space_group_name_H-M "C 2/M"
_symmetry_group_IT_number 12
_symmetry_cell_setting 'monoclinic'
loop_
_space_group_symop_operation_xyz
x,y,z
-x,y,-z
-x,-y,-z
x,-y,z
1/2+x,1/2+y,z
1/2-x,1/2+y,-z
1/2-x,1/2-y,-z
1/2+x,1/2-y,z
loop_
_atom_site_type_symbol
_atom_site_label
_atom_site_fract_x
_atom_site_fract_y
_atom_site_fract_z
Si Si1 0.993985 0.795378 0.671093
Si Si2 0.334295 0.804657 0.052341
Si Si3 0.536027 0.302182 0.461200
Si Si4 0.086606 0.191543 0.808671
Si Si5 0.439219 0.197320 0.807197
Si Si6 0.790388 0.700149 0.461847
Si Si7 0.517099 0.796821 0.947224
Si Si8 0.656545 0.298942 0.327353
O O1 0.063683 0.738597 0.739799
O O2 0.994302 0.736209 0.609560
O O3 0.913936 0.745756 0.664457
O O4 0.994774 0.000000 0.672072
O O5 0.354538 0.771395 0.123956
O O6 0.403555 0.734846 0.045208
O O7 0.337483 0.000000 0.045341
O O8 0.250000 0.750000 0.000000
O O9 0.500000 0.229648 0.500000
O O10 0.519591 0.500000 0.453185
O O11 0.626338 0.277420 0.502953
O O12 0.005757 0.204832 0.804772
O O13 0.108989 0.000000 0.811999
O O14 0.450245 0.241431 0.874767
O O15 0.362768 0.235221 0.741043
O O16 0.456066 0.000000 0.809378
O O17 0.796949 0.500000 0.462701
O O18 0.750000 0.750000 0.500000
O O19 0.735130 0.755644 0.388912
O O20 0.521240 0.000000 0.951919
O O21 0.500000 0.735295 0.000000
O O22 0.656026 0.500000 0.326068
#
# Coordination Sequence:
#
# PCOD9179510 Si02
#       8
#     8   8   8   8   8   8   8   8
#     4   8  14  28  48  71  96 125 162 200 246 295
#     4  10  19  31  50  75 100 126 161 205 247 290
#     4  10  20  35  54  75 103 136 171 212 255 305
#     4   9  16  28  47  69  98 130 162 201 245 294
#     4   9  16  26  45  74 100 123 161 205 242 288
#     4  11  21  34  53  77 103 132 170 213 257 306
#     4   8  15  29  49  72  98 127 159 197 239 284
#     4   9  17  30  48  69  99 131 160 203 252 298
#
# _framework density 18.386596000000001
#
# number of rings (size 3 to 8) (size 9 to 14) (size 15 to 20)
#    0.000    2.750    1.250    3.000    0.000    1.250 
#    0.000    0.625    2.750   13.500    0.000    0.000 
#    0.000    0.000    0.000    0.000    0.000    0.000 
#
# Total GULP energy -178199.302200 kJ/mol
# GULP energy per Si atom -5568.728194 kJ/mol
# Density = 1.834475 g / cm^3
# Si number density = 18.386596 Si / 1000 Ang^3
#
#
#
# Elastic Constant Matrix: (Units=GPa)
#
#
# Indices 1 2 3 4 5 6 
#
# 1 59.3587 -3.8551 62.9317 0.0000 -10.6918 0.0000
# 2 -3.8551 12.2128 4.8659 0.0000 -3.9413 0.0000
# 3 62.9317 4.8659 208.5475 0.0000 -7.9363 0.0000
# 4 0.0000 0.0000 0.0000 25.3917 0.0000 5.9669
# 5 -10.6918 -3.9413 -7.9363 0.0000 26.9548 0.0000
# 6 0.0000 0.0000 0.0000 5.9669 0.0000 14.3543
#
#
#
# Elastic Compliance Matrix: (Units=1/GPa)
#
#
# Indices 1 2 3 4 5 6 
#
# 1 0.029290 0.016437 -0.008787 0.000000 0.011434 0.000000
# 2 0.016437 0.095655 -0.006484 0.000000 0.018597 0.000000
# 3 -0.008787 -0.006484 0.007513 0.000000 -0.002221 0.000000
# 4 0.000000 0.000000 0.000000 0.043647 0.000000 -0.018143
# 5 0.011434 0.018597 -0.002221 0.000000 0.043700 0.000000
# 6 0.000000 0.000000 0.000000 -0.018143 0.000000 0.077208
#
#
# Mechanical properties :
#
#
# Convention : Reuss Voigt Hill
#
# Bulk Modulus (GPa) = 7.41900 45.33375 26.37638
# Shear Modulus (GPa) = 14.72276 27.75191 21.23733
#
# Velocity S-wave (km/s) = 2.83279 3.88926 3.40228
# Velocity P-wave (km/s) = 3.83971 6.69909 5.45991
#
# Compressibility (1/GPa) = 0.13478897
#
# Stress axis : x y z
#
# Youngs Moduli (GPa) = 34.14192 10.45426 133.09625
#
# Poissons Ratio (x) = -0.17183 1.16949
# Poissons Ratio (y) = -0.56117 0.86300
# Poissons Ratio (z) = 0.30000 0.06779
#
# Static dielectric constant tensor:
#      x y z
#    x 1.625770 0.000000 -0.002580 
#    y 0.000000 1.670320 0.000000 
#    z -0.002580 0.000000 1.685410 
# 
# From -- ./inp_files/345594.got.cif
#   From: 2010.05.17/outbox.cif.g08.bks.cpg/sg12_173_cif.got.tgz:345594.got - 2010.06.03 13:09:07.
