data_PCOD9179290
_publ_section_title
;
Structure prediction by ZEFSAII (Michael W. Deem and Ramdas Pophale) SiO2 
 PCOD9179290
Probable space group: C 2/M
;
_chemical_formula_sum "Si O2"
_cell_formula_units_Z 64
_cell_length_a 19.963450
_cell_length_b 7.316432
_cell_length_c 22.271510
_cell_angle_alpha 90.000000
_cell_angle_beta 50.104675
_cell_angle_gamma 90.000000
_cell_volume 2495.761572
_symmetry_space_group_name_H-M "C 2/M"
_symmetry_group_IT_number 12
_symmetry_cell_setting 'monoclinic'
loop_
_space_group_symop_operation_xyz
x,y,z
-x,y,-z
-x,-y,-z
x,-y,z
1/2+x,1/2+y,z
1/2-x,1/2+y,-z
1/2-x,1/2-y,-z
1/2+x,1/2-y,z
loop_
_atom_site_type_symbol
_atom_site_label
_atom_site_fract_x
_atom_site_fract_y
_atom_site_fract_z
Si Si1 0.402610 0.721066 0.416556
Si Si2 0.343163 0.277228 0.582463
Si Si3 0.721632 0.792169 0.822971
Si Si4 0.031968 0.722756 0.916936
Si Si5 0.277286 0.216165 0.915814
Si Si6 0.532909 0.777521 0.171564
Si Si7 0.093195 0.222242 0.327539
Si Si8 0.152931 0.709135 0.678222
O O1 0.399694 0.500000 0.416794
O O2 0.374070 0.781018 0.499147
O O3 0.503004 0.783103 0.349863
O O4 0.343580 0.788711 0.396067
O O5 0.341653 0.500000 0.581946
O O6 0.403091 0.227712 0.604196
O O7 0.243574 0.213955 0.650280
O O8 0.631672 0.713766 0.849917
O O9 0.717315 0.795790 0.897926
O O10 0.815687 0.711315 0.752605
O O11 0.725191 0.000000 0.798198
O O12 0.034432 0.500000 0.916908
O O13 0.971268 0.773221 0.896276
O O14 0.000000 0.785203 0.000000
O O15 0.376860 0.286382 0.851586
O O16 0.275980 0.000000 0.907244
O O17 0.250000 0.250000 0.000000
O O18 0.441284 0.710885 0.251181
O O19 0.534810 0.000000 0.174372
O O20 0.091725 0.000000 0.324779
O O21 0.149492 0.500000 0.701702
#
# Coordination Sequence:
#
# PCOD9179290 Si02
#       8
#     8   8   8   8   8   8   8   8
#     4  10  19  31  49  73 102 133 165 204 249 295
#     4   9  17  30  50  75 100 130 169 209 245 285
#     4  10  19  32  53  78 101 127 163 208 253 294
#     4   9  16  28  49  74  96 120 158 205 245 287
#     4  11  22  36  54  75 102 133 165 202 245 296
#     4   9  18  32  51  75  99 128 167 207 245 287
#     4   9  17  30  50  75 100 129 168 208 244 290
#     4  10  19  32  51  73  99 130 166 207 247 291
#
# _framework density 25.643474000000001
#
# number of rings (size 3 to 8) (size 9 to 14) (size 15 to 20)
#    0.000    2.375    0.000    3.375    0.000    6.500 
#    0.000    0.625    0.000   10.125    0.000    0.000 
#    0.000    0.000    0.000    0.000    0.000    0.000 
#
# Total GULP energy -179061.012355 kJ/mol
# GULP energy per Si atom -5595.656636 kJ/mol
# Density = 2.558511 g / cm^3
# Si number density = 25.643474 Si / 1000 Ang^3
#
#
#
# Elastic Constant Matrix: (Units=GPa)
#
#
# Indices 1 2 3 4 5 6 
#
# 1 114.2901 -4.2621 -14.3940 0.0002 -0.5514 0.0011
# 2 -4.2621 112.5822 -5.8989 -0.0008 -5.0564 -0.0041
# 3 -14.3940 -5.8989 67.1011 0.0004 1.6882 -0.0004
# 4 0.0002 -0.0008 0.0004 -2.4988 -0.0001 10.0249
# 5 -0.5514 -5.0564 1.6882 -0.0001 48.4292 0.0005
# 6 0.0011 -0.0041 -0.0004 10.0249 0.0005 0.8930
#
#
#
# Elastic Compliance Matrix: (Units=1/GPa)
#
#
# Indices 1 2 3 4 5 6 
#
# 1 0.009015 0.000448 0.001971 -0.000001 0.000081 0.000000
# 2 0.000448 0.008986 0.000863 0.000003 0.000913 0.000002
# 3 0.001971 0.000863 0.015412 0.000001 -0.000425 0.000000
# 4 -0.000001 0.000003 0.000001 -0.008692 -0.000001 0.097585
# 5 0.000081 0.000913 -0.000425 -0.000001 0.020760 0.000000
# 6 0.000000 0.000002 0.000000 0.097585 0.000000 0.024324
#
#
# Mechanical properties :
#
#
# Convention : Reuss Voigt Hill
#
# Bulk Modulus (GPa) = 25.01381 27.20705 26.11043
# Shear Modulus (GPa) = 65.30334 30.59988 47.95161
#
# Velocity S-wave (km/s) = 5.05185 3.45814 4.32897
# Velocity P-wave (km/s) = 6.61845 5.15536 5.93218
#
# Compressibility (1/GPa) = 0.03997792
#
# Stress axis : x y z
#
# Youngs Moduli (GPa) = 110.92591 111.28916 64.88326
#
# Poissons Ratio (x) = -0.04988 -0.12790
# Poissons Ratio (y) = -0.04972 -0.05600
# Poissons Ratio (z) = -0.21866 -0.09605
#
# Static dielectric constant tensor:
#      x y z
#    x 1.924090 0.000000 -0.008530 
#    y 0.000000 1.999150 0.000000 
#    z -0.008530 0.000000 2.043050 
# 
# From -- ./inp_files/346079.got.cif
#   From: 2010.05.17/outbox.cif.g08.bks.cpg/sg12_174_cif.got.tgz:346079.got - 2010.06.03 13:09:07.
