data_PCOD9179478
_publ_section_title
;
Structure prediction by ZEFSAII (Michael W. Deem and Ramdas Pophale) SiO2 
 PCOD9179478
Probable space group: C 2/M
;
_chemical_formula_sum "Si O2"
_cell_formula_units_Z 64
_cell_length_a 14.876128
_cell_length_b 9.173546
_cell_length_c 23.951191
_cell_angle_alpha 90.000000
_cell_angle_beta 63.111705
_cell_angle_gamma 90.000000
_cell_volume 2915.181026
_symmetry_space_group_name_H-M "C 2/M"
_symmetry_group_IT_number 12
_symmetry_cell_setting 'monoclinic'
loop_
_space_group_symop_operation_xyz
x,y,z
-x,y,-z
-x,-y,-z
x,-y,z
1/2+x,1/2+y,z
1/2-x,1/2+y,-z
1/2-x,1/2-y,-z
1/2+x,1/2-y,z
loop_
_atom_site_type_symbol
_atom_site_label
_atom_site_fract_x
_atom_site_fract_y
_atom_site_fract_z
Si Si1 0.094119 0.335979 0.547208
Si Si2 0.212416 0.163163 0.431731
Si Si3 0.571260 0.334626 0.931150
Si Si4 0.255176 0.673514 0.311483
Si Si5 0.156435 0.666012 0.810839
Si Si6 0.550556 0.676528 0.325941
Si Si7 0.876785 0.167160 0.811016
Si Si8 0.216205 0.335886 0.064970
O O1 0.051828 0.500000 0.551306
O O2 0.117080 0.248903 0.483824
O O3 0.204033 0.354485 0.544090
O O4 0.032118 0.241713 0.609279
O O5 0.265357 0.259191 0.369572
O O6 0.185366 0.000000 0.419085
O O7 0.538861 0.500000 0.925387
O O8 0.578176 0.229957 0.876818
O O9 0.682183 0.344396 0.926573
O O10 0.500000 0.278480 0.000000
O O11 0.250359 0.500000 0.313735
O O12 0.336329 0.730189 0.244463
O O13 0.151814 0.747062 0.319463
O O14 0.136448 0.500000 0.800232
O O15 0.266217 0.667901 0.811263
O O16 0.554855 0.500000 0.327934
O O17 0.547919 0.713902 0.260260
O O18 0.863505 0.259631 0.870987
O O19 0.899155 0.000000 0.819591
O O20 0.184529 0.500000 0.059182
O O21 0.250000 0.250000 0.000000
#
# Coordination Sequence:
#
# PCOD9179478 Si02
#       8
#     8   8   8   8   8   8   8   8
#     4  10  21  37  57  80 106 138 175 213 256 310
#     4  10  21  38  57  77 106 141 175 212 258 311
#     4   9  18  33  52  74 100 132 170 210 253 302
#     4  11  21  34  55  81 107 135 174 219 260 306
#     4   9  17  31  51  75 103 134 168 208 259 311
#     4  10  20  35  56  81 108 137 171 214 262 309
#     4   8  16  31  50  72  99 131 166 204 249 302
#     4  10  19  31  50  73  99 131 166 206 250 298
#
# _framework density 21.954039999999999
#
# number of rings (size 3 to 8) (size 9 to 14) (size 15 to 20)
#    0.000    2.375    0.000    3.750    0.000    6.250 
#    0.000    3.750    0.000    1.500    0.000    0.000 
#    0.000    0.000    0.000    0.000    0.000    0.000 
#
# Total GULP energy -178624.968298 kJ/mol
# GULP energy per Si atom -5582.030259 kJ/mol
# Density = 2.190407 g / cm^3
# Si number density = 21.954040 Si / 1000 Ang^3
#
#
#
# Elastic Constant Matrix: (Units=GPa)
#
#
# Indices 1 2 3 4 5 6 
#
# 1 22.1564 -4.3602 -17.0691 0.0000 4.9487 0.0000
# 2 -4.3602 152.1982 70.7216 0.0000 3.5244 0.0000
# 3 -17.0691 70.7216 138.0242 0.0000 -8.6058 0.0000
# 4 0.0000 0.0000 0.0000 33.7103 0.0000 -0.8520
# 5 4.9487 3.5244 -8.6058 0.0000 20.2746 0.0000
# 6 0.0000 0.0000 0.0000 -0.8520 0.0000 10.4782
#
#
#
# Elastic Compliance Matrix: (Units=1/GPa)
#
#
# Indices 1 2 3 4 5 6 
#
# 1 0.052055 -0.001304 0.006499 0.000000 -0.009721 0.000000
# 2 -0.001304 0.008900 -0.004929 0.000000 -0.003321 0.000000
# 3 0.006499 -0.004929 0.010815 0.000000 0.003861 0.000000
# 4 0.000000 0.000000 0.000000 0.029726 0.000000 0.002417
# 5 -0.009721 -0.003321 0.003861 0.000000 0.053912 0.000000
# 6 0.000000 0.000000 0.000000 0.002417 0.000000 0.095633
#
#
# Mechanical properties :
#
#
# Convention : Reuss Voigt Hill
#
# Bulk Modulus (GPa) = 13.83036 45.66260 29.74648
# Shear Modulus (GPa) = 18.20781 30.43173 24.31977
#
# Velocity S-wave (km/s) = 2.88299 3.72715 3.33191
# Velocity P-wave (km/s) = 4.17079 6.27428 5.32738
#
# Compressibility (1/GPa) = 0.07230468
#
# Stress axis : x y z
#
# Youngs Moduli (GPa) = 19.21035 112.35873 92.46497
#
# Poissons Ratio (x) = 0.14648 -0.60097
# Poissons Ratio (y) = 0.02504 0.45572
# Poissons Ratio (z) = -0.12486 0.55376
#
# Static dielectric constant tensor:
#      x y z
#    x 2.220010 0.000000 -0.008220 
#    y 0.000000 1.788000 0.000000 
#    z -0.008220 0.000000 1.805230 
# 
# From -- ./inp_files/346032.got.cif
#   From: 2010.05.17/outbox.cif.g08.bks.cpg/sg12_174_cif.got.tgz:346032.got - 2010.06.03 13:09:07.
