data_PCOD9179387
_publ_section_title
;
Structure prediction by ZEFSAII (Michael W. Deem and Ramdas Pophale) SiO2 
 PCOD9179387
Probable space group: C 2/M
;
_chemical_formula_sum "Si O2"
_cell_formula_units_Z 56
_cell_length_a 19.230895
_cell_length_b 8.770332
_cell_length_c 14.710780
_cell_angle_alpha 90.000000
_cell_angle_beta 67.101238
_cell_angle_gamma 90.000000
_cell_volume 2285.610612
_symmetry_space_group_name_H-M "C 2/M"
_symmetry_group_IT_number 12
_symmetry_cell_setting 'monoclinic'
loop_
_space_group_symop_operation_xyz
x,y,z
-x,y,-z
-x,-y,-z
x,-y,z
1/2+x,1/2+y,z
1/2-x,1/2+y,-z
1/2-x,1/2-y,-z
1/2+x,1/2-y,z
loop_
_atom_site_type_symbol
_atom_site_label
_atom_site_fract_x
_atom_site_fract_y
_atom_site_fract_z
Si Si1 0.465627 0.177439 0.642315
Si Si2 0.525932 0.825204 0.093821
Si Si3 0.878204 0.823372 0.226466
Si Si4 0.822800 0.679263 0.069211
Si Si5 0.321150 0.823509 0.810940
Si Si6 0.355598 0.822972 0.422199
Si Si7 0.163984 0.823389 0.383214
O O1 0.411725 0.198978 0.758361
O O2 0.553270 0.196451 0.614528
O O3 0.425216 0.288572 0.591266
O O4 0.453293 0.000000 0.619753
O O5 0.467394 0.716092 0.173630
O O6 0.514292 0.000000 0.131583
O O7 0.500000 0.823956 0.000000
O O8 0.615012 0.790191 0.040052
O O9 0.847783 0.776014 0.143718
O O10 0.841134 0.727927 0.326766
O O11 0.867034 0.000000 0.250676
O O12 0.830134 0.500000 0.085448
O O13 0.735157 0.719628 0.103352
O O14 0.302567 0.782901 0.713681
O O15 0.306025 0.000000 0.839441
O O16 0.320702 0.725440 0.521765
O O17 0.337519 0.000000 0.444900
O O18 0.181246 0.000000 0.358231
#
# Coordination Sequence:
#
# PCOD9179387 Si02
#       7
#     8   8   8   8   8   8   8
#     4   8  18  33  51  73  99 132 169 206 247 292
#     4   8  16  32  52  73  98 127 163 203 246 296
#     4  11  22  33  49  77 105 131 165 205 250 297
#     4  10  19  34  55  77 100 131 166 203 249 297
#     4   9  18  33  51  75 101 130 170 207 243 291
#     4  11  20  34  52  71 102 138 168 205 251 295
#     4  10  19  31  49  76 103 130 168 209 246 289
#
# _framework density 24.501111000000002
#
# number of rings (size 3 to 8) (size 9 to 14) (size 15 to 20)
#    0.857    1.571    0.000    4.714    0.000    6.000 
#    0.000    0.714    0.000    0.857    0.000    0.000 
#    0.000    0.000    0.000    0.000    0.000    0.000 
#
# Total GULP energy -156498.387840 kJ/mol
# GULP energy per Si atom -5589.228137 kJ/mol
# Density = 2.444535 g / cm^3
# Si number density = 24.501111 Si / 1000 Ang^3
#
#
#
# Elastic Constant Matrix: (Units=GPa)
#
#
# Indices 1 2 3 4 5 6 
#
# 1 72.0762 4.1690 -16.7586 0.0000 -12.9403 0.0000
# 2 4.1690 52.6263 9.5683 0.0000 -4.2298 0.0000
# 3 -16.7586 9.5683 91.3838 0.0000 -11.3556 0.0000
# 4 0.0000 0.0000 0.0000 30.1927 0.0000 -9.7712
# 5 -12.9403 -4.2298 -11.3556 0.0000 47.4911 0.0000
# 6 0.0000 0.0000 0.0000 -9.7712 0.0000 15.5889
#
#
#
# Elastic Compliance Matrix: (Units=1/GPa)
#
#
# Indices 1 2 3 4 5 6 
#
# 1 0.015715 -0.001507 0.003664 0.000000 0.005024 0.000000
# 2 -0.001507 0.019591 -0.002228 0.000000 0.000801 0.000000
# 3 0.003664 -0.002228 0.012313 0.000000 0.003744 0.000000
# 4 0.000000 0.000000 0.000000 0.041549 0.000000 0.026043
# 5 0.005024 0.000801 0.003744 0.000000 0.023392 0.000000
# 6 0.000000 0.000000 0.000000 0.026043 0.000000 0.080472
#
#
# Mechanical properties :
#
#
# Convention : Reuss Voigt Hill
#
# Bulk Modulus (GPa) = 21.06292 23.33820 22.20056
# Shear Modulus (GPa) = 23.92333 33.26169 28.59251
#
# Velocity S-wave (km/s) = 3.12816 3.68850 3.41983
# Velocity P-wave (km/s) = 4.65431 5.26176 4.96733
#
# Compressibility (1/GPa) = 0.04747681
#
# Stress axis : x y z
#
# Youngs Moduli (GPa) = 63.63222 51.04424 81.21257
#
# Poissons Ratio (x) = 0.07694 -0.29757
# Poissons Ratio (y) = 0.09592 0.18095
# Poissons Ratio (z) = -0.23315 0.11373
#
# Static dielectric constant tensor:
#      x y z
#    x 2.134130 0.000000 0.018270 
#    y 0.000000 1.802020 0.000000 
#    z 0.018270 0.000000 1.984340 
# 
# From -- ./inp_files/291835.got.cif
#   From: 2010.05.17/outbox.cif.g08.bks.cpg/sg12_146_cif.got.tgz:291835.got - 2010.06.03 13:09:07.
