data_PCOD9179497
_publ_section_title
;
Structure prediction by ZEFSAII (Michael W. Deem and Ramdas Pophale) SiO2 
 PCOD9179497
Probable space group: C 2/M
;
_chemical_formula_sum "Si O2"
_cell_formula_units_Z 40
_cell_length_a 17.535182
_cell_length_b 12.342955
_cell_length_c 12.258049
_cell_angle_alpha 90.000000
_cell_angle_beta 130.569709
_cell_angle_gamma 90.000000
_cell_volume 2015.322029
_symmetry_space_group_name_H-M "C 2/M"
_symmetry_group_IT_number 12
_symmetry_cell_setting 'monoclinic'
loop_
_space_group_symop_operation_xyz
x,y,z
-x,y,-z
-x,-y,-z
x,-y,z
1/2+x,1/2+y,z
1/2-x,1/2+y,-z
1/2-x,1/2-y,-z
1/2+x,1/2-y,z
loop_
_atom_site_type_symbol
_atom_site_label
_atom_site_fract_x
_atom_site_fract_y
_atom_site_fract_z
Si Si1 0.841419 0.880464 0.377981
Si Si2 0.528968 0.825654 0.412270
Si Si3 0.648732 0.296821 0.854454
Si Si4 0.480916 0.380685 0.853552
Si Si5 0.664688 0.187775 0.355205
O O1 0.913259 0.786934 0.496473
O O2 0.834117 0.862277 0.241541
O O3 0.729213 0.871663 0.323319
O O4 0.882147 0.000000 0.440868
O O5 0.500000 0.879164 0.500000
O O6 0.425995 0.798166 0.255162
O O7 0.601840 0.875619 0.389067
O O8 0.583670 0.362693 0.882242
O O9 0.750000 0.250000 0.000000
O O10 0.438831 0.500000 0.784635
O O11 0.408355 0.280724 0.759229
O O12 0.500000 0.379795 0.000000
O O13 0.750000 0.250000 0.500000
#
# Coordination Sequence:
#
# PCOD9179497 Si02
#       5
#     8   8   8   8   8
#     4  10  19  32  53  81 108 135 171 215 263 312
#     4   8  17  31  50  74  99 132 170 210 256 302
#     4  10  19  31  50  74 105 137 167 210 259 307
#     4  10  20  34  53  76 102 134 173 214 257 308
#     4   9  18  31  50  77 106 134 167 212 263 309
#
# _framework density 19.847943999999998
#
# number of rings (size 3 to 8) (size 9 to 14) (size 15 to 20)
#    0.000    2.600    0.000    1.800    0.000   10.800 
#    0.000    0.000    0.000   20.400    0.000    8.400 
#    0.000    0.000    0.000    0.000    0.000    0.000 
#
# Total GULP energy -111411.422392 kJ/mol
# GULP energy per Si atom -5570.571120 kJ/mol
# Density = 1.980277 g / cm^3
# Si number density = 19.847944 Si / 1000 Ang^3
#
#
#
# Elastic Constant Matrix: (Units=GPa)
#
#
# Indices 1 2 3 4 5 6 
#
# 1 179.6857 22.1680 43.0292 0.0000 -18.9569 0.0000
# 2 22.1680 87.5846 24.9142 0.0000 4.6477 0.0000
# 3 43.0292 24.9142 100.4061 0.0000 0.8901 0.0000
# 4 0.0000 0.0000 0.0000 2.1049 0.0000 10.6158
# 5 -18.9569 4.6477 0.8901 0.0000 39.2880 0.0000
# 6 0.0000 0.0000 0.0000 10.6158 0.0000 -1.4390
#
#
#
# Elastic Compliance Matrix: (Units=1/GPa)
#
#
# Indices 1 2 3 4 5 6 
#
# 1 0.006693 -0.001131 -0.002618 0.000000 0.003422 0.000000
# 2 -0.001131 0.012551 -0.002612 0.000000 -0.001971 0.000000
# 3 -0.002618 -0.002612 0.011740 0.000000 -0.001220 0.000000
# 4 0.000000 0.000000 0.000000 0.012434 0.000000 0.091733
# 5 0.003422 -0.001971 -0.001220 0.000000 0.027365 0.000000
# 6 0.000000 0.000000 0.000000 0.091733 0.000000 -0.018189
#
#
# Mechanical properties :
#
#
# Convention : Reuss Voigt Hill
#
# Bulk Modulus (GPa) = 54.75719 60.87771 57.81745
# Shear Modulus (GPa) = 70.02254 26.49512 48.25883
#
# Velocity S-wave (km/s) = 5.94610 3.65760 4.93630
# Velocity P-wave (km/s) = 8.64810 6.96965 7.85384
#
# Compressibility (1/GPa) = 0.01826244
#
# Stress axis : x y z
#
# Youngs Moduli (GPa) = 149.41495 79.67195 85.17527
#
# Poissons Ratio (x) = 0.09010 0.22298
# Poissons Ratio (y) = 0.16897 0.22251
# Poissons Ratio (z) = 0.39116 0.20813
#
# Static dielectric constant tensor:
#      x y z
#    x 1.769270 0.000000 -0.037350 
#    y 0.000000 1.757650 0.000000 
#    z -0.037350 0.000000 1.648840 
# 
# From -- ./inp_files/155593.got.cif
#   From: 2010.05.17/outbox.cif.g08.bks.cpg/sg12_78_cif.got.tgz:155593.got - 2010.06.03 13:09:07.
