data_PCOD9179854
_publ_section_title
;
Structure prediction by ZEFSAII (Michael W. Deem and Ramdas Pophale) SiO2 
 PCOD9179854
Probable space group: C 2/M
;
_chemical_formula_sum "Si O2"
_cell_formula_units_Z 64
_cell_length_a 24.400599
_cell_length_b 8.919507
_cell_length_c 16.100888
_cell_angle_alpha 90.000000
_cell_angle_beta 88.859820
_cell_angle_gamma 90.000000
_cell_volume 3503.524592
_symmetry_space_group_name_H-M "C 2/M"
_symmetry_group_IT_number 12
_symmetry_cell_setting 'monoclinic'
loop_
_space_group_symop_operation_xyz
x,y,z
-x,y,-z
-x,-y,-z
x,-y,z
1/2+x,1/2+y,z
1/2-x,1/2+y,-z
1/2-x,1/2-y,-z
1/2+x,1/2-y,z
loop_
_atom_site_type_symbol
_atom_site_label
_atom_site_fract_x
_atom_site_fract_y
_atom_site_fract_z
Si Si1 0.716342 0.178648 0.122897
Si Si2 0.829228 0.678361 0.053020
Si Si3 0.589291 0.677363 0.551887
Si Si4 0.897594 0.820045 0.184660
Si Si5 0.699702 0.321031 0.300341
Si Si6 0.406641 0.177540 0.622114
Si Si7 0.496318 0.676625 0.294662
Si Si8 0.325336 0.820604 0.333977
O O1 0.774935 0.248064 0.095132
O O2 0.696830 0.256365 0.207300
O O3 0.722282 0.000000 0.134732
O O4 0.676553 0.203842 0.045296
O O5 0.828210 0.500000 0.068269
O O6 0.880760 0.752314 0.096999
O O7 0.596608 0.500000 0.539505
O O8 0.574272 0.753623 0.466045
O O9 0.543246 0.697958 0.624068
O O10 0.644206 0.750722 0.587762
O O11 0.958163 0.783684 0.217313
O O12 0.855145 0.751087 0.252930
O O13 0.892004 0.000000 0.185445
O O14 0.692536 0.500000 0.299685
O O15 0.652566 0.245347 0.355597
O O16 0.760848 0.288133 0.331776
O O17 0.449535 0.229101 0.691098
O O18 0.404291 0.000000 0.617029
O O19 0.510030 0.500000 0.289948
O O20 0.333000 0.000000 0.332069
#
# Coordination Sequence:
#
# PCOD9179854 Si02
#       8
#     8   8   8   8   8   8   8   8
#     4  10  20  33  52  79 113 147 182 222 265 319
#     4  10  19  31  51  82 115 146 179 220 268 318
#     4  10  21  38  60  82 108 141 177 225 278 324
#     4  10  19  32  55  83 112 145 178 223 274 322
#     4  11  23  38  56  77 110 150 183 222 272 327
#     4  12  25  38  56  80 106 143 186 227 272 323
#     4   9  20  38  58  81 108 140 180 226 276 321
#     4  10  20  34  54  81 110 141 180 223 272 325
#
# _framework density 18.267319000000001
#
# number of rings (size 3 to 8) (size 9 to 14) (size 15 to 20)
#    0.000    1.750    1.250    4.500    0.000    8.000 
#    0.000    0.000    0.000    0.750    0.000    5.250 
#    0.000    0.000    0.000    0.000    0.000    0.000 
#
# Total GULP energy -178745.278397 kJ/mol
# GULP energy per Si atom -5585.789950 kJ/mol
# Density = 1.822574 g / cm^3
# Si number density = 18.267319 Si / 1000 Ang^3
#
#
#
# Elastic Constant Matrix: (Units=GPa)
#
#
# Indices 1 2 3 4 5 6 
#
# 1 64.9400 44.1941 11.1483 0.0000 27.2903 0.0000
# 2 44.1941 76.8966 16.5266 0.0000 17.9985 0.0000
# 3 11.1483 16.5266 40.6883 0.0000 25.6682 0.0000
# 4 0.0000 0.0000 0.0000 32.6602 0.0000 5.8575
# 5 27.2903 17.9985 25.6682 0.0000 28.7937 0.0000
# 6 0.0000 0.0000 0.0000 5.8575 0.0000 26.7567
#
#
#
# Elastic Compliance Matrix: (Units=1/GPa)
#
#
# Indices 1 2 3 4 5 6 
#
# 1 0.056168 -0.023527 0.042210 0.000000 -0.076157 0.000000
# 2 -0.023527 0.025091 -0.018093 0.000000 0.022744 0.000000
# 3 0.042210 -0.018093 0.087892 0.000000 -0.107048 0.000000
# 4 0.000000 0.000000 0.000000 0.031870 0.000000 -0.006977
# 5 -0.076157 0.022744 -0.107048 0.000000 0.188122 0.000000
# 6 0.000000 0.000000 0.000000 -0.006977 0.000000 0.038901
#
#
# Mechanical properties :
#
#
# Convention : Reuss Voigt Hill
#
# Bulk Modulus (GPa) = 5.87091 36.25142 21.06116
# Shear Modulus (GPa) = 10.33825 25.01919 17.67872
#
# Velocity S-wave (km/s) = 2.38154 3.70485 3.11429
# Velocity P-wave (km/s) = 3.28377 6.17974 4.94835
#
# Compressibility (1/GPa) = 0.17033141
#
# Stress axis : x y z
#
# Youngs Moduli (GPa) = 17.80380 39.85473 11.37758
#
# Poissons Ratio (x) = 0.93767 -0.48025
# Poissons Ratio (y) = 0.41887 0.20585
# Poissons Ratio (z) = -0.75150 0.72109
#
# Static dielectric constant tensor:
#      x y z
#    x 1.625970 0.000000 0.028180 
#    y 0.000000 1.603550 0.000000 
#    z 0.028180 0.000000 1.637940 
# 
# From -- ./inp_files/238703.got.cif
#   From: 2010.05.17/outbox.cif.g08.bks.cpg/sg12_120_cif.got.tgz:238703.got - 2010.06.03 13:09:07.
