data_PCOD9179173
_publ_section_title
;
Structure prediction by ZEFSAII (Michael W. Deem and Ramdas Pophale) SiO2 
 PCOD9179173
Probable space group: C 2/M
;
_chemical_formula_sum "Si O2"
_cell_formula_units_Z 48
_cell_length_a 29.135708
_cell_length_b 8.420181
_cell_length_c 11.669488
_cell_angle_alpha 90.000000
_cell_angle_beta 77.676278
_cell_angle_gamma 90.000000
_cell_volume 2796.883539
_symmetry_space_group_name_H-M "C 2/M"
_symmetry_group_IT_number 12
_symmetry_cell_setting 'monoclinic'
loop_
_space_group_symop_operation_xyz
x,y,z
-x,y,-z
-x,-y,-z
x,-y,z
1/2+x,1/2+y,z
1/2-x,1/2+y,-z
1/2-x,1/2-y,-z
1/2+x,1/2-y,z
loop_
_atom_site_type_symbol
_atom_site_label
_atom_site_fract_x
_atom_site_fract_y
_atom_site_fract_z
Si Si1 0.821404 0.810101 0.903420
Si Si2 0.010220 0.684067 0.631617
Si Si3 0.610670 0.192667 0.526978
Si Si4 0.771520 0.191922 0.161885
Si Si5 0.705261 0.690491 0.594786
Si Si6 0.909064 0.692201 0.723746
O O1 0.780733 0.751810 0.838721
O O2 0.871447 0.747019 0.836092
O O3 0.822179 0.000000 0.902155
O O4 0.804623 0.756055 0.038670
O O5 0.013082 0.500000 0.667330
O O6 0.062574 0.752408 0.613525
O O7 0.000000 0.682586 0.500000
O O8 0.962635 0.752731 0.711250
O O9 0.657499 0.249453 0.562902
O O10 0.608163 0.241437 0.394505
O O11 0.609448 0.000000 0.528624
O O12 0.789168 0.244977 0.276458
O O13 0.770159 0.000000 0.162036
O O14 0.705222 0.500000 0.593977
O O15 0.750000 0.750000 0.500000
O O16 0.910927 0.500000 0.722081
#
# Coordination Sequence:
#
# PCOD9179173 Si02
#       6
#     8   8   8   8   8   8
#     4  10  19  31  49  70  90 115 152 194 228 263
#     4   7  12  25  45  67  91 121 152 180 218 269
#     4   9  17  30  48  70  96 123 151 185 224 267
#     4   9  20  36  48  62  90 125 154 183 225 273
#     4  11  22  34  48  67  93 123 153 184 223 272
#     4   9  16  28  48  72  96 121 149 183 227 273
#
# _framework density 17.161957999999998
#
# number of rings (size 3 to 8) (size 9 to 14) (size 15 to 20)
#    0.000    2.833    0.000    4.000    0.000    6.667 
#    0.000    0.833    0.000    4.000    0.000    7.000 
#    0.000    0.000    0.000    0.000    0.000    0.000 
#
# Total GULP energy -133710.327108 kJ/mol
# GULP energy per Si atom -5571.263629 kJ/mol
# Density = 1.712290 g / cm^3
# Si number density = 17.161958 Si / 1000 Ang^3
#
#
#
# Elastic Constant Matrix: (Units=GPa)
#
#
# Indices 1 2 3 4 5 6 
#
# 1 162.8883 16.7187 67.0903 0.0000 -23.3391 0.0000
# 2 16.7187 9.4882 13.2446 0.0000 -0.9442 0.0000
# 3 67.0903 13.2446 69.9326 0.0000 -11.4982 0.0000
# 4 0.0000 0.0000 0.0000 21.2989 0.0000 -1.3729
# 5 -23.3391 -0.9442 -11.4982 0.0000 32.7466 0.0000
# 6 0.0000 0.0000 0.0000 -1.3729 0.0000 23.2724
#
#
#
# Elastic Compliance Matrix: (Units=1/GPa)
#
#
# Indices 1 2 3 4 5 6 
#
# 1 0.011027 -0.007167 -0.008451 0.000000 0.004685 0.000000
# 2 -0.007167 0.148948 -0.022783 0.000000 -0.008813 0.000000
# 3 -0.008451 -0.022783 0.027194 0.000000 0.002868 0.000000
# 4 0.000000 0.000000 0.000000 0.047130 0.000000 0.002780
# 5 0.004685 -0.008813 0.002868 0.000000 0.034630 0.000000
# 6 0.000000 0.000000 0.000000 0.002780 0.000000 0.043133
#
#
# Mechanical properties :
#
#
# Convention : Reuss Voigt Hill
#
# Bulk Modulus (GPa) = 9.06070 48.49071 28.77570
# Shear Modulus (GPa) = 11.74670 25.14728 18.44699
#
# Velocity S-wave (km/s) = 2.61906 3.83207 3.28209
# Velocity P-wave (km/s) = 3.79960 6.92068 5.58268
#
# Compressibility (1/GPa) = 0.11036672
#
# Stress axis : x y z
#
# Youngs Moduli (GPa) = 90.68747 6.71377 36.77346
#
# Poissons Ratio (x) = 0.04812 0.31078
# Poissons Ratio (y) = 0.64994 0.83780
# Poissons Ratio (z) = 0.76641 0.15296
#
# Static dielectric constant tensor:
#      x y z
#    x 1.588350 0.000000 -0.021330 
#    y 0.000000 1.598700 0.000000 
#    z -0.021330 0.000000 1.582530 
# 
# From -- ./inp_files/172409.got.cif
#   From: 2010.05.17/outbox.cif.g08.bks.cpg/sg12_87_cif.got.tgz:172409.got - 2010.06.03 13:09:07.
