data_PCOD9179652
_publ_section_title
;
Structure prediction by ZEFSAII (Michael W. Deem and Ramdas Pophale) SiO2 
 PCOD9179652
Probable space group: C 2/M
;
_chemical_formula_sum "Si O2"
_cell_formula_units_Z 40
_cell_length_a 15.126916
_cell_length_b 22.833407
_cell_length_c 11.896437
_cell_angle_alpha 90.000000
_cell_angle_beta 151.922397
_cell_angle_gamma 90.000000
_cell_volume 1933.979164
_symmetry_space_group_name_H-M "C 2/M"
_symmetry_group_IT_number 12
_symmetry_cell_setting 'monoclinic'
loop_
_space_group_symop_operation_xyz
x,y,z
-x,y,-z
-x,-y,-z
x,-y,z
1/2+x,1/2+y,z
1/2-x,1/2+y,-z
1/2-x,1/2-y,-z
1/2+x,1/2-y,z
loop_
_atom_site_type_symbol
_atom_site_label
_atom_site_fract_x
_atom_site_fract_y
_atom_site_fract_z
Si Si1 0.909597 0.430293 0.282934
Si Si2 0.492378 0.617446 0.125064
Si Si3 0.334236 0.810687 0.729700
Si Si4 0.524137 0.737970 0.760642
Si Si5 0.835110 0.432480 0.638863
O O1 0.921229 0.500000 0.305437
O O2 0.000000 0.405182 0.500000
O O3 0.999998 0.417517 0.263983
O O4 0.699763 0.409349 0.048878
O O5 0.499414 0.682499 0.183024
O O6 0.654586 0.576999 0.357275
O O7 0.500000 0.618481 0.000000
O O8 0.421144 0.791691 0.706729
O O9 0.318219 0.881313 0.712193
O O10 0.126745 0.780849 0.507169
O O11 0.500000 0.792294 0.000000
O O12 0.750000 0.750000 0.000000
O O13 0.849383 0.500000 0.693368
#
# Coordination Sequence:
#
# PCOD9179652 Si02
#       5
#     8   8   8   8   8
#     4  10  19  31  50  79 117 155 187 229 287 342
#     4  11  20  33  55  84 115 150 190 238 293 348
#     4  10  22  41  60  85 118 151 197 244 289 346
#     4  10  22  40  60  84 114 152 194 241 296 348
#     4  10  21  36  56  83 117 155 196 240 286 343
#
# _framework density 20.682746000000002
#
# number of rings (size 3 to 8) (size 9 to 14) (size 15 to 20)
#    0.000    1.800    2.000    2.400    0.000    2.000 
#    3.600    0.000    0.000    0.000    0.000   11.200 
#    0.000    0.000    0.000    0.000    0.000    0.000 
#
# Total GULP energy -111428.410098 kJ/mol
# GULP energy per Si atom -5571.420505 kJ/mol
# Density = 2.063567 g / cm^3
# Si number density = 20.682746 Si / 1000 Ang^3
#
#
#
# Elastic Constant Matrix: (Units=GPa)
#
#
# Indices 1 2 3 4 5 6 
#
# 1 30.5837 -13.1217 21.7321 0.0000 14.6807 0.0000
# 2 -13.1217 143.4300 36.5041 0.0000 7.9502 0.0000
# 3 21.7321 36.5041 165.2020 0.0000 18.6349 0.0000
# 4 0.0000 0.0000 0.0000 32.2478 0.0000 7.2708
# 5 14.6807 7.9502 18.6349 0.0000 40.9503 0.0000
# 6 0.0000 0.0000 0.0000 7.2708 0.0000 15.2665
#
#
#
# Elastic Compliance Matrix: (Units=1/GPa)
#
#
# Indices 1 2 3 4 5 6 
#
# 1 0.047250 0.006696 -0.005943 0.000000 -0.015535 0.000000
# 2 0.006696 0.008357 -0.002397 0.000000 -0.002932 0.000000
# 3 -0.005943 -0.002397 0.007454 0.000000 -0.000796 0.000000
# 4 0.000000 0.000000 0.000000 0.034740 0.000000 -0.016545
# 5 -0.015535 -0.002932 -0.000796 0.000000 0.030921 0.000000
# 6 0.000000 0.000000 0.000000 -0.016545 0.000000 0.073383
#
#
# Mechanical properties :
#
#
# Convention : Reuss Voigt Hill
#
# Bulk Modulus (GPa) = 16.72943 47.71607 32.22275
# Shear Modulus (GPa) = 22.19090 37.29967 29.74528
#
# Velocity S-wave (km/s) = 3.27910 4.25128 3.79643
# Velocity P-wave (km/s) = 4.73738 6.87156 5.90174
#
# Compressibility (1/GPa) = 0.05977491
#
# Stress axis : x y z
#
# Youngs Moduli (GPa) = 21.16392 119.65739 134.14853
#
# Poissons Ratio (x) = -0.80126 0.79725
# Poissons Ratio (y) = -0.14172 0.32152
# Poissons Ratio (z) = 0.12578 0.28679
#
# Static dielectric constant tensor:
#      x y z
#    x 1.734490 0.000000 -0.036760 
#    y 0.000000 2.227200 0.000000 
#    z -0.036760 0.000000 1.710970 
# 
# From -- ./inp_files/21774.got.cif
#   From: 2010.05.17/outbox.cif.g08.bks.cpg/sg12_11_cif.got.tgz:21774.got - 2010.06.03 13:09:07.
