data_PCOD9179906
_publ_section_title
;
Structure prediction by ZEFSAII (Michael W. Deem and Ramdas Pophale) SiO2 
 PCOD9179906
Probable space group: C 2/M
;
_chemical_formula_sum "Si O2"
_cell_formula_units_Z 48
_cell_length_a 30.524147
_cell_length_b 13.705898
_cell_length_c 13.026585
_cell_angle_alpha 90.000000
_cell_angle_beta 154.349809
_cell_angle_gamma 90.000000
_cell_volume 2359.091048
_symmetry_space_group_name_H-M "C 2/M"
_symmetry_group_IT_number 12
_symmetry_cell_setting 'monoclinic'
loop_
_space_group_symop_operation_xyz
x,y,z
-x,y,-z
-x,-y,-z
x,-y,z
1/2+x,1/2+y,z
1/2-x,1/2+y,-z
1/2-x,1/2-y,-z
1/2+x,1/2-y,z
loop_
_atom_site_type_symbol
_atom_site_label
_atom_site_fract_x
_atom_site_fract_y
_atom_site_fract_z
Si Si1 0.279680 0.282773 0.677318
Si Si2 0.898484 0.109040 0.215486
Si Si3 0.403559 0.810010 0.107116
Si Si4 0.523154 0.605808 0.928745
Si Si5 0.606387 0.765517 0.463731
Si Si6 0.227424 0.888645 0.856262
O O1 0.250000 0.250000 0.500000
O O2 0.338168 0.196021 0.863725
O O3 0.359602 0.369455 0.836829
O O4 0.186553 0.310734 0.554291
O O5 0.801704 0.120475 0.085889
O O6 0.000000 0.113953 0.500000
O O7 0.895706 0.000000 0.164470
O O8 0.902613 0.198546 0.147252
O O9 0.342080 0.872062 0.060778
O O10 0.520857 0.833521 0.334138
O O11 0.496268 0.500000 0.829706
O O12 0.500000 0.606819 0.000000
O O13 0.458222 0.689591 0.740015
O O14 0.664921 0.697178 0.668410
O O15 0.196798 0.000000 0.763222
#
# Coordination Sequence:
#
# PCOD9179906 Si02
#       6
#     8   8   8   8   8   8
#     4  10  20  35  51  76 110 144 178 222 274 322
#     4  10  19  34  58  85 112 142 179 228 279 325
#     4  10  21  33  55  83 110 144 186 226 273 327
#     4  10  19  31  52  79 103 133 178 231 272 313
#     4  10  19  34  54  79 107 147 179 225 271 326
#     4  10  20  35  56  82 111 145 181 222 271 330
#
# _framework density 20.346820999999998
#
# number of rings (size 3 to 8) (size 9 to 14) (size 15 to 20)
#    0.000    2.000    3.333    1.000    0.000    2.667 
#    0.000    0.833    0.000    1.500    0.000    4.667 
#    0.000    0.000    0.000    0.000    0.000    0.000 
#
# Total GULP energy -133894.154834 kJ/mol
# GULP energy per Si atom -5578.923118 kJ/mol
# Density = 2.030051 g / cm^3
# Si number density = 20.346821 Si / 1000 Ang^3
#
#
#
# Elastic Constant Matrix: (Units=GPa)
#
#
# Indices 1 2 3 4 5 6 
#
# 1 136.9438 13.1877 29.3089 0.0000 37.8368 0.0000
# 2 13.1877 27.2198 6.3715 0.0000 -1.3674 0.0000
# 3 29.3089 6.3715 55.6021 0.0000 25.9496 0.0000
# 4 0.0000 0.0000 0.0000 50.2514 0.0000 24.5876
# 5 37.8368 -1.3674 25.9496 0.0000 49.2846 0.0000
# 6 0.0000 0.0000 0.0000 24.5876 0.0000 22.7422
#
#
#
# Elastic Compliance Matrix: (Units=1/GPa)
#
#
# Indices 1 2 3 4 5 6 
#
# 1 0.010037 -0.004886 -0.001420 0.000000 -0.007093 0.000000
# 2 -0.004886 0.040866 -0.005816 0.000000 0.007948 0.000000
# 3 -0.001420 -0.005816 0.025145 0.000000 -0.012311 0.000000
# 4 0.000000 0.000000 0.000000 0.042250 0.000000 -0.045678
# 5 -0.007093 0.007948 -0.012311 0.000000 0.032438 0.000000
# 6 0.000000 0.000000 0.000000 -0.045678 0.000000 0.093356
#
#
# Mechanical properties :
#
#
# Convention : Reuss Voigt Hill
#
# Bulk Modulus (GPa) = 19.30420 35.27800 27.29110
# Shear Modulus (GPa) = 17.50668 35.84882 26.67775
#
# Velocity S-wave (km/s) = 2.93646 4.20204 3.62491
# Velocity P-wave (km/s) = 4.58315 6.39678 5.56435
#
# Compressibility (1/GPa) = 0.05180219
#
# Stress axis : x y z
#
# Youngs Moduli (GPa) = 99.63573 24.47019 39.76855
#
# Poissons Ratio (x) = 0.11957 0.05648
# Poissons Ratio (y) = 0.48687 0.23131
# Poissons Ratio (z) = 0.14150 0.14233
#
# Static dielectric constant tensor:
#      x y z
#    x 1.778880 0.000000 0.031860 
#    y 0.000000 1.687460 0.000000 
#    z 0.031860 0.000000 1.771560 
# 
# From -- ./inp_files/131150.got.cif
#   From: 2010.05.17/outbox.cif.g08.bks.cpg/sg12_66_cif.got.tgz:131150.got - 2010.06.03 13:09:07.
