data_PCOD9179279
_publ_section_title
;
Structure prediction by ZEFSAII (Michael W. Deem and Ramdas Pophale) SiO2 
 PCOD9179279
Probable space group: C 2/M
;
_chemical_formula_sum "Si O2"
_cell_formula_units_Z 48
_cell_length_a 9.362557
_cell_length_b 24.865731
_cell_length_c 16.499688
_cell_angle_alpha 90.000000
_cell_angle_beta 149.023794
_cell_angle_gamma 90.000000
_cell_volume 1977.017306
_symmetry_space_group_name_H-M "C 2/M"
_symmetry_group_IT_number 12
_symmetry_cell_setting 'monoclinic'
loop_
_space_group_symop_operation_xyz
x,y,z
-x,y,-z
-x,-y,-z
x,-y,z
1/2+x,1/2+y,z
1/2-x,1/2+y,-z
1/2-x,1/2-y,-z
1/2+x,1/2-y,z
loop_
_atom_site_type_symbol
_atom_site_label
_atom_site_fract_x
_atom_site_fract_y
_atom_site_fract_z
Si Si1 0.327367 0.941153 0.181330
Si Si2 0.637749 0.438008 0.656279
Si Si3 0.990187 0.171904 0.330323
Si Si4 0.398987 0.807778 0.068656
Si Si5 0.646163 0.339306 0.159759
Si Si6 0.136263 0.278581 0.353370
O O1 0.533287 0.930739 0.205738
O O2 0.333425 0.892577 0.247494
O O3 0.408293 0.000000 0.252378
O O4 0.000000 0.943188 0.000000
O O5 0.500000 0.432193 0.500000
O O6 0.598234 0.500000 0.663921
O O7 0.516717 0.392262 0.656803
O O8 0.673111 0.184056 0.150848
O O9 0.157157 0.214113 0.353867
O O10 0.112926 0.195872 0.474995
O O11 0.547249 0.809733 0.229509
O O12 0.250000 0.750000 0.000000
O O13 0.132545 0.845350 0.923871
O O14 0.860038 0.290907 0.274078
O O15 0.500000 0.331294 0.000000
#
# Coordination Sequence:
#
# PCOD9179279 Si02
#       6
#     8   8   8   8   8   8
#     4   9  16  26  43  66  93 126 160 200 248 296
#     4  10  19  31  49  73 100 133 168 205 255 305
#     4  11  20  33  50  72 105 134 161 211 250 304
#     4  11  20  32  49  71 100 135 169 208 249 299
#     4   9  16  29  44  64  95 125 162 198 240 294
#     4  10  21  32  48  72 100 133 169 199 258 300
#
# _framework density 24.279
#
# number of rings (size 3 to 8) (size 9 to 14) (size 15 to 20)
#    0.000    2.000    1.667    5.500    0.000    0.000 
#    0.000    0.000    0.000    0.000    0.000    3.500 
#    0.000    3.000    0.000    0.000    0.000    0.000 
#
# Total GULP energy -133619.989828 kJ/mol
# GULP energy per Si atom -5567.499576 kJ/mol
# Density = 2.422374 g / cm^3
# Si number density = 24.279000 Si / 1000 Ang^3
#
#
#
# Elastic Constant Matrix: (Units=GPa)
#
#
# Indices 1 2 3 4 5 6 
#
# 1 48.4477 9.6601 16.5968 0.0001 12.7626 0.0001
# 2 9.6601 210.0392 18.0957 0.0001 9.0599 0.0000
# 3 16.5968 18.0957 136.5139 0.0002 16.6653 0.0009
# 4 0.0001 0.0001 0.0002 27.5911 0.0001 2.3974
# 5 12.7626 9.0599 16.6653 0.0001 38.5204 0.0001
# 6 0.0001 0.0000 0.0009 2.3974 0.0001 22.5333
#
#
#
# Elastic Compliance Matrix: (Units=1/GPa)
#
#
# Indices 1 2 3 4 5 6 
#
# 1 0.023187 -0.000612 -0.001919 0.000000 -0.006708 0.000000
# 2 -0.000612 0.004862 -0.000481 0.000000 -0.000733 0.000000
# 3 -0.001919 -0.000481 0.007951 0.000000 -0.002691 0.000000
# 4 0.000000 0.000000 0.000000 0.036582 0.000000 -0.003892
# 5 -0.006708 -0.000733 -0.002691 0.000000 0.029519 0.000000
# 6 0.000000 0.000000 0.000000 -0.003892 0.000000 0.044793
#
#
# Mechanical properties :
#
#
# Convention : Reuss Voigt Hill
#
# Bulk Modulus (GPa) = 33.35832 53.74510 43.55171
# Shear Modulus (GPa) = 30.69184 41.10550 35.89867
#
# Velocity S-wave (km/s) = 3.55932 4.11913 3.84941
# Velocity P-wave (km/s) = 5.53724 6.69384 6.14282
#
# Compressibility (1/GPa) = 0.02997753
#
# Stress axis : x y z
#
# Youngs Moduli (GPa) = 43.12695 205.66925 125.77371
#
# Poissons Ratio (x) = 0.12582 0.24136
# Poissons Ratio (y) = 0.02638 0.06045
# Poissons Ratio (z) = 0.08276 0.09886
#
# Static dielectric constant tensor:
#      x y z
#    x 2.338100 0.000000 0.120850 
#    y 0.000000 2.053840 0.000000 
#    z 0.120850 0.000000 1.978280 
# 
# From -- ./inp_files/362156.got.cif
#   From: 2010.05.17/outbox.cif.g08.bks.cpg/sg12_182_cif.got.tgz:362156.got - 2010.06.03 13:09:07.
