data_PCOD9179669
_publ_section_title
;
Structure prediction by ZEFSAII (Michael W. Deem and Ramdas Pophale) SiO2 
 PCOD9179669
Probable space group: C 2/M
;
_chemical_formula_sum "Si O2"
_cell_formula_units_Z 56
_cell_length_a 10.445657
_cell_length_b 24.622662
_cell_length_c 20.055669
_cell_angle_alpha 90.000000
_cell_angle_beta 141.755181
_cell_angle_gamma 90.000000
_cell_volume 3193.115716
_symmetry_space_group_name_H-M "C 2/M"
_symmetry_group_IT_number 12
_symmetry_cell_setting 'monoclinic'
loop_
_space_group_symop_operation_xyz
x,y,z
-x,y,-z
-x,-y,-z
x,-y,z
1/2+x,1/2+y,z
1/2-x,1/2+y,-z
1/2-x,1/2-y,-z
1/2+x,1/2-y,z
loop_
_atom_site_type_symbol
_atom_site_label
_atom_site_fract_x
_atom_site_fract_y
_atom_site_fract_z
Si Si1 0.435994 0.360821 0.801730
Si Si2 0.512101 0.738829 0.925142
Si Si3 0.267118 0.565590 0.416653
Si Si4 0.885984 0.938299 0.017798
Si Si5 0.100321 0.561784 0.206289
Si Si6 0.178583 0.648817 0.129377
Si Si7 0.447060 0.935156 0.400095
O O1 0.411150 0.309155 0.840426
O O2 0.562204 0.404216 0.897026
O O3 0.597494 0.343254 0.811273
O O4 0.236498 0.393517 0.694201
O O5 0.395077 0.795584 0.867024
O O6 0.500000 0.727374 0.000000
O O7 0.750000 0.750000 0.000000
O O8 0.500000 0.586187 0.500000
O O9 0.278872 0.500000 0.423536
O O10 0.142424 0.580246 0.298842
O O11 0.141953 0.579820 0.432239
O O12 0.962009 0.000000 0.057541
O O13 0.644215 0.939022 0.905217
O O14 0.000000 0.914764 0.000000
O O15 0.180650 0.500000 0.232114
O O16 0.190710 0.600694 0.187356
O O17 0.000000 0.637447 0.000000
O O18 0.500000 0.930722 0.500000
O O19 0.396524 0.000000 0.366775
#
# Coordination Sequence:
#
# PCOD9179669 Si02
#       7
#     8   8   8   8   8   8   8
#     4  12  22  37  61  84 118 159 199 250 300 362
#     4  11  21  39  60  86 120 160 203 248 298 355
#     4   9  19  37  58  84 118 159 203 241 288 357
#     4  10  19  31  50  82 118 151 186 234 298 366
#     4  10  20  33  54  83 120 154 191 243 300 362
#     4  11  22  38  54  88 124 154 203 246 294 370
#     4  10  23  41  63  93 124 158 203 252 306 365
#
# _framework density 17.53773
#
# number of rings (size 3 to 8) (size 9 to 14) (size 15 to 20)
#    0.000    1.571    4.286    1.714    2.000    4.857 
#    0.000    0.000    0.000    1.714    0.000    0.000 
#    0.000    0.000    0.000    0.000    0.000    0.000 
#
# Total GULP energy -156126.762062 kJ/mol
# GULP energy per Si atom -5575.955788 kJ/mol
# Density = 1.749781 g / cm^3
# Si number density = 17.537730 Si / 1000 Ang^3
#
#
#
# Elastic Constant Matrix: (Units=GPa)
#
#
# Indices 1 2 3 4 5 6 
#
# 1 123.1941 46.2086 43.6632 -0.0001 1.2124 0.0001
# 2 46.2086 83.6455 37.8838 0.0001 -6.8504 0.0001
# 3 43.6632 37.8838 85.0186 -0.0010 -2.7268 0.0008
# 4 -0.0001 0.0001 -0.0010 31.5755 -0.0001 -2.9347
# 5 1.2124 -6.8504 -2.7268 -0.0001 27.4789 0.0002
# 6 0.0001 0.0001 0.0008 -2.9347 0.0002 44.2686
#
#
#
# Elastic Compliance Matrix: (Units=1/GPa)
#
#
# Indices 1 2 3 4 5 6 
#
# 1 0.011215 -0.004665 -0.003746 0.000000 -0.002029 0.000000
# 2 -0.004665 0.017183 -0.005133 0.000000 0.003980 0.000000
# 3 -0.003746 -0.005133 0.015988 0.000000 0.000472 0.000000
# 4 0.000000 0.000000 0.000000 0.031866 0.000000 0.002113
# 5 -0.002029 0.003980 0.000472 0.000000 0.037520 0.000000
# 6 0.000000 0.000000 0.000000 0.002113 0.000000 0.022729
#
#
# Mechanical properties :
#
#
# Convention : Reuss Voigt Hill
#
# Bulk Modulus (GPa) = 57.81049 60.81882 59.31465
# Shear Modulus (GPa) = 29.52347 31.60478 30.56413
#
# Velocity S-wave (km/s) = 4.10741 4.24972 4.17917
# Velocity P-wave (km/s) = 7.45181 7.67035 7.56187
#
# Compressibility (1/GPa) = 0.01729790
#
# Stress axis : x y z
#
# Youngs Moduli (GPa) = 89.16869 58.19639 62.54515
#
# Poissons Ratio (x) = 0.27149 0.23429
# Poissons Ratio (y) = 0.41597 0.32106
# Poissons Ratio (z) = 0.33402 0.29874
#
# Static dielectric constant tensor:
#      x y z
#    x 1.613590 0.000000 0.001350 
#    y 0.000000 1.601210 0.000000 
#    z 0.001350 0.000000 1.585130 
# 
# From -- ./inp_files/259864.got.cif
#   From: 2010.05.17/outbox.cif.g08.bks.cpg/sg12_130_cif.got.tgz:259864.got - 2010.06.03 13:09:07.
