data_PCOD9179468
_publ_section_title
;
Structure prediction by ZEFSAII (Michael W. Deem and Ramdas Pophale) SiO2 
 PCOD9179468
Probable space group: C 2/M
;
_chemical_formula_sum "Si O2"
_cell_formula_units_Z 48
_cell_length_a 18.182585
_cell_length_b 9.091619
_cell_length_c 13.649521
_cell_angle_alpha 90.000000
_cell_angle_beta 78.670328
_cell_angle_gamma 90.000000
_cell_volume 2212.420348
_symmetry_space_group_name_H-M "C 2/M"
_symmetry_group_IT_number 12
_symmetry_cell_setting 'monoclinic'
loop_
_space_group_symop_operation_xyz
x,y,z
-x,y,-z
-x,-y,-z
x,-y,z
1/2+x,1/2+y,z
1/2-x,1/2+y,-z
1/2-x,1/2-y,-z
1/2+x,1/2-y,z
loop_
_atom_site_type_symbol
_atom_site_label
_atom_site_fract_x
_atom_site_fract_y
_atom_site_fract_z
Si Si1 0.673489 0.665653 0.812843
Si Si2 0.822519 0.332833 0.523325
Si Si3 0.933290 0.666258 0.308456
Si Si4 0.792777 0.821732 0.895942
Si Si5 0.443894 0.668280 0.609695
Si Si6 0.070663 0.166317 0.031979
O O1 0.691316 0.500000 0.776497
O O2 0.616133 0.742715 0.754693
O O3 0.748278 0.759138 0.814647
O O4 0.628671 0.655407 0.926970
O O5 0.803673 0.500000 0.556866
O O6 0.750000 0.250000 0.500000
O O7 0.882011 0.340800 0.418981
O O8 0.867530 0.246625 0.595821
O O9 0.946719 0.500000 0.270140
O O10 0.009532 0.745749 0.320352
O O11 0.879411 0.776389 0.891288
O O12 0.788657 0.000000 0.900141
O O13 0.750000 0.750000 0.000000
O O14 0.500000 0.665682 0.500000
O O15 0.429456 0.500000 0.642427
O O16 0.045943 0.000000 0.067218
O O17 0.000000 0.244903 0.000000
#
# Coordination Sequence:
#
# PCOD9179468 Si02
#       6
#     8   8   8   8   8   8
#     4  10  19  31  50  73  97 128 164 203 246 293
#     4  10  20  34  53  76 101 131 167 207 251 298
#     4  10  20  34  52  74 101 132 166 205 250 299
#     4   9  16  28  48  70  94 126 162 200 242 293
#     4   9  17  31  52  75  99 130 167 204 244 295
#     4   8  15  29  49  72  95 122 159 200 241 286
#
# _framework density 21.695695000000001
#
# number of rings (size 3 to 8) (size 9 to 14) (size 15 to 20)
#    0.000    2.667    0.000    3.500    0.000    4.000 
#    0.000    1.667    0.000   26.000    0.000    0.000 
#    0.000    0.000    0.000    0.000    0.000    0.000 
#
# Total GULP energy -133865.642622 kJ/mol
# GULP energy per Si atom -5577.735109 kJ/mol
# Density = 2.164631 g / cm^3
# Si number density = 21.695695 Si / 1000 Ang^3
#
#
#
# Elastic Constant Matrix: (Units=GPa)
#
#
# Indices 1 2 3 4 5 6 
#
# 1 193.6514 93.0805 41.2779 0.0000 72.4337 0.0000
# 2 93.0805 173.2519 37.3085 0.0000 49.7330 0.0000
# 3 41.2779 37.3085 54.7703 0.0000 23.2569 0.0000
# 4 0.0000 0.0000 0.0000 19.3310 0.0000 14.7490
# 5 72.4337 49.7330 23.2569 0.0000 64.8070 0.0000
# 6 0.0000 0.0000 0.0000 14.7490 0.0000 25.3086
#
#
#
# Elastic Compliance Matrix: (Units=1/GPa)
#
#
# Indices 1 2 3 4 5 6 
#
# 1 0.009995 -0.002448 -0.002264 0.000000 -0.008480 0.000000
# 2 -0.002448 0.008478 -0.002748 0.000000 -0.002784 0.000000
# 3 -0.002264 -0.002748 0.023438 0.000000 -0.003771 0.000000
# 4 0.000000 0.000000 0.000000 0.093147 0.000000 -0.054283
# 5 -0.008480 -0.002784 -0.003771 0.000000 0.028398 0.000000
# 6 0.000000 0.000000 0.000000 -0.054283 0.000000 0.071147
#
#
# Mechanical properties :
#
#
# Convention : Reuss Voigt Hill
#
# Bulk Modulus (GPa) = 37.05053 85.00083 61.02568
# Shear Modulus (GPa) = 19.34078 38.55642 28.94860
#
# Velocity S-wave (km/s) = 2.98897 4.22019 3.65677
# Velocity P-wave (km/s) = 5.38761 7.93791 6.78369
#
# Compressibility (1/GPa) = 0.02699017
#
# Stress axis : x y z
#
# Youngs Moduli (GPa) = 100.04751 117.95189 42.66575
#
# Poissons Ratio (x) = 0.28875 0.09661
# Poissons Ratio (y) = 0.24492 0.11725
# Poissons Ratio (z) = 0.22655 0.32414
#
# Static dielectric constant tensor:
#      x y z
#    x 1.813450 0.000000 -0.009280 
#    y 0.000000 1.700660 0.000000 
#    z -0.009280 0.000000 1.862470 
# 
# From -- ./inp_files/221663.got.cif
#   From: 2010.05.17/outbox.cif.g08.bks.cpg/sg12_111_cif.got.tgz:221663.got - 2010.06.03 13:09:07.
