data_PCOD9179341
_publ_section_title
;
Structure prediction by ZEFSAII (Michael W. Deem and Ramdas Pophale) SiO2 
 PCOD9179341
Probable space group: C 2/M
;
_chemical_formula_sum "Si O2"
_cell_formula_units_Z 64
_cell_length_a 23.969287
_cell_length_b 8.715820
_cell_length_c 20.391467
_cell_angle_alpha 90.000000
_cell_angle_beta 121.137429
_cell_angle_gamma 90.000000
_cell_volume 3646.278355
_symmetry_space_group_name_H-M "C 2/M"
_symmetry_group_IT_number 12
_symmetry_cell_setting 'monoclinic'
loop_
_space_group_symop_operation_xyz
x,y,z
-x,y,-z
-x,-y,-z
x,-y,z
1/2+x,1/2+y,z
1/2-x,1/2+y,-z
1/2-x,1/2-y,-z
1/2+x,1/2-y,z
loop_
_atom_site_type_symbol
_atom_site_label
_atom_site_fract_x
_atom_site_fract_y
_atom_site_fract_z
Si Si1 0.613020 0.816655 0.665805
Si Si2 0.649886 0.183356 0.903065
Si Si3 0.595342 0.185550 0.367193
Si Si4 0.223207 0.316040 0.366482
Si Si5 0.867139 0.315103 0.467723
Si Si6 0.960355 0.181889 0.254984
Si Si7 0.216473 0.315667 0.073515
Si Si8 0.243451 0.316317 0.232237
O O1 0.602890 0.766340 0.583974
O O2 0.568002 0.739749 0.692586
O O3 0.687632 0.770872 0.726882
O O4 0.604950 0.000000 0.665008
O O5 0.588148 0.256935 0.830458
O O6 0.715577 0.238238 0.906232
O O7 0.644805 0.000000 0.894958
O O8 0.662458 0.227101 0.986778
O O9 0.663275 0.233882 0.375071
O O10 0.596365 0.233777 0.444193
O O11 0.532945 0.253051 0.293338
O O12 0.592145 0.000000 0.362801
O O13 0.229856 0.500000 0.377345
O O14 0.292558 0.241874 0.425678
O O15 0.210447 0.281921 0.281829
O O16 0.866048 0.500000 0.466320
O O17 0.960547 0.000000 0.254069
O O18 0.225158 0.500000 0.073451
O O19 0.204475 0.279070 0.142330
O O20 0.257006 0.500000 0.239611
#
# Coordination Sequence:
#
# PCOD9179341 Si02
#       8
#     8   8   8   8   8   8   8   8
#     4  10  19  32  50  74 101 133 166 201 251 306
#     4  10  19  31  49  74 103 135 167 201 244 300
#     4  10  21  37  53  72  99 136 174 208 248 298
#     4   9  18  32  54  79 103 131 166 207 250 293
#     4   9  19  34  54  77 102 129 164 210 255 298
#     4  12  24  36  50  70 100 136 171 212 254 301
#     4   9  17  29  49  77 107 133 162 200 244 294
#     4   9  16  29  50  78 107 131 159 202 248 292
#
# _framework density 17.552143000000001
#
# number of rings (size 3 to 8) (size 9 to 14) (size 15 to 20)
#    0.000    2.250    1.250    2.250    0.000    2.500 
#    0.000    2.500    0.000    0.750    0.000    5.250 
#    0.000    0.000    0.000    0.000    0.000    0.000 
#
# Total GULP energy -178489.998689 kJ/mol
# GULP energy per Si atom -5577.812459 kJ/mol
# Density = 1.751219 g / cm^3
# Si number density = 17.552143 Si / 1000 Ang^3
#
#
#
# Elastic Constant Matrix: (Units=GPa)
#
#
# Indices 1 2 3 4 5 6 
#
# 1 3.1855 -0.1676 7.8497 0.0000 0.3632 0.0000
# 2 -0.1676 19.9853 20.7532 0.0000 -1.5965 0.0000
# 3 7.8497 20.7532 111.7568 0.0000 -3.9036 0.0000
# 4 0.0000 0.0000 0.0000 18.9396 0.0000 4.5411
# 5 0.3632 -1.5965 -3.9036 0.0000 20.8460 0.0000
# 6 0.0000 0.0000 0.0000 4.5411 0.0000 21.1798
#
#
#
# Elastic Compliance Matrix: (Units=1/GPa)
#
#
# Indices 1 2 3 4 5 6 
#
# 1 0.407212 0.040442 -0.036491 0.000000 -0.010830 0.000000
# 2 0.040442 0.066148 -0.015071 0.000000 0.001539 0.000000
# 3 -0.036491 -0.015071 0.014386 0.000000 0.002175 0.000000
# 4 0.000000 0.000000 0.000000 0.055661 0.000000 -0.011934
# 5 -0.010830 0.001539 0.002175 0.000000 0.048685 0.000000
# 6 0.000000 0.000000 0.000000 -0.011934 0.000000 0.049773
#
#
# Mechanical properties :
#
#
# Convention : Reuss Voigt Hill
#
# Bulk Modulus (GPa) = 2.14819 21.31093 11.72956
# Shear Modulus (GPa) = 6.10298 19.29256 12.69777
#
# Velocity S-wave (km/s) = 1.86671 3.31895 2.69259
# Velocity P-wave (km/s) = 2.42336 5.18219 4.04523
#
# Compressibility (1/GPa) = 0.46550710
#
# Stress axis : x y z
#
# Youngs Moduli (GPa) = 2.45573 15.11752 69.51354
#
# Poissons Ratio (x) = -0.61138 2.53660
# Poissons Ratio (y) = -0.09931 1.04761
# Poissons Ratio (z) = 0.08961 0.22783
#
# Static dielectric constant tensor:
#      x y z
#    x 1.574580 0.000000 -0.038360 
#    y 0.000000 1.587110 0.000000 
#    z -0.038360 0.000000 1.622210 
# 
# From -- ./inp_files/324297.got.cif
#   From: 2010.05.17/outbox.cif.g08.bks.cpg/sg12_163_cif.got.tgz:324297.got - 2010.06.03 13:09:07.
