data_PCOD9179101
_publ_section_title
;
Structure prediction by ZEFSAII (Michael W. Deem and Ramdas Pophale) SiO2 
 PCOD9179101
Probable space group: C 2/M
;
_chemical_formula_sum "Si O2"
_cell_formula_units_Z 56
_cell_length_a 29.038179
_cell_length_b 7.437034
_cell_length_c 12.355690
_cell_angle_alpha 90.000000
_cell_angle_beta 64.733737
_cell_angle_gamma 90.000000
_cell_volume 2413.042785
_symmetry_space_group_name_H-M "C 2/M"
_symmetry_group_IT_number 12
_symmetry_cell_setting 'monoclinic'
loop_
_space_group_symop_operation_xyz
x,y,z
-x,y,-z
-x,-y,-z
x,-y,z
1/2+x,1/2+y,z
1/2-x,1/2+y,-z
1/2-x,1/2-y,-z
1/2+x,1/2-y,z
loop_
_atom_site_type_symbol
_atom_site_label
_atom_site_fract_x
_atom_site_fract_y
_atom_site_fract_z
Si Si1 0.968405 0.284531 0.689878
Si Si2 0.605403 0.713084 0.054033
Si Si3 0.076705 0.282029 0.487266
Si Si4 0.854796 0.206155 0.202673
Si Si5 0.196350 0.785589 0.112060
Si Si6 0.740594 0.719430 0.287532
Si Si7 0.171365 0.792955 0.539557
O O1 0.968962 0.500000 0.683593
O O2 0.946536 0.234101 0.827909
O O3 0.931498 0.222665 0.628814
O O4 0.025302 0.226354 0.602432
O O5 0.615039 0.500000 0.033228
O O6 0.649930 0.788045 0.087571
O O7 0.610255 0.786109 0.927305
O O8 0.079487 0.500000 0.485717
O O9 0.125345 0.210454 0.500272
O O10 0.797506 0.212075 0.212394
O O11 0.847584 0.290645 0.328784
O O12 0.871737 0.000000 0.203892
O O13 0.203956 0.719908 0.226945
O O14 0.189226 0.000000 0.126344
O O15 0.250000 0.750000 0.000000
O O16 0.742154 0.500000 0.285933
O O17 0.718689 0.783116 0.424457
O O18 0.184276 0.000000 0.550979
#
# Coordination Sequence:
#
# PCOD9179101 Si02
#       7
#     8   8   8   8   8   8   8
#     4   9  19  36  58  82 106 132 166 212 265 318
#     4  10  20  34  52  77 108 141 176 212 256 310
#     4   9  19  37  58  81 106 131 167 215 264 315
#     4  10  21  36  52  73 106 145 180 214 254 306
#     4  10  19  31  48  72 103 135 169 211 255 302
#     4  10  20  33  51  76 104 137 179 222 260 304
#     4  10  21  36  54  77 105 138 178 220 259 303
#
# _framework density 23.207214
#
# number of rings (size 3 to 8) (size 9 to 14) (size 15 to 20)
#    0.000    2.286    1.429    2.143    0.000    4.571 
#    0.000    2.143    0.000    4.286    0.000    0.000 
#    0.000    0.000    0.000    0.000    0.000    0.000 
#
# Total GULP energy -156410.518307 kJ/mol
# GULP energy per Si atom -5586.089940 kJ/mol
# Density = 2.315439 g / cm^3
# Si number density = 23.207214 Si / 1000 Ang^3
#
#
#
# Elastic Constant Matrix: (Units=GPa)
#
#
# Indices 1 2 3 4 5 6 
#
# 1 20.1823 -3.3643 0.1649 0.0000 -0.5231 0.0000
# 2 -3.3643 80.1019 2.1488 0.0000 5.1512 0.0000
# 3 0.1649 2.1488 197.9546 0.0000 2.0402 0.0000
# 4 0.0000 0.0000 0.0000 183.7946 0.0000 -73.1349
# 5 -0.5231 5.1512 2.0402 0.0000 27.6416 0.0000
# 6 0.0000 0.0000 0.0000 -73.1349 0.0000 36.5364
#
#
#
# Elastic Compliance Matrix: (Units=1/GPa)
#
#
# Indices 1 2 3 4 5 6 
#
# 1 0.049907 0.002062 -0.000070 0.000000 0.000565 0.000000
# 2 0.002062 0.012723 -0.000116 0.000000 -0.002323 0.000000
# 3 -0.000070 -0.000116 0.005057 0.000000 -0.000353 0.000000
# 4 0.000000 0.000000 0.000000 0.026738 0.000000 0.053521
# 5 0.000565 -0.002323 -0.000353 0.000000 0.036647 0.000000
# 6 0.000000 0.000000 0.000000 0.053521 0.000000 0.134503
#
#
# Mechanical properties :
#
#
# Convention : Reuss Voigt Hill
#
# Bulk Modulus (GPa) = 13.99796 32.90418 23.45107
# Shear Modulus (GPa) = 17.50479 69.54714 43.52596
#
# Velocity S-wave (km/s) = 2.74940 5.48023 4.33544
# Velocity P-wave (km/s) = 4.01544 7.36567 5.93199
#
# Compressibility (1/GPa) = 0.07143897
#
# Stress axis : x y z
#
# Youngs Moduli (GPa) = 20.03718 78.59646 197.76066
#
# Poissons Ratio (x) = -0.16204 0.01380
# Poissons Ratio (y) = -0.04131 0.02292
# Poissons Ratio (z) = 0.00140 0.00911
#
# Static dielectric constant tensor:
#      x y z
#    x 1.828340 0.000000 0.020720 
#    y 0.000000 1.831610 0.000000 
#    z 0.020720 0.000000 1.912740 
# 
# From -- ./inp_files/186368.got.cif
#   From: 2010.05.17/outbox.cif.g08.bks.cpg/sg12_94_cif.got.tgz:186368.got - 2010.06.03 13:09:07.
