data_PCOD9179974
_publ_section_title
;
Structure prediction by ZEFSAII (Michael W. Deem and Ramdas Pophale) SiO2 
 PCOD9179974
Probable space group: C 2/M
;
_chemical_formula_sum "Si O2"
_cell_formula_units_Z 64
_cell_length_a 25.483307
_cell_length_b 7.618650
_cell_length_c 14.753050
_cell_angle_alpha 90.000000
_cell_angle_beta 88.228777
_cell_angle_gamma 90.000000
_cell_volume 2862.912483
_symmetry_space_group_name_H-M "C 2/M"
_symmetry_group_IT_number 12
_symmetry_cell_setting 'monoclinic'
loop_
_space_group_symop_operation_xyz
x,y,z
-x,y,-z
-x,-y,-z
x,-y,z
1/2+x,1/2+y,z
1/2-x,1/2+y,-z
1/2-x,1/2-y,-z
1/2+x,1/2-y,z
loop_
_atom_site_type_symbol
_atom_site_label
_atom_site_fract_x
_atom_site_fract_y
_atom_site_fract_z
Si Si1 0.058350 0.785519 0.462838
Si Si2 0.810253 0.700661 0.217363
Si Si3 0.298491 0.793970 0.823906
Si Si4 0.604681 0.707576 0.640317
Si Si5 0.056068 0.701415 0.980755
Si Si6 0.912875 0.788003 0.741596
Si Si7 0.475021 0.713089 0.207530
Si Si8 0.169853 0.716165 0.987102
O O1 0.099554 0.726179 0.538096
O O2 0.074876 0.727369 0.361697
O O3 0.000000 0.734259 0.500000
O O4 0.057323 0.000000 0.457318
O O5 0.826376 0.500000 0.208593
O O6 0.747681 0.712243 0.233230
O O7 0.844490 0.768966 0.299130
O O8 0.818709 0.779205 0.115550
O O9 0.356773 0.770169 0.781656
O O10 0.287771 0.000000 0.827764
O O11 0.296642 0.724273 0.928069
O O12 0.597842 0.500000 0.632416
O O13 0.553990 0.769872 0.699552
O O14 0.053071 0.500000 0.012563
O O15 0.058207 0.706972 0.872017
O O16 0.110305 0.775487 0.012810
O O17 0.000000 0.790617 0.000000
O O18 0.964102 0.733214 0.796910
O O19 0.912657 0.000000 0.742161
O O20 0.472464 0.500000 0.201776
O O21 0.170764 0.500000 0.986920
#
# Coordination Sequence:
#
# PCOD9179974 Si02
#       8
#     8   8   8   8   8   8   8   8
#     4   9  16  32  60  88 115 148 185 226 275 335
#     4  11  22  39  60  82 112 149 191 237 281 329
#     4  11  23  40  59  81 111 148 192 238 283 332
#     4  10  19  34  58  88 114 143 184 228 276 330
#     4  10  19  32  50  74 110 153 188 219 270 336
#     4  10  20  36  58  86 117 149 186 229 281 336
#     4  10  19  31  52  82 115 144 179 226 274 327
#     4   9  19  35  55  80 109 146 190 231 276 332
#
# _framework density 22.354855000000001
#
# number of rings (size 3 to 8) (size 9 to 14) (size 15 to 20)
#    0.000    2.000    2.500    1.875    0.000    1.750 
#    0.000    4.375    0.000    0.750    0.000    0.000 
#    0.000    0.000    0.000    0.000    0.000    0.000 
#
# Total GULP energy -178626.311265 kJ/mol
# GULP energy per Si atom -5582.072227 kJ/mol
# Density = 2.230397 g / cm^3
# Si number density = 22.354855 Si / 1000 Ang^3
#
#
#
# Elastic Constant Matrix: (Units=GPa)
#
#
# Indices 1 2 3 4 5 6 
#
# 1 123.0868 -6.4167 30.0873 0.0000 18.5762 0.0000
# 2 -6.4167 49.9261 1.5750 0.0000 -1.0323 0.0000
# 3 30.0873 1.5750 98.4032 0.0000 15.8159 0.0000
# 4 0.0000 0.0000 0.0000 23.1405 0.0000 -6.2829
# 5 18.5762 -1.0323 15.8159 0.0000 32.9841 0.0000
# 6 0.0000 0.0000 0.0000 -6.2829 0.0000 20.3139
#
#
#
# Elastic Compliance Matrix: (Units=1/GPa)
#
#
# Indices 1 2 3 4 5 6 
#
# 1 0.009356 0.001186 -0.002209 0.000000 -0.004173 0.000000
# 2 0.001186 0.020212 -0.000737 0.000000 0.000318 0.000000
# 3 -0.002209 -0.000737 0.011543 0.000000 -0.004314 0.000000
# 4 0.000000 0.000000 0.000000 0.047176 0.000000 0.014591
# 5 -0.004173 0.000318 -0.004314 0.000000 0.034746 0.000000
# 6 0.000000 0.000000 0.000000 0.014591 0.000000 0.053740
#
#
# Mechanical properties :
#
#
# Convention : Reuss Voigt Hill
#
# Bulk Modulus (GPa) = 26.60284 35.76749 31.18516
# Shear Modulus (GPa) = 25.93048 31.69907 28.81477
#
# Velocity S-wave (km/s) = 3.40950 3.76971 3.59412
# Velocity P-wave (km/s) = 5.23695 5.91458 5.58605
#
# Compressibility (1/GPa) = 0.03758997
#
# Stress axis : x y z
#
# Youngs Moduli (GPa) = 106.88477 49.47589 86.63405
#
# Poissons Ratio (x) = -0.05867 0.19137
# Poissons Ratio (y) = -0.12675 0.06387
# Poissons Ratio (z) = 0.23610 0.03647
#
# Static dielectric constant tensor:
#      x y z
#    x 1.838480 0.000000 -0.016140 
#    y 0.000000 1.834320 0.000000 
#    z -0.016140 0.000000 1.866680 
# 
# From -- ./inp_files/238733.got.cif
#   From: 2010.05.17/outbox.cif.g08.bks.cpg/sg12_120_cif.got.tgz:238733.got - 2010.06.03 13:09:07.
