data_PCOD9179683
_publ_section_title
;
Structure prediction by ZEFSAII (Michael W. Deem and Ramdas Pophale) SiO2 
 PCOD9179683
Probable space group: C 2/M
;
_chemical_formula_sum "Si O2"
_cell_formula_units_Z 64
_cell_length_a 17.407909
_cell_length_b 17.739888
_cell_length_c 19.920977
_cell_angle_alpha 90.000000
_cell_angle_beta 31.205692
_cell_angle_gamma 90.000000
_cell_volume 3187.364649
_symmetry_space_group_name_H-M "C 2/M"
_symmetry_group_IT_number 12
_symmetry_cell_setting 'monoclinic'
loop_
_space_group_symop_operation_xyz
x,y,z
-x,y,-z
-x,-y,-z
x,-y,z
1/2+x,1/2+y,z
1/2-x,1/2+y,-z
1/2-x,1/2-y,-z
1/2+x,1/2-y,z
loop_
_atom_site_type_symbol
_atom_site_label
_atom_site_fract_x
_atom_site_fract_y
_atom_site_fract_z
Si Si1 0.826758 0.323792 0.512027
Si Si2 0.502664 0.715736 0.706611
Si Si3 0.183862 0.909838 0.107408
Si Si4 0.457495 0.808071 0.862942
Si Si5 0.030790 0.851341 0.085848
Si Si6 0.289920 0.084615 0.819169
Si Si7 0.205278 0.412328 0.330330
Si Si8 0.589854 0.083475 0.675555
O O1 0.658488 0.293726 0.629839
O O2 0.946460 0.261721 0.397158
O O3 0.842863 0.358508 0.573400
O O4 0.830217 0.386412 0.450363
O O5 0.417301 0.636940 0.763772
O O6 0.406035 0.766414 0.831240
O O7 0.100104 0.892187 0.099833
O O8 0.197062 0.000000 0.107569
O O9 0.339051 0.865212 0.983535
O O10 0.492591 0.737280 0.883511
O O11 0.592854 0.859282 0.735093
O O12 0.877864 0.894050 0.188507
O O13 0.156033 0.861187 0.936432
O O14 0.363198 0.099759 0.692225
O O15 0.417601 0.082460 0.779785
O O16 0.227050 0.000000 0.862459
O O17 0.183955 0.500000 0.365325
O O18 0.636310 0.000000 0.658659
#
# Coordination Sequence:
#
# PCOD9179683 Si02
#       8
#     8   8   8   8   8   8   8   8
#     4  10  19  32  49  66  97 141 174 204 240 288
#     4   9  19  32  47  70  98 134 168 205 252 294
#     4  11  19  29  51  77 101 125 159 204 259 311
#     4  10  19  31  51  73  95 133 162 208 263 302
#     4  11  19  31  50  71 102 136 164 212 254 292
#     4  10  21  33  47  71 103 139 174 204 239 289
#     4  11  21  33  50  72 101 141 180 203 232 292
#     4  10  20  32  48  71 104 137 168 207 248 293
#
# _framework density 20.079284999999999
#
# number of rings (size 3 to 8) (size 9 to 14) (size 15 to 20)
#    0.000    1.750    3.750    3.750    1.750    2.000 
#    0.000    1.875    0.000    0.000    0.000    0.000 
#    0.000   11.000    0.000    0.000    0.000    0.000 
#
# Total GULP energy -178449.582518 kJ/mol
# GULP energy per Si atom -5576.549454 kJ/mol
# Density = 2.003358 g / cm^3
# Si number density = 20.079285 Si / 1000 Ang^3
#
#
#
# Elastic Constant Matrix: (Units=GPa)
#
#
# Indices 1 2 3 4 5 6 
#
# 1 26.4622 15.8620 13.3887 0.0011 14.4622 -0.0006
# 2 15.8620 161.6036 49.3180 -0.0005 18.1512 -0.0007
# 3 13.3887 49.3180 89.1823 -0.0041 16.4541 -0.0008
# 4 0.0011 -0.0005 -0.0041 33.9472 -0.0003 9.1637
# 5 14.4622 18.1512 16.4541 -0.0003 28.2851 0.0008
# 6 -0.0006 -0.0007 -0.0008 9.1637 0.0008 19.5856
#
#
#
# Elastic Compliance Matrix: (Units=1/GPa)
#
#
# Indices 1 2 3 4 5 6 
#
# 1 0.053692 -0.001703 -0.002526 -0.000003 -0.024890 0.000004
# 2 -0.001703 0.007683 -0.003634 0.000000 -0.001945 0.000000
# 3 -0.002526 -0.003634 0.014488 0.000002 -0.004804 0.000000
# 4 -0.000003 0.000000 0.000002 0.033716 0.000002 -0.015775
# 5 -0.024890 -0.001945 -0.004804 0.000002 0.052124 -0.000004
# 6 0.000004 0.000000 0.000000 -0.015775 -0.000004 0.058438
#
#
# Mechanical properties :
#
#
# Convention : Reuss Voigt Hill
#
# Bulk Modulus (GPa) = 16.62916 48.26505 32.44710
# Shear Modulus (GPa) = 19.53785 29.60887 24.57336
#
# Velocity S-wave (km/s) = 3.12274 3.84422 3.50210
# Velocity P-wave (km/s) = 4.61538 6.61766 5.70505
#
# Compressibility (1/GPa) = 0.06013534
#
# Stress axis : x y z
#
# Youngs Moduli (GPa) = 18.62477 130.16328 69.02145
#
# Poissons Ratio (x) = 0.22172 0.17438
# Poissons Ratio (y) = 0.03173 0.25082
# Poissons Ratio (z) = 0.04705 0.47300
#
# Static dielectric constant tensor:
#      x y z
#    x 1.717230 0.000000 0.008720 
#    y 0.000000 1.779390 0.000000 
#    z 0.008720 0.000000 1.794270 
# 
# From -- ./inp_files/317331.got.cif
#   From: 2010.05.17/outbox.cif.g08.bks.cpg/sg12_159_cif.got.tgz:317331.got - 2010.06.03 13:09:07.
