data_PCOD9179790
_publ_section_title
;
Structure prediction by ZEFSAII (Michael W. Deem and Ramdas Pophale) SiO2 
 PCOD9179790
Probable space group: C 2/M
;
_chemical_formula_sum "Si O2"
_cell_formula_units_Z 48
_cell_length_a 5.418511
_cell_length_b 14.837304
_cell_length_c 26.765764
_cell_angle_alpha 90.000000
_cell_angle_beta 94.135526
_cell_angle_gamma 90.000000
_cell_volume 2146.260011
_symmetry_space_group_name_H-M "C 2/M"
_symmetry_group_IT_number 12
_symmetry_cell_setting 'monoclinic'
loop_
_space_group_symop_operation_xyz
x,y,z
-x,y,-z
-x,-y,-z
x,-y,z
1/2+x,1/2+y,z
1/2-x,1/2+y,-z
1/2-x,1/2-y,-z
1/2+x,1/2-y,z
loop_
_atom_site_type_symbol
_atom_site_label
_atom_site_fract_x
_atom_site_fract_y
_atom_site_fract_z
Si Si1 0.239654 0.281174 0.057491
Si Si2 0.388775 0.389284 0.809066
Si Si3 0.808827 0.109877 0.693897
Si Si4 0.711120 0.109695 0.363187
Si Si5 0.257493 0.147935 0.521043
Si Si6 0.408503 0.893749 0.862766
O O1 0.527135 0.284273 0.076219
O O2 0.119397 0.371047 0.078668
O O3 0.250000 0.250000 0.000000
O O4 0.391578 0.500000 0.810042
O O5 0.342033 0.360507 0.751495
O O6 0.659831 0.360187 0.831799
O O7 0.156998 0.359950 0.839814
O O8 0.544920 0.137193 0.667148
O O9 0.045206 0.136869 0.664230
O O10 0.808244 0.000000 0.694519
O O11 0.722292 0.146923 0.419261
O O12 0.711425 0.000000 0.366291
O O13 0.500000 0.105234 0.500000
O O14 0.250000 0.250000 0.500000
O O15 0.000000 0.105179 0.500000
O O16 0.412708 0.000000 0.857268
#
# Coordination Sequence:
#
# PCOD9179790 Si02
#       6
#     8   8   8   8   8   8
#     4  10  21  38  56  80 111 154 196 226 289 337
#     4   9  17  30  52  84 116 140 177 227 278 332
#     4   9  17  30  49  80 114 138 165 213 277 330
#     4  10  19  31  51  79 108 136 170 217 269 322
#     4  10  21  36  52  73  95 135 185 213 264 317
#     4  10  19  33  56  86 112 147 193 236 273 328
#
# _framework density 22.364484999999998
#
# number of rings (size 3 to 8) (size 9 to 14) (size 15 to 20)
#    0.000    2.333    0.000    3.000    0.000    4.667 
#    0.000    3.333    0.000    0.000   86.667    0.000 
#    0.000    0.000    0.000    0.000    0.000    1.000 
#
# Total GULP energy -133809.990616 kJ/mol
# GULP energy per Si atom -5575.416276 kJ/mol
# Density = 2.231358 g / cm^3
# Si number density = 22.364485 Si / 1000 Ang^3
#
#
#
# Elastic Constant Matrix: (Units=GPa)
#
#
# Indices 1 2 3 4 5 6 
#
# 1 243.8790 20.5117 100.8303 0.0000 -12.8013 0.0000
# 2 20.5117 49.0662 27.4281 0.0000 -3.2821 0.0000
# 3 100.8303 27.4281 170.6010 0.0000 0.7971 0.0000
# 4 0.0000 0.0000 0.0000 48.4325 0.0000 -5.9982
# 5 -12.8013 -3.2821 0.7971 0.0000 40.4270 0.0000
# 6 0.0000 0.0000 0.0000 -5.9982 0.0000 2.6712
#
#
#
# Elastic Compliance Matrix: (Units=1/GPa)
#
#
# Indices 1 2 3 4 5 6 
#
# 1 0.005565 -0.000399 -0.003233 0.000000 0.001793 0.000000
# 2 -0.000399 0.022567 -0.003401 0.000000 0.001773 0.000000
# 3 -0.003233 -0.003401 0.008326 0.000000 -0.001464 0.000000
# 4 0.000000 0.000000 0.000000 0.028601 0.000000 0.064226
# 5 0.001793 0.001773 -0.001464 0.000000 0.025477 0.000000
# 6 0.000000 0.000000 0.000000 0.064226 0.000000 0.518589
#
#
# Mechanical properties :
#
#
# Convention : Reuss Voigt Hill
#
# Bulk Modulus (GPa) = 44.65831 84.56517 64.61174
# Shear Modulus (GPa) = 7.92827 39.29120 23.60974
#
# Velocity S-wave (km/s) = 1.88487 4.19603 3.25265
# Velocity P-wave (km/s) = 4.97481 7.83390 6.56196
#
# Compressibility (1/GPa) = 0.02239225
#
# Stress axis : x y z
#
# Youngs Moduli (GPa) = 179.69939 44.31254 120.10367
#
# Poissons Ratio (x) = 0.01768 0.38832
# Poissons Ratio (y) = 0.07170 0.40843
# Poissons Ratio (z) = 0.58101 0.15069
#
# Static dielectric constant tensor:
#      x y z
#    x 1.828720 0.000000 0.061690 
#    y 0.000000 1.856540 0.000000 
#    z 0.061690 0.000000 1.880430 
# 
# From -- ./inp_files/297778.got.cif
#   From: 2010.05.17/outbox.cif.g08.bks.cpg/sg12_149_cif.got.tgz:297778.got - 2010.06.03 13:09:07.
