data_PCOD9179837
_publ_section_title
;
Structure prediction by ZEFSAII (Michael W. Deem and Ramdas Pophale) SiO2 
 PCOD9179837
Probable space group: C 2/M
;
_chemical_formula_sum "Si O2"
_cell_formula_units_Z 56
_cell_length_a 25.630171
_cell_length_b 9.225689
_cell_length_c 15.056921
_cell_angle_alpha 90.000000
_cell_angle_beta 126.479771
_cell_angle_gamma 90.000000
_cell_volume 2862.718385
_symmetry_space_group_name_H-M "C 2/M"
_symmetry_group_IT_number 12
_symmetry_cell_setting 'monoclinic'
loop_
_space_group_symop_operation_xyz
x,y,z
-x,y,-z
-x,-y,-z
x,-y,z
1/2+x,1/2+y,z
1/2-x,1/2+y,-z
1/2-x,1/2-y,-z
1/2+x,1/2-y,z
loop_
_atom_site_type_symbol
_atom_site_label
_atom_site_fract_x
_atom_site_fract_y
_atom_site_fract_z
Si Si1 0.129852 0.668185 0.541641
Si Si2 0.627649 0.330454 0.716530
Si Si3 0.008340 0.669266 0.905459
Si Si4 0.213527 0.830917 0.296860
Si Si5 0.384393 0.673952 0.099538
Si Si6 0.283775 0.170406 0.881282
Si Si7 0.376556 0.829254 0.661459
O O1 0.111964 0.500000 0.532070
O O2 0.106950 0.749947 0.606314
O O3 0.208486 0.678413 0.617968
O O4 0.107925 0.721836 0.422761
O O5 0.613252 0.500000 0.691749
O O6 0.600796 0.279462 0.784196
O O7 0.705922 0.315098 0.805034
O O8 0.029292 0.500000 0.921562
O O9 0.059923 0.769829 0.909060
O O10 0.939849 0.681464 0.786432
O O11 0.000000 0.706753 0.000000
O O12 0.193702 0.742010 0.188777
O O13 0.179771 0.760834 0.348006
O O14 0.196022 0.000000 0.270112
O O15 0.378000 0.500000 0.092060
O O16 0.318759 0.746450 0.996351
O O17 0.299537 0.000000 0.899043
O O18 0.357634 0.000000 0.636461
#
# Coordination Sequence:
#
# PCOD9179837 Si02
#       7
#     8   8   8   8   8   8   8
#     4   9  19  34  53  79 109 141 177 219 263 312
#     4   9  20  36  54  79 109 140 174 215 262 316
#     4  10  22  39  57  77 103 139 180 217 259 315
#     4  10  19  31  51  81 112 140 174 216 266 318
#     4  11  22  36  55  80 108 137 175 221 267 313
#     4  10  19  33  54  79 109 143 175 210 260 318
#     4  10  20  35  54  77 107 142 182 223 263 312
#
# _framework density 19.561827000000001
#
# number of rings (size 3 to 8) (size 9 to 14) (size 15 to 20)
#    0.000    2.143    0.000    3.000    0.000    4.857 
#    0.000    0.714    0.000    4.286    0.000    0.000 
#    0.000    0.000    0.000    0.000    0.000    0.000 
#
# Total GULP energy -156373.518226 kJ/mol
# GULP energy per Si atom -5584.768508 kJ/mol
# Density = 1.951730 g / cm^3
# Si number density = 19.561827 Si / 1000 Ang^3
#
#
#
# Elastic Constant Matrix: (Units=GPa)
#
#
# Indices 1 2 3 4 5 6 
#
# 1 45.1815 33.2421 35.8470 0.0000 -30.8799 0.0000
# 2 33.2421 70.6408 40.7662 0.0000 -24.1463 0.0000
# 3 35.8470 40.7662 118.3511 0.0000 -52.9658 0.0000
# 4 0.0000 0.0000 0.0000 26.9925 0.0000 -11.4109
# 5 -30.8799 -24.1463 -52.9658 0.0000 36.1993 0.0000
# 6 0.0000 0.0000 0.0000 -11.4109 0.0000 22.6458
#
#
#
# Elastic Compliance Matrix: (Units=1/GPa)
#
#
# Indices 1 2 3 4 5 6 
#
# 1 0.076204 -0.019665 0.020031 0.000000 0.081197 0.000000
# 2 -0.019665 0.023658 -0.007642 0.000000 -0.012176 0.000000
# 3 0.020031 -0.007642 0.030072 0.000000 0.055991 0.000000
# 4 0.000000 0.000000 0.000000 0.047075 0.000000 0.023721
# 5 0.081197 -0.012176 0.055991 0.000000 0.170692 0.000000
# 6 0.000000 0.000000 0.000000 0.023721 0.000000 0.056111
#
#
# Mechanical properties :
#
#
# Convention : Reuss Voigt Hill
#
# Bulk Modulus (GPa) = 8.66685 50.43157 29.54921
# Shear Modulus (GPa) = 10.94508 25.45538 18.20023
#
# Velocity S-wave (km/s) = 2.36797 3.61124 3.05355
# Velocity P-wave (km/s) = 3.45202 6.57454 5.25077
#
# Compressibility (1/GPa) = 0.11538219
#
# Stress axis : x y z
#
# Youngs Moduli (GPa) = 13.12263 42.26860 33.25328
#
# Poissons Ratio (x) = 0.83121 -0.66608
# Poissons Ratio (y) = 0.25806 0.25412
# Poissons Ratio (z) = -0.26285 0.32301
#
# Static dielectric constant tensor:
#      x y z
#    x 1.684360 0.000000 -0.000770 
#    y 0.000000 1.661110 0.000000 
#    z -0.000770 0.000000 1.694840 
# 
# From -- ./inp_files/238331.got.cif
#   From: 2010.05.17/outbox.cif.g08.bks.cpg/sg12_120_cif.got.tgz:238331.got - 2010.06.03 13:09:07.
