data_PCOD9179972
_publ_section_title
;
Structure prediction by ZEFSAII (Michael W. Deem and Ramdas Pophale) SiO2 
 PCOD9179972
Probable space group: C 2/M
;
_chemical_formula_sum "Si O2"
_cell_formula_units_Z 48
_cell_length_a 29.653842
_cell_length_b 20.139784
_cell_length_c 12.677940
_cell_angle_alpha 90.000000
_cell_angle_beta 18.683093
_cell_angle_gamma 90.000000
_cell_volume 2425.419079
_symmetry_space_group_name_H-M "C 2/M"
_symmetry_group_IT_number 12
_symmetry_cell_setting 'monoclinic'
loop_
_space_group_symop_operation_xyz
x,y,z
-x,y,-z
-x,-y,-z
x,-y,z
1/2+x,1/2+y,z
1/2-x,1/2+y,-z
1/2-x,1/2-y,-z
1/2+x,1/2-y,z
loop_
_atom_site_type_symbol
_atom_site_label
_atom_site_fract_x
_atom_site_fract_y
_atom_site_fract_z
Si Si1 0.129652 0.740937 0.639493
Si Si2 0.088136 0.320557 0.209186
Si Si3 0.226011 0.864175 0.567904
Si Si4 0.085107 0.203769 0.507265
Si Si5 0.341801 0.925587 0.123237
Si Si6 0.517599 0.425864 0.763275
O O1 0.193159 0.805566 0.556500
O O2 0.228047 0.677237 0.430777
O O3 0.086244 0.762208 0.620464
O O4 0.000000 0.722449 0.000000
O O5 0.000000 0.351812 0.500000
O O6 0.006980 0.252613 0.359438
O O7 0.249282 0.305152 0.885698
O O8 0.092547 0.369654 0.098212
O O9 0.339248 0.907216 0.252898
O O10 0.091714 0.905381 0.903113
O O11 0.020003 0.130852 0.668872
O O12 0.175698 0.926316 0.459806
O O13 0.397689 0.000000 0.981996
O O14 0.484710 0.500000 0.798559
#
# Coordination Sequence:
#
# PCOD9179972 Si02
#       6
#     8   8   8   8   8   8
#     4  11  19  29  51  81 112 146 176 215 265 330
#     4  11  23  39  61  82 105 141 189 239 282 322
#     4  11  18  30  50  80 117 146 175 212 267 324
#     4  11  21  38  57  84 113 141 183 230 281 322
#     4  10  20  34  54  82 114 143 180 228 271 319
#     4  10  19  31  52  82 114 144 179 220 266 324
#
# _framework density 19.790393999999999
#
# number of rings (size 3 to 8) (size 9 to 14) (size 15 to 20)
#    0.000    1.333    5.000    3.500    0.000    1.667 
#    0.000    0.000    0.000   14.500    0.000    0.000 
#    0.000    0.000    0.000    0.000    0.000    0.000 
#
# Total GULP energy -133928.795170 kJ/mol
# GULP energy per Si atom -5580.366465 kJ/mol
# Density = 1.974535 g / cm^3
# Si number density = 19.790394 Si / 1000 Ang^3
#
#
#
# Elastic Constant Matrix: (Units=GPa)
#
#
# Indices 1 2 3 4 5 6 
#
# 1 25.1796 28.0503 15.3655 0.0000 10.3600 0.0000
# 2 28.0503 137.8607 41.0663 0.0000 -1.3623 0.0000
# 3 15.3655 41.0663 112.7140 0.0003 16.6648 0.0000
# 4 0.0000 0.0000 0.0003 24.6786 0.0001 -2.1876
# 5 10.3600 -1.3623 16.6648 0.0001 13.2016 0.0000
# 6 0.0000 0.0000 0.0000 -2.1876 0.0000 16.7202
#
#
#
# Elastic Compliance Matrix: (Units=1/GPa)
#
#
# Indices 1 2 3 4 5 6 
#
# 1 0.096994 -0.023107 0.008364 0.000000 -0.089058 0.000000
# 2 -0.023107 0.013997 -0.005956 0.000000 0.027096 0.000000
# 3 0.008364 -0.005956 0.013479 0.000000 -0.024193 0.000000
# 4 0.000000 0.000000 0.000000 0.040996 0.000000 0.005364
# 5 -0.089058 0.027096 -0.024193 0.000000 0.178972 0.000000
# 6 0.000000 0.000000 0.000000 0.005364 0.000000 0.060510
#
#
# Mechanical properties :
#
#
# Convention : Reuss Voigt Hill
#
# Bulk Modulus (GPa) = 12.03773 49.41315 30.72544
# Shear Modulus (GPa) = 10.54770 23.67157 17.10963
#
# Velocity S-wave (km/s) = 2.31112 3.46224 2.94350
# Velocity P-wave (km/s) = 3.63559 6.40354 5.20686
#
# Compressibility (1/GPa) = 0.08307213
#
# Stress axis : x y z
#
# Youngs Moduli (GPa) = 10.30989 71.44359 74.19110
#
# Poissons Ratio (x) = 1.65082 -0.62050
# Poissons Ratio (y) = 0.23823 0.44187
# Poissons Ratio (z) = -0.08623 0.42551
#
# Static dielectric constant tensor:
#      x y z
#    x 1.727600 0.000000 -0.032090 
#    y 0.000000 1.750600 0.000000 
#    z -0.032090 0.000000 1.766410 
# 
# From -- ./inp_files/132666.got.cif
#   From: 2010.05.17/outbox.cif.g08.bks.cpg/sg12_67_cif.got.tgz:132666.got - 2010.06.03 13:09:07.
