data_PCOD9179247
_publ_section_title
;
Structure prediction by ZEFSAII (Michael W. Deem and Ramdas Pophale) SiO2 
 PCOD9179247
Probable space group: C 2/M
;
_chemical_formula_sum "Si O2"
_cell_formula_units_Z 48
_cell_length_a 18.068207
_cell_length_b 20.846204
_cell_length_c 5.281372
_cell_angle_alpha 90.000000
_cell_angle_beta 79.680894
_cell_angle_gamma 90.000000
_cell_volume 1957.072040
_symmetry_space_group_name_H-M "C 2/M"
_symmetry_group_IT_number 12
_symmetry_cell_setting 'monoclinic'
loop_
_space_group_symop_operation_xyz
x,y,z
-x,y,-z
-x,-y,-z
x,-y,z
1/2+x,1/2+y,z
1/2-x,1/2+y,-z
1/2-x,1/2-y,-z
1/2+x,1/2-y,z
loop_
_atom_site_type_symbol
_atom_site_label
_atom_site_fract_x
_atom_site_fract_y
_atom_site_fract_z
Si Si1 0.087791 0.259250 0.970392
Si Si2 0.333812 0.604435 0.595535
Si Si3 0.928674 0.424541 0.696489
Si Si4 0.338558 0.075873 0.245478
Si Si5 0.833840 0.747277 0.563071
Si Si6 0.587717 0.601762 0.957211
O O1 0.122209 0.285529 0.690593
O O2 0.091979 0.180565 0.960614
O O3 0.139126 0.278643 0.181510
O O4 0.000000 0.274927 0.000000
O O5 0.245462 0.603379 0.709528
O O6 0.357049 0.678847 0.567858
O O7 0.362307 0.578529 0.309928
O O8 0.377428 0.576315 0.805637
O O9 0.948360 0.500000 0.726645
O O10 0.865101 0.420096 0.520312
O O11 0.000000 0.395381 0.500000
O O12 0.897918 0.402466 0.990001
O O13 0.329834 0.000000 0.196197
O O14 0.750000 0.750000 0.500000
O O15 0.500000 0.585337 0.000000
#
# Coordination Sequence:
#
# PCOD9179247 Si02
#       6
#     8   8   8   8   8   8
#     4   9  17  30  49  72  95 122 161 201 236 278
#     4  10  19  31  49  72  97 126 158 197 243 288
#     4   9  17  30  49  72  95 122 161 204 240 278
#     4  10  19  31  49  72  98 127 159 200 245 288
#     4  10  19  31  49  73  98 125 157 198 243 287
#     4   9  17  30  49  71  94 123 162 203 236 274
#
# _framework density 24.526433999999998
#
# number of rings (size 3 to 8) (size 9 to 14) (size 15 to 20)
#    0.000    2.500    0.000    3.000    0.000    6.000 
#    0.000    0.000    0.000    7.000    0.000    0.000 
#    0.000    0.000    0.000    0.000    0.000    0.000 
#
# Total GULP energy -133993.119115 kJ/mol
# GULP energy per Si atom -5583.046630 kJ/mol
# Density = 2.447061 g / cm^3
# Si number density = 24.526434 Si / 1000 Ang^3
#
#
#
# Elastic Constant Matrix: (Units=GPa)
#
#
# Indices 1 2 3 4 5 6 
#
# 1 107.5434 -14.5322 51.0256 0.0000 -3.1335 0.0000
# 2 -14.5322 69.0776 23.0582 0.0000 4.5304 0.0000
# 3 51.0256 23.0582 180.1747 0.0000 -7.8603 0.0000
# 4 0.0000 0.0000 0.0000 0.4901 0.0000 -12.0688
# 5 -3.1335 4.5304 -7.8603 0.0000 45.0902 0.0000
# 6 0.0000 0.0000 0.0000 -12.0688 0.0000 -6.7496
#
#
#
# Elastic Compliance Matrix: (Units=1/GPa)
#
#
# Indices 1 2 3 4 5 6 
#
# 1 0.011578 0.003707 -0.003763 0.000000 -0.000224 0.000000
# 2 0.003707 0.016467 -0.003243 0.000000 -0.001962 0.000000
# 3 -0.003763 -0.003243 0.007088 0.000000 0.001300 0.000000
# 4 0.000000 0.000000 0.000000 0.045310 0.000000 -0.081019
# 5 -0.000224 -0.001962 0.001300 0.000000 0.022586 0.000000
# 6 0.000000 0.000000 0.000000 -0.081019 0.000000 -0.003290
#
#
# Mechanical properties :
#
#
# Convention : Reuss Voigt Hill
#
# Bulk Modulus (GPa) = 35.04492 52.87767 43.96130
# Shear Modulus (GPa) = 43.15915 27.58239 35.37077
#
# Velocity S-wave (km/s) = 4.19943 3.35714 3.80168
# Velocity P-wave (km/s) = 6.15087 6.05256 6.10191
#
# Compressibility (1/GPa) = 0.02853481
#
# Stress axis : x y z
#
# Youngs Moduli (GPa) = 86.36770 60.72611 141.09154
#
# Poissons Ratio (x) = -0.22509 0.53095
# Poissons Ratio (y) = -0.32013 0.45753
# Poissons Ratio (z) = 0.32501 0.19692
#
# Static dielectric constant tensor:
#      x y z
#    x 5.205240 0.000000 0.236130 
#    y 0.000000 2.079280 0.000000 
#    z 0.236130 0.000000 1.955300 
# 
# From -- ./inp_files/12834.got.cif
#   From: 2010.05.17/outbox.cif.g08.bks.cpg/sg12_7_cif.got.tgz:12834.got - 2010.06.03 13:09:07.
