data_PCOD9179255
_publ_section_title
;
Structure prediction by ZEFSAII (Michael W. Deem and Ramdas Pophale) SiO2 
 PCOD9179255
Probable space group: C 2/M
;
_chemical_formula_sum "Si O2"
_cell_formula_units_Z 48
_cell_length_a 18.922499
_cell_length_b 8.888919
_cell_length_c 32.729502
_cell_angle_alpha 90.000000
_cell_angle_beta 149.132663
_cell_angle_gamma 90.000000
_cell_volume 2824.413162
_symmetry_space_group_name_H-M "C 2/M"
_symmetry_group_IT_number 12
_symmetry_cell_setting 'monoclinic'
loop_
_space_group_symop_operation_xyz
x,y,z
-x,y,-z
-x,-y,-z
x,-y,z
1/2+x,1/2+y,z
1/2-x,1/2+y,-z
1/2-x,1/2-y,-z
1/2+x,1/2-y,z
loop_
_atom_site_type_symbol
_atom_site_label
_atom_site_fract_x
_atom_site_fract_y
_atom_site_fract_z
Si Si1 0.442097 0.181775 0.015029
Si Si2 0.593349 0.319582 0.168636
Si Si3 0.167099 0.672565 0.581947
Si Si4 0.336674 0.680320 0.506020
Si Si5 0.175160 0.819573 0.923572
Si Si6 0.839046 0.179376 0.335269
O O1 0.527569 0.256971 0.094181
O O2 0.454742 0.000000 0.025238
O O3 0.500000 0.226879 0.000000
O O4 0.279536 0.221192 0.939053
O O5 0.602403 0.500000 0.171280
O O6 0.483912 0.275648 0.150366
O O7 0.739742 0.249852 0.252207
O O8 0.215264 0.500000 0.606346
O O9 0.207970 0.753495 0.560163
O O10 0.205937 0.756611 0.642850
O O11 0.000000 0.671611 0.500000
O O12 0.323183 0.500000 0.499019
O O13 0.250000 0.750000 0.500000
O O14 0.499725 0.717263 0.591508
O O15 0.177473 0.000000 0.927890
O O16 0.250000 0.750000 0.000000
O O17 0.827204 0.000000 0.329511
#
# Coordination Sequence:
#
# PCOD9179255 Si02
#       6
#     8   8   8   8   8   8
#     4   9  17  31  51  72  96 128 163 200 246 300
#     4  10  19  31  49  72  98 128 163 206 250 292
#     4   9  17  31  52  75  98 127 164 204 245 292
#     4  10  20  34  53  76 102 133 168 206 250 302
#     4   8  15  28  46  68  91 119 157 196 235 283
#     4  10  20  34  52  74 100 131 168 209 252 299
#
# _framework density 16.994681
#
# number of rings (size 3 to 8) (size 9 to 14) (size 15 to 20)
#    0.000    2.667    0.000    2.000    0.000    5.000 
#    0.000    1.667    0.000    8.000    0.000    0.000 
#    0.000    0.000    0.000    0.000    0.000    0.000 
#
# Total GULP energy -133648.647824 kJ/mol
# GULP energy per Si atom -5568.693659 kJ/mol
# Density = 1.695600 g / cm^3
# Si number density = 16.994681 Si / 1000 Ang^3
#
#
#
# Elastic Constant Matrix: (Units=GPa)
#
#
# Indices 1 2 3 4 5 6 
#
# 1 144.3328 48.5416 39.3705 -0.0001 -0.9605 0.0001
# 2 48.5416 54.0238 36.2509 -0.0001 1.5634 0.0003
# 3 39.3705 36.2509 75.7423 0.0000 -0.9122 0.0000
# 4 -0.0001 -0.0001 0.0000 20.4634 0.0000 -4.9362
# 5 -0.9605 1.5634 -0.9122 0.0000 16.3856 0.0000
# 6 0.0001 0.0003 0.0000 -4.9362 0.0000 26.2146
#
#
#
# Elastic Compliance Matrix: (Units=1/GPa)
#
#
# Indices 1 2 3 4 5 6 
#
# 1 0.010046 -0.008206 -0.001279 0.000000 0.001301 0.000000
# 2 -0.008206 0.034153 -0.012134 0.000000 -0.004415 0.000000
# 3 -0.001279 -0.012134 0.019701 0.000000 0.002180 0.000000
# 4 0.000000 0.000000 0.000000 0.051193 0.000000 0.009640
# 5 0.001301 -0.004415 0.002180 0.000000 0.061648 0.000000
# 6 0.000000 0.000000 0.000000 0.009640 0.000000 0.039962
#
#
# Mechanical properties :
#
#
# Convention : Reuss Voigt Hill
#
# Bulk Modulus (GPa) = 48.39534 58.04720 53.22127
# Shear Modulus (GPa) = 18.73871 22.60844 20.67357
#
# Velocity S-wave (km/s) = 3.32418 3.65132 3.49158
# Velocity P-wave (km/s) = 6.57815 7.21155 6.90212
#
# Compressibility (1/GPa) = 0.02066315
#
# Stress axis : x y z
#
# Youngs Moduli (GPa) = 99.54563 29.27969 50.75910
#
# Poissons Ratio (x) = 0.24027 0.06490
# Poissons Ratio (y) = 0.81686 0.61590
# Poissons Ratio (z) = 0.12728 0.35528
#
# Static dielectric constant tensor:
#      x y z
#    x 1.588200 0.000000 0.028430 
#    y 0.000000 1.568100 0.000000 
#    z 0.028430 0.000000 1.568920 
# 
# From -- ./inp_files/274129.got.cif
#   From: 2010.05.17/outbox.cif.g08.bks.cpg/sg12_138_cif.got.tgz:274129.got - 2010.06.03 13:09:07.
