data_PCOD9179260
_publ_section_title
;
Structure prediction by ZEFSAII (Michael W. Deem and Ramdas Pophale) SiO2 
 PCOD9179260
Probable space group: C 2/M
;
_chemical_formula_sum "Si O2"
_cell_formula_units_Z 56
_cell_length_a 19.004138
_cell_length_b 8.183792
_cell_length_c 30.558584
_cell_angle_alpha 90.000000
_cell_angle_beta 141.060835
_cell_angle_gamma 90.000000
_cell_volume 2987.017262
_symmetry_space_group_name_H-M "C 2/M"
_symmetry_group_IT_number 12
_symmetry_cell_setting 'monoclinic'
loop_
_space_group_symop_operation_xyz
x,y,z
-x,y,-z
-x,-y,-z
x,-y,z
1/2+x,1/2+y,z
1/2-x,1/2+y,-z
1/2-x,1/2-y,-z
1/2+x,1/2-y,z
loop_
_atom_site_type_symbol
_atom_site_label
_atom_site_fract_x
_atom_site_fract_y
_atom_site_fract_z
Si Si1 0.168585 0.302469 0.999367
Si Si2 0.556267 0.690975 0.715003
Si Si3 0.780387 0.304839 0.282907
Si Si4 0.037281 0.300722 0.565412
Si Si5 0.251310 0.799965 0.866531
Si Si6 0.413586 0.802664 0.865326
Si Si7 0.623580 0.193208 0.434322
O O1 0.165738 0.500000 0.999450
O O2 0.213515 0.245689 0.068351
O O3 0.250000 0.250000 0.000000
O O4 0.041210 0.245871 0.929846
O O5 0.537622 0.500000 0.712658
O O6 0.643396 0.719092 0.717193
O O7 0.628144 0.755755 0.790872
O O8 0.440355 0.763452 0.641566
O O9 0.793052 0.500000 0.283680
O O10 0.838187 0.259461 0.356878
O O11 0.654472 0.257340 0.210069
O O12 0.032567 0.500000 0.561858
O O13 0.000000 0.240397 0.500000
O O14 0.951215 0.242773 0.561266
O O15 0.342854 0.750498 0.874182
O O16 0.249992 0.000000 0.865515
O O17 0.412745 0.000000 0.864543
O O18 0.750000 0.250000 0.500000
O O19 0.622114 0.000000 0.437218
#
# Coordination Sequence:
#
# PCOD9179260 Si02
#       7
#     8   8   8   8   8   8   8
#     4  10  20  34  50  70  98 128 158 193 238 289
#     4   9  16  29  50  72  94 122 159 201 241 280
#     4   9  16  27  47  73  97 120 151 197 244 281
#     4   8  15  29  48  69  92 121 158 195 230 273
#     4   8  15  30  53  74  89 117 163 203 232 276
#     4   9  17  31  52  72  91 121 161 200 233 275
#     4  10  19  31  49  72  99 129 161 199 240 283
#
# _framework density 18.747800000000002
#
# number of rings (size 3 to 8) (size 9 to 14) (size 15 to 20)
#    0.000    3.000    0.000    3.429    0.000    2.286 
#    0.000    5.000    0.000   26.571    0.000    0.000 
#    0.000    0.000    0.000    0.000    0.000    0.000 
#
# Total GULP energy -155922.879630 kJ/mol
# GULP energy per Si atom -5568.674272 kJ/mol
# Density = 1.870513 g / cm^3
# Si number density = 18.747800 Si / 1000 Ang^3
#
#
#
# Elastic Constant Matrix: (Units=GPa)
#
#
# Indices 1 2 3 4 5 6 
#
# 1 63.1362 8.8561 83.0745 0.0000 -0.4075 0.0001
# 2 8.8561 10.4900 17.4144 0.0000 2.0574 0.0003
# 3 83.0745 17.4144 244.9769 0.0000 0.6869 0.0000
# 4 0.0000 0.0000 0.0000 27.1616 0.0000 2.4139
# 5 -0.4075 2.0574 0.6869 0.0000 27.1813 0.0000
# 6 0.0001 0.0003 0.0000 2.4139 0.0000 17.1368
#
#
#
# Elastic Compliance Matrix: (Units=1/GPa)
#
#
# Indices 1 2 3 4 5 6 
#
# 1 0.029444 -0.009697 -0.009300 0.000000 0.001410 0.000000
# 2 -0.009697 0.113039 -0.004723 0.000000 -0.008582 -0.000002
# 3 -0.009300 -0.004723 0.007571 0.000000 0.000027 0.000000
# 4 0.000000 0.000000 0.000000 0.037283 0.000000 -0.005252
# 5 0.001410 -0.008582 0.000027 0.000000 0.037460 0.000000
# 6 0.000000 -0.000002 0.000000 -0.005252 0.000000 0.059094
#
#
# Mechanical properties :
#
#
# Convention : Reuss Voigt Hill
#
# Bulk Modulus (GPa) = 9.74508 59.69925 34.72216
# Shear Modulus (GPa) = 13.67853 28.24648 20.96250
#
# Velocity S-wave (km/s) = 2.70405 3.88578 3.34747
# Velocity P-wave (km/s) = 3.86762 7.21421 5.78806
#
# Compressibility (1/GPa) = 0.10261589
#
# Stress axis : x y z
#
# Youngs Moduli (GPa) = 33.96228 8.84649 132.07787
#
# Poissons Ratio (x) = 0.08578 1.22827
# Poissons Ratio (y) = 0.32932 0.62382
# Poissons Ratio (z) = 0.31584 0.04178
#
# Static dielectric constant tensor:
#      x y z
#    x 1.650030 0.000000 0.010660 
#    y 0.000000 1.669050 0.000000 
#    z 0.010660 0.000000 1.709350 
# 
# From -- ./inp_files/377761.got.cif
#   From: 2010.05.17/outbox.cif.g08.bks.cpg/sg12_189_cif.got.tgz:377761.got - 2010.06.03 13:09:07.
