data_PCOD9179349
_publ_section_title
;
Structure prediction by ZEFSAII (Michael W. Deem and Ramdas Pophale) SiO2 
 PCOD9179349
Probable space group: C 2/M
;
_chemical_formula_sum "Si O2"
_cell_formula_units_Z 64
_cell_length_a 25.702990
_cell_length_b 7.471178
_cell_length_c 14.953959
_cell_angle_alpha 90.000000
_cell_angle_beta 88.246543
_cell_angle_gamma 90.000000
_cell_volume 2870.288222
_symmetry_space_group_name_H-M "C 2/M"
_symmetry_group_IT_number 12
_symmetry_cell_setting 'monoclinic'
loop_
_space_group_symop_operation_xyz
x,y,z
-x,y,-z
-x,-y,-z
x,-y,z
1/2+x,1/2+y,z
1/2-x,1/2+y,-z
1/2-x,1/2-y,-z
1/2+x,1/2-y,z
loop_
_atom_site_type_symbol
_atom_site_label
_atom_site_fract_x
_atom_site_fract_y
_atom_site_fract_z
Si Si1 0.193828 0.207682 0.776609
Si Si2 0.442823 0.716009 0.033991
Si Si3 0.830208 0.295710 0.020043
Si Si4 0.801213 0.286928 0.831745
Si Si5 0.558615 0.718588 0.467831
Si Si6 0.393500 0.281715 0.355954
Si Si7 0.410748 0.715906 0.733398
Si Si8 0.520630 0.282650 0.781572
O O1 0.175234 0.211049 0.881527
O O2 0.252001 0.285529 0.779315
O O3 0.152953 0.283088 0.706397
O O4 0.198595 0.000000 0.750653
O O5 0.439717 0.500000 0.025254
O O6 0.391498 0.790810 0.992316
O O7 0.444120 0.771056 0.137317
O O8 0.500000 0.769941 0.000000
O O9 0.813751 0.500000 0.032294
O O10 0.802745 0.215383 0.933812
O O11 0.793229 0.500000 0.842592
O O12 0.855662 0.264817 0.778281
O O13 0.500000 0.774170 0.500000
O O14 0.556888 0.500000 0.465869
O O15 0.600328 0.772393 0.541611
O O16 0.577222 0.776048 0.368642
O O17 0.391965 0.500000 0.354352
O O18 0.448419 0.230367 0.307925
O O19 0.411919 0.500000 0.733140
O O20 0.461201 0.777877 0.787052
O O21 0.519075 0.500000 0.784885
#
# Coordination Sequence:
#
# PCOD9179349 Si02
#       8
#     8   8   8   8   8   8   8   8
#     4  10  20  37  59  76  98 140 186 218 251 305
#     4  10  19  31  49  74 105 140 178 213 248 306
#     4  11  22  35  52  76 106 136 173 222 271 310
#     4  10  23  39  52  72 105 144 179 214 261 313
#     4   9  15  26  49  83 113 130 158 213 269 309
#     4   9  15  27  51  79 104 128 165 216 259 300
#     4  10  19  32  55  83 107 135 172 217 263 306
#     4   9  15  26  47  76 104 131 167 208 252 302
#
# _framework density 22.297411
#
# number of rings (size 3 to 8) (size 9 to 14) (size 15 to 20)
#    0.000    2.250    2.500    1.500    0.000    2.750 
#    0.000    1.250    0.000    1.125    0.000    0.000 
#    0.000    0.000    0.000    0.000    0.000    0.000 
#
# Total GULP energy -178577.144058 kJ/mol
# GULP energy per Si atom -5580.535752 kJ/mol
# Density = 2.224666 g / cm^3
# Si number density = 22.297411 Si / 1000 Ang^3
#
#
#
# Elastic Constant Matrix: (Units=GPa)
#
#
# Indices 1 2 3 4 5 6 
#
# 1 154.9889 3.1976 48.2734 0.0000 23.7326 0.0000
# 2 3.1976 61.2724 -0.9299 0.0000 4.1004 0.0000
# 3 48.2734 -0.9299 92.2636 0.0000 20.9901 0.0000
# 4 0.0000 0.0000 0.0000 4.6705 0.0000 -9.5788
# 5 23.7326 4.1004 20.9901 0.0000 35.6953 0.0000
# 6 0.0000 0.0000 0.0000 -9.5788 0.0000 34.5723
#
#
#
# Elastic Compliance Matrix: (Units=1/GPa)
#
#
# Indices 1 2 3 4 5 6 
#
# 1 0.008038 -0.000253 -0.003462 0.000000 -0.003279 0.000000
# 2 -0.000253 0.016493 0.000798 0.000000 -0.002196 0.000000
# 3 -0.003462 0.000798 0.014032 0.000000 -0.006041 0.000000
# 4 0.000000 0.000000 0.000000 0.495900 0.000000 0.137397
# 5 -0.003279 -0.002196 -0.006041 0.000000 0.034000 0.000000
# 6 0.000000 0.000000 0.000000 0.137397 0.000000 0.066993
#
#
# Mechanical properties :
#
#
# Convention : Reuss Voigt Hill
#
# Bulk Modulus (GPa) = 30.55331 45.51190 38.03261
# Shear Modulus (GPa) = 7.66637 32.18654 19.92645
#
# Velocity S-wave (km/s) = 1.85626 3.80348 2.99267
# Velocity P-wave (km/s) = 4.28096 6.30430 5.38845
#
# Compressibility (1/GPa) = 0.03272968
#
# Stress axis : x y z
#
# Youngs Moduli (GPa) = 124.41402 60.63249 71.26410
#
# Poissons Ratio (x) = 0.01531 0.24671
# Poissons Ratio (y) = 0.03142 -0.05686
# Poissons Ratio (z) = 0.43071 -0.04838
#
# Static dielectric constant tensor:
#      x y z
#    x 1.832460 0.000000 0.014580 
#    y 0.000000 1.888760 0.000000 
#    z 0.014580 0.000000 1.843140 
# 
# From -- ./inp_files/238600.got.cif
#   From: 2010.05.17/outbox.cif.g08.bks.cpg/sg12_120_cif.got.tgz:238600.got - 2010.06.03 13:09:07.
