data_PCOD9179134
_publ_section_title
;
Structure prediction by ZEFSAII (Michael W. Deem and Ramdas Pophale) SiO2 
 PCOD9179134
Probable space group: C 2/M
;
_chemical_formula_sum "Si O2"
_cell_formula_units_Z 48
_cell_length_a 29.587502
_cell_length_b 7.476210
_cell_length_c 9.935487
_cell_angle_alpha 90.000000
_cell_angle_beta 83.869208
_cell_angle_gamma 90.000000
_cell_volume 2185.183726
_symmetry_space_group_name_H-M "C 2/M"
_symmetry_group_IT_number 12
_symmetry_cell_setting 'monoclinic'
loop_
_space_group_symop_operation_xyz
x,y,z
-x,y,-z
-x,-y,-z
x,-y,z
1/2+x,1/2+y,z
1/2-x,1/2+y,-z
1/2-x,1/2-y,-z
1/2+x,1/2-y,z
loop_
_atom_site_type_symbol
_atom_site_label
_atom_site_fract_x
_atom_site_fract_y
_atom_site_fract_z
Si Si1 0.286749 0.216413 0.817121
Si Si2 0.116876 0.286205 0.298286
Si Si3 0.954285 0.203055 0.455634
Si Si4 0.283290 0.285297 0.366364
Si Si5 0.119108 0.208716 0.710311
Si Si6 0.142874 0.285092 0.004417
O O1 0.329523 0.258712 0.703835
O O2 0.241655 0.284568 0.760765
O O3 0.284018 0.000000 0.825497
O O4 0.307556 0.278010 0.953820
O O5 0.112528 0.500000 0.313989
O O6 0.082774 0.200652 0.412915
O O7 0.110311 0.241039 0.141986
O O8 0.926659 0.286562 0.339394
O O9 0.000000 0.288967 0.500000
O O10 0.967535 0.000000 0.411928
O O11 0.287045 0.500000 0.350761
O O12 0.250000 0.250000 0.500000
O O13 0.334123 0.212774 0.363811
O O14 0.125871 0.216967 0.868113
O O15 0.117642 0.000000 0.671947
O O16 0.144856 0.500000 0.994036
#
# Coordination Sequence:
#
# PCOD9179134 Si02
#       6
#     8   8   8   8   8   8
#     4   7  14  30  50  70 100 133 159 193 243 293
#     4   8  16  33  55  76  98 128 168 205 243 297
#     4  10  21  36  52  72 101 135 168 207 257 305
#     4  10  19  31  48  74 105 134 167 206 244 290
#     4  10  21  34  50  76 105 130 169 215 248 292
#     4   8  17  34  54  75 102 136 166 199 250 302
#
# _framework density 21.966118999999999
#
# number of rings (size 3 to 8) (size 9 to 14) (size 15 to 20)
#    1.000    2.167    0.000    1.000    0.000    3.000 
#    0.000    1.667    0.000    5.000    0.000    0.000 
#    0.000    0.000    0.000    0.000    0.000    0.000 
#
# Total GULP energy -133631.543842 kJ/mol
# GULP energy per Si atom -5567.980993 kJ/mol
# Density = 2.191612 g / cm^3
# Si number density = 21.966119 Si / 1000 Ang^3
#
#
#
# Elastic Constant Matrix: (Units=GPa)
#
#
# Indices 1 2 3 4 5 6 
#
# 1 136.8292 11.9664 37.1798 0.0000 58.6693 0.0000
# 2 11.9664 65.0652 -4.7779 0.0000 2.7502 0.0000
# 3 37.1798 -4.7779 92.1071 0.0000 33.3348 0.0000
# 4 0.0000 0.0000 0.0000 20.1496 0.0000 -14.4203
# 5 58.6693 2.7502 33.3348 0.0000 36.0202 0.0000
# 6 0.0000 0.0000 0.0000 -14.4203 0.0000 -40.3459
#
#
#
# Elastic Compliance Matrix: (Units=1/GPa)
#
#
# Indices 1 2 3 4 5 6 
#
# 1 0.027759 -0.002361 0.007474 0.000000 -0.051950 0.000000
# 2 -0.002361 0.015831 0.001233 0.000000 0.001495 0.000000
# 3 0.007474 0.001233 0.018560 0.000000 -0.029444 0.000000
# 4 0.000000 0.000000 0.000000 0.039520 0.000000 -0.014125
# 5 -0.051950 0.001495 -0.029444 0.000000 0.139512 0.000000
# 6 0.000000 0.000000 0.000000 -0.014125 0.000000 -0.019737
#
#
# Mechanical properties :
#
#
# Convention : Reuss Voigt Hill
#
# Bulk Modulus (GPa) = 13.36149 42.52647 27.94398
# Shear Modulus (GPa) = 21.39497 19.80700 20.60098
#
# Velocity S-wave (km/s) = 3.12428 3.00610 3.06576
# Velocity P-wave (km/s) = 4.37159 5.60811 5.02801
#
# Compressibility (1/GPa) = 0.07484194
#
# Stress axis : x y z
#
# Youngs Moduli (GPa) = 36.02437 63.16852 53.87904
#
# Poissons Ratio (x) = 0.14911 -0.40268
# Poissons Ratio (y) = 0.08504 -0.06643
# Poissons Ratio (z) = -0.26924 -0.07788
#
# Static dielectric constant tensor:
#      x y z
#    x 1.864770 0.000000 0.027390 
#    y 0.000000 1.817470 0.000000 
#    z 0.027390 0.000000 1.846340 
# 
# From -- ./inp_files/94299.got.cif
#   From: 2010.05.17/outbox.cif.g08.bks.cpg/sg12_48_cif.got.tgz:94299.got - 2010.06.03 13:09:07.
