data_PCOD9179601
_publ_section_title
;
Structure prediction by ZEFSAII (Michael W. Deem and Ramdas Pophale) SiO2 
 PCOD9179601
Probable space group: C 2/M
;
_chemical_formula_sum "Si O2"
_cell_formula_units_Z 64
_cell_length_a 16.076230
_cell_length_b 7.740664
_cell_length_c 20.529115
_cell_angle_alpha 90.000000
_cell_angle_beta 108.213260
_cell_angle_gamma 90.000000
_cell_volume 2426.668344
_symmetry_space_group_name_H-M "C 2/M"
_symmetry_group_IT_number 12
_symmetry_cell_setting 'monoclinic'
loop_
_space_group_symop_operation_xyz
x,y,z
-x,y,-z
-x,-y,-z
x,-y,z
1/2+x,1/2+y,z
1/2-x,1/2+y,-z
1/2-x,1/2-y,-z
1/2+x,1/2-y,z
loop_
_atom_site_type_symbol
_atom_site_label
_atom_site_fract_x
_atom_site_fract_y
_atom_site_fract_z
Si Si1 0.376509 0.200186 0.976474
Si Si2 0.458012 0.805118 0.231973
Si Si3 0.740130 0.290697 0.277272
Si Si4 0.829871 0.796513 0.607547
Si Si5 0.586203 0.299681 0.153553
Si Si6 0.129655 0.211973 0.519935
Si Si7 0.823300 0.287416 0.100852
Si Si8 0.436548 0.303921 0.362829
O O1 0.425794 0.276203 0.926284
O O2 0.273889 0.220870 0.933548
O O3 0.399560 0.000000 0.985054
O O4 0.378882 0.269279 0.050703
O O5 0.524901 0.801131 0.188349
O O6 0.372136 0.724262 0.177304
O O7 0.488854 0.736441 0.309158
O O8 0.433526 0.000000 0.242045
O O9 0.749661 0.500000 0.284274
O O10 0.677151 0.226627 0.320921
O O11 0.686034 0.254660 0.198727
O O12 0.835956 0.214498 0.312010
O O13 0.884902 0.729643 0.558581
O O14 0.727999 0.771918 0.560996
O O15 0.847173 0.000000 0.616832
O O16 0.573517 0.500000 0.167228
O O17 0.071071 0.276076 0.566413
O O18 0.129402 0.000000 0.519464
O O19 0.819873 0.500000 0.100513
O O20 0.458232 0.500000 0.382541
#
# Coordination Sequence:
#
# PCOD9179601 Si02
#       8
#     8   8   8   8   8   8   8   8
#     4  10  20  36  59  83 105 131 164 202 247 299
#     4  11  23  38  54  72  99 136 174 209 248 295
#     4   9  18  32  51  74 101 134 169 206 248 296
#     4   8  13  24  43  67  95 127 162 198 242 294
#     4  11  23  37  52  74 105 136 169 210 252 294
#     4   8  14  24  41  68  99 126 156 200 248 292
#     4   9  20  38  58  80 105 132 165 206 247 291
#     4  10  19  31  50  77 105 131 164 208 254 299
#
# _framework density 26.373608999999998
#
# number of rings (size 3 to 8) (size 9 to 14) (size 15 to 20)
#    0.000    2.500    0.000    2.250    0.000    6.500 
#    0.000    2.500    0.000    0.750    0.000    5.250 
#    0.000    0.000    0.000    0.000    0.000    0.000 
#
# Total GULP energy -178766.137934 kJ/mol
# GULP energy per Si atom -5586.441810 kJ/mol
# Density = 2.631358 g / cm^3
# Si number density = 26.373609 Si / 1000 Ang^3
#
#
#
# Elastic Constant Matrix: (Units=GPa)
#
#
# Indices 1 2 3 4 5 6 
#
# 1 101.6294 -3.5587 18.5599 0.0000 -26.4501 0.0000
# 2 -3.5587 43.6306 1.8731 0.0000 -1.0091 0.0000
# 3 18.5599 1.8731 204.1864 0.0000 -24.0817 0.0000
# 4 0.0000 0.0000 0.0000 19.2734 0.0000 -9.8878
# 5 -26.4501 -1.0091 -24.0817 0.0000 55.3020 0.0000
# 6 0.0000 0.0000 0.0000 -9.8878 0.0000 18.9022
#
#
#
# Elastic Compliance Matrix: (Units=1/GPa)
#
#
# Indices 1 2 3 4 5 6 
#
# 1 0.011320 0.001063 -0.000419 0.000000 0.005251 0.000000
# 2 0.001063 0.023035 -0.000209 0.000000 0.000838 0.000000
# 3 -0.000419 -0.000209 0.005179 0.000000 0.002051 0.000000
# 4 0.000000 0.000000 0.000000 0.070917 0.000000 0.037097
# 5 0.005251 0.000838 0.002051 0.000000 0.021502 0.000000
# 6 0.000000 0.000000 0.000000 0.037097 0.000000 0.072309
#
#
# Mechanical properties :
#
#
# Convention : Reuss Voigt Hill
#
# Bulk Modulus (GPa) = 24.75080 42.57721 33.66400
# Shear Modulus (GPa) = 23.05613 40.86699 31.96156
#
# Velocity S-wave (km/s) = 2.95992 3.94069 3.48498
# Velocity P-wave (km/s) = 4.59201 6.07325 5.38381
#
# Compressibility (1/GPa) = 0.04040274
#
# Stress axis : x y z
#
# Youngs Moduli (GPa) = 88.33836 43.41269 193.07169
#
# Poissons Ratio (x) = -0.04614 0.08098
# Poissons Ratio (y) = -0.09388 0.04038
# Poissons Ratio (z) = 0.03705 0.00908
#
# Static dielectric constant tensor:
#      x y z
#    x 2.167950 0.000000 -0.041240 
#    y 0.000000 2.055700 0.000000 
#    z -0.041240 0.000000 2.089860 
# 
# From -- ./inp_files/314073.got.cif
#   From: 2010.05.17/outbox.cif.g08.bks.cpg/sg12_158_cif.got.tgz:314073.got - 2010.06.03 13:09:07.
