data_PCOD9179475
_publ_section_title
;
Structure prediction by ZEFSAII (Michael W. Deem and Ramdas Pophale) SiO2 
 PCOD9179475
Probable space group: C 2/M
;
_chemical_formula_sum "Si O2"
_cell_formula_units_Z 56
_cell_length_a 18.794269
_cell_length_b 28.896849
_cell_length_c 8.970388
_cell_angle_alpha 90.000000
_cell_angle_beta 142.121861
_cell_angle_gamma 90.000000
_cell_volume 2991.191844
_symmetry_space_group_name_H-M "C 2/M"
_symmetry_group_IT_number 12
_symmetry_cell_setting 'monoclinic'
loop_
_space_group_symop_operation_xyz
x,y,z
-x,y,-z
-x,-y,-z
x,-y,z
1/2+x,1/2+y,z
1/2-x,1/2+y,-z
1/2-x,1/2-y,-z
1/2+x,1/2-y,z
loop_
_atom_site_type_symbol
_atom_site_label
_atom_site_fract_x
_atom_site_fract_y
_atom_site_fract_z
Si Si1 0.166822 0.192454 0.403679
Si Si2 0.120835 0.622476 0.285968
Si Si3 0.529887 0.903863 0.703848
Si Si4 0.775195 0.554019 0.767598
Si Si5 0.893228 0.134112 0.433924
Si Si6 0.214127 0.234831 0.190541
Si Si7 0.182960 0.313778 0.922765
O O1 0.287511 0.163493 0.583165
O O2 0.087046 0.159283 0.373804
O O3 0.137510 0.208153 0.187058
O O4 0.196910 0.236495 0.557342
O O5 0.178663 0.577603 0.307052
O O6 0.082763 0.609174 0.387710
O O7 0.000000 0.633428 0.000000
O O8 0.500000 0.927244 0.500000
O O9 0.592208 0.854968 0.773797
O O10 0.619845 0.934386 0.945875
O O11 0.753304 0.500000 0.720482
O O12 0.664750 0.584298 0.633893
O O13 0.000000 0.131608 0.500000
O O14 0.796446 0.165027 0.190112
O O15 0.283224 0.203677 0.185557
O O16 0.147615 0.271147 0.972539
#
# Coordination Sequence:
#
# PCOD9179475 Si02
#       7
#     8   8   8   8   8   8   8
#     4   9  17  30  46  67  95 128 166 201 235 275
#     4   9  17  30  48  69  97 127 153 188 239 293
#     4  10  19  31  50  73  99 129 154 185 238 294
#     4   9  19  34  52  74  96 119 152 195 240 292
#     4   9  18  34  51  67  93 126 161 200 240 279
#     4   9  16  30  47  65  97 130 161 205 234 265
#     4   9  18  32  46  68 101 129 160 199 235 272
#
# _framework density 18.721633000000001
#
# number of rings (size 3 to 8) (size 9 to 14) (size 15 to 20)
#    0.000    2.857    0.000    3.429    0.000    3.143 
#    0.000   25.714    0.000    0.000    0.000    0.000 
#    0.000    9.143    0.000    0.000    0.000    0.000 
#
# Total GULP energy -156100.539468 kJ/mol
# GULP energy per Si atom -5575.019267 kJ/mol
# Density = 1.867902 g / cm^3
# Si number density = 18.721633 Si / 1000 Ang^3
#
#
#
# Elastic Constant Matrix: (Units=GPa)
#
#
# Indices 1 2 3 4 5 6 
#
# 1 142.6007 49.7038 37.3474 0.0000 -12.5702 0.0000
# 2 49.7038 112.9477 20.2336 0.0000 -5.9506 0.0000
# 3 37.3474 20.2336 28.4420 0.0000 -10.1753 0.0000
# 4 0.0000 0.0000 0.0000 -0.4760 0.0000 -2.0551
# 5 -12.5702 -5.9506 -10.1753 0.0000 32.1952 0.0000
# 6 0.0000 0.0000 0.0000 -2.0551 0.0000 9.0623
#
#
#
# Elastic Compliance Matrix: (Units=1/GPa)
#
#
# Indices 1 2 3 4 5 6 
#
# 1 0.011348 -0.002661 -0.013078 0.000000 -0.000194 0.000000
# 2 -0.002661 0.010777 -0.004320 0.000000 -0.000412 0.000000
# 3 -0.013078 -0.004320 0.060086 0.000000 0.013086 0.000000
# 4 0.000000 0.000000 0.000000 -1.061484 0.000000 -0.240721
# 5 -0.000194 -0.000412 0.013086 0.000000 0.035044 0.000000
# 6 0.000000 0.000000 0.000000 -0.240721 0.000000 0.055758
#
#
# Mechanical properties :
#
#
# Convention : Reuss Voigt Hill
#
# Bulk Modulus (GPa) = 23.75635 55.39557 39.57596
# Shear Modulus (GPa) = -5.99288 19.93666 6.97189
#
# Velocity S-wave (km/s) = -1.79109 3.26682 1.93185
# Velocity P-wave (km/s) = 2.90508 6.62441 5.11480
#
# Compressibility (1/GPa) = 0.04209401
#
# Stress axis : x y z
#
# Youngs Moduli (GPa) = 88.12029 92.79101 16.64285
#
# Poissons Ratio (x) = 0.24695 0.21765
# Poissons Ratio (y) = 0.23452 0.07189
# Poissons Ratio (z) = 1.15240 0.40081
#
# Static dielectric constant tensor:
#      x y z
#    x 1.677850 0.000000 -0.018200 
#    y 0.000000 1.644010 0.000000 
#    z -0.018200 0.000000 1.672520 
# 
# From -- ./inp_files/80475.got.cif
#   From: 2010.05.17/outbox.cif.g08.bks.cpg/sg12_41_cif.got.tgz:80475.got - 2010.06.03 13:09:07.
