data_PCOD9179199
_publ_section_title
;
Structure prediction by ZEFSAII (Michael W. Deem and Ramdas Pophale) SiO2 
 PCOD9179199
Probable space group: C 2/M
;
_chemical_formula_sum "Si O2"
_cell_formula_units_Z 56
_cell_length_a 16.873879
_cell_length_b 16.352274
_cell_length_c 13.966426
_cell_angle_alpha 90.000000
_cell_angle_beta 55.139728
_cell_angle_gamma 90.000000
_cell_volume 3162.150758
_symmetry_space_group_name_H-M "C 2/M"
_symmetry_group_IT_number 12
_symmetry_cell_setting 'monoclinic'
loop_
_space_group_symop_operation_xyz
x,y,z
-x,y,-z
-x,-y,-z
x,-y,z
1/2+x,1/2+y,z
1/2-x,1/2+y,-z
1/2-x,1/2-y,-z
1/2+x,1/2-y,z
loop_
_atom_site_type_symbol
_atom_site_label
_atom_site_fract_x
_atom_site_fract_y
_atom_site_fract_z
Si Si1 0.095559 0.900108 0.992970
Si Si2 0.705149 0.095501 0.235589
Si Si3 0.924912 0.095086 0.772403
Si Si4 0.803008 0.670093 0.560794
Si Si5 0.853982 0.909972 0.442746
Si Si6 0.506224 0.094539 0.611772
Si Si7 0.389444 0.322299 0.602199
O O1 0.196707 0.870714 0.877584
O O2 0.094820 0.000000 0.989225
O O3 0.093099 0.877805 0.106562
O O4 0.000000 0.873505 0.000000
O O5 0.712762 0.102956 0.344850
O O6 0.598003 0.128263 0.282603
O O7 0.700648 0.000000 0.213093
O O8 0.882426 0.150576 0.716645
O O9 0.040288 0.095020 0.676090
O O10 0.892958 0.000000 0.784003
O O11 0.712128 0.660963 0.555007
O O12 0.899590 0.648388 0.434484
O O13 0.821369 0.750222 0.611551
O O14 0.867916 0.897458 0.546145
O O15 0.812488 0.000000 0.452187
O O16 0.500000 0.093037 0.500000
O O17 0.519020 0.000000 0.633983
O O18 0.500000 0.297106 0.500000
#
# Coordination Sequence:
#
# PCOD9179199 Si02
#       7
#     8   8   8   8   8   8   8
#     4   9  16  27  46  71  93 116 155 203 239 268
#     4   9  16  26  42  65  92 121 152 188 233 281
#     4   9  18  33  50  68  94 126 158 193 233 279
#     4  11  18  28  45  69  97 121 151 194 236 275
#     4  10  19  31  49  71  94 123 159 196 234 276
#     4   8  14  24  39  61  90 121 149 182 229 280
#     4  10  20  32  46  67  97 130 158 187 231 288
#
# _framework density 17.709465000000002
#
# number of rings (size 3 to 8) (size 9 to 14) (size 15 to 20)
#    0.000    2.571    0.000    5.143    0.000    4.000 
#    0.000    0.714    0.000    0.000    0.000    1.000 
#    0.000    5.714    0.000    0.000    0.000    4.714 
#
# Total GULP energy -155911.453734 kJ/mol
# GULP energy per Si atom -5568.266205 kJ/mol
# Density = 1.766916 g / cm^3
# Si number density = 17.709465 Si / 1000 Ang^3
#
#
#
# Elastic Constant Matrix: (Units=GPa)
#
#
# Indices 1 2 3 4 5 6 
#
# 1 80.9676 24.9347 55.2342 0.0000 0.6682 0.0000
# 2 24.9347 47.8077 13.4273 0.0000 1.2422 0.0000
# 3 55.2342 13.4273 106.1990 0.0000 -4.9372 0.0000
# 4 0.0000 0.0000 0.0000 8.0670 0.0000 3.1166
# 5 0.6682 1.2422 -4.9372 0.0000 24.3811 0.0000
# 6 0.0000 0.0000 0.0000 3.1166 0.0000 23.1646
#
#
#
# Elastic Compliance Matrix: (Units=1/GPa)
#
#
# Indices 1 2 3 4 5 6 
#
# 1 0.022227 -0.008559 -0.010586 0.000000 -0.002317 0.000000
# 2 -0.008559 0.025052 0.001248 0.000000 -0.000789 0.000000
# 3 -0.010586 0.001248 0.014915 0.000000 0.003247 0.000000
# 4 0.000000 0.000000 0.000000 0.130758 0.000000 -0.017592
# 5 -0.002317 -0.000789 0.003247 0.000000 0.041777 0.000000
# 6 0.000000 0.000000 0.000000 -0.017592 0.000000 0.045536
#
#
# Mechanical properties :
#
#
# Convention : Reuss Voigt Hill
#
# Bulk Modulus (GPa) = 37.88076 46.90739 42.39408
# Shear Modulus (GPa) = 15.39129 20.54775 17.96952
#
# Velocity S-wave (km/s) = 2.95125 3.40997 3.18887
# Velocity P-wave (km/s) = 5.74889 6.48448 6.12773
#
# Compressibility (1/GPa) = 0.02639862
#
# Stress axis : x y z
#
# Youngs Moduli (GPa) = 44.99014 39.91774 67.04585
#
# Poissons Ratio (x) = 0.34168 0.70973
# Poissons Ratio (y) = 0.38509 -0.08365
# Poissons Ratio (z) = 0.47626 -0.04981
#
# Static dielectric constant tensor:
#      x y z
#    x 1.650430 0.000000 -0.012340 
#    y 0.000000 1.681740 0.000000 
#    z -0.012340 0.000000 1.602380 
# 
# From -- ./inp_files/145496.got.cif
#   From: 2010.05.17/outbox.cif.g08.bks.cpg/sg12_73_cif.got.tgz:145496.got - 2010.06.03 13:09:07.
