data_PCOD9179759
_publ_section_title
;
Structure prediction by ZEFSAII (Michael W. Deem and Ramdas Pophale) SiO2 
 PCOD9179759
Probable space group: C 2/M
;
_chemical_formula_sum "Si O2"
_cell_formula_units_Z 64
_cell_length_a 25.745810
_cell_length_b 9.040249
_cell_length_c 23.477724
_cell_angle_alpha 90.000000
_cell_angle_beta 44.090463
_cell_angle_gamma 90.000000
_cell_volume 3802.096704
_symmetry_space_group_name_H-M "C 2/M"
_symmetry_group_IT_number 12
_symmetry_cell_setting 'monoclinic'
loop_
_space_group_symop_operation_xyz
x,y,z
-x,y,-z
-x,-y,-z
x,-y,z
1/2+x,1/2+y,z
1/2-x,1/2+y,-z
1/2-x,1/2-y,-z
1/2+x,1/2-y,z
loop_
_atom_site_type_symbol
_atom_site_label
_atom_site_fract_x
_atom_site_fract_y
_atom_site_fract_z
Si Si1 0.027053 0.326528 0.722348
Si Si2 0.544831 0.823471 0.336587
Si Si3 0.677800 0.174378 0.530541
Si Si4 0.665974 0.176423 0.328923
Si Si5 0.974639 0.176722 0.154512
Si Si6 0.571391 0.830715 0.986228
Si Si7 0.905064 0.176611 0.506763
Si Si8 0.337407 0.677994 0.180853
O O1 0.015330 0.500000 0.744683
O O2 0.108021 0.311810 0.628738
O O3 0.023973 0.235279 0.782489
O O4 0.969195 0.280917 0.718004
O O5 0.625867 0.799250 0.299735
O O6 0.484199 0.740128 0.423099
O O7 0.527995 0.000000 0.353149
O O8 0.750000 0.250000 0.500000
O O9 0.653944 0.257660 0.491991
O O10 0.689632 0.000000 0.510237
O O11 0.618896 0.262109 0.413290
O O12 0.752586 0.220966 0.261436
O O13 0.661890 0.000000 0.344143
O O14 0.897095 0.219224 0.183158
O O15 0.979490 0.000000 0.149311
O O16 0.042009 0.245955 0.064797
O O17 0.634865 0.749822 0.899811
O O18 0.591127 0.000000 0.983571
O O19 0.500000 0.831484 0.000000
O O20 0.905869 0.000000 0.505243
O O21 0.339882 0.500000 0.173321
#
# Coordination Sequence:
#
# PCOD9179759 Si02
#       8
#     8   8   8   8   8   8   8   8
#     4   9  19  34  51  73  99 131 171 212 251 301
#     4   9  19  37  56  72  97 137 180 219 263 308
#     4  10  21  36  52  72 103 140 174 213 261 309
#     4  10  20  35  55  76 101 136 174 217 265 313
#     4  10  19  31  51  78 105 134 166 204 248 305
#     4   9  17  31  51  74 102 136 165 198 247 304
#     4  11  22  34  50  75 103 136 177 219 261 305
#     4   9  19  33  50  77 106 131 162 205 257 311
#
# _framework density 16.832818
#
# number of rings (size 3 to 8) (size 9 to 14) (size 15 to 20)
#    0.000    2.375    0.000    3.375    1.750    7.000 
#    0.000    0.000    0.000    0.750    0.000    0.000 
#    0.000    0.000    0.000    0.000    0.000    0.000 
#
# Total GULP energy -178493.092476 kJ/mol
# GULP energy per Si atom -5577.909140 kJ/mol
# Density = 1.679451 g / cm^3
# Si number density = 16.832818 Si / 1000 Ang^3
#
#
#
# Elastic Constant Matrix: (Units=GPa)
#
#
# Indices 1 2 3 4 5 6 
#
# 1 87.8518 38.4052 53.5239 -0.0004 16.7908 -0.0004
# 2 38.4052 59.2206 41.9882 -0.0024 12.7963 0.0041
# 3 53.5239 41.9882 68.9849 -0.0002 19.3731 0.0004
# 4 -0.0004 -0.0024 -0.0002 30.3409 0.0000 5.7180
# 5 16.7908 12.7963 19.3731 0.0000 18.6539 0.0003
# 6 -0.0004 0.0041 0.0004 5.7180 0.0003 19.1526
#
#
#
# Elastic Compliance Matrix: (Units=1/GPa)
#
#
# Indices 1 2 3 4 5 6 
#
# 1 0.022161 -0.003757 -0.014159 0.000000 -0.002666 0.000002
# 2 -0.003757 0.030410 -0.015085 0.000004 -0.001812 -0.000007
# 3 -0.014159 -0.015085 0.039781 -0.000002 -0.018221 0.000003
# 4 0.000000 0.000004 -0.000002 0.034924 0.000000 -0.010426
# 5 -0.002666 -0.001812 -0.018221 0.000000 0.076174 0.000000
# 6 0.000002 -0.000007 0.000003 -0.010426 0.000000 0.055325
#
#
# Mechanical properties :
#
#
# Convention : Reuss Voigt Hill
#
# Bulk Modulus (GPa) = 37.95263 53.76577 45.85920
# Shear Modulus (GPa) = 14.98982 19.10547 17.04765
#
# Velocity S-wave (km/s) = 2.98738 3.37265 3.18585
# Velocity P-wave (km/s) = 5.87325 6.86853 6.39030
#
# Compressibility (1/GPa) = 0.02634864
#
# Stress axis : x y z
#
# Youngs Moduli (GPa) = 45.12420 32.88437 25.13782
#
# Poissons Ratio (x) = 0.12354 0.35593
# Poissons Ratio (y) = 0.16952 0.37922
# Poissons Ratio (z) = 0.63892 0.49608
#
# Static dielectric constant tensor:
#      x y z
#    x 1.578820 0.000000 0.001130 
#    y 0.000000 1.562790 0.000000 
#    z 0.001130 0.000000 1.539960 
# 
# From -- ./inp_files/324188.got.cif
#   From: 2010.05.17/outbox.cif.g08.bks.cpg/sg12_163_cif.got.tgz:324188.got - 2010.06.03 13:09:07.
