data_PCOD9179707
_publ_section_title
;
Structure prediction by ZEFSAII (Michael W. Deem and Ramdas Pophale) SiO2 
 PCOD9179707
Probable space group: C 2/M
;
_chemical_formula_sum "Si O2"
_cell_formula_units_Z 64
_cell_length_a 23.929728
_cell_length_b 25.203789
_cell_length_c 18.402683
_cell_angle_alpha 90.000000
_cell_angle_beta 162.532137
_cell_angle_gamma 90.000000
_cell_volume 3331.602720
_symmetry_space_group_name_H-M "C 2/M"
_symmetry_group_IT_number 12
_symmetry_cell_setting 'monoclinic'
loop_
_space_group_symop_operation_xyz
x,y,z
-x,y,-z
-x,-y,-z
x,-y,z
1/2+x,1/2+y,z
1/2-x,1/2+y,-z
1/2-x,1/2-y,-z
1/2+x,1/2-y,z
loop_
_atom_site_type_symbol
_atom_site_label
_atom_site_fract_x
_atom_site_fract_y
_atom_site_fract_z
Si Si1 0.830652 0.668350 0.847184
Si Si2 0.545946 0.276756 0.399718
Si Si3 0.699281 0.756810 0.786652
Si Si4 0.646097 0.441850 0.389819
Si Si5 0.465553 0.058580 0.043952
Si Si6 0.999694 0.832312 0.192264
Si Si7 0.293422 0.557498 0.708677
Si Si8 0.802656 0.174328 0.713944
O O1 0.646750 0.677080 0.571176
O O2 0.827736 0.715370 0.902333
O O3 0.000000 0.673673 0.000000
O O4 0.843261 0.611292 0.901330
O O5 0.349963 0.265679 0.195106
O O6 0.543526 0.294173 0.313790
O O7 0.669069 0.223655 0.561779
O O8 0.500000 0.759738 0.500000
O O9 0.801793 0.812704 0.917289
O O10 0.573299 0.500000 0.320849
O O11 0.838319 0.433079 0.671772
O O12 0.510097 0.392593 0.232210
O O13 0.688093 0.443615 0.355740
O O14 0.393656 0.000000 0.976845
O O15 0.500000 0.056443 0.000000
O O16 0.145387 0.827082 0.307078
O O17 0.207503 0.500000 0.623884
O O18 0.218476 0.616744 0.632140
O O19 0.500000 0.557987 0.000000
O O20 0.000000 0.181287 0.000000
#
# Coordination Sequence:
#
# PCOD9179707 Si02
#       8
#     8   8   8   8   8   8   8   8
#     4  10  19  34  55  77 105 138 173 212 255 309
#     4  11  21  33  48  75 108 137 173 216 259 303
#     4  10  22  36  50  70 105 142 170 212 265 310
#     4   9  18  31  50  78 105 130 168 219 264 304
#     4   9  17  30  50  79 110 136 165 208 260 306
#     4  11  20  33  54  75  98 135 178 214 256 313
#     4   8  15  28  45  68  97 127 162 209 261 304
#     4  10  19  31  51  76 102 132 170 216 261 310
#
# _framework density 19.209973999999999
#
# number of rings (size 3 to 8) (size 9 to 14) (size 15 to 20)
#    0.000    2.250    0.000    4.875    0.000    2.000 
#    0.000    0.000    0.000    5.250    0.000    0.000 
#    0.000    0.000    0.000    0.000    0.000    0.000 
#
# Total GULP energy -178294.001675 kJ/mol
# GULP energy per Si atom -5571.687552 kJ/mol
# Density = 1.916625 g / cm^3
# Si number density = 19.209974 Si / 1000 Ang^3
#
#
#
# Elastic Constant Matrix: (Units=GPa)
#
#
# Indices 1 2 3 4 5 6 
#
# 1 69.7842 23.1304 20.0363 0.0001 -11.1757 0.0000
# 2 23.1304 183.8184 50.2032 0.0000 4.5608 0.0000
# 3 20.0363 50.2032 47.5655 0.0002 -15.8179 0.0001
# 4 0.0001 0.0000 0.0002 24.1555 0.0001 -13.3531
# 5 -11.1757 4.5608 -15.8179 0.0001 31.5373 0.0000
# 6 0.0000 0.0000 0.0001 -13.3531 0.0000 9.9809
#
#
#
# Elastic Compliance Matrix: (Units=1/GPa)
#
#
# Indices 1 2 3 4 5 6 
#
# 1 0.016587 -0.000822 -0.004951 0.000000 0.003514 0.000000
# 2 -0.000822 0.008841 -0.011410 0.000001 -0.007293 0.000001
# 3 -0.004951 -0.011410 0.042147 -0.000003 0.021035 -0.000004
# 4 0.000000 0.000001 -0.000003 0.158963 -0.000003 0.212672
# 5 0.003514 -0.007293 0.021035 -0.000003 0.044558 -0.000004
# 6 0.000000 0.000001 -0.000004 0.212672 -0.000004 0.384719
#
#
# Mechanical properties :
#
#
# Convention : Reuss Voigt Hill
#
# Bulk Modulus (GPa) = 30.11261 54.21201 42.16231
# Shear Modulus (GPa) = 7.13013 26.98794 17.05904
#
# Velocity S-wave (km/s) = 1.92866 3.75226 2.98322
# Velocity P-wave (km/s) = 4.54634 6.85963 5.81910
#
# Compressibility (1/GPa) = 0.03320868
#
# Stress axis : x y z
#
# Youngs Moduli (GPa) = 60.28992 113.11326 23.72674
#
# Poissons Ratio (x) = 0.09301 0.11746
# Poissons Ratio (y) = 0.04957 0.27072
# Poissons Ratio (z) = 0.29847 1.29059
#
# Static dielectric constant tensor:
#      x y z
#    x 1.800730 0.000000 0.027560 
#    y 0.000000 1.742900 0.000000 
#    z 0.027560 0.000000 1.709720 
# 
# From -- ./inp_files/291092.got.cif
#   From: 2010.05.17/outbox.cif.g08.bks.cpg/sg12_146_cif.got.tgz:291092.got - 2010.06.03 13:09:07.
