data_PCOD9179987
_publ_section_title
;
Structure prediction by ZEFSAII (Michael W. Deem and Ramdas Pophale) SiO2 
 PCOD9179987
Probable space group: C 2/M
;
_chemical_formula_sum "Si O2"
_cell_formula_units_Z 56
_cell_length_a 21.509718
_cell_length_b 23.530527
_cell_length_c 10.303785
_cell_angle_alpha 90.000000
_cell_angle_beta 35.378772
_cell_angle_gamma 90.000000
_cell_volume 3019.437658
_symmetry_space_group_name_H-M "C 2/M"
_symmetry_group_IT_number 12
_symmetry_cell_setting 'monoclinic'
loop_
_space_group_symop_operation_xyz
x,y,z
-x,y,-z
-x,-y,-z
x,-y,z
1/2+x,1/2+y,z
1/2-x,1/2+y,-z
1/2-x,1/2-y,-z
1/2+x,1/2-y,z
loop_
_atom_site_type_symbol
_atom_site_label
_atom_site_fract_x
_atom_site_fract_y
_atom_site_fract_z
Si Si1 0.713494 0.674918 0.837537
Si Si2 0.559347 0.937078 0.211794
Si Si3 0.312435 0.937292 0.556525
Si Si4 0.735678 0.706553 0.313271
Si Si5 0.142745 0.680575 0.156809
Si Si6 0.007484 0.208339 0.339452
Si Si7 0.621078 0.892614 0.827968
O O1 0.742514 0.615340 0.724343
O O2 0.723559 0.729681 0.727603
O O3 0.800650 0.688416 0.802184
O O4 0.598335 0.676454 0.102720
O O5 0.430798 0.933834 0.418945
O O6 0.600765 0.883436 0.220644
O O7 0.588973 0.000000 0.209317
O O8 0.607023 0.927179 0.985734
O O9 0.336209 0.929809 0.363246
O O10 0.267546 0.000000 0.659720
O O11 0.607385 0.705064 0.533597
O O12 0.798958 0.659945 0.288113
O O13 0.771801 0.691311 0.103627
O O14 0.050739 0.726696 0.282060
O O15 0.000000 0.186114 0.500000
O O16 0.500000 0.872240 0.000000
#
# Coordination Sequence:
#
# PCOD9179987 Si02
#       7
#     8   8   8   8   8   8   8
#     4  11  21  33  53  82 112 141 176 217 269 326
#     4   9  18  32  55  82 107 140 181 217 261 323
#     4  10  21  36  53  75 108 146 178 224 273 310
#     4  10  19  34  56  82 107 140 178 219 266 315
#     4  10  19  31  52  83 114 140 169 217 270 320
#     4  11  18  33  56  80 108 145 176 210 265 330
#     4   9  19  37  58  80 107 141 181 222 265 317
#
# _framework density 18.546499000000001
#
# number of rings (size 3 to 8) (size 9 to 14) (size 15 to 20)
#    0.000    2.000    2.857    2.143    0.000    4.000 
#    0.000    2.143    0.000    5.571    0.000    0.000 
#    0.000    0.000    0.000    0.000    0.000    0.000 
#
# Total GULP energy -156336.568243 kJ/mol
# GULP energy per Si atom -5583.448866 kJ/mol
# Density = 1.850429 g / cm^3
# Si number density = 18.546499 Si / 1000 Ang^3
#
#
#
# Elastic Constant Matrix: (Units=GPa)
#
#
# Indices 1 2 3 4 5 6 
#
# 1 31.2511 18.4753 12.8859 0.0000 -9.6338 0.0000
# 2 18.4753 145.1134 53.1906 0.0000 -6.3039 0.0000
# 3 12.8859 53.1906 107.1257 0.0001 -15.8349 0.0000
# 4 0.0000 0.0000 0.0001 18.9058 0.0000 -8.3484
# 5 -9.6338 -6.3039 -15.8349 0.0000 20.8033 0.0000
# 6 0.0000 0.0000 0.0000 -8.3484 0.0000 18.1099
#
#
#
# Elastic Compliance Matrix: (Units=1/GPa)
#
#
# Indices 1 2 3 4 5 6 
#
# 1 0.039842 -0.004277 -0.000150 0.000000 0.017040 0.000000
# 2 -0.004277 0.008893 -0.004277 0.000000 -0.002541 0.000000
# 3 -0.000150 -0.004277 0.012704 0.000000 0.008304 0.000000
# 4 0.000000 0.000000 0.000000 0.066413 0.000000 0.030615
# 5 0.017040 -0.002541 0.008304 0.000000 0.061511 0.000000
# 6 0.000000 0.000000 0.000000 0.030615 0.000000 0.069331
#
#
# Mechanical properties :
#
#
# Convention : Reuss Voigt Hill
#
# Bulk Modulus (GPa) = 22.71113 50.28820 36.49966
# Shear Modulus (GPa) = 17.19512 24.82637 21.01075
#
# Velocity S-wave (km/s) = 3.04819 3.66266 3.36946
# Velocity P-wave (km/s) = 4.96596 6.71270 5.90428
#
# Compressibility (1/GPa) = 0.04403128
#
# Stress axis : x y z
#
# Youngs Moduli (GPa) = 25.09887 112.44867 78.71607
#
# Poissons Ratio (x) = 0.48099 0.01180
# Poissons Ratio (y) = 0.10736 0.33665
# Poissons Ratio (z) = 0.00376 0.48091
#
# Static dielectric constant tensor:
#      x y z
#    x 1.645700 0.000000 0.028510 
#    y 0.000000 1.638540 0.000000 
#    z 0.028510 0.000000 1.649170 
# 
# From -- ./inp_files/134898.got.cif
#   From: 2010.05.17/outbox.cif.g08.bks.cpg/sg12_68_cif.got.tgz:134898.got - 2010.06.03 13:09:07.
