data_PCOD9179146
_publ_section_title
;
Structure prediction by ZEFSAII (Michael W. Deem and Ramdas Pophale) SiO2 
 PCOD9179146
Probable space group: C 2/M
;
_chemical_formula_sum "Si O2"
_cell_formula_units_Z 60
_cell_length_a 16.000278
_cell_length_b 16.702838
_cell_length_c 22.111764
_cell_angle_alpha 90.000000
_cell_angle_beta 33.683080
_cell_angle_gamma 90.000000
_cell_volume 3277.329069
_symmetry_space_group_name_H-M "C 2/M"
_symmetry_group_IT_number 12
_symmetry_cell_setting 'monoclinic'
loop_
_space_group_symop_operation_xyz
x,y,z
-x,y,-z
-x,-y,-z
x,-y,z
1/2+x,1/2+y,z
1/2-x,1/2+y,-z
1/2-x,1/2-y,-z
1/2+x,1/2-y,z
loop_
_atom_site_type_symbol
_atom_site_label
_atom_site_fract_x
_atom_site_fract_y
_atom_site_fract_z
Si Si1 0.857023 0.810483 0.121625
Si Si2 0.394982 0.809217 0.329578
Si Si3 0.316539 0.630266 0.353162
Si Si4 0.435143 0.741315 0.655532
Si Si5 0.816153 0.595552 0.878680
Si Si6 0.500000 0.849206 0.500000
Si Si7 0.974756 0.908445 0.878217
Si Si8 0.874009 0.091907 0.458425
O O1 0.732402 0.748382 0.217970
O O2 0.775696 0.874113 0.125549
O O3 0.922590 0.854765 0.140434
O O4 0.000000 0.775863 0.000000
O O5 0.328131 0.727371 0.342510
O O6 0.459030 0.780041 0.356130
O O7 0.532901 0.851131 0.211416
O O8 0.264762 0.872931 0.419839
O O9 0.457287 0.599513 0.229265
O O10 0.331648 0.602615 0.413034
O O11 0.154037 0.605083 0.424595
O O12 0.457977 0.794578 0.582671
O O13 0.487717 0.651398 0.613174
O O14 0.509217 0.500000 0.111022
O O15 0.700358 0.611598 0.003754
O O16 0.653071 0.000000 0.143512
O O17 0.903493 0.000000 0.453870
#
# Coordination Sequence:
#
# PCOD9179146 Si02
#       8
#     8   8   8   8   8   4   8   8
#     4   9  17  30  51  76 103 135 169 208 251 308
#     4  10  19  35  52  74 102 138 179 203 250 307
#     4  11  21  34  53  76 105 136 167 213 258 310
#     4  10  19  34  55  76 102 137 174 212 250 304
#     4   9  18  31  49  73 103 135 169 209 252 302
#     4  12  18  34  56  76 104 128 168 216 260 294
#     4  10  19  31  48  76 107 133 162 208 267 307
#     4  11  21  36  54  76 105 139 174 208 257 309
#
# _framework density 18.307592
#
# number of rings (size 3 to 8) (size 9 to 14) (size 15 to 20)
#    0.000    1.867    4.000    2.000    0.000    2.133 
#    0.000    3.000    0.000    0.400    0.000    0.000 
#    0.000    0.000    0.000    0.000    0.000    0.000 
#
# Total GULP energy -167362.685485 kJ/mol
# GULP energy per Si atom -5578.756183 kJ/mol
# Density = 1.826592 g / cm^3
# Si number density = 18.307592 Si / 1000 Ang^3
#
#
#
# Elastic Constant Matrix: (Units=GPa)
#
#
# Indices 1 2 3 4 5 6 
#
# 1 14.4963 -12.8986 7.0973 0.0002 -2.7269 -0.0001
# 2 -12.8986 70.9195 30.9102 -0.0003 -13.1273 0.0000
# 3 7.0973 30.9102 120.1911 -0.0012 -10.0757 -0.0001
# 4 0.0002 -0.0003 -0.0012 28.3027 0.0006 1.3635
# 5 -2.7269 -13.1273 -10.0757 0.0006 18.8867 0.0001
# 6 -0.0001 0.0000 -0.0001 1.3635 0.0001 3.5253
#
#
#
# Elastic Compliance Matrix: (Units=1/GPa)
#
#
# Indices 1 2 3 4 5 6 
#
# 1 0.107099 0.030101 -0.011531 -0.000002 0.030233 0.000004
# 2 0.030101 0.026060 -0.006906 -0.000001 0.018775 0.000001
# 3 -0.011531 -0.006906 0.010714 0.000001 -0.000749 0.000000
# 4 -0.000002 -0.000001 0.000001 0.036003 -0.000001 -0.013925
# 5 0.030233 0.018775 -0.000749 -0.000001 0.069963 0.000000
# 6 0.000004 0.000001 0.000000 -0.013925 0.000000 0.289052
#
#
# Mechanical properties :
#
#
# Convention : Reuss Voigt Hill
#
# Bulk Modulus (GPa) = 5.98082 28.42498 17.20290
# Shear Modulus (GPa) = 8.75203 22.17613 15.46408
#
# Velocity S-wave (km/s) = 2.18882 3.48416 2.90949
# Velocity P-wave (km/s) = 3.10835 5.63435 4.55015
#
# Compressibility (1/GPa) = 0.16720125
#
# Stress axis : x y z
#
# Youngs Moduli (GPa) = 9.33719 38.37277 93.33455
#
# Poissons Ratio (x) = -1.15504 1.07623
# Poissons Ratio (y) = -0.28105 0.64452
# Poissons Ratio (z) = 0.10767 0.26498
#
# Static dielectric constant tensor:
#      x y z
#    x 1.631690 0.000000 -0.003610 
#    y 0.000000 1.612910 0.000000 
#    z -0.003610 0.000000 1.655800 
# 
# From -- ./inp_files/344368.got.cif
#   From: 2010.05.17/outbox.cif.g08.bks.cpg/sg12_173_cif.got.tgz:344368.got - 2010.06.03 13:09:07.
