data_PCOD9179435
_publ_section_title
;
Structure prediction by ZEFSAII (Michael W. Deem and Ramdas Pophale) SiO2 
 PCOD9179435
Probable space group: C 2/M
;
_chemical_formula_sum "Si O2"
_cell_formula_units_Z 56
_cell_length_a 19.108000
_cell_length_b 23.637864
_cell_length_c 9.323227
_cell_angle_alpha 90.000000
_cell_angle_beta 42.318623
_cell_angle_gamma 90.000000
_cell_volume 2835.097128
_symmetry_space_group_name_H-M "C 2/M"
_symmetry_group_IT_number 12
_symmetry_cell_setting 'monoclinic'
loop_
_space_group_symop_operation_xyz
x,y,z
-x,y,-z
-x,-y,-z
x,-y,z
1/2+x,1/2+y,z
1/2-x,1/2+y,-z
1/2-x,1/2-y,-z
1/2+x,1/2-y,z
loop_
_atom_site_type_symbol
_atom_site_label
_atom_site_fract_x
_atom_site_fract_y
_atom_site_fract_z
Si Si1 0.740876 0.634061 0.733949
Si Si2 0.454164 0.065034 0.410234
Si Si3 0.088495 0.364208 0.986945
Si Si4 0.304728 0.360843 0.534550
Si Si5 0.523557 0.372394 0.129656
Si Si6 0.561788 0.751236 0.187567
Si Si7 0.344857 0.247277 0.649505
O O1 0.843405 0.596249 0.578935
O O2 0.712023 0.645211 0.610886
O O3 0.766933 0.695105 0.761306
O O4 0.642393 0.607097 0.967242
O O5 0.500000 0.067067 0.500000
O O6 0.440283 0.000000 0.386828
O O7 0.536483 0.095441 0.182443
O O8 0.198241 0.386621 0.758793
O O9 0.107572 0.302569 0.027976
O O10 0.000000 0.356965 0.000000
O O11 0.419751 0.389366 0.374998
O O12 0.314832 0.300627 0.598431
O O13 0.535066 0.304803 0.138582
O O14 0.500000 0.384795 0.000000
O O15 0.628363 0.736356 0.227985
O O16 0.452368 0.774224 0.415592
#
# Coordination Sequence:
#
# PCOD9179435 Si02
#       7
#     8   8   8   8   8   8   8
#     4  11  19  37  58  79 112 158 193 245 289 344
#     4  11  25  43  64  89 113 147 198 253 307 349
#     4  12  21  36  59  85 116 152 197 247 296 343
#     4  10  21  35  52  86 118 152 195 233 281 351
#     4   9  20  34  54  79 117 158 191 226 276 345
#     4  10  19  31  49  82 118 160 195 234 278 343
#     4  10  19  31  51  78 120 158 200 231 277 343
#
# _framework density 19.752410999999999
#
# number of rings (size 3 to 8) (size 9 to 14) (size 15 to 20)
#    0.000    1.571    2.857    2.571    0.000    6.000 
#    0.000    0.000    0.000    4.714    0.000    2.000 
#    0.000    0.000    0.000    0.000    0.000    0.000 
#
# Total GULP energy -156151.005538 kJ/mol
# GULP energy per Si atom -5576.821626 kJ/mol
# Density = 1.970745 g / cm^3
# Si number density = 19.752411 Si / 1000 Ang^3
#
#
#
# Elastic Constant Matrix: (Units=GPa)
#
#
# Indices 1 2 3 4 5 6 
#
# 1 63.2973 14.6692 28.2964 0.0000 -18.2217 0.0000
# 2 14.6692 39.6175 15.8096 0.0000 -2.0910 0.0000
# 3 28.2964 15.8096 150.5444 0.0000 -47.3706 0.0000
# 4 0.0000 0.0000 0.0000 15.7750 0.0000 12.9204
# 5 -18.2217 -2.0910 -47.3706 0.0000 45.0651 0.0000
# 6 0.0000 0.0000 0.0000 12.9204 0.0000 54.5052
#
#
#
# Elastic Compliance Matrix: (Units=1/GPa)
#
#
# Indices 1 2 3 4 5 6 
#
# 1 0.019649 -0.006564 -0.000896 0.000000 0.006698 0.000000
# 2 -0.006564 0.028731 -0.003286 0.000000 -0.004775 0.000000
# 3 -0.000896 -0.003286 0.010451 0.000000 0.010471 0.000000
# 4 0.000000 0.000000 0.000000 0.078664 0.000000 -0.018647
# 5 0.006698 -0.004775 0.010471 0.000000 0.035683 0.000000
# 6 0.000000 0.000000 0.000000 -0.018647 0.000000 0.022767
#
#
# Mechanical properties :
#
#
# Convention : Reuss Voigt Hill
#
# Bulk Modulus (GPa) = 26.78243 41.22327 34.00285
# Shear Modulus (GPa) = 21.75011 36.04800 28.89906
#
# Velocity S-wave (km/s) = 3.32194 4.27663 3.82915
# Velocity P-wave (km/s) = 5.31998 6.73063 6.06645
#
# Compressibility (1/GPa) = 0.03733792
#
# Stress axis : x y z
#
# Youngs Moduli (GPa) = 50.89433 34.80545 95.68662
#
# Poissons Ratio (x) = 0.22847 0.08575
# Poissons Ratio (y) = 0.33408 0.31443
# Poissons Ratio (z) = 0.04561 0.11437
#
# Static dielectric constant tensor:
#      x y z
#    x 1.724650 0.000000 -0.062210 
#    y 0.000000 1.636360 0.000000 
#    z -0.062210 0.000000 1.779090 
# 
# From -- ./inp_files/79051.got.cif
#   From: 2010.05.17/outbox.cif.g08.bks.cpg/sg12_40_cif.got.tgz:79051.got - 2010.06.03 13:09:07.
