data_PCOD9179320
_publ_section_title
;
Structure prediction by ZEFSAII (Michael W. Deem and Ramdas Pophale) SiO2 
 PCOD9179320
Probable space group: C 2/M
;
_chemical_formula_sum "Si O2"
_cell_formula_units_Z 52
_cell_length_a 12.076507
_cell_length_b 22.696202
_cell_length_c 16.341483
_cell_angle_alpha 90.000000
_cell_angle_beta 42.419542
_cell_angle_gamma 90.000000
_cell_volume 3021.362623
_symmetry_space_group_name_H-M "C 2/M"
_symmetry_group_IT_number 12
_symmetry_cell_setting 'monoclinic'
loop_
_space_group_symop_operation_xyz
x,y,z
-x,y,-z
-x,-y,-z
x,-y,z
1/2+x,1/2+y,z
1/2-x,1/2+y,-z
1/2-x,1/2-y,-z
1/2+x,1/2-y,z
loop_
_atom_site_type_symbol
_atom_site_label
_atom_site_fract_x
_atom_site_fract_y
_atom_site_fract_z
Si Si1 0.079679 0.066110 0.548119
Si Si2 0.137124 0.567279 0.096825
Si Si3 0.062670 0.754722 0.204775
Si Si4 0.321039 0.646162 0.748722
Si Si5 0.500000 0.100587 0.000000
Si Si6 0.848382 0.357499 0.332308
Si Si7 0.878603 0.824729 0.989357
O O1 0.228593 0.112348 0.462980
O O2 0.000000 0.064272 0.500000
O O3 0.937725 0.089103 0.685563
O O4 0.133721 0.000000 0.537947
O O5 0.177011 0.500000 0.098220
O O6 0.289478 0.613201 0.015312
O O7 0.056048 0.566701 0.050417
O O8 0.994566 0.596554 0.230561
O O9 0.083612 0.798937 0.268009
O O10 0.230979 0.718869 0.096449
O O11 0.929824 0.705686 0.300506
O O12 0.037213 0.793482 0.135673
O O13 0.260638 0.651807 0.689359
O O14 0.156830 0.639144 0.890817
O O15 0.000000 0.831599 0.000000
#
# Coordination Sequence:
#
# PCOD9179320 Si02
#       7
#     8   8   8   8   4   8   8
#     4   9  18  33  50  71 100 131 164 205 256 303
#     4  10  19  31  49  73  99 133 172 209 255 304
#     4  10  19  32  49  74  99 133 171 210 251 304
#     4  10  19  31  50  75 102 132 165 205 257 302
#     4  10  19  32  48  78 106 130 161 210 258 306
#     4   9  19  32  50  72  98 133 169 209 253 299
#     4  10  20  32  49  71 104 139 169 206 258 305
#
# _framework density 17.210777
#
# number of rings (size 3 to 8) (size 9 to 14) (size 15 to 20)
#    0.000    2.308    1.538    1.615    3.231    5.231 
#    0.000    0.000    0.000    0.000    0.000    0.000 
#    0.000   12.308    0.000    0.000    0.000    0.000 
#
# Total GULP energy -144821.285158 kJ/mol
# GULP energy per Si atom -5570.049429 kJ/mol
# Density = 1.717160 g / cm^3
# Si number density = 17.210777 Si / 1000 Ang^3
#
#
#
# Elastic Constant Matrix: (Units=GPa)
#
#
# Indices 1 2 3 4 5 6 
#
# 1 62.9802 48.3351 16.8474 0.0001 -12.8076 -0.0001
# 2 48.3351 135.8418 34.7590 -0.0001 -7.7114 0.0000
# 3 16.8474 34.7590 58.1544 -0.0001 -17.5145 0.0000
# 4 0.0001 -0.0001 -0.0001 -27.0792 0.0000 2.1840
# 5 -12.8076 -7.7114 -17.5145 0.0000 10.6136 0.0001
# 6 -0.0001 0.0000 0.0000 2.1840 0.0001 15.3537
#
#
#
# Elastic Compliance Matrix: (Units=1/GPa)
#
#
# Indices 1 2 3 4 5 6 
#
# 1 0.032070 -0.011925 0.013683 0.000000 0.052615 0.000000
# 2 -0.011925 0.013234 -0.011716 0.000000 -0.024110 0.000000
# 3 0.013683 -0.011716 0.045017 0.000000 0.082286 0.000000
# 4 0.000000 0.000000 0.000000 -0.036510 0.000000 0.005193
# 5 0.052615 -0.024110 0.082286 0.000000 0.275982 -0.000001
# 6 0.000000 0.000000 0.000000 0.005193 -0.000001 0.064392
#
#
# Mechanical properties :
#
#
# Convention : Reuss Voigt Hill
#
# Bulk Modulus (GPa) = 14.20383 50.76217 32.48300
# Shear Modulus (GPa) = 11.42674 10.24661 10.83667
#
# Velocity S-wave (km/s) = 2.57948 2.44265 2.51199
# Velocity P-wave (km/s) = 4.14034 6.12485 5.22763
#
# Compressibility (1/GPa) = 0.07040357
#
# Stress axis : x y z
#
# Youngs Moduli (GPa) = 31.18213 75.56219 22.21393
#
# Poissons Ratio (x) = 0.90111 -0.30396
# Poissons Ratio (y) = 0.37186 0.26027
# Poissons Ratio (z) = -0.42668 0.88532
#
# Static dielectric constant tensor:
#      x y z
#    x 1.580400 0.000000 -0.005120 
#    y 0.000000 1.607120 0.000000 
#    z -0.005120 0.000000 1.610930 
# 
# From -- ./inp_files/207611.got.cif
#   From: 2010.05.17/outbox.cif.g08.bks.cpg/sg12_104_cif.got.tgz:207611.got - 2010.06.03 13:09:07.
