data_PCOD9179606
_publ_section_title
;
Structure prediction by ZEFSAII (Michael W. Deem and Ramdas Pophale) SiO2 
 PCOD9179606
Probable space group: C 2/M
;
_chemical_formula_sum "Si O2"
_cell_formula_units_Z 64
_cell_length_a 32.512452
_cell_length_b 12.429618
_cell_length_c 17.771034
_cell_angle_alpha 90.000000
_cell_angle_beta 148.658821
_cell_angle_gamma 90.000000
_cell_volume 3735.379087
_symmetry_space_group_name_H-M "C 2/M"
_symmetry_group_IT_number 12
_symmetry_cell_setting 'monoclinic'
loop_
_space_group_symop_operation_xyz
x,y,z
-x,y,-z
-x,-y,-z
x,-y,z
1/2+x,1/2+y,z
1/2-x,1/2+y,-z
1/2-x,1/2-y,-z
1/2+x,1/2-y,z
loop_
_atom_site_type_symbol
_atom_site_label
_atom_site_fract_x
_atom_site_fract_y
_atom_site_fract_z
Si Si1 0.097850 0.208366 0.958253
Si Si2 0.905598 0.629125 0.455094
Si Si3 0.848356 0.713316 0.212466
Si Si4 0.529145 0.373575 0.127643
Si Si5 0.217992 0.130551 0.419379
Si Si6 0.737757 0.375679 0.271867
Si Si7 0.678859 0.379138 0.945673
Si Si8 0.938621 0.622877 0.217621
O O1 0.117761 0.130733 0.918729
O O2 0.089216 0.319564 0.900949
O O3 0.019481 0.182148 0.882137
O O4 0.171081 0.197348 0.129587
O O5 0.047054 0.500000 0.776318
O O6 0.898660 0.687854 0.364415
O O7 0.823903 0.645160 0.372079
O O8 0.979706 0.667758 0.619938
O O9 0.854726 0.829549 0.183738
O O10 0.875503 0.637476 0.185942
O O11 0.756856 0.689548 0.088124
O O12 0.508126 0.500000 0.097985
O O13 0.623249 0.363655 0.281591
O O14 0.500000 0.334076 0.000000
O O15 0.250000 0.250000 0.500000
O O16 0.237554 0.133428 0.361226
O O17 0.239096 0.000000 0.475336
O O18 0.716764 0.500000 0.220101
O O19 0.704797 0.500000 0.976800
O O20 0.914259 0.500000 0.454606
#
# Coordination Sequence:
#
# PCOD9179606 Si02
#       8
#     8   8   8   8   8   8   8   8
#     4  11  20  33  55  81 107 138 177 228 270 318
#     4  10  19  33  54  77 105 138 180 226 266 318
#     4  10  19  31  52  76 101 139 181 223 264 315
#     4  10  19  34  58  84 107 137 182 230 268 313
#     4  10  22  39  61  87 116 148 183 227 278 333
#     4  10  19  34  58  82 104 140 185 225 265 316
#     4  10  19  31  50  77 106 137 175 220 269 316
#     4  10  22  35  50  78 110 141 176 223 277 323
#
# _framework density 17.133468000000001
#
# number of rings (size 3 to 8) (size 9 to 14) (size 15 to 20)
#    0.000    1.875    2.500    2.625    1.750    1.000 
#    0.000    0.625    0.000    9.000    0.000    0.000 
#    0.000    0.000    0.000    0.000    0.000    0.000 
#
# Total GULP energy -178144.954964 kJ/mol
# GULP energy per Si atom -5567.029843 kJ/mol
# Density = 1.709447 g / cm^3
# Si number density = 17.133468 Si / 1000 Ang^3
#
#
#
# Elastic Constant Matrix: (Units=GPa)
#
#
# Indices 1 2 3 4 5 6 
#
# 1 107.1950 30.1006 25.7638 0.0000 1.5987 0.0000
# 2 30.1006 54.2576 24.3481 0.0000 -10.9796 0.0000
# 3 25.7638 24.3481 59.2848 0.0000 -2.3478 0.0000
# 4 0.0000 0.0000 0.0000 26.8060 0.0000 -3.5542
# 5 1.5987 -10.9796 -2.3478 0.0000 20.7870 0.0000
# 6 0.0000 0.0000 0.0000 -3.5542 0.0000 2.2160
#
#
#
# Elastic Compliance Matrix: (Units=1/GPa)
#
#
# Indices 1 2 3 4 5 6 
#
# 1 0.011806 -0.006227 -0.002752 0.000000 -0.004508 0.000000
# 2 -0.006227 0.028658 -0.008483 0.000000 0.014658 0.000000
# 3 -0.002752 -0.008483 0.021475 0.000000 -0.001844 0.000000
# 4 0.000000 0.000000 0.000000 0.047381 0.000000 0.075996
# 5 -0.004508 0.014658 -0.001844 0.000000 0.055988 0.000000
# 6 0.000000 0.000000 0.000000 0.075996 0.000000 0.573165
#
#
# Mechanical properties :
#
#
# Convention : Reuss Voigt Hill
#
# Bulk Modulus (GPa) = 37.01671 42.35137 39.68404
# Shear Modulus (GPa) = 6.39058 19.33012 12.86035
#
# Velocity S-wave (km/s) = 1.93339 3.36253 2.74268
# Velocity P-wave (km/s) = 5.16099 6.31250 5.76556
#
# Compressibility (1/GPa) = 0.02701483
#
# Stress axis : x y z
#
# Youngs Moduli (GPa) = 84.70329 34.89406 46.56660
#
# Poissons Ratio (x) = 0.21728 0.12814
# Poissons Ratio (y) = 0.52744 0.39504
# Poissons Ratio (z) = 0.23308 0.29602
#
# Static dielectric constant tensor:
#      x y z
#    x 1.582770 0.000000 0.015690 
#    y 0.000000 1.613740 0.000000 
#    z 0.015690 0.000000 1.603560 
# 
# From -- ./inp_files/296516.got.cif
#   From: 2010.05.17/outbox.cif.g08.bks.cpg/sg12_149_cif.got.tgz:296516.got - 2010.06.03 13:09:07.
