data_PCOD9179587
_publ_section_title
;
Structure prediction by ZEFSAII (Michael W. Deem and Ramdas Pophale) SiO2 
 PCOD9179587
Probable space group: C 2/M
;
_chemical_formula_sum "Si O2"
_cell_formula_units_Z 56
_cell_length_a 25.459887
_cell_length_b 14.924103
_cell_length_c 12.307425
_cell_angle_alpha 90.000000
_cell_angle_beta 37.092846
_cell_angle_gamma 90.000000
_cell_volume 2820.377763
_symmetry_space_group_name_H-M "C 2/M"
_symmetry_group_IT_number 12
_symmetry_cell_setting 'monoclinic'
loop_
_space_group_symop_operation_xyz
x,y,z
-x,y,-z
-x,-y,-z
x,-y,z
1/2+x,1/2+y,z
1/2-x,1/2+y,-z
1/2-x,1/2-y,-z
1/2+x,1/2-y,z
loop_
_atom_site_type_symbol
_atom_site_label
_atom_site_fract_x
_atom_site_fract_y
_atom_site_fract_z
Si Si1 0.725922 0.894662 0.638390
Si Si2 0.080590 0.605557 0.052581
Si Si3 0.614003 0.102234 0.611851
Si Si4 0.766321 0.169084 0.055760
Si Si5 0.895749 0.897689 0.673848
Si Si6 0.317065 0.261231 0.627248
Si Si7 0.419214 0.105329 0.703413
O O1 0.688494 0.887319 0.579181
O O2 0.798273 0.823868 0.554597
O O3 0.749133 0.000000 0.616822
O O4 0.648858 0.867953 0.849147
O O5 0.099249 0.500000 0.035199
O O6 0.087113 0.644788 0.163754
O O7 0.981166 0.613037 0.178895
O O8 0.623589 0.179043 0.507814
O O9 0.617682 0.000000 0.561933
O O10 0.764445 0.211119 0.179029
O O11 0.675845 0.114108 0.193356
O O12 0.750000 0.250000 0.000000
O O13 0.850080 0.120429 0.866402
O O14 0.857247 0.827031 0.651449
O O15 0.000000 0.889791 0.500000
O O16 0.872441 0.000000 0.681036
O O17 0.500000 0.143836 0.500000
O O18 0.438657 0.000000 0.683777
#
# Coordination Sequence:
#
# PCOD9179587 Si02
#       7
#     8   8   8   8   8   8   8
#     4  10  20  36  56  77 105 141 183 227 271 323
#     4   9  17  31  52  76 104 139 175 213 264 325
#     4  10  21  35  53  80 110 140 176 223 277 328
#     4  10  21  33  50  78 109 141 178 220 266 320
#     4  10  22  40  59  80 110 149 191 230 268 320
#     4  11  22  35  56  81 108 142 180 226 278 329
#     4  10  19  31  50  76 107 140 170 206 259 323
#
# _framework density 19.855497
#
# number of rings (size 3 to 8) (size 9 to 14) (size 15 to 20)
#    0.000    2.000    0.000    4.286    0.000   10.857 
#    0.000    0.000    0.000    0.429    0.000    0.000 
#    0.000   12.571    0.000    0.000    0.000    0.000 
#
# Total GULP energy -156055.853022 kJ/mol
# GULP energy per Si atom -5573.423322 kJ/mol
# Density = 1.981030 g / cm^3
# Si number density = 19.855497 Si / 1000 Ang^3
#
#
#
# Elastic Constant Matrix: (Units=GPa)
#
#
# Indices 1 2 3 4 5 6 
#
# 1 50.7533 23.1227 -4.9555 0.0000 -0.5498 0.0000
# 2 23.1227 92.7625 28.3156 0.0000 2.8157 0.0000
# 3 -4.9555 28.3156 74.7184 0.0000 -8.6991 0.0000
# 4 0.0000 0.0000 0.0000 25.5891 0.0000 -0.1191
# 5 -0.5498 2.8157 -8.6991 0.0000 19.8257 0.0000
# 6 0.0000 0.0000 0.0000 -0.1191 0.0000 12.0752
#
#
#
# Elastic Compliance Matrix: (Units=1/GPa)
#
#
# Indices 1 2 3 4 5 6 
#
# 1 0.023630 -0.007489 0.004853 0.000000 0.003848 0.000000
# 2 -0.007489 0.014866 -0.006745 0.000000 -0.005279 0.000000
# 3 0.004853 -0.006745 0.017271 0.000000 0.008671 0.000000
# 4 0.000000 0.000000 0.000000 0.039081 0.000000 0.000386
# 5 0.003848 -0.005279 0.008671 0.000000 0.055101 0.000000
# 6 0.000000 0.000000 0.000000 0.000386 0.000000 0.082818
#
#
# Mechanical properties :
#
#
# Convention : Reuss Voigt Hill
#
# Bulk Modulus (GPa) = 27.02197 34.57774 30.79986
# Shear Modulus (GPa) = 18.94921 22.94809 20.94865
#
# Velocity S-wave (km/s) = 3.09262 3.40333 3.25169
# Velocity P-wave (km/s) = 5.13724 5.73550 5.44460
#
# Compressibility (1/GPa) = 0.03700692
#
# Stress axis : x y z
#
# Youngs Moduli (GPa) = 42.31833 67.26779 57.90045
#
# Poissons Ratio (x) = 0.50374 -0.28100
# Poissons Ratio (y) = 0.31690 0.39053
# Poissons Ratio (z) = -0.20538 0.45371
#
# Static dielectric constant tensor:
#      x y z
#    x 1.735020 0.000000 0.006960 
#    y 0.000000 1.738880 0.000000 
#    z 0.006960 0.000000 1.743900 
# 
# From -- ./inp_files/183461.got.cif
#   From: 2010.05.17/outbox.cif.g08.bks.cpg/sg12_92_cif.got.tgz:183461.got - 2010.06.03 13:09:07.
