data_PCOD9179368
_publ_section_title
;
Structure prediction by ZEFSAII (Michael W. Deem and Ramdas Pophale) SiO2 
 PCOD9179368
Probable space group: C 2/M
;
_chemical_formula_sum "Si O2"
_cell_formula_units_Z 40
_cell_length_a 13.916799
_cell_length_b 22.334834
_cell_length_c 5.308986
_cell_angle_alpha 90.000000
_cell_angle_beta 87.421362
_cell_angle_gamma 90.000000
_cell_volume 1648.517950
_symmetry_space_group_name_H-M "C 2/M"
_symmetry_group_IT_number 12
_symmetry_cell_setting 'monoclinic'
loop_
_space_group_symop_operation_xyz
x,y,z
-x,y,-z
-x,-y,-z
x,-y,z
1/2+x,1/2+y,z
1/2-x,1/2+y,-z
1/2-x,1/2-y,-z
1/2+x,1/2-y,z
loop_
_atom_site_type_symbol
_atom_site_label
_atom_site_fract_x
_atom_site_fract_y
_atom_site_fract_z
Si Si1 0.399567 0.110706 0.080929
Si Si2 0.374973 0.763038 0.239370
Si Si3 0.114311 0.432744 0.418607
Si Si4 0.565984 0.566717 0.242222
Si Si5 0.347311 0.305436 0.742014
O O1 0.428752 0.174353 0.196831
O O2 0.342828 0.078688 0.310076
O O3 0.500000 0.077849 0.000000
O O4 0.352892 0.111861 0.808392
O O5 0.391291 0.726152 0.490130
O O6 0.264692 0.787169 0.251339
O O7 0.388419 0.722815 0.992570
O O8 0.134971 0.500000 0.331240
O O9 0.000000 0.427360 0.500000
O O10 0.500000 0.568314 0.500000
O O11 0.610929 0.500000 0.225236
O O12 0.634086 0.624181 0.253359
O O13 0.500000 0.572987 0.000000
#
# Coordination Sequence:
#
# PCOD9179368 Si02
#       5
#     8   8   8   8   8
#     4  10  19  31  49  75 104 133 176 227 263 311
#     4  10  21  36  56  80 112 150 185 223 278 345
#     4   9  17  30  47  67  97 136 171 209 259 304
#     4  10  21  38  61  88 116 148 192 246 298 349
#     4  10  21  38  57  79 111 149 182 224 284 348
#
# _framework density 24.264219000000001
#
# number of rings (size 3 to 8) (size 9 to 14) (size 15 to 20)
#    0.000    2.200    0.000    3.000    0.000    4.800 
#    0.000    2.000    0.000    2.400    0.000    0.000 
#    0.000    0.000    0.000    0.000    0.000    0.400 
#
# Total GULP energy -111711.212823 kJ/mol
# GULP energy per Si atom -5585.560641 kJ/mol
# Density = 2.420899 g / cm^3
# Si number density = 24.264219 Si / 1000 Ang^3
#
#
#
# Elastic Constant Matrix: (Units=GPa)
#
#
# Indices 1 2 3 4 5 6 
#
# 1 63.1815 31.4262 16.3585 0.0000 5.7825 0.0000
# 2 31.4262 195.7323 71.6639 0.0000 0.1037 0.0000
# 3 16.3585 71.6639 230.7606 0.0000 8.7282 0.0000
# 4 0.0000 0.0000 0.0000 44.0129 0.0000 2.2909
# 5 5.7825 0.1037 8.7282 0.0000 -20.7648 0.0000
# 6 0.0000 0.0000 0.0000 2.2909 0.0000 19.1376
#
#
#
# Elastic Compliance Matrix: (Units=1/GPa)
#
#
# Indices 1 2 3 4 5 6 
#
# 1 0.016811 -0.002487 -0.000587 0.000000 0.004423 0.000000
# 2 -0.002487 0.006122 -0.001673 0.000000 -0.001365 0.000000
# 3 -0.000587 -0.001673 0.004824 0.000000 0.001856 0.000000
# 4 0.000000 0.000000 0.000000 0.022863 0.000000 -0.002737
# 5 0.004423 -0.001365 0.001856 0.000000 -0.046153 0.000000
# 6 0.000000 0.000000 0.000000 -0.002737 0.000000 0.052581
#
#
# Mechanical properties :
#
#
# Convention : Reuss Voigt Hill
#
# Bulk Modulus (GPa) = 54.75173 80.95241 67.85207
# Shear Modulus (GPa) = 68.84261 33.15885 51.00073
#
# Velocity S-wave (km/s) = 5.33232 3.70073 4.58961
# Velocity P-wave (km/s) = 7.77980 7.18998 7.49070
#
# Compressibility (1/GPa) = 0.01826426
#
# Stress axis : x y z
#
# Youngs Moduli (GPa) = 59.48316 163.35583 207.27543
#
# Poissons Ratio (x) = 0.40622 0.12162
# Poissons Ratio (y) = 0.14792 0.34681
# Poissons Ratio (z) = 0.03490 0.27332
#
# Static dielectric constant tensor:
#      x y z
#    x 1.995950 0.000000 0.039710 
#    y 0.000000 1.921220 0.000000 
#    z 0.039710 0.000000 2.006420 
# 
# From -- ./inp_files/20170.got.cif
#   From: 2010.05.17/outbox.cif.g08.bks.cpg/sg12_11_cif.got.tgz:20170.got - 2010.06.03 13:09:07.
