data_PCOD9179131
_publ_section_title
;
Structure prediction by ZEFSAII (Michael W. Deem and Ramdas Pophale) SiO2 
 PCOD9179131
Probable space group: C 2/M
;
_chemical_formula_sum "Si O2"
_cell_formula_units_Z 50
_cell_length_a 13.645303
_cell_length_b 18.570168
_cell_length_c 8.129575
_cell_angle_alpha 90.000000
_cell_angle_beta 87.547088
_cell_angle_gamma 90.000000
_cell_volume 2058.110774
_symmetry_space_group_name_H-M "C 2/M"
_symmetry_group_IT_number 12
_symmetry_cell_setting 'monoclinic'
loop_
_space_group_symop_operation_xyz
x,y,z
-x,y,-z
-x,-y,-z
x,-y,z
1/2+x,1/2+y,z
1/2-x,1/2+y,-z
1/2-x,1/2-y,-z
1/2+x,1/2-y,z
loop_
_atom_site_type_symbol
_atom_site_label
_atom_site_fract_x
_atom_site_fract_y
_atom_site_fract_z
Si Si1 0.601478 0.916119 0.840308
Si Si2 0.738870 0.919291 0.502781
Si Si3 0.927593 0.350161 0.662684
Si Si4 0.500000 0.500000 0.000000
Si Si5 0.882069 0.185965 0.653976
Si Si6 0.951840 0.144886 0.164712
Si Si7 0.731521 0.334181 0.007228
O O1 0.669582 0.915638 0.670915
O O2 0.502612 0.872737 0.801927
O O3 0.669611 0.878168 0.971568
O O4 0.582452 0.000000 0.877268
O O5 0.660137 0.905741 0.364456
O O6 0.821083 0.857635 0.522224
O O7 0.781261 0.000000 0.489275
O O8 0.874712 0.272199 0.663335
O O9 0.000000 0.349605 0.500000
O O10 0.516628 0.563112 0.861932
O O11 0.834154 0.153266 0.825041
O O12 0.998185 0.174790 0.676820
O O13 0.836603 0.147328 0.141925
O O14 0.000000 0.185453 0.000000
O O15 0.750000 0.250000 0.000000
#
# Coordination Sequence:
#
# PCOD9179131 Si02
#       7
#     8   8   8   2   8   8   8
#     4   9  18  30  51  73  95 124 163 202 237 271
#     4   9  18  30  50  74  95 119 163 206 236 271
#     4  10  19  33  49  73  98 124 158 200 240 280
#     4   8  16  28  48  72  98 114 160 208 234 256
#     4  10  19  31  50  74  95 129 157 191 244 285
#     4   8  17  27  46  71  97 117 153 196 237 267
#     4  10  19  31  48  74 100 125 155 194 237 285
#
# _framework density 24.294122999999999
#
# number of rings (size 3 to 8) (size 9 to 14) (size 15 to 20)
#    0.480    2.240    0.000    1.920    2.240    1.920 
#    0.000    0.000    0.000    3.360    4.160    0.000 
#    0.000    0.000    0.000    0.000    0.000    0.000 
#
# Total GULP energy -139271.251809 kJ/mol
# GULP energy per Si atom -5570.850072 kJ/mol
# Density = 2.423883 g / cm^3
# Si number density = 24.294123 Si / 1000 Ang^3
#
#
#
# Elastic Constant Matrix: (Units=GPa)
#
#
# Indices 1 2 3 4 5 6 
#
# 1 121.9069 28.5276 52.6584 0.0000 20.5616 0.0000
# 2 28.5276 153.2532 37.8515 0.0000 45.3868 0.0000
# 3 52.6584 37.8515 136.6482 0.0000 49.7081 0.0000
# 4 0.0000 0.0000 0.0000 24.1586 0.0000 9.6057
# 5 20.5616 45.3868 49.7081 0.0000 54.1587 0.0000
# 6 0.0000 0.0000 0.0000 9.6057 0.0000 11.7387
#
#
#
# Elastic Compliance Matrix: (Units=1/GPa)
#
#
# Indices 1 2 3 4 5 6 
#
# 1 0.009984 -0.001103 -0.003752 0.000000 0.000577 0.000000
# 2 -0.001103 0.008813 0.000778 0.000000 -0.007681 0.000000
# 3 -0.003752 0.000778 0.012411 0.000000 -0.010619 0.000000
# 4 0.000000 0.000000 0.000000 0.061356 0.000000 -0.050207
# 5 0.000577 -0.007681 -0.010619 0.000000 0.034428 0.000000
# 6 0.000000 0.000000 0.000000 -0.050207 0.000000 0.126273
#
#
# Mechanical properties :
#
#
# Convention : Reuss Voigt Hill
#
# Bulk Modulus (GPa) = 43.37563 72.20925 57.79244
# Shear Modulus (GPa) = 18.58014 37.52925 28.05470
#
# Velocity S-wave (km/s) = 2.76850 3.93464 3.40191
# Velocity P-wave (km/s) = 5.30213 7.10136 6.26666
#
# Compressibility (1/GPa) = 0.02305442
#
# Stress axis : x y z
#
# Youngs Moduli (GPa) = 100.15604 113.46801 80.57236
#
# Poissons Ratio (x) = 0.12514 0.30232
# Poissons Ratio (y) = 0.11046 -0.06267
# Poissons Ratio (z) = 0.37580 -0.08826
#
# Static dielectric constant tensor:
#      x y z
#    x 2.014250 0.000000 -0.043550 
#    y 0.000000 1.935410 0.000000 
#    z -0.043550 0.000000 1.994320 
# 
# From -- ./inp_files/145723.got.cif
#   From: 2010.05.17/outbox.cif.g08.bks.cpg/sg12_73_cif.got.tgz:145723.got - 2010.06.03 13:09:07.
