data_PCOD9179375
_publ_section_title
;
Structure prediction by ZEFSAII (Michael W. Deem and Ramdas Pophale) SiO2 
 PCOD9179375
Probable space group: C 2/M
;
_chemical_formula_sum "Si O2"
_cell_formula_units_Z 56
_cell_length_a 25.822739
_cell_length_b 8.672806
_cell_length_c 17.278837
_cell_angle_alpha 90.000000
_cell_angle_beta 120.229944
_cell_angle_gamma 90.000000
_cell_volume 3343.459882
_symmetry_space_group_name_H-M "C 2/M"
_symmetry_group_IT_number 12
_symmetry_cell_setting 'monoclinic'
loop_
_space_group_symop_operation_xyz
x,y,z
-x,y,-z
-x,-y,-z
x,-y,z
1/2+x,1/2+y,z
1/2-x,1/2+y,-z
1/2-x,1/2-y,-z
1/2+x,1/2-y,z
loop_
_atom_site_type_symbol
_atom_site_label
_atom_site_fract_x
_atom_site_fract_y
_atom_site_fract_z
Si Si1 0.369770 0.685821 0.609152
Si Si2 0.490108 0.685730 0.280060
Si Si3 0.695015 0.814000 0.288337
Si Si4 0.444094 0.815576 0.404294
Si Si5 0.169640 0.186338 0.592520
Si Si6 0.028132 0.814911 0.907790
Si Si7 0.910100 0.685276 0.902319
O O1 0.367324 0.500000 0.613017
O O2 0.439698 0.731591 0.664903
O O3 0.333679 0.755236 0.653461
O O4 0.342903 0.732057 0.506001
O O5 0.487905 0.500000 0.285735
O O6 0.456300 0.758736 0.326807
O O7 0.464778 0.727741 0.176591
O O8 0.763777 0.762848 0.333438
O O9 0.651378 0.766709 0.185438
O O10 0.694931 0.000000 0.290496
O O11 0.500000 0.762327 0.500000
O O12 0.382926 0.751477 0.393910
O O13 0.442819 0.000000 0.405152
O O14 0.167062 0.000000 0.593676
O O15 0.965308 0.746981 0.891924
O O16 0.025042 0.000000 0.911186
O O17 0.078386 0.752079 0.003792
O O18 0.913319 0.500000 0.907493
#
# Coordination Sequence:
#
# PCOD9179375 Si02
#       7
#     8   8   8   8   8   8   8
#     4  10  19  32  52  77 105 140 175 207 252 306
#     4  10  20  34  54  78 104 137 173 211 257 306
#     4  10  21  34  51  77 108 141 173 210 256 306
#     4  11  23  36  53  78 104 134 174 219 260 298
#     4  10  21  37  54  73 103 143 180 210 250 307
#     4  10  19  32  51  76 103 133 173 212 252 304
#     4  10  19  31  49  75 107 137 167 207 260 307
#
# _framework density 16.749117999999999
#
# number of rings (size 3 to 8) (size 9 to 14) (size 15 to 20)
#    0.000    1.857    2.857    2.571    0.000    4.000 
#    0.000    0.000    0.000    0.857    0.000    0.000 
#    0.000    0.000    0.000    0.000    0.000    0.000 
#
# Total GULP energy -156306.340928 kJ/mol
# GULP energy per Si atom -5582.369319 kJ/mol
# Density = 1.671100 g / cm^3
# Si number density = 16.749118 Si / 1000 Ang^3
#
#
#
# Elastic Constant Matrix: (Units=GPa)
#
#
# Indices 1 2 3 4 5 6 
#
# 1 123.1098 26.8492 96.3489 0.0000 11.9941 0.0000
# 2 26.8492 24.6229 42.1846 0.0000 0.4653 0.0000
# 3 96.3489 42.1846 178.4562 0.0000 -1.6971 0.0000
# 4 0.0000 0.0000 0.0000 18.2465 0.0000 -2.0794
# 5 11.9941 0.4653 -1.6971 0.0000 22.9242 0.0000
# 6 0.0000 0.0000 0.0000 -2.0794 0.0000 23.2515
#
#
#
# Elastic Compliance Matrix: (Units=1/GPa)
#
#
# Indices 1 2 3 4 5 6 
#
# 1 0.015889 -0.003897 -0.007741 0.000000 -0.008807 0.000000
# 2 -0.003897 0.069363 -0.014297 0.000000 -0.000427 0.000000
# 3 -0.007741 -0.014297 0.013213 0.000000 0.005319 0.000000
# 4 0.000000 0.000000 0.000000 0.055369 0.000000 0.004952
# 5 -0.008807 -0.000427 0.005319 0.000000 0.048633 0.000000
# 6 0.000000 0.000000 0.000000 0.004952 0.000000 0.043451
#
#
# Mechanical properties :
#
#
# Convention : Reuss Voigt Hill
#
# Bulk Modulus (GPa) = 21.46098 72.99491 47.22794
# Shear Modulus (GPa) = 15.95810 23.60484 19.78147
#
# Velocity S-wave (km/s) = 3.09005 3.75816 3.44036
# Velocity P-wave (km/s) = 5.05690 7.90618 6.63626
#
# Compressibility (1/GPa) = 0.04659620
#
# Stress axis : x y z
#
# Youngs Moduli (GPa) = 62.93555 14.41682 75.68176
#
# Poissons Ratio (x) = 0.05618 0.58587
# Poissons Ratio (y) = 0.24526 1.08199
# Poissons Ratio (z) = 0.48720 0.20611
#
# Static dielectric constant tensor:
#      x y z
#    x 1.523730 0.000000 0.013430 
#    y 0.000000 1.566980 0.000000 
#    z 0.013430 0.000000 1.580740 
# 
# From -- ./inp_files/287853.got.cif
#   From: 2010.05.17/outbox.cif.g08.bks.cpg/sg12_144_cif.got.tgz:287853.got - 2010.06.03 13:09:07.
