data_PCOD9179712
_publ_section_title
;
Structure prediction by ZEFSAII (Michael W. Deem and Ramdas Pophale) SiO2 
 PCOD9179712
Probable space group: C 2/M
;
_chemical_formula_sum "Si O2"
_cell_formula_units_Z 58
_cell_length_a 30.657360
_cell_length_b 7.996158
_cell_length_c 12.250094
_cell_angle_alpha 90.000000
_cell_angle_beta 91.581015
_cell_angle_gamma 90.000000
_cell_volume 3001.858243
_symmetry_space_group_name_H-M "C 2/M"
_symmetry_group_IT_number 12
_symmetry_cell_setting 'monoclinic'
loop_
_space_group_symop_operation_xyz
x,y,z
-x,y,-z
-x,-y,-z
x,-y,z
1/2+x,1/2+y,z
1/2-x,1/2+y,-z
1/2-x,1/2-y,-z
1/2+x,1/2-y,z
loop_
_atom_site_type_symbol
_atom_site_label
_atom_site_fract_x
_atom_site_fract_y
_atom_site_fract_z
Si Si1 0.298868 0.694467 0.981067
Si Si2 0.117391 0.803278 0.886305
Si Si3 0.500000 0.500000 0.000000
Si Si4 0.590270 0.805542 0.657330
Si Si5 0.503938 0.690029 0.368416
Si Si6 0.442248 0.808205 0.936321
Si Si7 0.146084 0.698387 0.210169
Si Si8 0.400961 0.200945 0.589270
O O1 0.299542 0.500000 0.004206
O O2 0.337224 0.765763 0.061550
O O3 0.250000 0.750000 0.000000
O O4 0.315616 0.724856 0.859339
O O5 0.114485 0.785382 0.756933
O O6 0.077756 0.708273 0.942573
O O7 0.111589 0.000000 0.915238
O O8 0.475026 0.652555 0.928420
O O9 0.538264 0.788789 0.674024
O O10 0.599494 0.737101 0.535745
O O11 0.602175 0.000000 0.660507
O O12 0.500000 0.690819 0.500000
O O13 0.500309 0.500000 0.329512
O O14 0.552046 0.759963 0.353639
O O15 0.457914 0.000000 0.918319
O O16 0.399192 0.779662 0.859374
O O17 0.154288 0.500000 0.216392
O O18 0.136280 0.763110 0.331132
O O19 0.398039 0.000000 0.583433
#
# Coordination Sequence:
#
# PCOD9179712 Si02
#       8
#     8   8   2   8   8   8   8   8
#     4  10  21  37  62  88 109 134 170 222 283 348
#     4  10  20  37  56  79 111 142 181 233 283 334
#     4  12  22  36  52  78 118 152 194 240 280 344
#     4  10  19  31  51  76 107 147 188 229 276 327
#     4   9  17  29  44  66  98 139 190 236 267 305
#     4  10  21  37  55  76 106 152 194 234 287 336
#     4   9  19  36  57  79 109 142 182 231 282 338
#     4   9  18  33  51  75 106 145 187 230 276 322
#
# _framework density 19.321365
#
# number of rings (size 3 to 8) (size 9 to 14) (size 15 to 20)
#    0.000    2.345    0.690    1.862    0.966    5.517 
#    2.483    2.759    0.000    0.828    0.000    0.000 
#    0.000    0.000    0.000    0.000    0.000    0.000 
#
# Total GULP energy -161445.237891 kJ/mol
# GULP energy per Si atom -5567.077169 kJ/mol
# Density = 1.927739 g / cm^3
# Si number density = 19.321365 Si / 1000 Ang^3
#
#
#
# Elastic Constant Matrix: (Units=GPa)
#
#
# Indices 1 2 3 4 5 6 
#
# 1 62.7108 7.4061 34.9038 0.0000 -13.7154 0.0000
# 2 7.4061 64.7340 1.8670 0.0000 2.5684 0.0000
# 3 34.9038 1.8670 84.3126 0.0000 -13.3582 0.0000
# 4 0.0000 0.0000 0.0000 18.7212 0.0000 1.0438
# 5 -13.7154 2.5684 -13.3582 0.0000 19.0672 0.0000
# 6 0.0000 0.0000 0.0000 1.0438 0.0000 25.9735
#
#
#
# Elastic Compliance Matrix: (Units=1/GPa)
#
#
# Indices 1 2 3 4 5 6 
#
# 1 0.023091 -0.002883 -0.007651 0.000000 0.011637 0.000000
# 2 -0.002883 0.015934 0.000193 0.000000 -0.004084 0.000000
# 3 -0.007651 0.000193 0.015914 0.000000 0.005619 0.000000
# 4 0.000000 0.000000 0.000000 0.053535 0.000000 -0.002151
# 5 0.011637 -0.004084 0.005619 0.000000 0.065304 0.000000
# 6 0.000000 0.000000 0.000000 -0.002151 0.000000 0.038587
#
#
# Mechanical properties :
#
#
# Convention : Reuss Voigt Hill
#
# Bulk Modulus (GPa) = 29.19082 33.34569 31.26826
# Shear Modulus (GPa) = 20.45271 23.92440 22.18856
#
# Velocity S-wave (km/s) = 3.25707 3.52267 3.39247
# Velocity P-wave (km/s) = 5.41161 5.81735 5.61815
#
# Compressibility (1/GPa) = 0.03425734
#
# Stress axis : x y z
#
# Youngs Moduli (GPa) = 43.30782 62.75844 62.83695
#
# Poissons Ratio (x) = 0.18092 0.48079
# Poissons Ratio (y) = 0.12485 -0.01216
# Poissons Ratio (z) = 0.33137 -0.01214
#
# Static dielectric constant tensor:
#      x y z
#    x 1.702680 0.000000 -0.018850 
#    y 0.000000 1.689380 0.000000 
#    z -0.018850 0.000000 1.747990 
# 
# From -- ./inp_files/186625.got.cif
#   From: 2010.05.17/outbox.cif.g08.bks.cpg/sg12_94_cif.got.tgz:186625.got - 2010.06.03 13:09:07.
