data_PCOD9179889
_publ_section_title
;
Structure prediction by ZEFSAII (Michael W. Deem and Ramdas Pophale) SiO2 
 PCOD9179889
Probable space group: C 2/M
;
_chemical_formula_sum "Si O2"
_cell_formula_units_Z 48
_cell_length_a 22.212112
_cell_length_b 8.013952
_cell_length_c 29.352821
_cell_angle_alpha 90.000000
_cell_angle_beta 148.034860
_cell_angle_gamma 90.000000
_cell_volume 2766.132605
_symmetry_space_group_name_H-M "C 2/M"
_symmetry_group_IT_number 12
_symmetry_cell_setting 'monoclinic'
loop_
_space_group_symop_operation_xyz
x,y,z
-x,y,-z
-x,-y,-z
x,-y,z
1/2+x,1/2+y,z
1/2-x,1/2+y,-z
1/2-x,1/2-y,-z
1/2+x,1/2-y,z
loop_
_atom_site_type_symbol
_atom_site_label
_atom_site_fract_x
_atom_site_fract_y
_atom_site_fract_z
Si Si1 0.431250 0.200026 0.630182
Si Si2 0.628416 0.804677 0.590143
Si Si3 0.790353 0.800439 0.454206
Si Si4 0.173003 0.000000 0.078730
Si Si5 0.569853 0.500000 0.115473
Si Si6 0.684536 0.687385 0.806688
Si Si7 0.288220 0.814141 0.771736
O O1 0.327812 0.248619 0.597271
O O2 0.390238 0.251441 0.553426
O O3 0.549975 0.280926 0.719990
O O4 0.443698 0.000000 0.639265
O O5 0.500000 0.742192 0.500000
O O6 0.691664 0.783513 0.582738
O O7 0.696094 0.711790 0.673086
O O8 0.622042 0.000000 0.598838
O O9 0.790583 0.000000 0.448704
O O10 0.119936 0.000000 0.095923
O O11 0.249577 0.165808 0.124884
O O12 0.065674 0.000000 0.976295
O O13 0.620324 0.665634 0.171126
O O14 0.710700 0.500000 0.839723
O O15 0.725889 0.698312 0.780616
O O16 0.338411 0.000000 0.800610
#
# Coordination Sequence:
#
# PCOD9179889 Si02
#       7
#     8   8   8   4   4   8   8
#     4  10  19  33  50  70 104 138 169 213 258 297
#     4  11  22  34  50  72 103 141 179 210 250 299
#     4  10  21  33  48  72 101 137 177 213 252 296
#     4   9  18  32  52  76 106 132 165 214 257 311
#     4   9  18  34  51  74 106 136 165 210 263 306
#     4  10  19  31  52  78 104 136 170 207 260 304
#     4  10  20  33  51  75 105 139 174 208 252 308
#
# _framework density 17.352747000000001
#
# number of rings (size 3 to 8) (size 9 to 14) (size 15 to 20)
#    0.000    2.000    1.667    2.500    0.000    6.667 
#    0.000    3.333    0.000    0.000    0.000    1.167 
#    0.000    0.000    0.000    0.000    0.000    0.000 
#
# Total GULP energy -133959.965835 kJ/mol
# GULP energy per Si atom -5581.665243 kJ/mol
# Density = 1.731325 g / cm^3
# Si number density = 17.352747 Si / 1000 Ang^3
#
#
#
# Elastic Constant Matrix: (Units=GPa)
#
#
# Indices 1 2 3 4 5 6 
#
# 1 19.0101 19.1895 16.5352 0.0000 2.2507 -0.0004
# 2 19.1895 115.2573 68.2950 -0.0001 10.4062 -0.0010
# 3 16.5352 68.2950 121.0978 0.0000 16.0009 0.0000
# 4 0.0000 -0.0001 0.0000 11.3986 0.0000 -4.0333
# 5 2.2507 10.4062 16.0009 0.0000 19.4916 0.0000
# 6 -0.0004 -0.0010 0.0000 -4.0333 0.0000 18.7210
#
#
#
# Elastic Compliance Matrix: (Units=1/GPa)
#
#
# Indices 1 2 3 4 5 6 
#
# 1 0.064584 -0.008309 -0.004188 0.000001 0.000416 0.000001
# 2 -0.008309 0.014118 -0.006684 0.000000 -0.001092 0.000001
# 3 -0.004188 -0.006684 0.013531 0.000000 -0.007056 0.000000
# 4 0.000001 0.000000 0.000000 0.094969 0.000000 0.020460
# 5 0.000416 -0.001092 -0.007056 0.000000 0.057631 0.000000
# 6 0.000001 0.000001 0.000000 0.020460 0.000000 0.057824
#
#
# Mechanical properties :
#
#
# Convention : Reuss Voigt Hill
#
# Bulk Modulus (GPa) = 18.56197 51.48942 35.02570
# Shear Modulus (GPa) = 13.92847 20.01195 16.97021
#
# Velocity S-wave (km/s) = 2.83621 3.39963 3.13062
# Velocity P-wave (km/s) = 4.63093 6.71912 5.77027
#
# Compressibility (1/GPa) = 0.05387358
#
# Stress axis : x y z
#
# Youngs Moduli (GPa) = 15.48363 70.82912 73.90318
#
# Poissons Ratio (x) = 0.58853 0.30948
# Poissons Ratio (y) = 0.12866 0.49394
# Poissons Ratio (z) = 0.06484 0.47339
#
# Static dielectric constant tensor:
#      x y z
#    x 1.571810 0.000000 0.011540 
#    y 0.000000 1.618420 0.000000 
#    z 0.011540 0.000000 1.560300 
# 
# From -- ./inp_files/345720.got.cif
#   From: 2010.05.17/outbox.cif.g08.bks.cpg/sg12_173_cif.got.tgz:345720.got - 2010.06.03 13:09:07.
