data_PCOD9179504
_publ_section_title
;
Structure prediction by ZEFSAII (Michael W. Deem and Ramdas Pophale) SiO2 
 PCOD9179504
Probable space group: C 2/M
;
_chemical_formula_sum "Si O2"
_cell_formula_units_Z 64
_cell_length_a 35.110576
_cell_length_b 7.348326
_cell_length_c 15.872964
_cell_angle_alpha 90.000000
_cell_angle_beta 43.861093
_cell_angle_gamma 90.000000
_cell_volume 2837.675417
_symmetry_space_group_name_H-M "C 2/M"
_symmetry_group_IT_number 12
_symmetry_cell_setting 'monoclinic'
loop_
_space_group_symop_operation_xyz
x,y,z
-x,y,-z
-x,-y,-z
x,-y,z
1/2+x,1/2+y,z
1/2-x,1/2+y,-z
1/2-x,1/2-y,-z
1/2+x,1/2-y,z
loop_
_atom_site_type_symbol
_atom_site_label
_atom_site_fract_x
_atom_site_fract_y
_atom_site_fract_z
Si Si1 0.044089 0.721707 0.001171
Si Si2 0.256850 0.213324 0.680579
Si Si3 0.008237 0.721915 0.739571
Si Si4 0.632237 0.222640 0.578404
Si Si5 0.271492 0.720761 0.091787
Si Si6 0.040786 0.722850 0.360717
Si Si7 0.653471 0.218806 0.736032
Si Si8 0.837312 0.290810 0.829304
O O1 0.044228 0.500000 0.001801
O O2 0.024196 0.780912 0.124885
O O3 0.104492 0.781741 0.875662
O O4 0.000000 0.775238 0.000000
O O5 0.316352 0.286349 0.559448
O O6 0.230356 0.284480 0.809185
O O7 0.212998 0.230812 0.675941
O O8 0.265688 0.000000 0.682391
O O9 0.007998 0.500000 0.740736
O O10 0.071956 0.778082 0.644294
O O11 0.980693 0.780224 0.696530
O O12 0.642019 0.280176 0.659286
O O13 0.632784 0.000000 0.577199
O O14 0.273904 0.500000 0.084414
O O15 0.214776 0.785258 0.138104
O O16 0.320792 0.785486 0.953975
O O17 0.042012 0.500000 0.357529
O O18 0.102626 0.787969 0.278689
O O19 0.000000 0.777192 0.500000
O O20 0.651157 0.000000 0.738391
O O21 0.840513 0.500000 0.796173
#
# Coordination Sequence:
#
# PCOD9179504 Si02
#       8
#     8   8   8   8   8   8   8   8
#     4   9  15  26  44  70  98 121 152 197 245 288
#     4  10  21  33  48  70  98 132 168 200 237 287
#     4   9  16  26  43  69  98 126 156 196 244 291
#     4   9  17  30  47  68  96 131 165 196 239 293
#     4   9  19  34  50  69  96 133 166 197 239 289
#     4   9  18  28  44  73 104 127 152 197 252 293
#     4  10  19  31  50  74  99 126 161 204 244 284
#     4   9  18  33  52  74 100 125 158 203 246 287
#
# _framework density 22.553671000000001
#
# number of rings (size 3 to 8) (size 9 to 14) (size 15 to 20)
#    0.000    2.750    1.250    0.375    3.500    0.500 
#    0.000    0.000    0.000    0.750    0.000    1.750 
#    0.000    0.000    0.000    0.000    0.000    0.000 
#
# Total GULP energy -178785.047844 kJ/mol
# GULP energy per Si atom -5587.032745 kJ/mol
# Density = 2.250234 g / cm^3
# Si number density = 22.553671 Si / 1000 Ang^3
#
#
#
# Elastic Constant Matrix: (Units=GPa)
#
#
# Indices 1 2 3 4 5 6 
#
# 1 39.8011 -5.9489 7.3442 0.0006 5.3921 -0.0004
# 2 -5.9489 82.2185 -3.0144 0.0020 0.4427 -0.0016
# 3 7.3442 -3.0144 101.2424 -0.0004 -13.4089 0.0000
# 4 0.0006 0.0020 -0.0004 -32.4806 -0.0001 1.0361
# 5 5.3921 0.4427 -13.4089 -0.0001 35.6066 0.0001
# 6 -0.0004 -0.0016 0.0000 1.0361 0.0001 2.9815
#
#
#
# Elastic Compliance Matrix: (Units=1/GPa)
#
#
# Indices 1 2 3 4 5 6 
#
# 1 0.026546 0.001855 -0.002532 0.000001 -0.004997 0.000004
# 2 0.001855 0.012306 0.000184 0.000001 -0.000365 0.000006
# 3 -0.002532 0.000184 0.010648 0.000000 0.004391 0.000000
# 4 0.000001 0.000001 0.000000 -0.030450 0.000000 0.010582
# 5 -0.004997 -0.000365 0.004391 0.000000 0.030499 -0.000002
# 6 0.000004 0.000006 0.000000 0.010582 -0.000002 0.331725
#
#
# Mechanical properties :
#
#
# Convention : Reuss Voigt Hill
#
# Bulk Modulus (GPa) = 20.61340 24.44711 22.53026
# Shear Modulus (GPa) = 12.54915 16.21356 14.38136
#
# Velocity S-wave (km/s) = 2.36140 2.68412 2.52791
# Velocity P-wave (km/s) = 4.07363 4.52427 4.30485
#
# Compressibility (1/GPa) = 0.04851213
#
# Stress axis : x y z
#
# Youngs Moduli (GPa) = 37.66998 81.26374 93.91430
#
# Poissons Ratio (x) = -0.15073 0.23782
# Poissons Ratio (y) = -0.06987 -0.01724
# Poissons Ratio (z) = 0.09539 -0.01491
#
# Static dielectric constant tensor:
#      x y z
#    x 1.782920 0.000000 0.006440 
#    y 0.000000 1.905230 0.000000 
#    z 0.006440 0.000000 1.802220 
# 
# From -- ./inp_files/250808.got.cif
#   From: 2010.05.17/outbox.cif.g08.bks.cpg/sg12_126_cif.got.tgz:250808.got - 2010.06.03 13:09:07.
