data_PCOD9179161
_publ_section_title
;
Structure prediction by ZEFSAII (Michael W. Deem and Ramdas Pophale) SiO2 
 PCOD9179161
Probable space group: C 2/M
;
_chemical_formula_sum "Si O2"
_cell_formula_units_Z 64
_cell_length_a 31.100550
_cell_length_b 8.576977
_cell_length_c 15.528017
_cell_angle_alpha 90.000000
_cell_angle_beta 78.607160
_cell_angle_gamma 90.000000
_cell_volume 4060.462318
_symmetry_space_group_name_H-M "C 2/M"
_symmetry_group_IT_number 12
_symmetry_cell_setting 'monoclinic'
loop_
_space_group_symop_operation_xyz
x,y,z
-x,y,-z
-x,-y,-z
x,-y,z
1/2+x,1/2+y,z
1/2-x,1/2+y,-z
1/2-x,1/2-y,-z
1/2+x,1/2-y,z
loop_
_atom_site_type_symbol
_atom_site_label
_atom_site_fract_x
_atom_site_fract_y
_atom_site_fract_z
Si Si1 0.190224 0.311622 0.882791
Si Si2 0.055050 0.189436 0.063513
Si Si3 0.349624 0.688686 0.924407
Si Si4 0.686868 0.686433 0.582308
Si Si5 0.457919 0.311667 0.130528
Si Si6 0.626518 0.186281 0.751647
Si Si7 0.216338 0.313561 0.393930
Si Si8 0.711258 0.311645 0.208195
O O1 0.189132 0.500000 0.887508
O O2 0.157332 0.260972 0.819597
O O3 0.239733 0.263355 0.840085
O O4 0.174639 0.244924 0.979844
O O5 0.099816 0.242478 0.090120
O O6 0.008526 0.238533 0.122016
O O7 0.054790 0.000000 0.064734
O O8 0.054905 0.234027 0.962562
O O9 0.349561 0.500000 0.925000
O O10 0.323481 0.740194 0.850065
O O11 0.686366 0.500000 0.580736
O O12 0.647659 0.747697 0.656551
O O13 0.733200 0.737943 0.607379
O O14 0.688190 0.749913 0.484791
O O15 0.456152 0.500000 0.135612
O O16 0.422440 0.242372 0.208859
O O17 0.627973 0.000000 0.748293
O O18 0.215439 0.500000 0.395277
O O19 0.202394 0.251984 0.306647
O O20 0.710795 0.500000 0.211771
#
# Coordination Sequence:
#
# PCOD9179161 Si02
#       8
#     8   8   8   8   8   8   8   8
#     4  10  20  31  42  63  98 132 160 195 234 271
#     4   8  15  28  46  68  90 119 160 204 239 273
#     4  10  19  31  49  68  90 126 170 204 232 272
#     4  10  20  33  51  71  93 123 158 194 235 281
#     4   9  16  29  48  66  91 123 158 198 240 283
#     4  11  20  30  46  70  99 127 156 192 235 284
#     4  10  20  33  50  71  94 123 157 196 236 278
#     4  10  20  33  47  66  95 130 164 198 233 275
#
# _framework density 15.761752
#
# number of rings (size 3 to 8) (size 9 to 14) (size 15 to 20)
#    0.000    2.250    2.500    2.250    0.000    2.500 
#    0.000    1.875    0.000    0.000    0.000    0.875 
#    0.000    7.000    0.000    0.000    0.000    0.000 
#
# Total GULP energy -178499.713807 kJ/mol
# GULP energy per Si atom -5578.116056 kJ/mol
# Density = 1.572588 g / cm^3
# Si number density = 15.761752 Si / 1000 Ang^3
#
#
#
# Elastic Constant Matrix: (Units=GPa)
#
#
# Indices 1 2 3 4 5 6 
#
# 1 107.3342 22.2092 82.5313 0.0000 -11.5043 0.0000
# 2 22.2092 15.6540 26.3023 0.0000 -3.4892 0.0000
# 3 82.5313 26.3023 141.2101 0.0000 -12.9652 0.0000
# 4 0.0000 0.0000 0.0000 26.5113 0.0000 -3.8859
# 5 -11.5043 -3.4892 -12.9652 0.0000 24.9372 0.0000
# 6 0.0000 0.0000 0.0000 -3.8859 0.0000 15.3671
#
#
#
# Elastic Compliance Matrix: (Units=1/GPa)
#
#
# Indices 1 2 3 4 5 6 
#
# 1 0.018414 -0.011453 -0.008397 0.000000 0.002527 0.000000
# 2 -0.011453 0.100526 -0.011787 0.000000 0.002654 0.000000
# 3 -0.008397 -0.011787 0.014363 0.000000 0.001945 0.000000
# 4 0.000000 0.000000 0.000000 0.039172 0.000000 0.009905
# 5 0.002527 0.002654 0.001945 0.000000 0.042649 0.000000
# 6 0.000000 0.000000 0.000000 0.009905 0.000000 0.067579
#
#
# Mechanical properties :
#
#
# Convention : Reuss Voigt Hill
#
# Bulk Modulus (GPa) = 14.27958 58.47597 36.37778
# Shear Modulus (GPa) = 13.53842 22.24015 17.88928
#
# Velocity S-wave (km/s) = 2.93395 3.76043 3.37260
# Velocity P-wave (km/s) = 4.53395 7.48565 6.18836
#
# Compressibility (1/GPa) = 0.07003006
#
# Stress axis : x y z
#
# Youngs Moduli (GPa) = 54.30727 9.94764 69.62187
#
# Poissons Ratio (x) = 0.11393 0.58460
# Poissons Ratio (y) = 0.62196 0.82064
# Poissons Ratio (z) = 0.45601 0.11725
#
# Static dielectric constant tensor:
#      x y z
#    x 1.534880 0.000000 0.000730 
#    y 0.000000 1.532290 0.000000 
#    z 0.000730 0.000000 1.497000 
# 
# From -- ./inp_files/248234.got.cif
#   From: 2010.05.17/outbox.cif.g08.bks.cpg/sg12_125_cif.got.tgz:248234.got - 2010.06.03 13:09:07.
