data_PCOD9179095
_publ_section_title
;
Structure prediction by ZEFSAII (Michael W. Deem and Ramdas Pophale) SiO2 
 PCOD9179095
Probable space group: C 2/M
;
_chemical_formula_sum "Si O2"
_cell_formula_units_Z 64
_cell_length_a 7.355291
_cell_length_b 17.763848
_cell_length_c 21.688731
_cell_angle_alpha 90.000000
_cell_angle_beta 86.247744
_cell_angle_gamma 90.000000
_cell_volume 2827.737390
_symmetry_space_group_name_H-M "C 2/M"
_symmetry_group_IT_number 12
_symmetry_cell_setting 'monoclinic'
loop_
_space_group_symop_operation_xyz
x,y,z
-x,y,-z
-x,-y,-z
x,-y,z
1/2+x,1/2+y,z
1/2-x,1/2+y,-z
1/2-x,1/2-y,-z
1/2+x,1/2-y,z
loop_
_atom_site_type_symbol
_atom_site_label
_atom_site_fract_x
_atom_site_fract_y
_atom_site_fract_z
Si Si1 0.786024 0.837131 0.490230
Si Si2 0.197122 0.414249 0.611978
Si Si3 0.168920 0.143452 0.751609
Si Si4 0.128568 0.919855 0.623570
Si Si5 0.087619 0.315418 0.731018
Si Si6 0.352047 0.171760 0.138047
Si Si7 0.785526 0.849680 0.118864
Si Si8 0.218218 0.660286 0.990344
O O1 0.750000 0.750000 0.500000
O O2 0.671507 0.883549 0.543206
O O3 0.765186 0.858795 0.419099
O O4 0.000000 0.850955 0.500000
O O5 0.127737 0.500000 0.622711
O O6 0.415093 0.417226 0.614724
O O7 0.138991 0.355114 0.666063
O O8 0.140829 0.088370 0.695985
O O9 0.087613 0.224625 0.732991
O O10 0.383003 0.160270 0.748134
O O11 0.127760 0.114840 0.821601
O O12 0.199557 0.000000 0.599919
O O13 0.202078 0.341273 0.789460
O O14 0.563854 0.148101 0.127458
O O15 0.342252 0.262001 0.127350
O O16 0.240028 0.140425 0.081843
O O17 0.819294 0.874463 0.047557
O O18 0.250000 0.750000 0.000000
O O19 0.000000 0.647585 0.000000
#
# Coordination Sequence:
#
# PCOD9179095 Si02
#       8
#     8   8   8   8   8   8   8   8
#     4  10  21  37  57  79 101 126 157 194 236 284
#     4  10  21  37  55  74  98 129 163 199 240 285
#     4  10  19  31  48  72 101 131 164 202 243 288
#     4  10  21  37  55  74  98 129 163 199 240 285
#     4  10  19  31  48  72 101 131 164 202 243 288
#     4   8  14  23  37  59  88 121 155 193 236 281
#     4   8  14  23  37  59  88 121 155 193 236 281
#     4   8  12  20  34  54  83 118 153 189 233 281
#
# _framework density 22.632937999999999
#
# number of rings (size 3 to 8) (size 9 to 14) (size 15 to 20)
#    0.000    2.750    0.000    1.875    0.000    6.000 
#    0.000    0.000    0.000    2.250    0.000    0.875 
#    0.000    7.000    0.000    0.000    0.000    0.500 
#
# Total GULP energy -178313.258094 kJ/mol
# GULP energy per Si atom -5572.289315 kJ/mol
# Density = 2.258142 g / cm^3
# Si number density = 22.632938 Si / 1000 Ang^3
#
#
#
# Elastic Constant Matrix: (Units=GPa)
#
#
# Indices 1 2 3 4 5 6 
#
# 1 47.5772 -4.8471 6.0212 0.0000 3.1058 0.0000
# 2 -4.8471 32.4068 14.9002 0.0000 -5.7164 0.0000
# 3 6.0212 14.9002 151.7943 0.0000 2.5183 0.0000
# 4 0.0000 0.0000 0.0000 5.6673 0.0000 3.9605
# 5 3.1058 -5.7164 2.5183 0.0000 28.9269 0.0000
# 6 0.0000 0.0000 0.0000 3.9605 0.0000 3.2430
#
#
#
# Elastic Compliance Matrix: (Units=1/GPa)
#
#
# Indices 1 2 3 4 5 6 
#
# 1 0.021624 0.003506 -0.001177 0.000000 -0.001526 0.000000
# 2 0.003506 0.034224 -0.003610 0.000000 0.006701 0.000000
# 3 -0.001177 -0.003610 0.007009 0.000000 -0.001197 0.000000
# 4 0.000000 0.000000 0.000000 1.203966 0.000000 -1.470331
# 5 -0.001526 0.006701 -0.001197 0.000000 0.036162 0.000000
# 6 0.000000 0.000000 0.000000 -1.470331 0.000000 2.103980
#
#
# Mechanical properties :
#
#
# Convention : Reuss Voigt Hill
#
# Bulk Modulus (GPa) = 16.58475 29.32519 22.95497
# Shear Modulus (GPa) = 1.45789 21.94773 11.70281
#
# Velocity S-wave (km/s) = 0.80346 3.11742 2.27638
# Velocity P-wave (km/s) = 2.86432 5.09340 4.13201
#
# Compressibility (1/GPa) = 0.06029636
#
# Stress axis : x y z
#
# Youngs Moduli (GPa) = 46.24445 29.21947 142.67938
#
# Poissons Ratio (x) = -0.10245 0.16788
# Poissons Ratio (y) = -0.16214 0.51502
# Poissons Ratio (z) = 0.05441 0.10547
#
# Static dielectric constant tensor:
#      x y z
#    x 1.934550 0.000000 0.023630 
#    y 0.000000 1.796620 0.000000 
#    z 0.023630 0.000000 2.028450 
# 
# From -- ./inp_files/301428.got.cif
#   From: 2010.05.17/outbox.cif.g08.bks.cpg/sg12_151_cif.got.tgz:301428.got - 2010.06.03 13:09:07.
