data_PCOD9179193
_publ_section_title
;
Structure prediction by ZEFSAII (Michael W. Deem and Ramdas Pophale) SiO2 
 PCOD9179193
Probable space group: C 2/M
;
_chemical_formula_sum "Si O2"
_cell_formula_units_Z 64
_cell_length_a 13.908086
_cell_length_b 9.271605
_cell_length_c 23.428510
_cell_angle_alpha 90.000000
_cell_angle_beta 64.580697
_cell_angle_gamma 90.000000
_cell_volume 2728.641190
_symmetry_space_group_name_H-M "C 2/M"
_symmetry_group_IT_number 12
_symmetry_cell_setting 'monoclinic'
loop_
_space_group_symop_operation_xyz
x,y,z
-x,y,-z
-x,-y,-z
x,-y,z
1/2+x,1/2+y,z
1/2-x,1/2+y,-z
1/2-x,1/2-y,-z
1/2+x,1/2-y,z
loop_
_atom_site_type_symbol
_atom_site_label
_atom_site_fract_x
_atom_site_fract_y
_atom_site_fract_z
Si Si1 0.392978 0.836655 0.491575
Si Si2 0.761248 0.833816 0.262759
Si Si3 0.486873 0.335411 0.766084
Si Si4 0.318542 0.834151 0.137753
Si Si5 0.285750 0.661864 0.617316
Si Si6 0.542629 0.162084 0.646731
Si Si7 0.069186 0.665219 0.110194
Si Si8 0.125415 0.834224 0.986349
O O1 0.500000 0.852346 0.500000
O O2 0.320713 0.736602 0.549389
O O3 0.430780 0.772457 0.421718
O O4 0.348094 0.000000 0.493673
O O5 0.886953 0.836611 0.249061
O O6 0.759247 0.736707 0.206616
O O7 0.697315 0.765029 0.332461
O O8 0.732267 0.000000 0.258922
O O9 0.453445 0.500000 0.768811
O O10 0.477575 0.251965 0.708944
O O11 0.427883 0.256100 0.832660
O O12 0.444040 0.836209 0.123607
O O13 0.314098 0.737909 0.082090
O O14 0.288062 0.000000 0.135014
O O15 0.331103 0.500000 0.612104
O O16 0.158942 0.647319 0.645342
O O17 0.500766 0.000000 0.648026
O O18 0.101025 0.500000 0.111187
O O19 0.129577 0.739730 0.042431
O O20 0.155981 0.000000 0.988568
O O21 0.000000 0.835629 0.000000
#
# Coordination Sequence:
#
# PCOD9179193 Si02
#       8
#     8   8   8   8   8   8   8   8
#     4  10  21  36  52  70  94 123 152 184 226 276
#     4   9  16  26  40  58  81 109 143 183 225 268
#     4   9  16  25  39  59  81 107 142 184 226 267
#     4   9  15  22  32  48  72 103 141 182 223 266
#     4  10  19  31  49  71  93 118 151 191 231 272
#     4   9  18  32  49  69  92 119 152 189 229 273
#     4   9  15  22  32  47  71 104 141 181 223 266
#     4   9  15  21  29  43  67 102 143 182 220 265
#
# _framework density 23.454899000000001
#
# number of rings (size 3 to 8) (size 9 to 14) (size 15 to 20)
#    0.000    2.750    0.000    2.625    0.000    8.750 
#    0.000    0.000    0.000    0.000    0.000    0.000 
#    0.000    0.000    0.000    1.125    0.000   15.500 
#
# Total GULP energy -179012.212579 kJ/mol
# GULP energy per Si atom -5594.131643 kJ/mol
# Density = 2.340151 g / cm^3
# Si number density = 23.454899 Si / 1000 Ang^3
#
#
#
# Elastic Constant Matrix: (Units=GPa)
#
#
# Indices 1 2 3 4 5 6 
#
# 1 47.9598 -7.6974 8.7735 0.0000 -7.2990 0.0000
# 2 -7.6974 193.6793 130.6825 0.0000 17.9738 0.0000
# 3 8.7735 130.6825 234.3618 0.0000 19.7244 0.0000
# 4 0.0000 0.0000 0.0000 -4.5083 0.0000 10.0035
# 5 -7.2990 17.9738 19.7244 0.0000 44.0503 0.0000
# 6 0.0000 0.0000 0.0000 10.0035 0.0000 3.0659
#
#
#
# Elastic Compliance Matrix: (Units=1/GPa)
#
#
# Indices 1 2 3 4 5 6 
#
# 1 0.022199 0.002090 -0.002322 0.000000 0.003865 0.000000
# 2 0.002090 0.008554 -0.004763 0.000000 -0.001011 0.000000
# 3 -0.002322 -0.004763 0.007148 0.000000 -0.001642 0.000000
# 4 0.000000 0.000000 0.000000 -0.026919 0.000000 0.087833
# 5 0.003865 -0.001011 -0.001642 0.000000 0.024490 0.000000
# 6 0.000000 0.000000 0.000000 0.087833 0.000000 0.039584
#
#
# Mechanical properties :
#
#
# Convention : Reuss Voigt Hill
#
# Bulk Modulus (GPa) = 35.82702 82.16869 58.99785
# Shear Modulus (GPa) = 52.99527 31.47105 42.23316
#
# Velocity S-wave (km/s) = 4.75853 3.66699 4.24796
# Velocity P-wave (km/s) = 6.74533 7.28270 7.01916
#
# Compressibility (1/GPa) = 0.02791189
#
# Stress axis : x y z
#
# Youngs Moduli (GPa) = 45.04657 116.90837 139.90334
#
# Poissons Ratio (x) = -0.24437 0.32484
# Poissons Ratio (y) = -0.09416 0.66633
# Poissons Ratio (z) = 0.10459 0.55681
#
# Static dielectric constant tensor:
#      x y z
#    x 1.948580 0.000000 -0.048600 
#    y 0.000000 1.834220 0.000000 
#    z -0.048600 0.000000 1.834900 
# 
# From -- ./inp_files/365159.got.cif
#   From: 2010.05.17/outbox.cif.g08.bks.cpg/sg12_183_cif.got.tgz:365159.got - 2010.06.03 13:09:07.
