data_PCOD9179032
_publ_section_title
;
Structure prediction by ZEFSAII (Michael W. Deem and Ramdas Pophale) SiO2 
 PCOD9179032
Probable space group: C 2/M
;
_chemical_formula_sum "Si O2"
_cell_formula_units_Z 56
_cell_length_a 14.423426
_cell_length_b 9.341006
_cell_length_c 20.019099
_cell_angle_alpha 90.000000
_cell_angle_beta 109.455134
_cell_angle_gamma 90.000000
_cell_volume 2543.158564
_symmetry_space_group_name_H-M "C 2/M"
_symmetry_group_IT_number 12
_symmetry_cell_setting 'monoclinic'
loop_
_space_group_symop_operation_xyz
x,y,z
-x,y,-z
-x,-y,-z
x,-y,z
1/2+x,1/2+y,z
1/2-x,1/2+y,-z
1/2-x,1/2-y,-z
1/2+x,1/2-y,z
loop_
_atom_site_type_symbol
_atom_site_label
_atom_site_fract_x
_atom_site_fract_y
_atom_site_fract_z
Si Si1 0.897221 0.662142 0.059894
Si Si2 0.272397 0.161720 0.783652
Si Si3 0.494563 0.160364 0.784489
Si Si4 0.563973 0.337381 0.350674
Si Si5 0.653061 0.673390 0.506365
Si Si6 0.206981 0.665428 0.645754
Si Si7 0.316928 0.660677 0.926742
O O1 0.935473 0.500000 0.056761
O O2 0.784685 0.648384 0.056809
O O3 0.953867 0.725780 0.137629
O O4 0.892803 0.757833 0.993022
O O5 0.380168 0.150024 0.776251
O O6 0.209371 0.254713 0.716948
O O7 0.290326 0.244892 0.856410
O O8 0.234921 0.000000 0.784838
O O9 0.496391 0.242240 0.715285
O O10 0.536241 0.000000 0.786881
O O11 0.528858 0.500000 0.338413
O O12 0.571390 0.295687 0.430309
O O13 0.678445 0.336079 0.352506
O O14 0.663932 0.500000 0.512818
O O15 0.750000 0.750000 0.500000
O O16 0.645725 0.743754 0.577131
O O17 0.175744 0.500000 0.642196
O O18 0.349134 0.500000 0.916109
#
# Coordination Sequence:
#
# PCOD9179032 Si02
#       7
#     8   8   8   8   8   8   8
#     4   9  19  36  53  69  91 120 156 193 229 273
#     4  10  19  31  48  70  97 125 153 189 233 279
#     4   9  18  31  48  69  93 123 156 191 230 273
#     4   8  15  25  38  60  91 122 151 188 229 270
#     4   9  15  23  36  57  87 123 158 190 228 272
#     4   9  16  26  40  61  90 122 156 192 229 271
#     4  10  20  34  52  71  92 120 154 192 231 275
#
# _framework density 22.019862
#
# number of rings (size 3 to 8) (size 9 to 14) (size 15 to 20)
#    0.000    2.857    0.000    2.571    0.000    6.286 
#    0.000    2.857    0.000    0.000    0.000    1.000 
#    0.000    8.000    0.000    0.000    0.000    0.000 
#
# Total GULP energy -156266.905213 kJ/mol
# GULP energy per Si atom -5580.960900 kJ/mol
# Density = 2.196974 g / cm^3
# Si number density = 22.019862 Si / 1000 Ang^3
#
#
#
# Elastic Constant Matrix: (Units=GPa)
#
#
# Indices 1 2 3 4 5 6 
#
# 1 54.4407 8.1426 0.6006 0.0000 2.0252 0.0000
# 2 8.1426 157.2534 138.4692 0.0000 -2.8267 0.0000
# 3 0.6006 138.4692 269.3977 0.0000 12.6149 0.0000
# 4 0.0000 0.0000 0.0000 37.7553 0.0000 -0.4661
# 5 2.0252 -2.8267 12.6149 0.0000 53.6315 0.0000
# 6 0.0000 0.0000 0.0000 -0.4661 0.0000 2.5903
#
#
#
# Elastic Compliance Matrix: (Units=1/GPa)
#
#
# Indices 1 2 3 4 5 6 
#
# 1 0.018667 -0.001809 0.000936 0.000000 -0.001020 0.000000
# 2 -0.001809 0.012017 -0.006275 0.000000 0.002178 0.000000
# 3 0.000936 -0.006275 0.007030 0.000000 -0.002020 0.000000
# 4 0.000000 0.000000 0.000000 0.026545 0.000000 0.004777
# 5 -0.001020 0.002178 -0.002020 0.000000 0.019274 0.000000
# 6 0.000000 0.000000 0.000000 0.004777 0.000000 0.386917
#
#
# Mechanical properties :
#
#
# Convention : Reuss Voigt Hill
#
# Bulk Modulus (GPa) = 42.70212 86.16852 64.43532
# Shear Modulus (GPa) = 10.15122 41.05403 25.60263
#
# Velocity S-wave (km/s) = 2.14943 4.32256 3.41355
# Velocity P-wave (km/s) = 5.05912 8.00811 6.69793
#
# Compressibility (1/GPa) = 0.02341804
#
# Stress axis : x y z
#
# Youngs Moduli (GPa) = 53.57091 83.21424 142.25487
#
# Poissons Ratio (x) = 0.15055 -0.13316
# Poissons Ratio (y) = 0.09692 0.89261
# Poissons Ratio (z) = -0.05015 0.52215
#
# Static dielectric constant tensor:
#      x y z
#    x 1.863660 0.000000 -0.013460 
#    y 0.000000 1.790070 0.000000 
#    z -0.013460 0.000000 1.797730 
# 
# From -- ./inp_files/323824.got.cif
#   From: 2010.05.17/outbox.cif.g08.bks.cpg/sg12_162_cif.got.tgz:323824.got - 2010.06.03 13:09:07.
