data_PCOD9179942
_publ_section_title
;
Structure prediction by ZEFSAII (Michael W. Deem and Ramdas Pophale) SiO2 
 PCOD9179942
Probable space group: C 2/M
;
_chemical_formula_sum "Si O2"
_cell_formula_units_Z 64
_cell_length_a 14.645399
_cell_length_b 14.308885
_cell_length_c 18.839402
_cell_angle_alpha 90.000000
_cell_angle_beta 58.985748
_cell_angle_gamma 90.000000
_cell_volume 3383.567008
_symmetry_space_group_name_H-M "C 2/M"
_symmetry_group_IT_number 12
_symmetry_cell_setting 'monoclinic'
loop_
_space_group_symop_operation_xyz
x,y,z
-x,y,-z
-x,-y,-z
x,-y,z
1/2+x,1/2+y,z
1/2-x,1/2+y,-z
1/2-x,1/2-y,-z
1/2+x,1/2-y,z
loop_
_atom_site_type_symbol
_atom_site_label
_atom_site_fract_x
_atom_site_fract_y
_atom_site_fract_z
Si Si1 0.421999 0.900830 0.304081
Si Si2 0.381100 0.609810 0.017979
Si Si3 0.395545 0.609114 0.843133
Si Si4 0.740852 0.229496 0.176450
Si Si5 0.597792 0.893634 0.338994
Si Si6 0.393012 0.280455 0.246328
Si Si7 0.308080 0.193515 0.567192
Si Si8 0.710088 0.395584 0.468817
O O1 0.478930 0.893521 0.357100
O O2 0.452618 0.813654 0.245299
O O3 0.297026 0.901266 0.370937
O O4 0.454506 0.000000 0.259233
O O5 0.364344 0.500000 0.041843
O O6 0.292166 0.672158 0.091388
O O7 0.500000 0.633281 0.000000
O O8 0.374921 0.620944 0.935636
O O9 0.380035 0.500000 0.830693
O O10 0.320614 0.678578 0.827185
O O11 0.520014 0.638104 0.785740
O O12 0.661767 0.166176 0.255336
O O13 0.838029 0.241449 0.193341
O O14 0.609663 0.851232 0.411547
O O15 0.638409 0.000000 0.323388
O O16 0.299408 0.296938 0.341305
O O17 0.346572 0.296062 0.524863
O O18 0.271896 0.128461 0.516859
O O19 0.659605 0.500000 0.493731
#
# Coordination Sequence:
#
# PCOD9179942 Si02
#       8
#     8   8   8   8   8   8   8   8
#     4   9  18  33  53  76 105 138 177 226 276 326
#     4  10  20  36  59  85 111 145 188 230 278 330
#     4  11  23  38  57  84 115 149 187 229 278 334
#     4  11  21  36  59  82 112 147 182 228 277 328
#     4  10  19  31  52  81 106 132 179 227 270 322
#     4  10  20  36  56  79 111 145 185 228 278 328
#     4   9  19  31  50  80 105 142 182 228 273 327
#     4   9  17  32  51  74 105 144 182 221 276 331
#
# _framework density 18.914949
#
# number of rings (size 3 to 8) (size 9 to 14) (size 15 to 20)
#    0.000    2.125    2.500    1.125    0.000    3.500 
#    0.000    3.750    0.000    0.375    0.000    2.625 
#    0.000    0.000    0.000    0.000    0.000    0.000 
#
# Total GULP energy -178223.827234 kJ/mol
# GULP energy per Si atom -5569.494601 kJ/mol
# Density = 1.887190 g / cm^3
# Si number density = 18.914949 Si / 1000 Ang^3
#
#
#
# Elastic Constant Matrix: (Units=GPa)
#
#
# Indices 1 2 3 4 5 6 
#
# 1 61.0464 45.7504 10.6427 0.0000 4.1583 0.0000
# 2 45.7504 132.8240 40.5946 0.0000 14.7024 0.0000
# 3 10.6427 40.5946 63.3582 0.0000 4.2462 0.0000
# 4 0.0000 0.0000 0.0000 16.9265 0.0000 -3.6142
# 5 4.1583 14.7024 4.2462 0.0000 15.8245 0.0000
# 6 0.0000 0.0000 0.0000 -3.6142 0.0000 14.0659
#
#
#
# Elastic Compliance Matrix: (Units=1/GPa)
#
#
# Indices 1 2 3 4 5 6 
#
# 1 0.022218 -0.008260 0.001463 0.000000 0.001443 0.000000
# 2 -0.008260 0.013319 -0.006581 0.000000 -0.008438 0.000000
# 3 0.001463 -0.006581 0.019725 0.000000 0.000437 0.000000
# 4 0.000000 0.000000 0.000000 0.062509 0.000000 0.016061
# 5 0.001443 -0.008438 0.000437 0.000000 0.070537 0.000000
# 6 0.000000 0.000000 0.000000 0.016061 0.000000 0.075221
#
#
# Mechanical properties :
#
#
# Convention : Reuss Voigt Hill
#
# Bulk Modulus (GPa) = 35.07899 50.13378 42.60639
# Shear Modulus (GPa) = 16.67868 20.04611 18.36239
#
# Velocity S-wave (km/s) = 2.97269 3.25899 3.11913
# Velocity P-wave (km/s) = 5.51075 6.38152 5.96205
#
# Compressibility (1/GPa) = 0.02850709
#
# Stress axis : x y z
#
# Youngs Moduli (GPa) = 45.00918 75.08021 50.69811
#
# Poissons Ratio (x) = 0.62014 -0.07419
# Poissons Ratio (y) = 0.37176 0.33363
# Poissons Ratio (z) = -0.06587 0.49409
#
# Static dielectric constant tensor:
#      x y z
#    x 1.693510 0.000000 -0.018740 
#    y 0.000000 1.699590 0.000000 
#    z -0.018740 0.000000 1.653260 
# 
# From -- ./inp_files/270284.got.cif
#   From: 2010.05.17/outbox.cif.g08.bks.cpg/sg12_136_cif.got.tgz:270284.got - 2010.06.03 13:09:07.
