data_PCOD9179502
_publ_section_title
;
Structure prediction by ZEFSAII (Michael W. Deem and Ramdas Pophale) SiO2 
 PCOD9179502
Probable space group: C 2/M
;
_chemical_formula_sum "Si O2"
_cell_formula_units_Z 58
_cell_length_a 18.895654
_cell_length_b 7.589233
_cell_length_c 20.166817
_cell_angle_alpha 90.000000
_cell_angle_beta 98.614547
_cell_angle_gamma 90.000000
_cell_volume 2859.366211
_symmetry_space_group_name_H-M "C 2/M"
_symmetry_group_IT_number 12
_symmetry_cell_setting 'monoclinic'
loop_
_space_group_symop_operation_xyz
x,y,z
-x,y,-z
-x,-y,-z
x,-y,z
1/2+x,1/2+y,z
1/2-x,1/2+y,-z
1/2-x,1/2-y,-z
1/2+x,1/2-y,z
loop_
_atom_site_type_symbol
_atom_site_label
_atom_site_fract_x
_atom_site_fract_y
_atom_site_fract_z
Si Si1 0.246956 0.214473 0.618965
Si Si2 0.625280 0.204346 0.995513
Si Si3 0.098560 0.703670 0.547664
Si Si4 0.460243 0.301213 0.320212
Si Si5 0.314830 0.713098 0.248182
Si Si6 0.500000 0.500000 0.000000
Si Si7 0.099519 0.705500 0.404297
Si Si8 0.241638 0.293711 0.903499
O O1 0.184698 0.285731 0.562832
O O2 0.226825 0.268105 0.691160
O O3 0.325231 0.278231 0.609630
O O4 0.244754 0.000000 0.616158
O O5 0.684820 0.205937 0.062572
O O6 0.601250 0.000000 0.982761
O O7 0.562432 0.343320 0.999427
O O8 0.673635 0.262033 0.938656
O O9 0.074835 0.500000 0.552529
O O10 0.072819 0.800315 0.610055
O O11 0.076066 0.777001 0.473023
O O12 0.472463 0.500000 0.299459
O O13 0.396989 0.220986 0.266991
O O14 0.537522 0.218099 0.341357
O O15 0.318519 0.500000 0.250229
O O16 0.277154 0.767349 0.175662
O O17 0.111699 0.500000 0.420012
O O18 0.251100 0.500000 0.918624
#
# Coordination Sequence:
#
# PCOD9179502 Si02
#       8
#     8   8   8   8   8   2   8   8
#     4   9  19  35  51  74 104 141 182 232 289 345
#     4  10  22  39  65  99 137 168 207 257 303 359
#     4  10  19  31  50  74  98 132 180 233 289 351
#     4  10  21  35  50  74 103 140 185 234 288 343
#     4   9  19  35  57  77 107 148 194 242 282 334
#     4  12  22  40  64 102 140 170 198 256 320 354
#     4  10  20  33  50  72 104 137 175 231 298 354
#     4  10  20  38  64  95 120 165 218 248 293 367
#
# _framework density 20.284217000000002
#
# number of rings (size 3 to 8) (size 9 to 14) (size 15 to 20)
#    0.000    2.207    0.690    3.103    1.931    6.069 
#    0.000    1.379    0.000    3.310    0.000    0.000 
#    0.000    0.000    0.000    0.000    0.000    0.000 
#
# Total GULP energy -161533.117387 kJ/mol
# GULP energy per Si atom -5570.107496 kJ/mol
# Density = 2.023805 g / cm^3
# Si number density = 20.284217 Si / 1000 Ang^3
#
#
#
# Elastic Constant Matrix: (Units=GPa)
#
#
# Indices 1 2 3 4 5 6 
#
# 1 102.7552 24.4769 9.9779 0.0000 14.1153 0.0000
# 2 24.4769 83.6630 3.3080 0.0000 0.1413 0.0000
# 3 9.9779 3.3080 76.2068 0.0000 3.6308 0.0000
# 4 0.0000 0.0000 0.0000 18.7435 0.0000 6.4777
# 5 14.1153 0.1413 3.6308 0.0000 9.4809 0.0000
# 6 0.0000 0.0000 0.0000 6.4777 0.0000 25.2007
#
#
#
# Elastic Compliance Matrix: (Units=1/GPa)
#
#
# Indices 1 2 3 4 5 6 
#
# 1 0.013418 -0.003867 -0.000652 0.000000 -0.019670 0.000000
# 2 -0.003867 0.013088 -0.000333 0.000000 0.005689 0.000000
# 3 -0.000652 -0.000333 0.013420 0.000000 -0.004164 0.000000
# 4 0.000000 0.000000 0.000000 0.058554 0.000000 -0.015051
# 5 -0.019670 0.005689 -0.004164 0.000000 0.136270 0.000000
# 6 0.000000 0.000000 0.000000 -0.015051 0.000000 0.043550
#
#
# Mechanical properties :
#
#
# Convention : Reuss Voigt Hill
#
# Bulk Modulus (GPa) = 33.08714 37.57229 35.32972
# Shear Modulus (GPa) = 16.77417 25.67582 21.22500
#
# Velocity S-wave (km/s) = 2.87881 3.56167 3.23829
# Velocity P-wave (km/s) = 5.23423 5.95627 5.60689
#
# Compressibility (1/GPa) = 0.03022322
#
# Stress axis : x y z
#
# Youngs Moduli (GPa) = 74.52511 76.40860 74.51359
#
# Poissons Ratio (x) = 0.29545 0.04857
# Poissons Ratio (y) = 0.28817 0.02480
# Poissons Ratio (z) = 0.04858 0.02544
#
# Static dielectric constant tensor:
#      x y z
#    x 1.744000 0.000000 0.004860 
#    y 0.000000 1.754280 0.000000 
#    z 0.004860 0.000000 1.706700 
# 
# From -- ./inp_files/314330.got.cif
#   From: 2010.05.17/outbox.cif.g08.bks.cpg/sg12_158_cif.got.tgz:314330.got - 2010.06.03 13:09:07.
