data_PCOD9179358
_publ_section_title
;
Structure prediction by ZEFSAII (Michael W. Deem and Ramdas Pophale) SiO2 
 PCOD9179358
Probable space group: C 2/M
;
_chemical_formula_sum "Si O2"
_cell_formula_units_Z 56
_cell_length_a 9.494530
_cell_length_b 19.046034
_cell_length_c 21.033525
_cell_angle_alpha 90.000000
_cell_angle_beta 131.853899
_cell_angle_gamma 90.000000
_cell_volume 2833.075347
_symmetry_space_group_name_H-M "C 2/M"
_symmetry_group_IT_number 12
_symmetry_cell_setting 'monoclinic'
loop_
_space_group_symop_operation_xyz
x,y,z
-x,y,-z
-x,-y,-z
x,-y,z
1/2+x,1/2+y,z
1/2-x,1/2+y,-z
1/2-x,1/2-y,-z
1/2+x,1/2-y,z
loop_
_atom_site_type_symbol
_atom_site_label
_atom_site_fract_x
_atom_site_fract_y
_atom_site_fract_z
Si Si1 0.904688 0.699283 0.812552
Si Si2 0.656409 0.340063 0.417224
Si Si3 0.840000 0.077083 0.248546
Si Si4 0.272119 0.420473 0.441528
Si Si5 0.292088 0.281200 0.372792
Si Si6 0.729670 0.924296 0.068793
Si Si7 0.213968 0.268973 0.082005
O O1 0.845290 0.618825 0.785084
O O2 0.824209 0.737201 0.726041
O O3 0.796938 0.720291 0.844868
O O4 0.124532 0.713999 0.885258
O O5 0.522993 0.381638 0.327532
O O6 0.759293 0.393718 0.495689
O O7 0.504576 0.298018 0.414946
O O8 0.775380 0.282984 0.415589
O O9 0.816646 0.072227 0.165823
O O10 0.846772 0.000000 0.279031
O O11 0.500000 0.424810 0.500000
O O12 0.198707 0.500000 0.408299
O O13 0.213692 0.354237 0.379836
O O14 0.770569 0.842917 0.064350
O O15 0.783525 0.000000 0.053686
O O16 0.500000 0.924502 0.000000
O O17 0.000000 0.250319 0.000000
#
# Coordination Sequence:
#
# PCOD9179358 Si02
#       7
#     8   8   8   8   8   8   8
#     4  10  19  31  49  74  99 130 167 204 247 296
#     4  10  19  32  51  75 101 131 166 207 252 296
#     4   9  17  29  48  71  93 123 165 206 241 287
#     4   9  18  32  51  75 101 131 170 211 247 291
#     4  10  19  31  50  74 101 131 166 207 249 295
#     4   8  14  25  42  65  91 119 154 196 238 280
#     4  10  19  32  50  73 102 132 165 205 247 293
#
# _framework density 19.766504999999999
#
# number of rings (size 3 to 8) (size 9 to 14) (size 15 to 20)
#    0.000    2.571    0.000    3.857    0.000    3.429 
#    0.000    0.000    0.000    3.857    0.000    9.000 
#    0.000    0.000    0.000    0.000    0.000    0.000 
#
# Total GULP energy -155900.761219 kJ/mol
# GULP energy per Si atom -5567.884329 kJ/mol
# Density = 1.972152 g / cm^3
# Si number density = 19.766505 Si / 1000 Ang^3
#
#
#
# Elastic Constant Matrix: (Units=GPa)
#
#
# Indices 1 2 3 4 5 6 
#
# 1 33.3358 22.8461 9.1261 -0.0001 -4.4588 0.0000
# 2 22.8461 79.8889 24.6719 0.0000 -0.0419 0.0000
# 3 9.1261 24.6719 81.1462 -0.0001 -11.9154 0.0000
# 4 -0.0001 0.0000 -0.0001 34.9676 -0.0001 6.2372
# 5 -4.4588 -0.0419 -11.9154 -0.0001 22.7813 0.0000
# 6 0.0000 0.0000 0.0000 6.2372 0.0000 19.4863
#
#
#
# Elastic Compliance Matrix: (Units=1/GPa)
#
#
# Indices 1 2 3 4 5 6 
#
# 1 0.038560 -0.011068 0.000145 0.000000 0.007602 0.000000
# 2 -0.011068 0.017109 -0.004626 0.000000 -0.004554 0.000000
# 3 0.000145 -0.004626 0.014858 0.000000 0.007791 0.000000
# 4 0.000000 0.000000 0.000000 0.030329 0.000000 -0.009708
# 5 0.007602 -0.004554 0.007791 0.000000 0.049450 0.000000
# 6 0.000000 0.000000 0.000000 -0.009708 0.000000 0.054425
#
#
# Mechanical properties :
#
#
# Convention : Reuss Voigt Hill
#
# Bulk Modulus (GPa) = 25.36226 34.18435 29.77331
# Shear Modulus (GPa) = 20.08256 24.62882 22.35569
#
# Velocity S-wave (km/s) = 3.19092 3.53368 3.36667
# Velocity P-wave (km/s) = 5.14147 5.82931 5.49616
#
# Compressibility (1/GPa) = 0.03942866
#
# Stress axis : x y z
#
# Youngs Moduli (GPa) = 25.93351 58.44983 67.30569
#
# Poissons Ratio (x) = 0.64692 -0.00974
# Poissons Ratio (y) = 0.28703 0.31134
# Poissons Ratio (z) = -0.00375 0.27037
#
# Static dielectric constant tensor:
#      x y z
#    x 1.679260 0.000000 -0.041950 
#    y 0.000000 1.770140 0.000000 
#    z -0.041950 0.000000 1.756590 
# 
# From -- ./inp_files/306017.got.cif
#   From: 2010.05.17/outbox.cif.g08.bks.cpg/sg12_154_cif.got.tgz:306017.got - 2010.06.03 13:09:07.
