data_PCOD9179871
_publ_section_title
;
Structure prediction by ZEFSAII (Michael W. Deem and Ramdas Pophale) SiO2 
 PCOD9179871
Probable space group: C 2/M
;
_chemical_formula_sum "Si O2"
_cell_formula_units_Z 64
_cell_length_a 19.927581
_cell_length_b 24.509351
_cell_length_c 11.296595
_cell_angle_alpha 90.000000
_cell_angle_beta 41.811642
_cell_angle_gamma 90.000000
_cell_volume 3678.357539
_symmetry_space_group_name_H-M "C 2/M"
_symmetry_group_IT_number 12
_symmetry_cell_setting 'monoclinic'
loop_
_space_group_symop_operation_xyz
x,y,z
-x,y,-z
-x,-y,-z
x,-y,z
1/2+x,1/2+y,z
1/2-x,1/2+y,-z
1/2-x,1/2-y,-z
1/2+x,1/2-y,z
loop_
_atom_site_type_symbol
_atom_site_label
_atom_site_fract_x
_atom_site_fract_y
_atom_site_fract_z
Si Si1 0.698410 0.437179 0.530979
Si Si2 0.197356 0.350190 0.931165
Si Si3 0.571810 0.276608 0.619065
Si Si4 0.079477 0.309119 0.297293
Si Si5 0.098022 0.114669 0.433299
Si Si6 0.104456 0.157669 0.810259
Si Si7 0.618455 0.939709 0.858789
Si Si8 0.251409 0.735528 0.242636
O O1 0.677522 0.500000 0.591447
O O2 0.644698 0.422461 0.476004
O O3 0.662986 0.391818 0.670192
O O4 0.817011 0.431362 0.345400
O O5 0.314544 0.368718 0.774807
O O6 0.146092 0.392241 0.910774
O O7 0.195610 0.289828 0.875967
O O8 0.135913 0.349219 0.133409
O O9 0.484973 0.234696 0.694470
O O10 0.565137 0.329292 0.542044
O O11 0.573671 0.298242 0.749837
O O12 0.680664 0.250620 0.447149
O O13 0.170581 0.281486 0.249462
O O14 0.000000 0.330913 0.500000
O O15 0.000000 0.090697 0.500000
O O16 0.172233 0.188587 0.818266
O O17 0.000000 0.136544 0.000000
O O18 0.649818 0.000000 0.861889
O O19 0.500000 0.939864 0.000000
#
# Coordination Sequence:
#
# PCOD9179871 Si02
#       8
#     8   8   8   8   8   8   8   8
#     4   9  20  37  53  73  99 129 170 214 255 302
#     4  10  19  31  52  76 101 132 166 204 248 303
#     4   9  18  33  49  72 105 137 167 205 252 301
#     4  10  20  32  49  74 106 137 165 200 248 308
#     4   9  17  31  52  74  98 128 163 208 254 293
#     4  11  22  33  50  75 107 141 172 208 250 302
#     4   9  19  36  57  78  98 125 165 216 267 303
#     4  10  20  33  50  75 105 138 173 209 249 295
#
# _framework density 17.399069000000001
#
# number of rings (size 3 to 8) (size 9 to 14) (size 15 to 20)
#    0.000    2.375    0.000    4.125    0.000    6.000 
#    0.000    0.000    0.000    1.125    0.000    0.000 
#    0.000    0.000    0.000    0.000    0.000    0.000 
#
# Total GULP energy -178344.886310 kJ/mol
# GULP energy per Si atom -5573.277697 kJ/mol
# Density = 1.735947 g / cm^3
# Si number density = 17.399069 Si / 1000 Ang^3
#
#
#
# Elastic Constant Matrix: (Units=GPa)
#
#
# Indices 1 2 3 4 5 6 
#
# 1 44.2821 20.0649 27.6729 0.0000 -18.1324 0.0000
# 2 20.0649 65.2003 47.4663 0.0000 -4.2303 0.0000
# 3 27.6729 47.4663 106.8480 0.0000 -10.5390 0.0000
# 4 0.0000 0.0000 0.0000 31.6960 0.0000 8.1551
# 5 -18.1324 -4.2303 -10.5390 0.0000 19.6266 0.0000
# 6 0.0000 0.0000 0.0000 8.1551 0.0000 19.2072
#
#
#
# Elastic Compliance Matrix: (Units=1/GPa)
#
#
# Indices 1 2 3 4 5 6 
#
# 1 0.043771 -0.008084 -0.004148 0.000000 0.036469 0.000000
# 2 -0.008084 0.024167 -0.009361 0.000000 -0.007287 0.000000
# 3 -0.004148 -0.009361 0.014799 0.000000 0.002097 0.000000
# 4 0.000000 0.000000 0.000000 0.035419 0.000000 -0.015038
# 5 0.036469 -0.007287 0.002097 0.000000 0.084199 0.000000
# 6 0.000000 0.000000 0.000000 -0.015038 0.000000 0.058449
#
#
# Mechanical properties :
#
#
# Convention : Reuss Voigt Hill
#
# Bulk Modulus (GPa) = 25.28424 45.19320 35.23872
# Shear Modulus (GPa) = 15.76425 22.18106 18.97265
#
# Velocity S-wave (km/s) = 3.01331 3.57437 3.30576
# Velocity P-wave (km/s) = 5.16432 6.56244 5.90491
#
# Compressibility (1/GPa) = 0.03955033
#
# Stress axis : x y z
#
# Youngs Moduli (GPa) = 22.84638 41.37793 67.57321
#
# Poissons Ratio (x) = 0.33451 0.28028
# Poissons Ratio (y) = 0.18470 0.63256
# Poissons Ratio (z) = 0.09476 0.38734
#
# Static dielectric constant tensor:
#      x y z
#    x 1.596520 0.000000 -0.003590 
#    y 0.000000 1.573150 0.000000 
#    z -0.003590 0.000000 1.629660 
# 
# From -- ./inp_files/169655.got.cif
#   From: 2010.05.17/outbox.cif.g08.bks.cpg/sg12_85_cif.got.tgz:169655.got - 2010.06.03 13:09:07.
