data_PCOD9179151
_publ_section_title
;
Structure prediction by ZEFSAII (Michael W. Deem and Ramdas Pophale) SiO2 
 PCOD9179151
Probable space group: C 2/M
;
_chemical_formula_sum "Si O2"
_cell_formula_units_Z 44
_cell_length_a 10.607290
_cell_length_b 21.700662
_cell_length_c 12.884218
_cell_angle_alpha 90.000000
_cell_angle_beta 59.100733
_cell_angle_gamma 90.000000
_cell_volume 2544.831048
_symmetry_space_group_name_H-M "C 2/M"
_symmetry_group_IT_number 12
_symmetry_cell_setting 'monoclinic'
loop_
_space_group_symop_operation_xyz
x,y,z
-x,y,-z
-x,-y,-z
x,-y,z
1/2+x,1/2+y,z
1/2-x,1/2+y,-z
1/2-x,1/2-y,-z
1/2+x,1/2-y,z
loop_
_atom_site_type_symbol
_atom_site_label
_atom_site_fract_x
_atom_site_fract_y
_atom_site_fract_z
Si Si1 0.702519 0.932644 0.980219
Si Si2 0.900151 0.758364 0.233075
Si Si3 0.437910 0.798787 0.641324
Si Si4 0.000000 0.674528 0.000000
Si Si5 0.844666 0.567675 0.753231
Si Si6 0.521022 0.390464 0.869467
O O1 0.634584 0.872835 0.956087
O O2 0.877565 0.927735 0.900216
O O3 0.658609 0.000000 0.957836
O O4 0.654795 0.929095 0.121403
O O5 0.725130 0.767624 0.287381
O O6 0.970368 0.716885 0.112137
O O7 0.966063 0.826855 0.196903
O O8 0.952142 0.729798 0.319930
O O9 0.500000 0.791463 0.500000
O O10 0.419654 0.871458 0.676019
O O11 0.901926 0.500000 0.698141
O O12 0.672991 0.573260 0.795402
O O13 0.500000 0.374327 0.000000
#
# Coordination Sequence:
#
# PCOD9179151 Si02
#       6
#     8   8   8   4   8   8
#     4  10  19  31  48  76 112 141 168 206 263 324
#     4  11  22  36  57  82 108 139 176 221 269 317
#     4  11  23  39  56  77 107 144 183 220 261 311
#     4  12  21  32  54  80 113 136 172 214 274 322
#     4   9  18  33  53  76 102 136 179 217 258 307
#     4   9  17  30  52  78 105 137 169 212 262 318
#
# _framework density 17.289949
#
# number of rings (size 3 to 8) (size 9 to 14) (size 15 to 20)
#    0.000    1.818    2.727    2.455    0.000    4.000 
#    0.000    0.000    0.000    0.000    0.000    0.000 
#    0.000   16.000    0.000    0.000    0.000    0.000 
#
# Total GULP energy -122669.606793 kJ/mol
# GULP energy per Si atom -5575.891218 kJ/mol
# Density = 1.725060 g / cm^3
# Si number density = 17.289949 Si / 1000 Ang^3
#
#
#
# Elastic Constant Matrix: (Units=GPa)
#
#
# Indices 1 2 3 4 5 6 
#
# 1 45.0988 19.5514 -6.2615 0.0000 8.7310 0.0000
# 2 19.5514 109.3360 22.1876 0.0000 12.0389 0.0000
# 3 -6.2615 22.1876 40.1316 0.0000 12.0405 0.0000
# 4 0.0000 0.0000 0.0000 -4.3424 0.0000 -21.4451
# 5 8.7310 12.0389 12.0405 0.0000 20.9809 0.0000
# 6 0.0000 0.0000 0.0000 -21.4451 0.0000 -68.8287
#
#
#
# Elastic Compliance Matrix: (Units=1/GPa)
#
#
# Indices 1 2 3 4 5 6 
#
# 1 0.029795 -0.006161 0.012943 0.000000 -0.016292 0.000000
# 2 -0.006161 0.011756 -0.007497 0.000000 0.000120 0.000000
# 3 0.012943 -0.007497 0.037940 0.000000 -0.022857 0.000000
# 4 0.000000 0.000000 0.000000 0.427473 0.000000 -0.133189
# 5 -0.016292 0.000120 -0.022857 0.000000 0.067490 0.000000
# 6 0.000000 0.000000 0.000000 -0.133189 0.000000 0.026969
#
#
# Mechanical properties :
#
#
# Convention : Reuss Voigt Hill
#
# Bulk Modulus (GPa) = 12.81040 29.50239 21.15640
# Shear Modulus (GPa) = 7.95073 0.16792 4.05932
#
# Velocity S-wave (km/s) = 2.14673 0.31197 1.53391
# Velocity P-wave (km/s) = 3.68373 4.15092 3.92428
#
# Compressibility (1/GPa) = 0.07806155
#
# Stress axis : x y z
#
# Youngs Moduli (GPa) = 33.56241 85.06432 26.35751
#
# Poissons Ratio (x) = 0.52404 -0.34114
# Poissons Ratio (y) = 0.20676 0.19760
# Poissons Ratio (z) = -0.43439 0.63771
#
# Static dielectric constant tensor:
#      x y z
#    x 1.610360 0.000000 -0.002860 
#    y 0.000000 1.603140 0.000000 
#    z -0.002860 0.000000 1.554010 
# 
# From -- ./inp_files/131554.got.cif
#   From: 2010.05.17/outbox.cif.g08.bks.cpg/sg12_66_cif.got.tgz:131554.got - 2010.06.03 13:09:07.
