data_PCOD9179834
_publ_section_title
;
Structure prediction by ZEFSAII (Michael W. Deem and Ramdas Pophale) SiO2 
 PCOD9179834
Probable space group: C 2/M
;
_chemical_formula_sum "Si O2"
_cell_formula_units_Z 64
_cell_length_a 5.277945
_cell_length_b 27.519117
_cell_length_c 20.880882
_cell_angle_alpha 90.000000
_cell_angle_beta 74.510739
_cell_angle_gamma 90.000000
_cell_volume 2922.680059
_symmetry_space_group_name_H-M "C 2/M"
_symmetry_group_IT_number 12
_symmetry_cell_setting 'monoclinic'
loop_
_space_group_symop_operation_xyz
x,y,z
-x,y,-z
-x,-y,-z
x,-y,z
1/2+x,1/2+y,z
1/2-x,1/2+y,-z
1/2-x,1/2-y,-z
1/2+x,1/2-y,z
loop_
_atom_site_type_symbol
_atom_site_label
_atom_site_fract_x
_atom_site_fract_y
_atom_site_fract_z
Si Si1 0.346712 0.203451 0.069227
Si Si2 0.591555 0.390343 0.369617
Si Si3 0.535300 0.943667 0.421321
Si Si4 0.406525 0.553952 0.153311
Si Si5 0.412967 0.718889 0.580090
Si Si6 0.711590 0.231558 0.204379
Si Si7 0.186117 0.444813 0.761389
Si Si8 0.186822 0.847872 0.895051
O O1 0.273062 0.238142 0.133711
O O2 0.557294 0.165094 0.081968
O O3 0.080801 0.178026 0.066202
O O4 0.500000 0.227428 0.000000
O O5 0.781416 0.418383 0.406972
O O6 0.590613 0.333407 0.385538
O O7 0.717941 0.403897 0.293145
O O8 0.299364 0.413243 0.389487
O O9 0.500000 0.944187 0.500000
O O10 0.559765 0.000000 0.397551
O O11 0.429589 0.500000 0.124651
O O12 0.654182 0.562272 0.183305
O O13 0.377485 0.596179 0.104511
O O14 0.127870 0.556233 0.209731
O O15 0.500000 0.710123 0.500000
O O16 0.631701 0.754543 0.595416
O O17 0.419209 0.247591 0.239802
O O18 0.752125 0.176203 0.179699
O O19 0.256710 0.500000 0.734402
#
# Coordination Sequence:
#
# PCOD9179834 Si02
#       8
#     8   8   8   8   8   8   8   8
#     4  10  19  31  51  81 111 137 168 207 258 318
#     4  12  22  37  60  83 114 148 186 237 289 331
#     4  11  22  34  52  84 123 155 180 214 277 359
#     4  10  21  38  58  78 102 137 185 228 265 315
#     4  10  21  37  57  80 109 149 196 233 262 317
#     4   8  16  27  44  71 102 132 163 201 248 301
#     4  10  21  37  59  84 105 133 177 231 284 331
#     4  10  19  32  52  74 103 139 175 213 256 307
#
# _framework density 21.89771
#
# number of rings (size 3 to 8) (size 9 to 14) (size 15 to 20)
#    0.000    1.875    0.000    4.875    0.000    7.500 
#    0.000    0.000    0.000   15.750    0.000    0.000 
#    0.000    0.000    0.000    0.000    0.000    0.000 
#
# Total GULP energy -178830.694567 kJ/mol
# GULP energy per Si atom -5588.459205 kJ/mol
# Density = 2.184787 g / cm^3
# Si number density = 21.897710 Si / 1000 Ang^3
#
#
#
# Elastic Constant Matrix: (Units=GPa)
#
#
# Indices 1 2 3 4 5 6 
#
# 1 105.6840 7.6278 -3.9764 0.0000 3.6495 0.0000
# 2 7.6278 131.1328 17.8332 0.0000 13.5708 0.0000
# 3 -3.9764 17.8332 17.7357 0.0000 1.7372 0.0000
# 4 0.0000 0.0000 0.0000 24.5256 0.0000 3.2246
# 5 3.6495 13.5708 1.7372 0.0000 17.8428 0.0000
# 6 0.0000 0.0000 0.0000 3.2246 0.0000 34.9512
#
#
#
# Elastic Compliance Matrix: (Units=1/GPa)
#
#
# Indices 1 2 3 4 5 6 
#
# 1 0.009698 -0.000822 0.003164 0.000000 -0.001667 0.000000
# 2 -0.000822 0.009567 -0.009196 0.000000 -0.006213 0.000000
# 3 0.003164 -0.009196 0.066350 0.000000 -0.000113 0.000000
# 4 0.000000 0.000000 0.000000 0.041274 0.000000 -0.003808
# 5 -0.001667 -0.006213 -0.000113 0.000000 0.061122 0.000000
# 6 0.000000 0.000000 0.000000 -0.003808 0.000000 0.028963
#
#
# Mechanical properties :
#
#
# Convention : Reuss Voigt Hill
#
# Bulk Modulus (GPa) = 13.90656 33.05799 23.48227
# Shear Modulus (GPa) = 19.63471 31.00178 25.31824
#
# Velocity S-wave (km/s) = 2.99767 3.76673 3.40399
# Velocity P-wave (km/s) = 4.28320 5.83498 5.11825
#
# Compressibility (1/GPa) = 0.07190850
#
# Stress axis : x y z
#
# Youngs Moduli (GPa) = 103.11309 104.52385 15.07158
#
# Poissons Ratio (x) = 0.08591 -0.04769
# Poissons Ratio (y) = 0.08475 0.13859
# Poissons Ratio (z) = -0.32625 0.96115
#
# Static dielectric constant tensor:
#      x y z
#    x 1.849290 0.000000 0.011920 
#    y 0.000000 1.803690 0.000000 
#    z 0.011920 0.000000 1.840270 
# 
# From -- ./inp_files/331397.got.cif
#   From: 2010.05.17/outbox.cif.g08.bks.cpg/sg12_166_cif.got.tgz:331397.got - 2010.06.03 13:09:07.
