data_PCOD9179124
_publ_section_title
;
Structure prediction by ZEFSAII (Michael W. Deem and Ramdas Pophale) SiO2 
 PCOD9179124
Probable space group: C 2/M
;
_chemical_formula_sum "Si O2"
_cell_formula_units_Z 40
_cell_length_a 23.789648
_cell_length_b 12.550764
_cell_length_c 5.672728
_cell_angle_alpha 90.000000
_cell_angle_beta 105.659296
_cell_angle_gamma 90.000000
_cell_volume 1630.887462
_symmetry_space_group_name_H-M "C 2/M"
_symmetry_group_IT_number 12
_symmetry_cell_setting 'monoclinic'
loop_
_space_group_symop_operation_xyz
x,y,z
-x,y,-z
-x,-y,-z
x,-y,z
1/2+x,1/2+y,z
1/2-x,1/2+y,-z
1/2-x,1/2-y,-z
1/2+x,1/2-y,z
loop_
_atom_site_type_symbol
_atom_site_label
_atom_site_fract_x
_atom_site_fract_y
_atom_site_fract_z
Si Si1 0.594883 0.619583 0.726568
Si Si2 0.154515 0.337551 0.836749
Si Si3 0.408625 0.378199 0.777950
Si Si4 0.520668 0.121396 0.772019
Si Si5 0.189459 0.693996 0.373821
O O1 0.619515 0.500000 0.754628
O O2 0.644714 0.709642 0.793608
O O3 0.561717 0.630076 0.442439
O O4 0.561015 0.631460 0.934282
O O5 0.090253 0.378948 0.830652
O O6 0.173340 0.371617 0.594166
O O7 0.191874 0.358763 0.115200
O O8 0.384314 0.500000 0.752884
O O9 0.360359 0.285122 0.714373
O O10 0.500000 0.168915 0.500000
O O11 0.497004 0.000000 0.746199
O O12 0.500000 0.166544 0.000000
O O13 0.250000 0.750000 0.500000
#
# Coordination Sequence:
#
# PCOD9179124 Si02
#       5
#     8   8   8   8   8
#     4   8  14  25  44  67  90 120 155 191 232 284
#     4  10  19  33  53  74 100 135 173 214 260 316
#     4   8  14  25  40  60  87 122 163 193 222 278
#     4  10  21  38  59  80 103 136 181 231 283 330
#     4  10  19  31  48  73 105 137 168 207 259 316
#
# _framework density 24.526523000000001
#
# number of rings (size 3 to 8) (size 9 to 14) (size 15 to 20)
#    0.000    2.800    0.000    1.800    0.000    0.000 
#    0.000    2.000    0.000    3.600    0.000    0.000 
#    0.000    0.000    0.000    0.000    0.000    0.000 
#
# Total GULP energy -111356.729366 kJ/mol
# GULP energy per Si atom -5567.836468 kJ/mol
# Density = 2.447070 g / cm^3
# Si number density = 24.526523 Si / 1000 Ang^3
#
#
#
# Elastic Constant Matrix: (Units=GPa)
#
#
# Indices 1 2 3 4 5 6 
#
# 1 61.2571 -5.8058 55.1896 0.0000 -11.5280 0.0000
# 2 -5.8058 100.3861 -8.6383 0.0000 -11.7201 0.0000
# 3 55.1896 -8.6383 327.2166 0.0000 -51.4531 0.0000
# 4 0.0000 0.0000 0.0000 -50.9302 0.0000 53.1369
# 5 -11.5280 -11.7201 -51.4531 0.0000 50.9328 0.0000
# 6 0.0000 0.0000 0.0000 53.1369 0.0000 -105.0202
#
#
#
# Elastic Compliance Matrix: (Units=1/GPa)
#
#
# Indices 1 2 3 4 5 6 
#
# 1 0.019427 0.001054 -0.002995 0.000000 0.001614 0.000000
# 2 0.001054 0.010456 0.000611 0.000000 0.003262 0.000000
# 3 -0.002995 0.000611 0.004153 0.000000 0.003658 0.000000
# 4 0.000000 0.000000 0.000000 -0.041589 0.000000 -0.021043
# 5 0.001614 0.003262 0.003658 0.000000 0.024445 0.000000
# 6 0.000000 0.000000 0.000000 -0.021043 0.000000 -0.020169
#
#
# Mechanical properties :
#
#
# Convention : Reuss Voigt Hill
#
# Bulk Modulus (GPa) = 31.87152 63.37231 47.62191
# Shear Modulus (GPa) = 508.16960 8.87074 258.52017
#
# Velocity S-wave (km/s) = 14.40978 1.90385 10.27780
# Velocity P-wave (km/s) = 17.02582 5.54321 12.66108
#
# Compressibility (1/GPa) = 0.03137597
#
# Stress axis : x y z
#
# Youngs Moduli (GPa) = 51.47581 95.63941 240.81847
#
# Poissons Ratio (x) = -0.10083 0.72124
# Poissons Ratio (y) = -0.05427 -0.14718
# Poissons Ratio (z) = 0.15417 -0.05845
#
# Static dielectric constant tensor:
#      x y z
#    x 1.873070 0.000000 -0.072420 
#    y 0.000000 1.988040 0.000000 
#    z -0.072420 0.000000 2.038790 
# 
# From -- ./inp_files/15275.got.cif
#   From: 2010.05.17/outbox.cif.g08.bks.cpg/sg12_8_cif.got.tgz:15275.got - 2010.06.03 13:09:07.
