data_PCOD9179259
_publ_section_title
;
Structure prediction by ZEFSAII (Michael W. Deem and Ramdas Pophale) SiO2 
 PCOD9179259
Probable space group: C 2/M
;
_chemical_formula_sum "Si O2"
_cell_formula_units_Z 56
_cell_length_a 16.723396
_cell_length_b 14.454778
_cell_length_c 11.121225
_cell_angle_alpha 90.000000
_cell_angle_beta 82.220656
_cell_angle_gamma 90.000000
_cell_volume 2663.624986
_symmetry_space_group_name_H-M "C 2/M"
_symmetry_group_IT_number 12
_symmetry_cell_setting 'monoclinic'
loop_
_space_group_symop_operation_xyz
x,y,z
-x,y,-z
-x,-y,-z
x,-y,z
1/2+x,1/2+y,z
1/2-x,1/2+y,-z
1/2-x,1/2-y,-z
1/2+x,1/2-y,z
loop_
_atom_site_type_symbol
_atom_site_label
_atom_site_fract_x
_atom_site_fract_y
_atom_site_fract_z
Si Si1 0.581952 0.862032 0.045461
Si Si2 0.230131 0.109692 0.335742
Si Si3 0.458241 0.608885 0.630796
Si Si4 0.960766 0.391197 0.676150
Si Si5 0.064647 0.145656 0.083743
Si Si6 0.125672 0.612925 0.538909
Si Si7 0.753837 0.152558 0.930794
O O1 0.575154 0.880808 0.187084
O O2 0.577515 0.751009 0.038376
O O3 0.668669 0.895008 0.980747
O O4 0.500000 0.897815 0.000000
O O5 0.136220 0.116033 0.379729
O O6 0.288476 0.142175 0.429375
O O7 0.246841 0.000000 0.306700
O O8 0.248276 0.165528 0.211608
O O9 0.500000 0.647069 0.500000
O O10 0.481220 0.500000 0.634809
O O11 0.465518 0.644285 0.769377
O O12 0.967089 0.500000 0.649200
O O13 0.902650 0.352083 0.585134
O O14 0.052648 0.357558 0.642363
O O15 0.157426 0.107637 0.063529
O O16 0.000000 0.106349 0.000000
O O17 0.129646 0.500000 0.534304
O O18 0.750000 0.250000 0.000000
#
# Coordination Sequence:
#
# PCOD9179259 Si02
#       7
#     8   8   8   8   8   8   8
#     4  10  19  31  49  72  98 133 164 199 239 282
#     4   9  16  29  52  73  93 128 166 194 241 301
#     4   9  18  34  54  75  98 121 158 212 257 296
#     4   9  17  29  45  69 102 130 159 198 236 277
#     4   9  19  36  53  70  97 134 165 199 250 301
#     4   8  15  29  46  66  96 131 157 189 238 286
#     4   9  18  32  50  68  98 128 159 200 239 286
#
# _framework density 21.023980000000002
#
# number of rings (size 3 to 8) (size 9 to 14) (size 15 to 20)
#    0.000    3.000    0.000    1.714    0.000    1.143 
#    5.143    0.000    0.000    2.571    0.000    0.000 
#    0.000    0.000    0.000    0.000    0.000    0.000 
#
# Total GULP energy -155887.277379 kJ/mol
# GULP energy per Si atom -5567.402764 kJ/mol
# Density = 2.097613 g / cm^3
# Si number density = 21.023980 Si / 1000 Ang^3
#
#
#
# Elastic Constant Matrix: (Units=GPa)
#
#
# Indices 1 2 3 4 5 6 
#
# 1 146.4807 5.2934 85.3961 0.0000 18.8446 0.0000
# 2 5.2934 55.5537 -6.7031 0.0000 -0.4144 0.0000
# 3 85.3961 -6.7031 107.4464 0.0000 -15.0637 0.0000
# 4 0.0000 0.0000 0.0000 24.6150 0.0000 -0.1032
# 5 18.8446 -0.4144 -15.0637 0.0000 32.1117 0.0000
# 6 0.0000 0.0000 0.0000 -0.1032 0.0000 -8.5271
#
#
#
# Elastic Compliance Matrix: (Units=1/GPa)
#
#
# Indices 1 2 3 4 5 6 
#
# 1 0.022556 -0.004920 -0.021514 0.000000 -0.023393 0.000000
# 2 -0.004920 0.019230 0.005940 0.000000 0.005922 0.000000
# 3 -0.021514 0.005940 0.030567 0.000000 0.027041 0.000000
# 4 0.000000 0.000000 0.000000 0.040624 0.000000 -0.000492
# 5 -0.023393 0.005922 0.027041 0.000000 0.057630 0.000000
# 6 0.000000 0.000000 0.000000 -0.000492 0.000000 -0.117267
#
#
# Mechanical properties :
#
#
# Convention : Reuss Voigt Hill
#
# Bulk Modulus (GPa) = 31.88077 53.05040 42.46559
# Shear Modulus (GPa) = 47.71780 24.67289 36.19535
#
# Velocity S-wave (km/s) = 4.76929 3.42944 4.15374
# Velocity P-wave (km/s) = 6.74723 6.40074 6.57627
#
# Compressibility (1/GPa) = 0.03136687
#
# Stress axis : x y z
#
# Youngs Moduli (GPa) = 44.33370 52.00142 32.71478
#
# Poissons Ratio (x) = 0.25583 0.70382
# Poissons Ratio (y) = 0.21810 -0.19432
# Poissons Ratio (z) = 0.95378 -0.30888
#
# Static dielectric constant tensor:
#      x y z
#    x 1.795480 0.000000 0.008030 
#    y 0.000000 1.837360 0.000000 
#    z 0.008030 0.000000 1.743660 
# 
# From -- ./inp_files/76853.got.cif
#   From: 2010.05.17/outbox.cif.g08.bks.cpg/sg12_39_cif.got.tgz:76853.got - 2010.06.03 13:09:07.
