data_PCOD9179001
_publ_section_title
;
Structure prediction by ZEFSAII (Michael W. Deem and Ramdas Pophale) SiO2 
 PCOD9179001
Probable space group: C 2/M
;
_chemical_formula_sum "Si O2"
_cell_formula_units_Z 64
_cell_length_a 24.135428
_cell_length_b 7.428618
_cell_length_c 15.589521
_cell_angle_alpha 90.000000
_cell_angle_beta 84.156764
_cell_angle_gamma 90.000000
_cell_volume 2780.567218
_symmetry_space_group_name_H-M "C 2/M"
_symmetry_group_IT_number 12
_symmetry_cell_setting 'monoclinic'
loop_
_space_group_symop_operation_xyz
x,y,z
-x,y,-z
-x,-y,-z
x,-y,z
1/2+x,1/2+y,z
1/2-x,1/2+y,-z
1/2-x,1/2-y,-z
1/2+x,1/2-y,z
loop_
_atom_site_type_symbol
_atom_site_label
_atom_site_fract_x
_atom_site_fract_y
_atom_site_fract_z
Si Si1 0.535852 0.215572 0.677116
Si Si2 0.413315 0.218891 0.967697
Si Si3 0.342150 0.284983 0.382232
Si Si4 0.966262 0.280769 0.129239
Si Si5 0.737115 0.702616 0.739310
Si Si6 0.085870 0.282346 0.342181
Si Si7 0.688830 0.292254 0.432007
Si Si8 0.162976 0.280282 0.168955
O O1 0.592632 0.253421 0.619727
O O2 0.542779 0.283664 0.773358
O O3 0.477610 0.281125 0.648002
O O4 0.530290 0.000000 0.683044
O O5 0.471424 0.267910 0.911635
O O6 0.361172 0.279155 0.918734
O O7 0.411374 0.000000 0.968242
O O8 0.421945 0.278199 0.064341
O O9 0.333567 0.500000 0.382294
O O10 0.317445 0.212805 0.296050
O O11 0.310465 0.217170 0.471898
O O12 0.965105 0.500000 0.129901
O O13 0.723108 0.500000 0.769631
O O14 0.777430 0.695928 0.648811
O O15 0.776830 0.784364 0.806279
O O16 0.086490 0.500000 0.346116
O O17 0.124679 0.214562 0.411816
O O18 0.116954 0.232010 0.248299
O O19 0.706028 0.500000 0.428156
O O20 0.165755 0.500000 0.168604
#
# Coordination Sequence:
#
# PCOD9179001 Si02
#       8
#     8   8   8   8   8   8   8   8
#     4  10  19  31  48  69  95 126 159 192 222 267
#     4   8  11  18  38  68  98 118 137 180 235 270
#     4  10  22  36  47  64  91 126 160 190 231 280
#     4   8  13  21  37  67 100 120 140 182 231 267
#     4   9  18  33  52  70  90 117 154 197 234 271
#     4   9  17  30  47  69  96 122 152 188 230 275
#     4  10  20  33  50  70  91 115 151 197 240 279
#     4   8  12  22  43  68  91 115 144 184 229 271
#
# _framework density 23.016886
#
# number of rings (size 3 to 8) (size 9 to 14) (size 15 to 20)
#    0.000    3.000    1.250    2.250    0.000    2.500 
#    0.000    2.500    0.000    0.750    0.000    5.250 
#    0.000    0.000    0.000    0.000    0.000    0.000 
#
# Total GULP energy -178533.094353 kJ/mol
# GULP energy per Si atom -5579.159199 kJ/mol
# Density = 2.296450 g / cm^3
# Si number density = 23.016886 Si / 1000 Ang^3
#
#
#
# Elastic Constant Matrix: (Units=GPa)
#
#
# Indices 1 2 3 4 5 6 
#
# 1 86.6634 5.6531 2.1056 0.0000 31.1229 0.0000
# 2 5.6531 79.6020 6.0684 0.0000 5.6481 0.0000
# 3 2.1056 6.0684 44.8868 0.0000 27.4233 0.0000
# 4 0.0000 0.0000 0.0000 -6.8448 0.0000 5.5184
# 5 31.1229 5.6481 27.4233 0.0000 43.9356 0.0000
# 6 0.0000 0.0000 0.0000 5.5184 0.0000 4.0301
#
#
#
# Elastic Compliance Matrix: (Units=1/GPa)
#
#
# Indices 1 2 3 4 5 6 
#
# 1 0.018629 -0.000767 0.011689 0.000000 -0.020393 0.000000
# 2 -0.000767 0.012747 -0.001646 0.000000 -0.000068 0.000000
# 3 0.011689 -0.001646 0.043451 0.000000 -0.035190 0.000000
# 4 0.000000 0.000000 0.000000 -0.069440 0.000000 0.095082
# 5 -0.020393 -0.000068 -0.035190 0.000000 0.059180 0.000000
# 6 0.000000 0.000000 0.000000 0.095082 0.000000 0.117937
#
#
# Mechanical properties :
#
#
# Convention : Reuss Voigt Hill
#
# Bulk Modulus (GPa) = 10.70896 26.53405 18.62151
# Shear Modulus (GPa) = 25.63064 21.37920 23.50492
#
# Velocity S-wave (km/s) = 3.34062 3.05101 3.19909
# Velocity P-wave (km/s) = 4.42068 4.89537 4.66407
#
# Compressibility (1/GPa) = 0.09337979
#
# Stress axis : x y z
#
# Youngs Moduli (GPa) = 53.68061 78.44821 23.01428
#
# Poissons Ratio (x) = 0.06017 -0.26902
# Poissons Ratio (y) = 0.04118 0.03788
# Poissons Ratio (z) = -0.62748 0.12911
#
# Static dielectric constant tensor:
#      x y z
#    x 1.899100 0.000000 0.051220 
#    y 0.000000 1.935710 0.000000 
#    z 0.051220 0.000000 1.853660 
# 
# From -- ./inp_files/287627.got.cif
#   From: 2010.05.17/outbox.cif.g08.bks.cpg/sg12_144_cif.got.tgz:287627.got - 2010.06.03 13:09:07.
