data_PCOD9179115
_publ_section_title
;
Structure prediction by ZEFSAII (Michael W. Deem and Ramdas Pophale) SiO2 
 PCOD9179115
Probable space group: C 2/M
;
_chemical_formula_sum "Si O2"
_cell_formula_units_Z 48
_cell_length_a 14.019259
_cell_length_b 14.933392
_cell_length_c 10.733961
_cell_angle_alpha 90.000000
_cell_angle_beta 104.937848
_cell_angle_gamma 90.000000
_cell_volume 2171.267211
_symmetry_space_group_name_H-M "C 2/M"
_symmetry_group_IT_number 12
_symmetry_cell_setting 'monoclinic'
loop_
_space_group_symop_operation_xyz
x,y,z
-x,y,-z
-x,-y,-z
x,-y,z
1/2+x,1/2+y,z
1/2-x,1/2+y,-z
1/2-x,1/2-y,-z
1/2+x,1/2-y,z
loop_
_atom_site_type_symbol
_atom_site_label
_atom_site_fract_x
_atom_site_fract_y
_atom_site_fract_z
Si Si1 0.835108 0.809604 0.871942
Si Si2 0.452281 0.307199 0.352918
Si Si3 0.357988 0.500000 0.960387
Si Si4 0.894215 0.311104 0.116593
Si Si5 0.435431 0.500000 0.262967
Si Si6 0.709131 0.000000 0.292115
Si Si7 0.770580 0.694659 0.631556
Si Si8 0.631856 0.000000 0.987801
O O1 0.719751 0.814519 0.874338
O O2 0.835326 0.756438 0.743779
O O3 0.873529 0.910356 0.887504
O O4 0.890166 0.753839 0.996737
O O5 0.500000 0.281048 0.500000
O O6 0.457935 0.233495 0.246684
O O7 0.485250 0.407222 0.323698
O O8 0.335484 0.314705 0.338288
O O9 0.419296 0.500000 0.109056
O O10 0.243960 0.500000 0.970282
O O11 0.918997 0.410568 0.080387
O O12 0.324504 0.500000 0.286161
O O13 0.690960 0.907604 0.361076
O O14 0.647926 0.000000 0.142043
O O15 0.750000 0.750000 0.500000
#
# Coordination Sequence:
#
# PCOD9179115 Si02
#       8
#     8   8   4   8   4   4   8   4
#     4   9  15  25  43  68  94 118 153 200 238 269
#     4  10  19  31  48  73 102 129 156 192 239 291
#     4   9  14  22  42  73  99 114 147 206 246 273
#     4   9  15  25  44  68  90 117 158 202 237 267
#     4   9  15  26  47  75  99 123 155 190 238 289
#     4   9  16  28  48  71  95 123 159 200 235 283
#     4  10  20  32  48  72 100 129 159 193 240 289
#     4   9  14  24  44  69  91 116 157 208 248 265
#
# _framework density 22.106905999999999
#
# number of rings (size 3 to 8) (size 9 to 14) (size 15 to 20)
#    0.000    2.667    3.333    0.250    0.000    0.667 
#    0.000    1.250    0.000    1.000    0.000    2.333 
#    0.000    0.000    0.000    0.000    0.000    0.000 
#
# Total GULP energy -134096.377201 kJ/mol
# GULP energy per Si atom -5587.349050 kJ/mol
# Density = 2.205659 g / cm^3
# Si number density = 22.106906 Si / 1000 Ang^3
#
#
#
# Elastic Constant Matrix: (Units=GPa)
#
#
# Indices 1 2 3 4 5 6 
#
# 1 69.0683 9.5529 -2.7964 0.0000 1.6152 0.0000
# 2 9.5529 261.0312 127.9066 0.0000 -4.1502 0.0000
# 3 -2.7964 127.9066 192.4222 0.0000 2.8863 0.0000
# 4 0.0000 0.0000 0.0000 29.7823 0.0000 1.7395
# 5 1.6152 -4.1502 2.8863 0.0000 17.2038 0.0000
# 6 0.0000 0.0000 0.0000 1.7395 0.0000 -2.0300
#
#
#
# Elastic Compliance Matrix: (Units=1/GPa)
#
#
# Indices 1 2 3 4 5 6 
#
# 1 0.014697 -0.001014 0.000914 0.000000 -0.001778 0.000000
# 2 -0.001014 0.005822 -0.003917 0.000000 0.002157 0.000000
# 3 0.000914 -0.003917 0.007849 0.000000 -0.002348 0.000000
# 4 0.000000 0.000000 0.000000 0.031977 0.000000 0.027401
# 5 -0.001778 0.002157 -0.002348 0.000000 0.059208 0.000000
# 6 0.000000 0.000000 0.000000 0.027401 0.000000 -0.469130
#
#
# Mechanical properties :
#
#
# Convention : Reuss Voigt Hill
#
# Bulk Modulus (GPa) = 49.17706 87.98309 68.58007
# Shear Modulus (GPa) = -14.93579 34.84847 9.95634
#
# Velocity S-wave (km/s) = -2.60208 3.97465 2.12450
# Velocity P-wave (km/s) = 3.64220 7.80699 6.09158
#
# Compressibility (1/GPa) = 0.02033469
#
# Stress axis : x y z
#
# Youngs Moduli (GPa) = 68.03973 171.77293 127.40465
#
# Poissons Ratio (x) = 0.17421 -0.11650
# Poissons Ratio (y) = 0.06901 0.49902
# Poissons Ratio (z) = -0.06222 0.67281
#
# Static dielectric constant tensor:
#      x y z
#    x 1.885660 0.000000 -0.002580 
#    y 0.000000 1.810250 0.000000 
#    z -0.002580 0.000000 1.759660 
# 
# From -- ./inp_files/165230.got.cif
#   From: 2010.05.17/outbox.cif.g08.bks.cpg/sg12_83_cif.got.tgz:165230.got - 2010.06.03 13:09:07.
