data_PCOD9179680
_publ_section_title
;
Structure prediction by ZEFSAII (Michael W. Deem and Ramdas Pophale) SiO2 
 PCOD9179680
Probable space group: C 2/M
;
_chemical_formula_sum "Si O2"
_cell_formula_units_Z 64
_cell_length_a 13.096005
_cell_length_b 18.049814
_cell_length_c 13.498646
_cell_angle_alpha 90.000000
_cell_angle_beta 96.602722
_cell_angle_gamma 90.000000
_cell_volume 3169.652362
_symmetry_space_group_name_H-M "C 2/M"
_symmetry_group_IT_number 12
_symmetry_cell_setting 'monoclinic'
loop_
_space_group_symop_operation_xyz
x,y,z
-x,y,-z
-x,-y,-z
x,-y,z
1/2+x,1/2+y,z
1/2-x,1/2+y,-z
1/2-x,1/2-y,-z
1/2+x,1/2-y,z
loop_
_atom_site_type_symbol
_atom_site_label
_atom_site_fract_x
_atom_site_fract_y
_atom_site_fract_z
Si Si1 0.884725 0.317344 0.711409
Si Si2 0.542086 0.416446 0.846080
Si Si3 0.670202 0.414294 0.052851
Si Si4 0.705854 0.325722 0.541388
Si Si5 0.266444 0.416921 0.645035
Si Si6 0.757131 0.793379 0.803827
Si Si7 0.519859 0.083270 0.611511
Si Si8 0.440164 0.288627 0.309125
O O1 0.789185 0.344170 0.635483
O O2 0.835291 0.277043 0.802325
O O3 0.967501 0.382349 0.703531
O O4 0.952281 0.252582 0.669485
O O5 0.549973 0.500000 0.809708
O O6 0.435852 0.410227 0.895718
O O7 0.547125 0.359065 0.758834
O O8 0.633608 0.404553 0.935744
O O9 0.709754 0.500000 0.069829
O O10 0.738273 0.344854 0.098010
O O11 0.750000 0.250000 0.500000
O O12 0.699948 0.388532 0.458521
O O13 0.603376 0.308794 0.589252
O O14 0.303822 0.500000 0.672071
O O15 0.292954 0.353513 0.725936
O O16 0.142283 0.418295 0.634065
O O17 0.646138 0.762836 0.756088
O O18 0.500000 0.119626 0.500000
O O19 0.478459 0.000000 0.598777
#
# Coordination Sequence:
#
# PCOD9179680 Si02
#       8
#     8   8   8   8   8   8   8   8
#     4  11  20  33  52  74 111 139 180 227 266 313
#     4   9  19  37  59  83 108 141 179 220 277 337
#     4   9  18  36  61  82 108 140 175 225 280 330
#     4  11  21  35  50  75 107 152 185 213 270 317
#     4  11  21  34  50  76 109 139 184 231 262 312
#     4  11  21  34  55  83 107 140 179 223 278 318
#     4  10  19  31  51  72  98 142 190 228 257 299
#     4  11  22  34  55  81 110 143 183 224 270 328
#
# _framework density 20.191489000000001
#
# number of rings (size 3 to 8) (size 9 to 14) (size 15 to 20)
#    0.000    1.625    6.250    1.125    0.000    1.000 
#    0.000    1.875    0.000    0.750    0.000    0.000 
#    0.000    9.000    0.000    0.000    0.000    0.000 
#
# Total GULP energy -178339.537280 kJ/mol
# GULP energy per Si atom -5573.110540 kJ/mol
# Density = 2.014553 g / cm^3
# Si number density = 20.191489 Si / 1000 Ang^3
#
#
#
# Elastic Constant Matrix: (Units=GPa)
#
#
# Indices 1 2 3 4 5 6 
#
# 1 42.4973 -7.6580 -7.1909 0.0000 3.3492 0.0000
# 2 -7.6580 81.9801 20.4711 0.0000 1.3894 0.0000
# 3 -7.1909 20.4711 35.6927 0.0000 5.3615 0.0000
# 4 0.0000 0.0000 0.0000 35.9804 0.0000 3.7189
# 5 3.3492 1.3894 5.3615 0.0000 19.6546 0.0000
# 6 0.0000 0.0000 0.0000 3.7189 0.0000 16.5838
#
#
#
# Elastic Compliance Matrix: (Units=1/GPa)
#
#
# Indices 1 2 3 4 5 6 
#
# 1 0.025083 0.001123 0.005280 0.000000 -0.005794 0.000000
# 2 0.001123 0.014318 -0.008138 0.000000 0.001017 0.000000
# 3 0.005280 -0.008138 0.035241 0.000000 -0.009938 0.000000
# 4 0.000000 0.000000 0.000000 0.028452 0.000000 -0.006380
# 5 -0.005794 0.001017 -0.009938 0.000000 0.054505 0.000000
# 6 0.000000 0.000000 0.000000 -0.006380 0.000000 0.061731
#
#
# Mechanical properties :
#
#
# Convention : Reuss Voigt Hill
#
# Bulk Modulus (GPa) = 14.05071 19.04606 16.54839
# Shear Modulus (GPa) = 20.28190 24.74696 22.51443
#
# Velocity S-wave (km/s) = 3.17279 3.50467 3.34285
# Velocity P-wave (km/s) = 4.51619 5.08234 4.80761
#
# Compressibility (1/GPa) = 0.07117077
#
# Stress axis : x y z
#
# Youngs Moduli (GPa) = 39.86729 69.84233 28.37601
#
# Poissons Ratio (x) = -0.07842 -0.14982
# Poissons Ratio (y) = -0.04477 0.23093
# Poissons Ratio (z) = -0.21049 0.56840
#
# Static dielectric constant tensor:
#      x y z
#    x 1.764660 0.000000 0.030420 
#    y 0.000000 1.758780 0.000000 
#    z 0.030420 0.000000 1.744430 
# 
# From -- ./inp_files/215938.got.cif
#   From: 2010.05.17/outbox.cif.g08.bks.cpg/sg12_108_cif.got.tgz:215938.got - 2010.06.03 13:09:07.
