data_PCOD9179040
_publ_section_title
;
Structure prediction by ZEFSAII (Michael W. Deem and Ramdas Pophale) SiO2 
 PCOD9179040
Probable space group: C 2/M
;
_chemical_formula_sum "Si O2"
_cell_formula_units_Z 64
_cell_length_a 29.141000
_cell_length_b 9.028170
_cell_length_c 15.826363
_cell_angle_alpha 90.000000
_cell_angle_beta 91.638221
_cell_angle_gamma 90.000000
_cell_volume 4162.054424
_symmetry_space_group_name_H-M "C 2/M"
_symmetry_group_IT_number 12
_symmetry_cell_setting 'monoclinic'
loop_
_space_group_symop_operation_xyz
x,y,z
-x,y,-z
-x,-y,-z
x,-y,z
1/2+x,1/2+y,z
1/2-x,1/2+y,-z
1/2-x,1/2-y,-z
1/2+x,1/2-y,z
loop_
_atom_site_type_symbol
_atom_site_label
_atom_site_fract_x
_atom_site_fract_y
_atom_site_fract_z
Si Si1 0.550782 0.823090 0.182817
Si Si2 0.391797 0.821428 0.333984
Si Si3 0.294569 0.176881 0.400236
Si Si4 0.057527 0.322386 0.834303
Si Si5 0.105958 0.177487 0.338780
Si Si6 0.555640 0.670135 0.008396
Si Si7 0.801717 0.323887 0.600518
Si Si8 0.946804 0.177947 0.490398
O O1 0.496196 0.788387 0.187088
O O2 0.578581 0.746937 0.259330
O O3 0.567130 0.761613 0.092986
O O4 0.555776 0.000000 0.186570
O O5 0.338882 0.780145 0.347961
O O6 0.411877 0.777864 0.244151
O O7 0.422307 0.752894 0.409906
O O8 0.394593 0.000000 0.340189
O O9 0.248067 0.262488 0.376279
O O10 0.305824 0.206570 0.499731
O O11 0.286946 0.000000 0.392090
O O12 0.060582 0.500000 0.845673
O O13 0.071539 0.243657 0.921943
O O14 0.156882 0.243047 0.350225
O O15 0.079351 0.215596 0.424322
O O16 0.107302 0.000000 0.331269
O O17 0.570600 0.500000 0.016514
O O18 0.500000 0.671370 0.000000
O O19 0.804500 0.500000 0.612649
O O20 0.000000 0.222230 0.500000
O O21 0.944979 0.000000 0.479894
#
# Coordination Sequence:
#
# PCOD9179040 Si02
#       8
#     8   8   8   8   8   8   8   8
#     4  10  19  31  48  70  97 128 163 200 237 281
#     4  10  19  32  49  70  95 126 162 198 236 282
#     4   9  18  32  49  69  93 121 157 201 245 284
#     4   9  18  31  48  71  98 128 161 198 238 280
#     4  11  21  32  47  68  96 128 162 199 240 284
#     4   9  17  30  48  69  94 125 160 199 241 281
#     4  10  19  32  50  69  91 121 160 202 244 286
#     4  10  21  33  44  63  95 132 165 196 231 275
#
# _framework density 15.377020999999999
#
# number of rings (size 3 to 8) (size 9 to 14) (size 15 to 20)
#    0.000    2.250    1.250    2.250    0.000    4.250 
#    0.000    0.000    0.000    0.000    0.000    0.875 
#    0.000    0.000    0.000    0.000    0.000    0.000 
#
# Total GULP energy -178517.228366 kJ/mol
# GULP energy per Si atom -5578.663386 kJ/mol
# Density = 1.534202 g / cm^3
# Si number density = 15.377021 Si / 1000 Ang^3
#
#
#
# Elastic Constant Matrix: (Units=GPa)
#
#
# Indices 1 2 3 4 5 6 
#
# 1 106.9989 42.8341 64.7045 0.0000 -13.5475 0.0000
# 2 42.8341 45.2595 47.8342 0.0000 -6.6202 0.0000
# 3 64.7045 47.8342 115.1822 0.0000 -23.2928 0.0000
# 4 0.0000 0.0000 0.0000 27.1629 0.0000 5.6815
# 5 -13.5475 -6.6202 -23.2928 0.0000 11.3248 0.0000
# 6 0.0000 0.0000 0.0000 5.6815 0.0000 17.6755
#
#
#
# Elastic Compliance Matrix: (Units=1/GPa)
#
#
# Indices 1 2 3 4 5 6 
#
# 1 0.016748 -0.011296 -0.003426 0.000000 0.006385 0.000000
# 2 -0.011296 0.049311 -0.018896 0.000000 -0.023551 0.000000
# 3 -0.003426 -0.018896 0.026352 0.000000 0.039056 0.000000
# 4 0.000000 0.000000 0.000000 0.039468 0.000000 -0.012686
# 5 0.006385 -0.023551 0.039056 0.000000 0.162502 0.000000
# 6 0.000000 0.000000 0.000000 -0.012686 0.000000 0.060653
#
#
# Mechanical properties :
#
#
# Convention : Reuss Voigt Hill
#
# Bulk Modulus (GPa) = 39.72032 64.24291 51.98162
# Shear Modulus (GPa) = 11.61005 18.70384 15.15694
#
# Velocity S-wave (km/s) = 2.75075 3.49140 3.14297
# Velocity P-wave (km/s) = 5.99799 7.62381 6.85924
#
# Compressibility (1/GPa) = 0.02517603
#
# Stress axis : x y z
#
# Youngs Moduli (GPa) = 59.70834 20.27953 37.94805
#
# Poissons Ratio (x) = 0.22907 0.13002
# Poissons Ratio (y) = 0.67444 0.71705
# Poissons Ratio (z) = 0.20457 0.38319
#
# Static dielectric constant tensor:
#      x y z
#    x 1.498020 0.000000 -0.014350 
#    y 0.000000 1.510450 0.000000 
#    z -0.014350 0.000000 1.487430 
# 
# From -- ./inp_files/244094.got.cif
#   From: 2010.05.17/outbox.cif.g08.bks.cpg/sg12_123_cif.got.tgz:244094.got - 2010.06.03 13:09:07.
