data_PCOD9179849
_publ_section_title
;
Structure prediction by ZEFSAII (Michael W. Deem and Ramdas Pophale) SiO2 
 PCOD9179849
Probable space group: C 2/M
;
_chemical_formula_sum "Si O2"
_cell_formula_units_Z 44
_cell_length_a 11.839719
_cell_length_b 24.325058
_cell_length_c 10.800720
_cell_angle_alpha 90.000000
_cell_angle_beta 141.827758
_cell_angle_gamma 90.000000
_cell_volume 1922.453559
_symmetry_space_group_name_H-M "C 2/M"
_symmetry_group_IT_number 12
_symmetry_cell_setting 'monoclinic'
loop_
_space_group_symop_operation_xyz
x,y,z
-x,y,-z
-x,-y,-z
x,-y,z
1/2+x,1/2+y,z
1/2-x,1/2+y,-z
1/2-x,1/2-y,-z
1/2+x,1/2-y,z
loop_
_atom_site_type_symbol
_atom_site_label
_atom_site_fract_x
_atom_site_fract_y
_atom_site_fract_z
Si Si1 0.168683 0.624702 0.401366
Si Si2 0.791223 0.313413 0.056592
Si Si3 0.279228 0.113910 0.824159
Si Si4 0.686065 0.500000 0.735757
Si Si5 0.712728 0.123732 0.702996
Si Si6 0.638749 0.000000 0.370946
Si Si7 0.688066 0.500000 0.231132
O O1 0.282114 0.620582 0.371468
O O2 0.285765 0.634526 0.626504
O O3 0.074122 0.563428 0.335681
O O4 0.008054 0.669633 0.247947
O O5 0.717422 0.341274 0.120307
O O6 0.750000 0.250000 0.000000
O O7 0.721076 0.340982 0.870386
O O8 0.215084 0.056572 0.827908
O O9 0.500000 0.113627 0.000000
O O10 0.500000 0.500000 0.500000
O O11 0.832229 0.500000 0.750119
O O12 0.500000 0.138172 0.500000
O O13 0.724321 0.058007 0.732391
O O14 0.807795 0.000000 0.615020
O O15 0.500000 0.500000 0.000000
#
# Coordination Sequence:
#
# PCOD9179849 Si02
#       7
#     8   8   8   4   8   4   4
#     4   8  16  34  58  79 101 136 174 210 258 324
#     4  10  20  33  51  78 104 130 180 235 256 279
#     4   9  18  34  56  78 104 138 173 211 260 318
#     4  10  19  31  51  82 113 136 162 209 266 320
#     4   9  18  34  56  78 104 138 173 211 260 318
#     4   8  16  32  54  80 110 138 170 206 264 340
#     4  10  19  31  51  82 113 136 162 209 266 320
#
# _framework density 22.887419000000001
#
# number of rings (size 3 to 8) (size 9 to 14) (size 15 to 20)
#    0.000    2.909    0.000    0.545    0.000    6.545 
#    0.000    6.364    0.000    0.000    0.000    0.000 
#    0.000    0.000    0.000    0.000    0.000    0.000 
#
# Total GULP energy -122487.783568 kJ/mol
# GULP energy per Si atom -5567.626526 kJ/mol
# Density = 2.283533 g / cm^3
# Si number density = 22.887419 Si / 1000 Ang^3
#
#
#
# Elastic Constant Matrix: (Units=GPa)
#
#
# Indices 1 2 3 4 5 6 
#
# 1 64.3285 49.2320 45.0621 0.0000 -39.5523 0.0000
# 2 49.2320 213.3504 54.0876 0.0000 -35.6779 0.0000
# 3 45.0621 54.0876 94.2040 0.0000 -37.2927 0.0000
# 4 0.0000 0.0000 0.0000 26.1324 0.0000 -16.3547
# 5 -39.5523 -35.6779 -37.2927 0.0000 45.1775 0.0000
# 6 0.0000 0.0000 0.0000 -16.3547 0.0000 74.4134
#
#
#
# Elastic Compliance Matrix: (Units=1/GPa)
#
#
# Indices 1 2 3 4 5 6 
#
# 1 0.038047 -0.002854 -0.006338 0.000000 0.025824 0.000000
# 2 -0.002854 0.005909 -0.001737 0.000000 0.000734 0.000000
# 3 -0.006338 -0.001737 0.017683 0.000000 0.007677 0.000000
# 4 0.000000 0.000000 0.000000 0.044370 0.000000 0.009752
# 5 0.025824 0.000734 0.007677 0.000000 0.051659 0.000000
# 6 0.000000 0.000000 0.000000 0.009752 0.000000 0.015582
#
#
# Mechanical properties :
#
#
# Convention : Reuss Voigt Hill
#
# Bulk Modulus (GPa) = 25.13769 74.29402 49.71585
# Shear Modulus (GPa) = 23.99600 44.04475 34.02037
#
# Velocity S-wave (km/s) = 3.24147 4.39157 3.85960
# Velocity P-wave (km/s) = 5.00165 7.63188 6.45221
#
# Compressibility (1/GPa) = 0.03978091
#
# Stress axis : x y z
#
# Youngs Moduli (GPa) = 26.28316 169.23972 56.55138
#
# Poissons Ratio (x) = 0.48309 0.35842
# Poissons Ratio (y) = 0.07502 0.09821
# Poissons Ratio (z) = 0.16658 0.29391
#
# Static dielectric constant tensor:
#      x y z
#    x 1.987780 0.000000 -0.025440 
#    y 0.000000 1.856590 0.000000 
#    z -0.025440 0.000000 1.900100 
# 
# From -- ./inp_files/148733.got.cif
#   From: 2010.05.17/outbox.cif.g08.bks.cpg/sg12_75_cif.got.tgz:148733.got - 2010.06.03 13:09:07.
