data_PCOD9179717
_publ_section_title
;
Structure prediction by ZEFSAII (Michael W. Deem and Ramdas Pophale) SiO2 
 PCOD9179717
Probable space group: C 2/M
;
_chemical_formula_sum "Si O2"
_cell_formula_units_Z 40
_cell_length_a 5.447147
_cell_length_b 43.463615
_cell_length_c 8.015344
_cell_angle_alpha 90.000000
_cell_angle_beta 119.867888
_cell_angle_gamma 90.000000
_cell_volume 1645.600286
_symmetry_space_group_name_H-M "C 2/M"
_symmetry_group_IT_number 12
_symmetry_cell_setting 'monoclinic'
loop_
_space_group_symop_operation_xyz
x,y,z
-x,y,-z
-x,-y,-z
x,-y,z
1/2+x,1/2+y,z
1/2-x,1/2+y,-z
1/2-x,1/2-y,-z
1/2+x,1/2-y,z
loop_
_atom_site_type_symbol
_atom_site_label
_atom_site_fract_x
_atom_site_fract_y
_atom_site_fract_z
Si Si1 0.673755 0.535592 0.734984
Si Si2 0.700096 0.640238 0.217788
Si Si3 0.300094 0.837666 0.781922
Si Si4 0.672356 0.733506 0.732873
Si Si5 0.827438 0.569169 0.267042
O O1 0.500000 0.535969 0.500000
O O2 0.716508 0.500000 0.793798
O O3 0.468769 0.552392 0.796269
O O4 0.968196 0.552612 0.795898
O O5 0.494369 0.644161 0.306151
O O6 0.772914 0.604777 0.211554
O O7 0.994600 0.658369 0.306692
O O8 0.500000 0.652228 0.000000
O O9 0.229613 0.802131 0.787269
O O10 0.500000 0.849548 0.000000
O O11 0.500000 0.734520 0.500000
O O12 0.466474 0.749115 0.797440
O O13 0.000000 0.568291 0.500000
#
# Coordination Sequence:
#
# PCOD9179717 Si02
#       5
#     8   8   8   8   8
#     4   9  17  30  49  74 102 129 162 207 251 292
#     4  10  21  36  52  73 103 134 165 206 252 292
#     4  10  21  36  54  75  99 133 172 204 242 294
#     4  10  21  36  54  78 106 133 162 202 252 296
#     4  10  19  31  51  76  98 128 169 205 245 298
#
# _framework density 24.307237000000001
#
# number of rings (size 3 to 8) (size 9 to 14) (size 15 to 20)
#    0.000    2.200    0.000    3.000    0.000    4.800 
#    0.000    0.000    0.000    3.600    0.000    0.000 
#    0.000    0.000    0.000    0.000    0.000    0.000 
#
# Total GULP energy -111940.104019 kJ/mol
# GULP energy per Si atom -5597.005201 kJ/mol
# Density = 2.425191 g / cm^3
# Si number density = 24.307237 Si / 1000 Ang^3
#
#
#
# Elastic Constant Matrix: (Units=GPa)
#
#
# Indices 1 2 3 4 5 6 
#
# 1 242.6287 90.7775 27.6795 0.0000 17.2147 0.0000
# 2 90.7775 162.0832 -22.1313 0.0000 8.2371 0.0000
# 3 27.6795 -22.1313 82.1484 0.0000 4.4471 0.0000
# 4 0.0000 0.0000 0.0000 20.2526 0.0000 2.2523
# 5 17.2147 8.2371 4.4471 0.0000 37.8237 0.0000
# 6 0.0000 0.0000 0.0000 2.2523 0.0000 56.8563
#
#
#
# Elastic Compliance Matrix: (Units=1/GPa)
#
#
# Indices 1 2 3 4 5 6 
#
# 1 0.005920 -0.003631 -0.002888 0.000000 -0.001564 0.000000
# 2 -0.003631 0.008731 0.003612 0.000000 -0.000674 0.000000
# 3 -0.002888 0.003612 0.014181 0.000000 -0.001139 0.000000
# 4 0.000000 0.000000 0.000000 0.049595 0.000000 -0.001965
# 5 -0.001564 -0.000674 -0.001139 0.000000 0.027431 0.000000
# 6 0.000000 0.000000 0.000000 -0.001965 0.000000 0.017666
#
#
# Mechanical properties :
#
#
# Convention : Reuss Voigt Hill
#
# Bulk Modulus (GPa) = 43.44490 75.50128 59.47309
# Shear Modulus (GPa) = 36.49351 49.02218 42.75784
#
# Velocity S-wave (km/s) = 3.87892 4.49572 4.19866
# Velocity P-wave (km/s) = 6.16226 7.62085 6.93003
#
# Compressibility (1/GPa) = 0.02301766
#
# Stress axis : x y z
#
# Youngs Moduli (GPa) = 168.90707 114.54073 70.51676
#
# Poissons Ratio (x) = 0.41586 0.20367
# Poissons Ratio (y) = 0.61325 -0.25470
# Poissons Ratio (z) = 0.48786 -0.41371
#
# Static dielectric constant tensor:
#      x y z
#    x 1.969840 0.000000 -0.034090 
#    y 0.000000 1.818380 0.000000 
#    z -0.034090 0.000000 2.005430 
# 
# From -- ./inp_files/116174.got.cif
#   From: 2010.05.17/outbox.cif.g08.bks.cpg/sg12_59_cif.got.tgz:116174.got - 2010.06.03 13:09:07.
