data_PCOD9179560
_publ_section_title
;
Structure prediction by ZEFSAII (Michael W. Deem and Ramdas Pophale) SiO2 
 PCOD9179560
Probable space group: C 2/M
;
_chemical_formula_sum "Si O2"
_cell_formula_units_Z 48
_cell_length_a 22.574243
_cell_length_b 7.441022
_cell_length_c 24.532703
_cell_angle_alpha 90.000000
_cell_angle_beta 150.245494
_cell_angle_gamma 90.000000
_cell_volume 2045.135762
_symmetry_space_group_name_H-M "C 2/M"
_symmetry_group_IT_number 12
_symmetry_cell_setting 'monoclinic'
loop_
_space_group_symop_operation_xyz
x,y,z
-x,y,-z
-x,-y,-z
x,-y,z
1/2+x,1/2+y,z
1/2-x,1/2+y,-z
1/2-x,1/2-y,-z
1/2+x,1/2-y,z
loop_
_atom_site_type_symbol
_atom_site_label
_atom_site_fract_x
_atom_site_fract_y
_atom_site_fract_z
Si Si1 0.137770 0.715674 0.041097
Si Si2 0.261443 0.718138 0.245161
Si Si3 0.993553 0.782779 0.622813
Si Si4 0.776227 0.207359 0.378974
Si Si5 0.873657 0.219150 0.166496
Si Si6 0.985640 0.788274 0.821995
O O1 0.144519 0.500000 0.049364
O O2 0.162179 0.780662 0.122052
O O3 0.248619 0.781185 0.092157
O O4 0.020939 0.756021 0.912889
O O5 0.248478 0.500000 0.237966
O O6 0.389302 0.756791 0.319619
O O7 0.265208 0.788382 0.309588
O O8 0.875351 0.714273 0.498476
O O9 0.024727 0.724968 0.708936
O O10 0.985632 0.000000 0.619805
O O11 0.642792 0.210879 0.295089
O O12 0.813365 0.000000 0.400350
O O13 0.912177 0.281025 0.137486
O O14 0.866906 0.000000 0.160575
O O15 0.977096 0.000000 0.807033
#
# Coordination Sequence:
#
# PCOD9179560 Si02
#       6
#     8   8   8   8   8   8
#     4   9  17  33  55  73  90 118 161 205 240 275
#     4   8  15  29  52  78  96 114 151 205 248 273
#     4   8  14  28  52  77  95 116 154 201 242 278
#     4  10  19  31  50  75  99 124 156 192 233 285
#     4   8  16  31  51  73  95 121 155 199 243 277
#     4  11  22  33  45  67 102 135 159 188 232 282
#
# _framework density 23.470323
#
# number of rings (size 3 to 8) (size 9 to 14) (size 15 to 20)
#    0.000    3.000    0.000    3.500    0.000    3.333 
#    0.000    5.000    0.000    7.000    0.000    0.000 
#    0.000    0.000    0.000    0.000    0.000    0.000 
#
# Total GULP energy -133957.706829 kJ/mol
# GULP energy per Si atom -5581.571118 kJ/mol
# Density = 2.341690 g / cm^3
# Si number density = 23.470323 Si / 1000 Ang^3
#
#
#
# Elastic Constant Matrix: (Units=GPa)
#
#
# Indices 1 2 3 4 5 6 
#
# 1 42.1397 -3.5189 6.7940 0.0000 -19.5381 0.0000
# 2 -3.5189 69.3779 -1.4315 0.0000 -6.3817 -0.0001
# 3 6.7940 -1.4315 135.2672 0.0000 -14.4620 0.0000
# 4 0.0000 0.0000 0.0000 -11.9833 0.0000 4.9139
# 5 -19.5381 -6.3817 -14.4620 0.0000 21.2513 0.0000
# 6 0.0000 -0.0001 0.0000 4.9139 0.0000 2.5628
#
#
#
# Elastic Compliance Matrix: (Units=1/GPa)
#
#
# Indices 1 2 3 4 5 6 
#
# 1 0.044556 0.006422 0.002606 0.000000 0.044666 0.000000
# 2 0.006422 0.015808 0.001061 0.000000 0.011373 0.000000
# 3 0.002606 0.001061 0.008157 0.000000 0.008265 0.000000
# 4 0.000000 0.000000 0.000000 -0.046717 0.000000 0.089576
# 5 0.044666 0.011373 0.008265 0.000000 0.097161 0.000000
# 6 0.000000 0.000000 0.000000 0.089576 0.000000 0.218444
#
#
# Mechanical properties :
#
#
# Convention : Reuss Voigt Hill
#
# Bulk Modulus (GPa) = 11.27424 27.83021 19.55222
# Shear Modulus (GPa) = 14.41761 18.69556 16.55659
#
# Velocity S-wave (km/s) = 2.48118 2.82540 2.65887
# Velocity P-wave (km/s) = 3.60865 4.74629 4.21602
#
# Compressibility (1/GPa) = 0.08869779
#
# Stress axis : x y z
#
# Youngs Moduli (GPa) = 22.44348 63.26063 122.59757
#
# Poissons Ratio (x) = -0.40628 -0.31943
# Poissons Ratio (y) = -0.14414 -0.13004
# Poissons Ratio (z) = -0.05848 -0.06710
#
# Static dielectric constant tensor:
#      x y z
#    x 1.875460 0.000000 -0.018940 
#    y 0.000000 1.984000 0.000000 
#    z -0.018940 0.000000 1.889350 
# 
# From -- ./inp_files/164195.got.cif
#   From: 2010.05.17/outbox.cif.g08.bks.cpg/sg12_83_cif.got.tgz:164195.got - 2010.06.03 13:09:07.
