data_PCOD9179754
_publ_section_title
;
Structure prediction by ZEFSAII (Michael W. Deem and Ramdas Pophale) SiO2 
 PCOD9179754
Probable space group: C 2/M
;
_chemical_formula_sum "Si O2"
_cell_formula_units_Z 64
_cell_length_a 29.573787
_cell_length_b 7.852176
_cell_length_c 14.732439
_cell_angle_alpha 90.000000
_cell_angle_beta 86.857363
_cell_angle_gamma 90.000000
_cell_volume 3416.001184
_symmetry_space_group_name_H-M "C 2/M"
_symmetry_group_IT_number 12
_symmetry_cell_setting 'monoclinic'
loop_
_space_group_symop_operation_xyz
x,y,z
-x,y,-z
-x,-y,-z
x,-y,z
1/2+x,1/2+y,z
1/2-x,1/2+y,-z
1/2-x,1/2-y,-z
1/2+x,1/2-y,z
loop_
_atom_site_type_symbol
_atom_site_label
_atom_site_fract_x
_atom_site_fract_y
_atom_site_fract_z
Si Si1 0.550779 0.708793 0.522618
Si Si2 0.528801 0.203466 0.195690
Si Si3 0.665292 0.702829 0.184519
Si Si4 0.858281 0.198957 0.148015
Si Si5 0.596180 0.197768 0.038227
Si Si6 0.068303 0.206122 0.725681
Si Si7 0.099185 0.200318 0.341300
Si Si8 0.760231 0.796279 0.103080
O O1 0.500000 0.759711 0.500000
O O2 0.551221 0.500000 0.522384
O O3 0.562580 0.765415 0.622727
O O4 0.584814 0.770706 0.440375
O O5 0.553039 0.263206 0.100245
O O6 0.476543 0.245684 0.213393
O O7 0.556718 0.279495 0.277375
O O8 0.535075 0.000000 0.198382
O O9 0.657021 0.500000 0.178393
O O10 0.637969 0.786117 0.104232
O O11 0.641968 0.767745 0.279718
O O12 0.718161 0.735171 0.167731
O O13 0.887202 0.272110 0.227882
O O14 0.809015 0.273031 0.129559
O O15 0.850883 0.000000 0.169158
O O16 0.889317 0.210890 0.054913
O O17 0.588689 0.000000 0.016578
O O18 0.070083 0.000000 0.723545
O O19 0.107372 0.000000 0.354111
O O20 0.761682 0.000000 0.106691
O O21 0.750000 0.750000 0.000000
#
# Coordination Sequence:
#
# PCOD9179754 Si02
#       8
#     8   8   8   8   8   8   8   8
#     4   9  15  28  54  80  98 125 169 211 247 290
#     4  10  20  32  47  73 105 136 169 204 247 299
#     4  10  19  31  51  78 104 129 165 210 255 299
#     4  10  22  36  51  73 100 132 171 211 250 299
#     4  10  20  33  50  71 101 139 171 203 246 298
#     4  10  20  35  53  73 100 135 171 208 251 296
#     4   9  17  31  52  77 102 131 167 209 249 295
#     4  11  21  34  53  76 101 131 170 211 256 300
#
# _framework density 18.735355999999999
#
# number of rings (size 3 to 8) (size 9 to 14) (size 15 to 20)
#    0.000    2.125    2.500    1.500    0.000    3.500 
#    0.000    3.750    0.000    0.750    0.000    0.000 
#    0.000    0.000    0.000    0.000    0.000    0.500 
#
# Total GULP energy -178544.697630 kJ/mol
# GULP energy per Si atom -5579.521801 kJ/mol
# Density = 1.869271 g / cm^3
# Si number density = 18.735356 Si / 1000 Ang^3
#
#
#
# Elastic Constant Matrix: (Units=GPa)
#
#
# Indices 1 2 3 4 5 6 
#
# 1 131.1606 -3.4987 80.7311 0.0000 -2.1643 0.0000
# 2 -3.4987 22.4851 -1.8184 0.0000 -1.5561 0.0000
# 3 80.7311 -1.8184 114.0264 0.0000 -2.2456 0.0000
# 4 0.0000 0.0000 0.0000 -1.9337 0.0000 -6.0666
# 5 -2.1643 -1.5561 -2.2456 0.0000 24.4327 0.0000
# 6 0.0000 0.0000 0.0000 -6.0666 0.0000 17.1456
#
#
#
# Elastic Compliance Matrix: (Units=1/GPa)
#
#
# Indices 1 2 3 4 5 6 
#
# 1 0.013557 0.001364 -0.009569 0.000000 0.000408 0.000000
# 2 0.001364 0.044876 -0.000192 0.000000 0.002961 0.000000
# 3 -0.009569 -0.000192 0.015553 0.000000 0.000570 0.000000
# 4 0.000000 0.000000 0.000000 -0.245083 0.000000 -0.086718
# 5 0.000408 0.002961 0.000570 0.000000 0.041206 0.000000
# 6 0.000000 0.000000 0.000000 -0.086718 0.000000 0.027641
#
#
# Mechanical properties :
#
#
# Convention : Reuss Voigt Hill
#
# Bulk Modulus (GPa) = 17.48482 46.50001 31.99241
# Shear Modulus (GPa) = -75.30789 20.74614 -27.28088
#
# Velocity S-wave (km/s) = -6.34688 3.33126 -3.82005
# Velocity P-wave (km/s) = 6.66016 6.29839 1.53102
#
# Compressibility (1/GPa) = 0.05719248
#
# Stress axis : x y z
#
# Youngs Moduli (GPa) = 73.76289 22.28382 64.29772
#
# Poissons Ratio (x) = -0.03039 0.61524
# Poissons Ratio (y) = -0.10061 0.01233
# Poissons Ratio (z) = 0.70581 0.00427
#
# Static dielectric constant tensor:
#      x y z
#    x 1.650590 0.000000 -0.013910 
#    y 0.000000 1.701480 0.000000 
#    z -0.013910 0.000000 1.654250 
# 
# From -- ./inp_files/248332.got.cif
#   From: 2010.05.17/outbox.cif.g08.bks.cpg/sg12_125_cif.got.tgz:248332.got - 2010.06.03 13:09:07.
