data_PCOD9179594
_publ_section_title
;
Structure prediction by ZEFSAII (Michael W. Deem and Ramdas Pophale) SiO2 
 PCOD9179594
Probable space group: C 2/M
;
_chemical_formula_sum "Si O2"
_cell_formula_units_Z 64
_cell_length_a 32.879339
_cell_length_b 8.703254
_cell_length_c 15.583427
_cell_angle_alpha 90.000000
_cell_angle_beta 132.934206
_cell_angle_gamma 90.000000
_cell_volume 3264.823371
_symmetry_space_group_name_H-M "C 2/M"
_symmetry_group_IT_number 12
_symmetry_cell_setting 'monoclinic'
loop_
_space_group_symop_operation_xyz
x,y,z
-x,y,-z
-x,-y,-z
x,-y,z
1/2+x,1/2+y,z
1/2-x,1/2+y,-z
1/2-x,1/2-y,-z
1/2+x,1/2-y,z
loop_
_atom_site_type_symbol
_atom_site_label
_atom_site_fract_x
_atom_site_fract_y
_atom_site_fract_z
Si Si1 0.544938 0.184213 0.762986
Si Si2 0.888973 0.315152 0.969677
Si Si3 0.703447 0.826529 0.376751
Si Si4 0.146105 0.318055 0.586583
Si Si5 0.064548 0.183569 0.612594
Si Si6 0.587646 0.320191 0.178401
Si Si7 0.068368 0.184750 0.337624
Si Si8 0.735540 0.826549 0.225780
O O1 0.574714 0.252802 0.722514
O O2 0.483651 0.255294 0.682899
O O3 0.541333 0.000000 0.750700
O O4 0.576804 0.223694 0.896607
O O5 0.885399 0.500000 0.955919
O O6 0.917289 0.256084 0.922293
O O7 0.824782 0.260847 0.888485
O O8 0.750000 0.750000 0.500000
O O9 0.651186 0.714533 0.295343
O O10 0.727256 0.839511 0.315736
O O11 0.687617 0.000000 0.382283
O O12 0.143708 0.500000 0.574313
O O13 0.104152 0.260194 0.599657
O O14 0.123776 0.245430 0.464750
O O15 0.207921 0.266908 0.702960
O O16 0.000000 0.218959 0.500000
O O17 0.071559 0.000000 0.619248
O O18 0.576030 0.500000 0.151912
O O19 0.558522 0.263451 0.224330
O O20 0.070366 0.000000 0.340684
O O21 0.742290 0.000000 0.199747
#
# Coordination Sequence:
#
# PCOD9179594 Si02
#       8
#     8   8   8   8   8   8   8   8
#     4  11  23  40  64  91 117 150 196 247 294 345
#     4   9  21  41  62  85 118 159 199 242 292 343
#     4  10  19  31  50  76 110 151 195 243 294 346
#     4  12  24  37  60  92 121 150 192 246 295 345
#     4  11  23  41  65  90 119 154 189 231 294 360
#     4  10  21  35  54  80 114 157 202 244 284 341
#     4  11  23  38  56  85 122 159 198 240 296 353
#     4   9  19  37  57  79 114 156 192 233 289 349
#
# _framework density 19.602899000000001
#
# number of rings (size 3 to 8) (size 9 to 14) (size 15 to 20)
#    0.000    1.625    1.250    4.500    0.000    9.500 
#    0.000    3.125    0.000    0.000    0.000    0.000 
#    0.000    0.000    0.000    0.000    0.000    0.000 
#
# Total GULP energy -178616.812109 kJ/mol
# GULP energy per Si atom -5581.775378 kJ/mol
# Density = 1.955828 g / cm^3
# Si number density = 19.602899 Si / 1000 Ang^3
#
#
#
# Elastic Constant Matrix: (Units=GPa)
#
#
# Indices 1 2 3 4 5 6 
#
# 1 81.9599 20.7172 24.5025 0.0000 -7.4936 0.0000
# 2 20.7172 41.7477 15.4336 0.0000 -2.8538 0.0000
# 3 24.5025 15.4336 67.6675 0.0000 -21.3960 0.0000
# 4 0.0000 0.0000 0.0000 19.8463 0.0000 -6.6900
# 5 -7.4936 -2.8538 -21.3960 0.0000 26.1056 0.0000
# 6 0.0000 0.0000 0.0000 -6.6900 0.0000 25.4678
#
#
#
# Elastic Compliance Matrix: (Units=1/GPa)
#
#
# Indices 1 2 3 4 5 6 
#
# 1 0.014907 -0.005922 -0.003913 0.000000 0.000425 0.000000
# 2 -0.005922 0.028658 -0.005317 0.000000 -0.002925 0.000000
# 3 -0.003913 -0.005317 0.022769 0.000000 0.016957 0.000000
# 4 0.000000 0.000000 0.000000 0.055282 0.000000 0.014522
# 5 0.000425 -0.002925 0.016957 0.000000 0.052006 0.000000
# 6 0.000000 0.000000 0.000000 0.014522 0.000000 0.043080
#
#
# Mechanical properties :
#
#
# Convention : Reuss Voigt Hill
#
# Bulk Modulus (GPa) = 27.75381 34.74239 31.24810
# Shear Modulus (GPa) = 19.30391 22.99873 21.15132
#
# Velocity S-wave (km/s) = 3.14147 3.42896 3.28836
# Velocity P-wave (km/s) = 5.22946 5.78261 5.51298
#
# Compressibility (1/GPa) = 0.03603109
#
# Stress axis : x y z
#
# Youngs Moduli (GPa) = 67.08472 34.89470 43.91869
#
# Poissons Ratio (x) = 0.20664 0.17184
# Poissons Ratio (y) = 0.39726 0.23350
# Poissons Ratio (z) = 0.26249 0.18552
#
# Static dielectric constant tensor:
#      x y z
#    x 1.693240 0.000000 -0.007220 
#    y 0.000000 1.682130 0.000000 
#    z -0.007220 0.000000 1.669230 
# 
# From -- ./inp_files/249920.got.cif
#   From: 2010.05.17/outbox.cif.g08.bks.cpg/sg12_125_cif.got.tgz:249920.got - 2010.06.03 13:09:07.
