data_PCOD9179060
_publ_section_title
;
Structure prediction by ZEFSAII (Michael W. Deem and Ramdas Pophale) SiO2 
 PCOD9179060
Probable space group: C 2/M
;
_chemical_formula_sum "Si O2"
_cell_formula_units_Z 64
_cell_length_a 26.273715
_cell_length_b 7.862628
_cell_length_c 15.747108
_cell_angle_alpha 90.000000
_cell_angle_beta 110.553107
_cell_angle_gamma 90.000000
_cell_volume 3045.979158
_symmetry_space_group_name_H-M "C 2/M"
_symmetry_group_IT_number 12
_symmetry_cell_setting 'monoclinic'
loop_
_space_group_symop_operation_xyz
x,y,z
-x,y,-z
-x,-y,-z
x,-y,z
1/2+x,1/2+y,z
1/2-x,1/2+y,-z
1/2-x,1/2-y,-z
1/2+x,1/2-y,z
loop_
_atom_site_type_symbol
_atom_site_label
_atom_site_fract_x
_atom_site_fract_y
_atom_site_fract_z
Si Si1 0.546438 0.693705 0.468598
Si Si2 0.701726 0.791671 0.176092
Si Si3 0.899549 0.197584 0.208859
Si Si4 0.812525 0.703466 0.019534
Si Si5 0.362867 0.793131 0.696300
Si Si6 0.181692 0.201818 0.701940
Si Si7 0.335890 0.807979 0.494140
Si Si8 0.983016 0.698564 0.725840
O O1 0.500000 0.766526 0.500000
O O2 0.560248 0.500000 0.504501
O O3 0.600564 0.801326 0.493526
O O4 0.520845 0.691647 0.361044
O O5 0.669275 0.734295 0.240128
O O6 0.676543 0.741934 0.071301
O O7 0.810765 0.772743 0.394787
O O8 0.702589 0.000000 0.177850
O O9 0.852575 0.215675 0.111255
O O10 0.872467 0.267929 0.281169
O O11 0.955291 0.280309 0.207727
O O12 0.912124 0.000000 0.229311
O O13 0.818550 0.500000 0.028919
O O14 0.750000 0.750000 0.000000
O O15 0.735982 0.768074 0.779188
O O16 0.337571 0.731684 0.590806
O O17 0.427321 0.753479 0.741962
O O18 0.358852 0.000000 0.690089
O O19 0.179773 0.000000 0.714511
O O20 0.315296 0.000000 0.488316
O O21 0.976004 0.500000 0.699972
#
# Coordination Sequence:
#
# PCOD9179060 Si02
#       8
#     8   8   8   8   8   8   8   8
#     4  10  19  31  48  71 102 144 186 225 270 324
#     4   9  18  36  59  80 105 144 184 223 272 332
#     4  11  22  37  56  83 115 147 182 225 274 331
#     4  11  21  37  61  87 112 141 178 223 279 333
#     4   8  17  35  56  77 108 145 187 227 264 320
#     4  10  20  34  53  79 109 144 185 224 273 330
#     4  10  20  32  49  77 109 143 182 227 271 314
#     4  10  20  34  54  81 108 142 182 227 275 318
#
# _framework density 21.011305
#
# number of rings (size 3 to 8) (size 9 to 14) (size 15 to 20)
#    0.000    2.125    1.250    3.375    0.000    5.500 
#    0.000    0.625    0.000   16.500    0.000    0.000 
#    0.000    0.000    0.000    0.000    0.000    0.000 
#
# Total GULP energy -178398.743730 kJ/mol
# GULP energy per Si atom -5574.960742 kJ/mol
# Density = 2.096348 g / cm^3
# Si number density = 21.011305 Si / 1000 Ang^3
#
#
#
# Elastic Constant Matrix: (Units=GPa)
#
#
# Indices 1 2 3 4 5 6 
#
# 1 62.5902 6.5195 30.1266 0.0000 -18.0866 0.0000
# 2 6.5195 34.7762 -5.7091 0.0000 -0.9212 0.0000
# 3 30.1266 -5.7091 77.8685 0.0000 -7.1210 0.0000
# 4 0.0000 0.0000 0.0000 23.2429 0.0000 -7.6454
# 5 -18.0866 -0.9212 -7.1210 0.0000 37.0758 0.0000
# 6 0.0000 0.0000 0.0000 -7.6454 0.0000 -2.9411
#
#
#
# Elastic Compliance Matrix: (Units=1/GPa)
#
#
# Indices 1 2 3 4 5 6 
#
# 1 0.023497 -0.005563 -0.008614 0.000000 0.009670 0.000000
# 2 -0.005563 0.030471 0.004283 0.000000 -0.001134 0.000000
# 3 -0.008614 0.004283 0.016403 0.000000 -0.000946 0.000000
# 4 0.000000 0.000000 0.000000 0.023193 0.000000 -0.060289
# 5 0.009670 -0.001134 -0.000946 0.000000 0.031479 0.000000
# 6 0.000000 0.000000 0.000000 -0.060289 0.000000 -0.183285
#
#
# Mechanical properties :
#
#
# Convention : Reuss Voigt Hill
#
# Bulk Modulus (GPa) = 19.77020 26.34545 23.05782
# Shear Modulus (GPa) = -231.55607 21.09537 -105.23035
#
# Velocity S-wave (km/s) = -10.50927 3.17204 -7.08459
# Velocity P-wave (km/s) = 11.74010 5.09722 7.47824
#
# Compressibility (1/GPa) = 0.05058119
#
# Stress axis : x y z
#
# Youngs Moduli (GPa) = 42.55853 32.81788 60.96626
#
# Poissons Ratio (x) = 0.18257 0.52519
# Poissons Ratio (y) = 0.23676 -0.26110
# Poissons Ratio (z) = 0.36662 -0.14055
#
# Static dielectric constant tensor:
#      x y z
#    x 1.823740 0.000000 0.030560 
#    y 0.000000 1.790570 0.000000 
#    z 0.030560 0.000000 1.790600 
# 
# From -- ./inp_files/323753.got.cif
#   From: 2010.05.17/outbox.cif.g08.bks.cpg/sg12_162_cif.got.tgz:323753.got - 2010.06.03 13:09:07.
