data_PCOD9179185
_publ_section_title
;
Structure prediction by ZEFSAII (Michael W. Deem and Ramdas Pophale) SiO2 
 PCOD9179185
Probable space group: C 2/M
;
_chemical_formula_sum "Si O2"
_cell_formula_units_Z 64
_cell_length_a 28.985340
_cell_length_b 14.042107
_cell_length_c 9.907292
_cell_angle_alpha 90.000000
_cell_angle_beta 92.791921
_cell_angle_gamma 90.000000
_cell_volume 4027.632469
_symmetry_space_group_name_H-M "C 2/M"
_symmetry_group_IT_number 12
_symmetry_cell_setting 'monoclinic'
loop_
_space_group_symop_operation_xyz
x,y,z
-x,y,-z
-x,-y,-z
x,-y,z
1/2+x,1/2+y,z
1/2-x,1/2+y,-z
1/2-x,1/2-y,-z
1/2+x,1/2-y,z
loop_
_atom_site_type_symbol
_atom_site_label
_atom_site_fract_x
_atom_site_fract_y
_atom_site_fract_z
Si Si1 0.697562 0.260215 0.044144
Si Si2 0.170667 0.268009 0.749646
Si Si3 0.734855 0.612502 0.268929
Si Si4 0.585905 0.884803 0.360321
Si Si5 0.505764 0.884273 0.154328
Si Si6 0.579848 0.114663 0.664296
Si Si7 0.315192 0.113657 0.728835
Si Si8 0.716120 0.612950 0.577683
O O1 0.700064 0.345382 0.152408
O O2 0.685026 0.167246 0.128878
O O3 0.750000 0.250000 0.000000
O O4 0.668462 0.268381 0.903957
O O5 0.215776 0.335847 0.741635
O O6 0.125912 0.328982 0.708504
O O7 0.180710 0.179884 0.651743
O O8 0.740820 0.500000 0.253313
O O9 0.717280 0.631157 0.418103
O O10 0.551907 0.850382 0.237655
O O11 0.568416 0.860985 0.507212
O O12 0.639089 0.855913 0.345899
O O13 0.585640 0.000000 0.353608
O O14 0.461705 0.861548 0.240700
O O15 0.508326 0.000000 0.149655
O O16 0.500000 0.850488 0.000000
O O17 0.587667 0.000000 0.672393
O O18 0.267450 0.134739 0.644369
O O19 0.317031 0.000000 0.748050
O O20 0.707913 0.500000 0.598212
#
# Coordination Sequence:
#
# PCOD9179185 Si02
#       8
#     8   8   8   8   8   8   8   8
#     4  10  21  32  43  67  95 131 167 202 246 282
#     4  11  21  33  47  73  99 129 169 206 245 285
#     4  10  20  33  49  68  95 132 168 202 244 289
#     4   9  18  31  49  70  93 128 168 202 242 289
#     4   9  18  32  47  68 100 133 162 198 243 294
#     4  10  20  32  50  73  99 132 168 204 243 292
#     4  10  19  31  49  70  95 130 171 204 242 287
#     4  10  20  34  51  69  96 133 169 205 244 285
#
# _framework density 15.890230000000001
#
# number of rings (size 3 to 8) (size 9 to 14) (size 15 to 20)
#    0.000    2.125    2.500    1.875    3.500    6.500 
#    0.000    0.000    0.000    0.000    0.000    0.000 
#    0.000    3.500    0.000    0.000    0.000    0.125 
#
# Total GULP energy -178412.422487 kJ/mol
# GULP energy per Si atom -5575.388203 kJ/mol
# Density = 1.585406 g / cm^3
# Si number density = 15.890230 Si / 1000 Ang^3
#
#
#
# Elastic Constant Matrix: (Units=GPa)
#
#
# Indices 1 2 3 4 5 6 
#
# 1 49.0918 10.6453 24.0983 0.0000 -5.2487 0.0000
# 2 10.6453 50.2881 21.6995 0.0000 -3.9331 0.0000
# 3 24.0983 21.6995 113.1112 0.0000 -5.0801 0.0000
# 4 0.0000 0.0000 0.0000 22.3319 0.0000 -3.8345
# 5 -5.2487 -3.9331 -5.0801 0.0000 23.3650 0.0000
# 6 0.0000 0.0000 0.0000 -3.8345 0.0000 15.5925
#
#
#
# Elastic Compliance Matrix: (Units=1/GPa)
#
#
# Indices 1 2 3 4 5 6 
#
# 1 0.023502 -0.002820 -0.004292 0.000000 0.003872 0.000000
# 2 -0.002820 0.022198 -0.003553 0.000000 0.002331 0.000000
# 3 -0.004292 -0.003553 0.010469 0.000000 0.000714 0.000000
# 4 0.000000 0.000000 0.000000 0.046753 0.000000 0.011497
# 5 0.003872 0.002331 0.000714 0.000000 0.044216 0.000000
# 6 0.000000 0.000000 0.000000 0.011497 0.000000 0.066961
#
#
# Mechanical properties :
#
#
# Convention : Reuss Voigt Hill
#
# Bulk Modulus (GPa) = 28.70399 36.15306 32.42853
# Shear Modulus (GPa) = 20.23936 22.66107 21.45021
#
# Velocity S-wave (km/s) = 3.57276 3.78047 3.67808
# Velocity P-wave (km/s) = 5.92644 6.46971 6.20402
#
# Compressibility (1/GPa) = 0.03483836
#
# Stress axis : x y z
#
# Youngs Moduli (GPa) = 42.54870 45.04949 95.52009
#
# Poissons Ratio (x) = 0.12705 0.41000
# Poissons Ratio (y) = 0.12000 0.33938
# Poissons Ratio (z) = 0.18263 0.16006
#
# Static dielectric constant tensor:
#      x y z
#    x 1.518750 0.000000 0.009550 
#    y 0.000000 1.517570 0.000000 
#    z 0.009550 0.000000 1.559000 
# 
# From -- ./inp_files/111158.got.cif
#   From: 2010.05.17/outbox.cif.g08.bks.cpg/sg12_56_cif.got.tgz:111158.got - 2010.06.03 13:09:07.
