data_PCOD9179582
_publ_section_title
;
Structure prediction by ZEFSAII (Michael W. Deem and Ramdas Pophale) SiO2 
 PCOD9179582
Probable space group: C 2/M
;
_chemical_formula_sum "Si O2"
_cell_formula_units_Z 48
_cell_length_a 20.415633
_cell_length_b 8.841971
_cell_length_c 20.236391
_cell_angle_alpha 90.000000
_cell_angle_beta 49.044639
_cell_angle_gamma 90.000000
_cell_volume 2758.790742
_symmetry_space_group_name_H-M "C 2/M"
_symmetry_group_IT_number 12
_symmetry_cell_setting 'monoclinic'
loop_
_space_group_symop_operation_xyz
x,y,z
-x,y,-z
-x,-y,-z
x,-y,z
1/2+x,1/2+y,z
1/2-x,1/2+y,-z
1/2-x,1/2-y,-z
1/2+x,1/2-y,z
loop_
_atom_site_type_symbol
_atom_site_label
_atom_site_fract_x
_atom_site_fract_y
_atom_site_fract_z
Si Si1 0.103024 0.678267 0.944463
Si Si2 0.656142 0.317219 0.773462
Si Si3 0.507287 0.820184 0.777509
Si Si4 0.387870 0.672613 0.402151
Si Si5 0.283184 0.825991 0.579035
Si Si6 0.343843 0.319343 0.951607
O O1 0.122864 0.500000 0.938223
O O2 0.150879 0.749273 0.849690
O O3 0.126845 0.765680 0.995122
O O4 0.000000 0.692436 0.000000
O O5 0.649555 0.500000 0.778366
O O6 0.575526 0.250653 0.784863
O O7 0.743496 0.276018 0.675286
O O8 0.543532 0.776192 0.681425
O O9 0.414652 0.748054 0.854400
O O10 0.504902 0.000000 0.787864
O O11 0.418333 0.500000 0.383754
O O12 0.356198 0.729252 0.494367
O O13 0.301377 0.676270 0.413214
O O14 0.311777 0.000000 0.564789
O O15 0.342351 0.500000 0.948486
O O16 0.250000 0.250000 0.000000
#
# Coordination Sequence:
#
# PCOD9179582 Si02
#       6
#     8   8   8   8   8   8
#     4  11  22  36  56  82 110 142 182 223 269 323
#     4  10  19  31  50  76 105 140 179 220 268 317
#     4  11  20  32  50  74 104 139 178 220 268 318
#     4   9  16  26  42  66  97 135 174 212 262 317
#     4   8  15  26  40  65 100 134 170 213 262 314
#     4  12  25  41  59  79 108 142 182 226 272 322
#
# _framework density 17.398928000000002
#
# number of rings (size 3 to 8) (size 9 to 14) (size 15 to 20)
#    0.000    1.833    1.667    5.500    0.000    5.333 
#    0.000    0.000    0.000    0.000    0.000    1.167 
#    0.000    9.333    0.000    0.000    0.000    0.000 
#
# Total GULP energy -133930.459809 kJ/mol
# GULP energy per Si atom -5580.435825 kJ/mol
# Density = 1.735933 g / cm^3
# Si number density = 17.398928 Si / 1000 Ang^3
#
#
#
# Elastic Constant Matrix: (Units=GPa)
#
#
# Indices 1 2 3 4 5 6 
#
# 1 30.3750 27.3361 22.8229 0.0000 -10.6124 -0.0001
# 2 27.3361 130.0113 63.4091 0.0001 -6.2298 -0.0002
# 3 22.8229 63.4091 141.8201 0.0000 0.9596 -0.0001
# 4 0.0000 0.0001 0.0000 35.4560 0.0000 0.4382
# 5 -10.6124 -6.2298 0.9596 0.0000 14.9645 0.0000
# 6 -0.0001 -0.0002 -0.0001 0.4382 0.0000 18.4387
#
#
#
# Elastic Compliance Matrix: (Units=1/GPa)
#
#
# Indices 1 2 3 4 5 6 
#
# 1 0.057440 -0.007181 -0.006291 0.000000 0.038149 0.000000
# 2 -0.007181 0.011030 -0.003774 0.000000 -0.000259 0.000000
# 3 -0.006291 -0.003774 0.009796 0.000000 -0.006661 0.000000
# 4 0.000000 0.000000 0.000000 0.028212 0.000000 -0.000671
# 5 0.038149 -0.000259 -0.006661 0.000000 0.094198 0.000000
# 6 0.000000 0.000000 0.000000 -0.000671 0.000000 0.054250
#
#
# Mechanical properties :
#
#
# Convention : Reuss Voigt Hill
#
# Bulk Modulus (GPa) = 22.84504 58.81584 40.83044
# Shear Modulus (GPa) = 16.44685 26.34774 21.39729
#
# Velocity S-wave (km/s) = 3.07788 3.89566 3.51066
# Velocity P-wave (km/s) = 5.07836 7.35613 6.32069
#
# Compressibility (1/GPa) = 0.04377317
#
# Stress axis : x y z
#
# Youngs Moduli (GPa) = 17.40956 90.66310 102.08094
#
# Poissons Ratio (x) = 0.65105 0.64220
# Poissons Ratio (y) = 0.12502 0.38527
# Poissons Ratio (z) = 0.10953 0.34218
#
# Static dielectric constant tensor:
#      x y z
#    x 1.568270 0.000000 0.007810 
#    y 0.000000 1.583250 0.000000 
#    z 0.007810 0.000000 1.614780 
# 
# From -- ./inp_files/318979.got.cif
#   From: 2010.05.17/outbox.cif.g08.bks.cpg/sg12_160_cif.got.tgz:318979.got - 2010.06.03 13:09:07.
