data_PCOD9179768
_publ_section_title
;
Structure prediction by ZEFSAII (Michael W. Deem and Ramdas Pophale) SiO2 
 PCOD9179768
Probable space group: C 2/M
;
_chemical_formula_sum "Si O2"
_cell_formula_units_Z 56
_cell_length_a 31.357326
_cell_length_b 7.795539
_cell_length_c 12.346363
_cell_angle_alpha 90.000000
_cell_angle_beta 63.927320
_cell_angle_gamma 90.000000
_cell_volume 2710.911072
_symmetry_space_group_name_H-M "C 2/M"
_symmetry_group_IT_number 12
_symmetry_cell_setting 'monoclinic'
loop_
_space_group_symop_operation_xyz
x,y,z
-x,y,-z
-x,-y,-z
x,-y,z
1/2+x,1/2+y,z
1/2-x,1/2+y,-z
1/2-x,1/2-y,-z
1/2+x,1/2-y,z
loop_
_atom_site_type_symbol
_atom_site_label
_atom_site_fract_x
_atom_site_fract_y
_atom_site_fract_z
Si Si1 0.112647 0.793595 0.058106
Si Si2 0.341509 0.202099 0.453340
Si Si3 0.432262 0.707323 0.493227
Si Si4 0.233806 0.797252 0.294741
Si Si5 0.339817 0.206713 0.212322
Si Si6 0.199406 0.793547 0.108622
Si Si7 0.535724 0.709338 0.306661
O O1 0.156659 0.727273 0.082193
O O2 0.064364 0.732681 0.169298
O O3 0.112480 0.000000 0.065519
O O4 0.122974 0.750924 0.922493
O O5 0.386305 0.234015 0.480487
O O6 0.294773 0.275142 0.562869
O O7 0.350302 0.269185 0.322139
O O8 0.333633 0.000000 0.454137
O O9 0.431412 0.500000 0.494316
O O10 0.481277 0.764690 0.381291
O O11 0.436424 0.760051 0.614479
O O12 0.287215 0.726691 0.238696
O O13 0.203022 0.728795 0.228098
O O14 0.238766 0.000000 0.269792
O O15 0.337674 0.000000 0.218137
O O16 0.193716 0.000000 0.117531
O O17 0.250000 0.750000 0.000000
O O18 0.534735 0.500000 0.307645
#
# Coordination Sequence:
#
# PCOD9179768 Si02
#       7
#     8   8   8   8   8   8   8
#     4  10  19  32  53  81 108 135 173 218 260 307
#     4  11  23  36  52  77 107 137 177 224 264 308
#     4   9  17  35  61  82 105 136 170 213 265 316
#     4  10  20  36  56  75 101 141 183 217 258 313
#     4  10  22  38  52  71 105 146 181 215 259 312
#     4  10  19  31  51  78 107 135 166 209 257 308
#     4   8  16  33  59  86 106 131 171 216 261 312
#
# _framework density 20.657263
#
# number of rings (size 3 to 8) (size 9 to 14) (size 15 to 20)
#    0.000    2.286    1.429    2.571    0.000    4.571 
#    0.000    5.000    0.000    4.286    0.000    0.000 
#    0.000    0.000    0.000    0.000    0.000    0.000 
#
# Total GULP energy -156295.960876 kJ/mol
# GULP energy per Si atom -5581.998603 kJ/mol
# Density = 2.061025 g / cm^3
# Si number density = 20.657263 Si / 1000 Ang^3
#
#
#
# Elastic Constant Matrix: (Units=GPa)
#
#
# Indices 1 2 3 4 5 6 
#
# 1 23.4973 -7.0185 19.4296 0.0000 0.6495 0.0000
# 2 -7.0185 16.6255 -10.0826 0.0000 4.3444 0.0000
# 3 19.4296 -10.0826 160.9752 0.0000 -2.5881 0.0000
# 4 0.0000 0.0000 0.0000 14.2065 0.0000 2.2967
# 5 0.6495 4.3444 -2.5881 0.0000 24.3406 0.0000
# 6 0.0000 0.0000 0.0000 2.2967 0.0000 16.6881
#
#
#
# Elastic Compliance Matrix: (Units=1/GPa)
#
#
# Indices 1 2 3 4 5 6 
#
# 1 0.053240 0.020799 -0.005215 0.000000 -0.005687 0.000000
# 2 0.020799 0.073595 0.001882 0.000000 -0.013491 0.000000
# 3 -0.005215 0.001882 0.006968 0.000000 0.000544 0.000000
# 4 0.000000 0.000000 0.000000 0.071992 0.000000 -0.009908
# 5 -0.005687 -0.013491 0.000544 0.000000 0.043701 0.000000
# 6 0.000000 0.000000 0.000000 -0.009908 0.000000 0.061287
#
#
# Mechanical properties :
#
#
# Convention : Reuss Voigt Hill
#
# Bulk Modulus (GPa) = 5.92640 22.86168 14.39404
# Shear Modulus (GPa) = 15.05590 24.29833 19.67712
#
# Velocity S-wave (km/s) = 2.70264 3.43339 3.08969
# Velocity P-wave (km/s) = 3.55164 5.17771 4.43975
#
# Compressibility (1/GPa) = 0.16873638
#
# Stress axis : x y z
#
# Youngs Moduli (GPa) = 18.78292 13.58781 143.50918
#
# Poissons Ratio (x) = -0.28261 0.74836
# Poissons Ratio (y) = -0.39066 -0.27013
# Poissons Ratio (z) = 0.09795 -0.02558
#
# Static dielectric constant tensor:
#      x y z
#    x 1.739850 0.000000 0.012700 
#    y 0.000000 1.768790 0.000000 
#    z 0.012700 0.000000 1.753190 
# 
# From -- ./inp_files/186469.got.cif
#   From: 2010.05.17/outbox.cif.g08.bks.cpg/sg12_94_cif.got.tgz:186469.got - 2010.06.03 13:09:07.
