data_PCOD9179633
_publ_section_title
;
Structure prediction by ZEFSAII (Michael W. Deem and Ramdas Pophale) SiO2 
 PCOD9179633
Probable space group: C 2/M
;
_chemical_formula_sum "Si O2"
_cell_formula_units_Z 56
_cell_length_a 20.374745
_cell_length_b 8.941318
_cell_length_c 29.374437
_cell_angle_alpha 90.000000
_cell_angle_beta 144.942398
_cell_angle_gamma 90.000000
_cell_volume 3073.813128
_symmetry_space_group_name_H-M "C 2/M"
_symmetry_group_IT_number 12
_symmetry_cell_setting 'monoclinic'
loop_
_space_group_symop_operation_xyz
x,y,z
-x,y,-z
-x,-y,-z
x,-y,z
1/2+x,1/2+y,z
1/2-x,1/2+y,-z
1/2-x,1/2-y,-z
1/2+x,1/2-y,z
loop_
_atom_site_type_symbol
_atom_site_label
_atom_site_fract_x
_atom_site_fract_y
_atom_site_fract_z
Si Si1 0.673117 0.820598 0.155502
Si Si2 0.774250 0.178318 0.647101
Si Si3 0.155791 0.321910 0.677250
Si Si4 0.056089 0.318311 0.923239
Si Si5 0.560375 0.327370 0.484425
Si Si6 0.752910 0.820419 0.100469
Si Si7 0.983074 0.320593 0.203618
O O1 0.774308 0.745082 0.241272
O O2 0.552312 0.771138 0.107997
O O3 0.686397 0.790665 0.109665
O O4 0.680777 0.000000 0.166139
O O5 0.727139 0.212757 0.671423
O O6 0.679863 0.243243 0.559053
O O7 0.897552 0.252598 0.712169
O O8 0.781347 0.000000 0.646766
O O9 0.146506 0.500000 0.675341
O O10 0.030670 0.251017 0.600149
O O11 0.058218 0.500000 0.925103
O O12 0.037382 0.272085 0.860646
O O13 0.173441 0.268569 0.013427
O O14 0.500000 0.323203 0.500000
O O15 0.577816 0.500000 0.481988
O O16 0.874285 0.740073 0.168931
O O17 0.769556 0.000000 0.106511
O O18 0.988490 0.500000 0.208152
#
# Coordination Sequence:
#
# PCOD9179633 Si02
#       7
#     8   8   8   8   8   8   8
#     4  10  19  34  56  78 105 141 182 223 264 317
#     4  10  19  32  51  77 108 140 176 218 265 314
#     4  10  19  31  50  78 110 140 173 218 267 313
#     4   9  18  34  56  79 102 136 183 227 268 315
#     4   9  17  29  49  77 108 139 173 215 261 312
#     4  10  21  36  54  77 106 142 181 223 270 319
#     4  11  21  34  54  78 108 142 178 223 268 319
#
# _framework density 18.218413999999999
#
# number of rings (size 3 to 8) (size 9 to 14) (size 15 to 20)
#    0.000    2.143    1.429    2.571    0.000    5.143 
#    0.000    1.429    0.000    2.571    0.000    0.000 
#    0.000    0.000    0.000    0.000    0.000    0.000 
#
# Total GULP energy -156287.420968 kJ/mol
# GULP energy per Si atom -5581.693606 kJ/mol
# Density = 1.817695 g / cm^3
# Si number density = 18.218414 Si / 1000 Ang^3
#
#
#
# Elastic Constant Matrix: (Units=GPa)
#
#
# Indices 1 2 3 4 5 6 
#
# 1 32.8954 10.6881 -5.0513 0.0000 14.5253 0.0000
# 2 10.6881 25.7899 16.5407 0.0000 6.8842 0.0001
# 3 -5.0513 16.5407 93.4585 0.0000 19.9059 0.0000
# 4 0.0000 0.0000 0.0000 26.1287 0.0000 2.9748
# 5 14.5253 6.8842 19.9059 0.0000 18.4551 0.0000
# 6 0.0000 0.0001 0.0000 2.9748 0.0000 18.5374
#
#
#
# Elastic Compliance Matrix: (Units=1/GPa)
#
#
# Indices 1 2 3 4 5 6 
#
# 1 0.078883 -0.028215 0.026276 0.000000 -0.079902 0.000000
# 2 -0.028215 0.055407 -0.015136 0.000000 0.017865 0.000000
# 3 0.026276 -0.015136 0.023370 0.000000 -0.040242 0.000000
# 4 0.000000 0.000000 0.000000 0.038984 0.000000 -0.006256
# 5 -0.079902 0.017865 -0.040242 0.000000 0.153814 0.000000
# 6 0.000000 0.000000 0.000000 -0.006256 0.000000 0.054949
#
#
# Mechanical properties :
#
#
# Convention : Reuss Voigt Hill
#
# Bulk Modulus (GPa) = 8.09658 21.83320 14.96489
# Shear Modulus (GPa) = 10.40089 21.28867 15.84478
#
# Velocity S-wave (km/s) = 2.39194 3.42208 2.95229
# Velocity P-wave (km/s) = 3.47597 5.25588 4.45571
#
# Compressibility (1/GPa) = 0.12350897
#
# Stress axis : x y z
#
# Youngs Moduli (GPa) = 12.67701 18.04829 42.78973
#
# Poissons Ratio (x) = 0.50923 -1.12432
# Poissons Ratio (y) = 0.35768 0.64767
# Poissons Ratio (z) = -0.33310 0.27318
#
# Static dielectric constant tensor:
#      x y z
#    x 1.613750 0.000000 -0.002460 
#    y 0.000000 1.602360 0.000000 
#    z -0.002460 0.000000 1.606540 
# 
# From -- ./inp_files/275124.got.cif
#   From: 2010.05.17/outbox.cif.g08.bks.cpg/sg12_138_cif.got.tgz:275124.got - 2010.06.03 13:09:07.
