data_PCOD9179986
_publ_section_title
;
Structure prediction by ZEFSAII (Michael W. Deem and Ramdas Pophale) SiO2 
 PCOD9179986
Probable space group: C 2/M
;
_chemical_formula_sum "Si O2"
_cell_formula_units_Z 64
_cell_length_a 14.454819
_cell_length_b 16.718273
_cell_length_c 12.428332
_cell_angle_alpha 90.000000
_cell_angle_beta 117.414618
_cell_angle_gamma 90.000000
_cell_volume 2666.134968
_symmetry_space_group_name_H-M "C 2/M"
_symmetry_group_IT_number 12
_symmetry_cell_setting 'monoclinic'
loop_
_space_group_symop_operation_xyz
x,y,z
-x,y,-z
-x,-y,-z
x,-y,z
1/2+x,1/2+y,z
1/2-x,1/2+y,-z
1/2-x,1/2-y,-z
1/2+x,1/2-y,z
loop_
_atom_site_type_symbol
_atom_site_label
_atom_site_fract_x
_atom_site_fract_y
_atom_site_fract_z
Si Si1 0.876750 0.177790 0.965256
Si Si2 0.617298 0.860315 0.013882
Si Si3 0.467047 0.092030 0.251880
Si Si4 0.913100 0.090491 0.191044
Si Si5 0.969318 0.237008 0.357382
Si Si6 0.811929 0.170379 0.530941
Si Si7 0.701912 0.907803 0.284193
Si Si8 0.158404 0.087074 0.253672
O O1 0.821030 0.152983 0.825587
O O2 0.856309 0.267606 0.990338
O O3 0.000000 0.174089 0.000000
O O4 0.855985 0.116921 0.050911
O O5 0.605468 0.903411 0.893454
O O6 0.500000 0.863781 0.000000
O O7 0.687691 0.891145 0.149640
O O8 0.442582 0.172080 0.309017
O O9 0.587311 0.106527 0.276772
O O10 0.461122 0.000000 0.292068
O O11 0.901821 0.164886 0.268207
O O12 0.035275 0.084212 0.218500
O O13 0.887587 0.000000 0.214841
O O14 0.078961 0.205757 0.370652
O O15 0.000000 0.234671 0.500000
O O16 0.750000 0.250000 0.500000
O O17 0.789842 0.135906 0.401736
O O18 0.781486 0.106099 0.604407
O O19 0.723816 0.000000 0.309836
O O20 0.186118 0.000000 0.224924
#
# Coordination Sequence:
#
# PCOD9179986 Si02
#       8
#     8   8   8   8   8   8   8   8
#     4   9  14  23  44  70 103 136 171 213 268 315
#     4   9  16  27  49  80 110 136 170 221 276 327
#     4  10  19  34  55  81 110 142 181 229 278 323
#     4   9  17  30  48  72 102 138 179 222 266 315
#     4  11  23  38  55  78 110 145 187 228 271 325
#     4  11  20  34  53  75 109 146 177 220 274 326
#     4  10  19  31  52  83 113 142 178 224 275 328
#     4   9  17  26  42  72 105 136 169 212 265 320
#
# _framework density 24.004787
#
# number of rings (size 3 to 8) (size 9 to 14) (size 15 to 20)
#    0.000    2.250    2.500    1.875    3.500    4.000 
#    0.000    0.000    0.000    0.750    0.000    0.000 
#    0.000    0.000    0.000    0.000    0.000    0.000 
#
# Total GULP energy -178443.093098 kJ/mol
# GULP energy per Si atom -5576.346659 kJ/mol
# Density = 2.395015 g / cm^3
# Si number density = 24.004787 Si / 1000 Ang^3
#
#
#
# Elastic Constant Matrix: (Units=GPa)
#
#
# Indices 1 2 3 4 5 6 
#
# 1 42.3227 13.3116 10.1327 0.0000 7.4773 0.0000
# 2 13.3116 167.9602 59.7588 0.0000 -9.2094 0.0000
# 3 10.1327 59.7588 131.4705 0.0000 -4.8646 0.0000
# 4 0.0000 0.0000 0.0000 -2.2473 0.0000 -12.4646
# 5 7.4773 -9.2094 -4.8646 0.0000 31.3349 0.0000
# 6 0.0000 0.0000 0.0000 -12.4646 0.0000 -8.6859
#
#
#
# Elastic Compliance Matrix: (Units=1/GPa)
#
#
# Indices 1 2 3 4 5 6 
#
# 1 0.025790 -0.001939 -0.001363 0.000000 -0.006936 0.000000
# 2 -0.001939 0.007328 -0.003103 0.000000 0.002135 0.000000
# 3 -0.001363 -0.003103 0.009152 0.000000 0.000834 0.000000
# 4 0.000000 0.000000 0.000000 0.063939 0.000000 -0.091755
# 5 -0.006936 0.002135 0.000834 0.000000 0.034325 0.000000
# 6 0.000000 0.000000 0.000000 -0.091755 0.000000 0.016542
#
#
# Mechanical properties :
#
#
# Convention : Reuss Voigt Hill
#
# Bulk Modulus (GPa) = 33.94321 56.46220 45.20270
# Shear Modulus (GPa) = 27.82308 21.31703 24.57005
#
# Velocity S-wave (km/s) = 3.40820 2.98322 3.20276
# Velocity P-wave (km/s) = 5.44597 5.95302 5.70513
#
# Compressibility (1/GPa) = 0.02946097
#
# Stress axis : x y z
#
# Youngs Moduli (GPa) = 38.77534 136.45468 109.26054
#
# Poissons Ratio (x) = 0.26464 0.14890
# Poissons Ratio (y) = 0.07520 0.33899
# Poissons Ratio (z) = 0.05284 0.42337
#
# Static dielectric constant tensor:
#      x y z
#    x 1.386050 0.000000 -0.617900 
#    y 0.000000 1.886730 0.000000 
#    z -0.617900 0.000000 1.376490 
# 
# From -- ./inp_files/177158.got.cif
#   From: 2010.05.17/outbox.cif.g08.bks.cpg/sg12_89_cif.got.tgz:177158.got - 2010.06.03 13:09:07.
