data_PCOD9179548
_publ_section_title
;
Structure prediction by ZEFSAII (Michael W. Deem and Ramdas Pophale) SiO2 
 PCOD9179548
Probable space group: C 2/M
;
_chemical_formula_sum "Si O2"
_cell_formula_units_Z 52
_cell_length_a 25.414754
_cell_length_b 20.986421
_cell_length_c 17.497863
_cell_angle_alpha 90.000000
_cell_angle_beta 160.927290
_cell_angle_gamma 90.000000
_cell_volume 3049.639708
_symmetry_space_group_name_H-M "C 2/M"
_symmetry_group_IT_number 12
_symmetry_cell_setting 'monoclinic'
loop_
_space_group_symop_operation_xyz
x,y,z
-x,y,-z
-x,-y,-z
x,-y,z
1/2+x,1/2+y,z
1/2-x,1/2+y,-z
1/2-x,1/2-y,-z
1/2+x,1/2-y,z
loop_
_atom_site_type_symbol
_atom_site_label
_atom_site_fract_x
_atom_site_fract_y
_atom_site_fract_z
Si Si1 0.220064 0.247926 0.586871
Si Si2 0.794280 0.219603 0.858162
Si Si3 0.863290 0.160383 0.651883
Si Si4 0.331730 0.574740 0.734095
Si Si5 0.525983 0.925124 0.697207
Si Si6 0.353171 0.205881 0.084044
Si Si7 0.000000 0.370649 0.500000
O O1 0.300585 0.255700 0.779794
O O2 0.216372 0.180303 0.537409
O O3 0.295580 0.294692 0.627258
O O4 0.035253 0.268827 0.342941
O O5 0.640392 0.175893 0.663162
O O6 0.795985 0.277789 0.920197
O O7 0.948830 0.177025 0.091903
O O8 0.830699 0.092040 0.643199
O O9 0.339783 0.500000 0.756574
O O10 0.160666 0.592524 0.537430
O O11 0.500000 0.602074 0.000000
O O12 0.637299 0.869761 0.886906
O O13 0.547986 0.914138 0.637206
O O14 0.552214 0.000000 0.753169
O O15 0.250000 0.250000 0.000000
#
# Coordination Sequence:
#
# PCOD9179548 Si02
#       7
#     8   8   8   8   8   8   4
#     4  10  19  32  50  77 103 134 173 223 269 312
#     4  11  20  31  55  77 108 139 179 222 266 323
#     4  10  19  31  50  75 107 136 171 214 269 317
#     4  10  19  33  53  76 107 146 176 209 268 334
#     4  11  22  35  53  80 113 144 180 222 275 333
#     4  11  20  35  54  76 106 144 181 222 273 322
#     4  12  19  34  54  80 109 140 176 226 277 326
#
# _framework density 17.051193999999999
#
# number of rings (size 3 to 8) (size 9 to 14) (size 15 to 20)
#    0.000    1.385    4.615    2.538    0.000    0.000 
#    0.000    0.769    0.000    0.923    0.000    5.923 
#    0.000    0.000    0.000    0.000    0.000    0.462 
#
# Total GULP energy -144814.744133 kJ/mol
# GULP energy per Si atom -5569.797851 kJ/mol
# Density = 1.701238 g / cm^3
# Si number density = 17.051194 Si / 1000 Ang^3
#
#
#
# Elastic Constant Matrix: (Units=GPa)
#
#
# Indices 1 2 3 4 5 6 
#
# 1 84.8045 30.1108 12.2608 0.0000 -5.9728 0.0000
# 2 30.1108 71.3501 21.5553 0.0000 0.6048 0.0000
# 3 12.2608 21.5553 40.1463 0.0000 12.1197 0.0000
# 4 0.0000 0.0000 0.0000 20.9235 0.0000 -2.7687
# 5 -5.9728 0.6048 12.1197 0.0000 30.7040 0.0000
# 6 0.0000 0.0000 0.0000 -2.7687 0.0000 28.0458
#
#
#
# Elastic Compliance Matrix: (Units=1/GPa)
#
#
# Indices 1 2 3 4 5 6 
#
# 1 0.014335 -0.005249 -0.002762 0.000000 0.003982 0.000000
# 2 -0.005249 0.019019 -0.009295 0.000000 0.002273 0.000000
# 3 -0.002762 -0.009295 0.035024 0.000000 -0.014179 0.000000
# 4 0.000000 0.000000 0.000000 0.048426 0.000000 0.004781
# 5 0.003982 0.002273 -0.014179 0.000000 0.038896 0.000000
# 6 0.000000 0.000000 0.000000 0.004781 0.000000 0.036128
#
#
# Mechanical properties :
#
#
# Convention : Reuss Voigt Hill
#
# Bulk Modulus (GPa) = 29.61544 36.01722 32.81633
# Shear Modulus (GPa) = 21.03532 24.75958 22.89745
#
# Velocity S-wave (km/s) = 3.51616 3.81474 3.66849
# Velocity P-wave (km/s) = 5.82157 6.36960 6.10174
#
# Compressibility (1/GPa) = 0.03376618
#
# Stress axis : x y z
#
# Youngs Moduli (GPa) = 69.75758 52.57778 28.55215
#
# Poissons Ratio (x) = 0.27599 0.07886
# Poissons Ratio (y) = 0.36616 0.26540
# Poissons Ratio (z) = 0.19266 0.48872
#
# Static dielectric constant tensor:
#      x y z
#    x 1.610080 0.000000 0.000630 
#    y 0.000000 1.632300 0.000000 
#    z 0.000630 0.000000 1.606430 
# 
# From -- ./inp_files/290770.got.cif
#   From: 2010.05.17/outbox.cif.g08.bks.cpg/sg12_146_cif.got.tgz:290770.got - 2010.06.03 13:09:07.
