data_PCOD9179695
_publ_section_title
;
Structure prediction by ZEFSAII (Michael W. Deem and Ramdas Pophale) SiO2 
 PCOD9179695
Probable space group: C 2/M
;
_chemical_formula_sum "Si O2"
_cell_formula_units_Z 64
_cell_length_a 23.191389
_cell_length_b 17.355587
_cell_length_c 14.152838
_cell_angle_alpha 90.000000
_cell_angle_beta 146.971130
_cell_angle_gamma 90.000000
_cell_volume 3104.953867
_symmetry_space_group_name_H-M "C 2/M"
_symmetry_group_IT_number 12
_symmetry_cell_setting 'monoclinic'
loop_
_space_group_symop_operation_xyz
x,y,z
-x,y,-z
-x,-y,-z
x,-y,z
1/2+x,1/2+y,z
1/2-x,1/2+y,-z
1/2-x,1/2-y,-z
1/2+x,1/2-y,z
loop_
_atom_site_type_symbol
_atom_site_label
_atom_site_fract_x
_atom_site_fract_y
_atom_site_fract_z
Si Si1 0.479791 0.274679 0.081776
Si Si2 0.693580 0.909987 0.008226
Si Si3 0.628090 0.588818 0.275099
Si Si4 0.609633 0.088296 0.692639
Si Si5 0.305304 0.862378 0.374913
Si Si6 0.245308 0.291253 0.221862
Si Si7 0.961097 0.621951 0.754260
Si Si8 0.205827 0.416515 0.325687
O O1 0.525466 0.359946 0.152713
O O2 0.543124 0.213624 0.232450
O O3 0.500000 0.252311 0.000000
O O4 0.358975 0.259770 0.943409
O O5 0.662920 0.880475 0.860931
O O6 0.580751 0.905543 0.907980
O O7 0.728866 0.000000 0.054349
O O8 0.767198 0.848483 0.164375
O O9 0.606041 0.500000 0.222344
O O10 0.697899 0.626935 0.287262
O O11 0.702565 0.590882 0.469692
O O12 0.500000 0.122679 0.500000
O O13 0.690097 0.091803 0.716150
O O14 0.583955 0.000000 0.682972
O O15 0.323885 0.773612 0.369379
O O16 0.396111 0.893641 0.569727
O O17 0.215806 0.347963 0.266614
O O18 0.901609 0.586500 0.761757
O O19 0.215608 0.500000 0.291622
#
# Coordination Sequence:
#
# PCOD9179695 Si02
#       8
#     8   8   8   8   8   8   8   8
#     4  11  19  34  47  71 106 144 167 196 247 291
#     4  10  21  35  53  76 102 131 165 209 255 300
#     4  10  21  34  50  73 102 138 176 205 236 290
#     4  10  20  36  55  75  99 127 165 211 258 301
#     4  11  20  34  54  76 100 133 168 210 251 295
#     4  11  22  34  51  76 107 136 166 202 250 297
#     4  10  19  31  51  75 104 133 170 203 246 301
#     4  10  19  32  51  75 103 135 170 205 241 292
#
# _framework density 20.612221999999999
#
# number of rings (size 3 to 8) (size 9 to 14) (size 15 to 20)
#    0.000    1.625    3.750    1.875    0.000    3.750 
#    0.000    1.875    0.000    0.000    0.000    0.000 
#    0.000    1.000    0.000    0.250    0.000    0.000 
#
# Total GULP energy -178557.212461 kJ/mol
# GULP energy per Si atom -5579.912889 kJ/mol
# Density = 2.056531 g / cm^3
# Si number density = 20.612222 Si / 1000 Ang^3
#
#
#
# Elastic Constant Matrix: (Units=GPa)
#
#
# Indices 1 2 3 4 5 6 
#
# 1 38.9791 8.3514 11.9619 0.0000 -20.9526 0.0000
# 2 8.3514 109.5263 19.0042 0.0000 -9.9148 0.0000
# 3 11.9619 19.0042 36.3099 0.0000 -13.2038 0.0000
# 4 0.0000 0.0000 0.0000 20.4448 0.0000 -5.9545
# 5 -20.9526 -9.9148 -13.2038 0.0000 28.5258 0.0000
# 6 0.0000 0.0000 0.0000 -5.9545 0.0000 13.4766
#
#
#
# Elastic Compliance Matrix: (Units=1/GPa)
#
#
# Indices 1 2 3 4 5 6 
#
# 1 0.042700 0.000005 -0.003203 0.000000 0.029883 0.000000
# 2 0.000005 0.010081 -0.004812 0.000000 0.001280 0.000000
# 3 -0.003203 -0.004812 0.035652 0.000000 0.012477 0.000000
# 4 0.000000 0.000000 0.000000 0.056136 0.000000 0.024803
# 5 0.029883 0.001280 0.012477 0.000000 0.063225 0.000000
# 6 0.000000 0.000000 0.000000 0.024803 0.000000 0.085161
#
#
# Mechanical properties :
#
#
# Convention : Reuss Voigt Hill
#
# Bulk Modulus (GPa) = 13.81000 29.27227 21.54113
# Shear Modulus (GPa) = 15.00997 22.18931 18.59964
#
# Velocity S-wave (km/s) = 2.70146 3.28458 3.00719
# Velocity P-wave (km/s) = 4.05524 5.34948 4.74668
#
# Compressibility (1/GPa) = 0.07241130
#
# Stress axis : x y z
#
# Youngs Moduli (GPa) = 23.41946 99.19929 28.04912
#
# Poissons Ratio (x) = -0.00050 0.08984
# Poissons Ratio (y) = -0.00012 0.13498
# Poissons Ratio (z) = 0.07501 0.47738
#
# Static dielectric constant tensor:
#      x y z
#    x 1.718290 0.000000 -0.008140 
#    y 0.000000 1.788390 0.000000 
#    z -0.008140 0.000000 1.785780 
# 
# From -- ./inp_files/240726.got.cif
#   From: 2010.05.17/outbox.cif.g08.bks.cpg/sg12_121_cif.got.tgz:240726.got - 2010.06.03 13:09:07.
