data_PCOD9179282
_publ_section_title
;
Structure prediction by ZEFSAII (Michael W. Deem and Ramdas Pophale) SiO2 
 PCOD9179282
Probable space group: C 2/M
;
_chemical_formula_sum "Si O2"
_cell_formula_units_Z 56
_cell_length_a 9.044019
_cell_length_b 15.232118
_cell_length_c 21.342788
_cell_angle_alpha 90.000000
_cell_angle_beta 115.072874
_cell_angle_gamma 90.000000
_cell_volume 2663.119280
_symmetry_space_group_name_H-M "C 2/M"
_symmetry_group_IT_number 12
_symmetry_cell_setting 'monoclinic'
loop_
_space_group_symop_operation_xyz
x,y,z
-x,y,-z
-x,-y,-z
x,-y,z
1/2+x,1/2+y,z
1/2-x,1/2+y,-z
1/2-x,1/2-y,-z
1/2+x,1/2-y,z
loop_
_atom_site_type_symbol
_atom_site_label
_atom_site_fract_x
_atom_site_fract_y
_atom_site_fract_z
Si Si1 0.527866 0.896470 0.863245
Si Si2 0.752623 0.847029 0.574443
Si Si3 0.396139 0.847057 0.574412
Si Si4 0.901586 0.153860 0.724224
Si Si5 0.198493 0.103558 0.863251
Si Si6 0.169468 0.108012 0.000029
Si Si7 0.953461 0.653762 0.275807
O O1 0.355426 0.857908 0.855483
O O2 0.679136 0.861416 0.930536
O O3 0.548158 0.887924 0.792714
O O4 0.525353 0.000000 0.876023
O O5 0.574720 0.838254 0.574768
O O6 0.719075 0.888662 0.500026
O O7 0.824036 0.749982 0.574098
O O8 0.865195 0.888095 0.649092
O O9 0.432788 0.888167 0.649038
O O10 0.729464 0.157602 0.729613
O O11 0.037077 0.112234 0.792757
O O12 0.972144 0.250068 0.722365
O O13 0.226337 0.000000 0.875921
O O14 0.182054 0.138564 0.930606
O O15 0.168636 0.000000 0.000032
O O16 0.000000 0.136416 0.000000
#
# Coordination Sequence:
#
# PCOD9179282 Si02
#       7
#     8   8   8   8   8   8   8
#     4  10  20  34  52  73  98 128 162 199 239 284
#     4   8  14  25  42  65  92 122 157 196 236 279
#     4   8  14  25  42  65  92 122 157 196 236 279
#     4  10  19  31  49  73 101 130 161 199 243 289
#     4  10  20  34  52  73  98 128 162 199 239 284
#     4   9  17  31  52  75  96 121 158 199 237 283
#     4  10  19  31  49  73 101 130 161 199 243 289
#
# _framework density 21.027974
#
# number of rings (size 3 to 8) (size 9 to 14) (size 15 to 20)
#    0.000    2.714    0.000    2.143    0.000    4.571 
#    0.000    0.714    0.000    0.857    0.000    6.000 
#    0.000    0.000    0.000    0.000    0.000    0.000 
#
# Total GULP energy -155986.345546 kJ/mol
# GULP energy per Si atom -5570.940912 kJ/mol
# Density = 2.098011 g / cm^3
# Si number density = 21.027974 Si / 1000 Ang^3
#
#
#
# Elastic Constant Matrix: (Units=GPa)
#
#
# Indices 1 2 3 4 5 6 
#
# 1 115.2291 5.7818 95.3356 0.0000 -1.8010 0.0000
# 2 5.7818 25.7648 9.1451 0.0000 -0.1320 0.0000
# 3 95.3356 9.1451 254.4203 0.0000 -3.6327 0.0000
# 4 0.0000 0.0000 0.0000 1.3871 0.0000 0.4671
# 5 -1.8010 -0.1320 -3.6327 0.0000 33.0021 0.0000
# 6 0.0000 0.0000 0.0000 0.4671 0.0000 13.8412
#
#
#
# Elastic Compliance Matrix: (Units=1/GPa)
#
#
# Indices 1 2 3 4 5 6 
#
# 1 0.012613 -0.001168 -0.004682 0.000000 0.000168 0.000000
# 2 -0.001168 0.039422 -0.000980 0.000000 -0.000014 0.000000
# 3 -0.004682 -0.000980 0.005725 0.000000 0.000371 0.000000
# 4 0.000000 0.000000 0.000000 0.729240 0.000000 -0.024612
# 5 0.000168 -0.000014 0.000371 0.000000 0.030351 0.000000
# 6 0.000000 0.000000 0.000000 -0.024612 0.000000 0.073079
#
#
# Mechanical properties :
#
#
# Convention : Reuss Voigt Hill
#
# Bulk Modulus (GPa) = 22.67460 68.43769 45.55614
# Shear Modulus (GPa) = 5.44194 28.65618 17.04906
#
# Velocity S-wave (km/s) = 1.61046 3.69557 2.85051
# Velocity P-wave (km/s) = 3.77685 7.12926 5.70486
#
# Compressibility (1/GPa) = 0.04410221
#
# Stress axis : x y z
#
# Youngs Moduli (GPa) = 79.28129 25.36630 174.65860
#
# Poissons Ratio (x) = 0.02962 0.81776
# Poissons Ratio (y) = 0.09258 0.17110
# Poissons Ratio (z) = 0.37120 0.02485
#
# Static dielectric constant tensor:
#      x y z
#    x 1.728850 0.000000 -0.003580 
#    y 0.000000 1.785200 0.000000 
#    z -0.003580 0.000000 1.817360 
# 
# From -- ./inp_files/258008.got.cif
#   From: 2010.05.17/outbox.cif.g08.bks.cpg/sg12_130_cif.got.tgz:258008.got - 2010.06.03 13:09:07.
