data_PCOD9179507
_publ_section_title
;
Structure prediction by ZEFSAII (Michael W. Deem and Ramdas Pophale) SiO2 
 PCOD9179507
Probable space group: C 2/M
;
_chemical_formula_sum "Si O2"
_cell_formula_units_Z 56
_cell_length_a 19.666784
_cell_length_b 7.702509
_cell_length_c 20.504832
_cell_angle_alpha 90.000000
_cell_angle_beta 121.468337
_cell_angle_gamma 90.000000
_cell_volume 2649.320782
_symmetry_space_group_name_H-M "C 2/M"
_symmetry_group_IT_number 12
_symmetry_cell_setting 'monoclinic'
loop_
_space_group_symop_operation_xyz
x,y,z
-x,y,-z
-x,-y,-z
x,-y,z
1/2+x,1/2+y,z
1/2-x,1/2+y,-z
1/2-x,1/2-y,-z
1/2+x,1/2-y,z
loop_
_atom_site_type_symbol
_atom_site_label
_atom_site_fract_x
_atom_site_fract_y
_atom_site_fract_z
Si Si1 0.994429 0.210899 0.677273
Si Si2 0.484798 0.710617 0.824361
Si Si3 0.691931 0.709155 0.271575
Si Si4 0.248360 0.802763 0.923617
Si Si5 0.166495 0.208883 0.755291
Si Si6 0.318958 0.291420 0.585135
Si Si7 0.075792 0.789925 0.993423
O O1 0.998226 0.255183 0.756091
O O2 0.907748 0.272401 0.609946
O O3 0.078552 0.272520 0.690905
O O4 0.992859 0.000000 0.671256
O O5 0.485786 0.500000 0.828445
O O6 0.395075 0.767854 0.797463
O O7 0.551032 0.769045 0.908394
O O8 0.688708 0.500000 0.271415
O O9 0.764875 0.757400 0.262543
O O10 0.699375 0.770547 0.350319
O O11 0.193968 0.719309 0.839957
O O12 0.221339 0.000000 0.913011
O O13 0.250000 0.750000 0.000000
O O14 0.339497 0.786558 0.944912
O O15 0.160685 0.000000 0.758140
O O16 0.323825 0.500000 0.591575
O O17 0.250000 0.250000 0.500000
O O18 0.084697 0.000000 0.999604
O O19 0.000000 0.746124 0.000000
#
# Coordination Sequence:
#
# PCOD9179507 Si02
#       7
#     8   8   8   8   8   8   8
#     4   8  15  30  51  71  93 127 168 202 236 287
#     4   8  14  28  49  69  92 127 171 211 244 290
#     4   9  18  33  54  78 102 132 169 207 250 299
#     4  11  23  36  51  73 103 139 178 222 268 310
#     4  10  20  34  52  74 101 133 170 212 254 298
#     4   9  18  34  57  81 103 129 162 201 244 295
#     4  10  19  31  50  74  99 132 173 216 263 310
#
# _framework density 21.137494
#
# number of rings (size 3 to 8) (size 9 to 14) (size 15 to 20)
#    0.000    2.714    0.000    3.857    0.000    5.429 
#    0.000    2.143    0.000    7.714    0.000    0.000 
#    0.000    0.000    0.000    0.000    0.000    0.000 
#
# Total GULP energy -156170.266534 kJ/mol
# GULP energy per Si atom -5577.509519 kJ/mol
# Density = 2.108938 g / cm^3
# Si number density = 21.137494 Si / 1000 Ang^3
#
#
#
# Elastic Constant Matrix: (Units=GPa)
#
#
# Indices 1 2 3 4 5 6 
#
# 1 116.8507 -2.5582 31.6156 0.0000 25.0684 0.0000
# 2 -2.5582 29.0699 1.4440 0.0000 -1.5245 0.0000
# 3 31.6156 1.4440 102.0359 0.0000 30.0163 0.0000
# 4 0.0000 0.0000 0.0000 15.4677 0.0000 -1.0829
# 5 25.0684 -1.5245 30.0163 0.0000 29.7368 0.0000
# 6 0.0000 0.0000 0.0000 -1.0829 0.0000 23.5722
#
#
#
# Elastic Compliance Matrix: (Units=1/GPa)
#
#
# Indices 1 2 3 4 5 6 
#
# 1 0.010517 0.000559 -0.000949 0.000000 -0.007880 0.000000
# 2 0.000559 0.034670 -0.001491 0.000000 0.002811 0.000000
# 3 -0.000949 -0.001491 0.014085 0.000000 -0.013494 0.000000
# 4 0.000000 0.000000 0.000000 0.064860 0.000000 0.002980
# 5 -0.007880 0.002811 -0.013494 0.000000 0.054037 0.000000
# 6 0.000000 0.000000 0.000000 0.002980 0.000000 0.042560
#
#
# Mechanical properties :
#
#
# Convention : Reuss Voigt Hill
#
# Bulk Modulus (GPa) = 18.01379 34.32883 26.17131
# Shear Modulus (GPa) = 20.57671 28.25234 24.41452
#
# Velocity S-wave (km/s) = 3.12343 3.65992 3.40227
# Velocity P-wave (km/s) = 4.64203 5.84260 5.27657
#
# Compressibility (1/GPa) = 0.05551301
#
# Stress axis : x y z
#
# Youngs Moduli (GPa) = 95.08079 28.84300 70.99679
#
# Poissons Ratio (x) = -0.01614 0.06735
# Poissons Ratio (y) = -0.05319 0.10584
# Poissons Ratio (z) = 0.09019 0.04300
#
# Static dielectric constant tensor:
#      x y z
#    x 1.787320 0.000000 0.010900 
#    y 0.000000 1.804620 0.000000 
#    z 0.010900 0.000000 1.770230 
# 
# From -- ./inp_files/314451.got.cif
#   From: 2010.05.17/outbox.cif.g08.bks.cpg/sg12_158_cif.got.tgz:314451.got - 2010.06.03 13:09:07.
