data_PCOD9179973
_publ_section_title
;
Structure prediction by ZEFSAII (Michael W. Deem and Ramdas Pophale) SiO2 
 PCOD9179973
Probable space group: C 2/M
;
_chemical_formula_sum "Si O2"
_cell_formula_units_Z 60
_cell_length_a 20.301685
_cell_length_b 7.290918
_cell_length_c 19.472970
_cell_angle_alpha 90.000000
_cell_angle_beta 78.795954
_cell_angle_gamma 90.000000
_cell_volume 2827.415106
_symmetry_space_group_name_H-M "C 2/M"
_symmetry_group_IT_number 12
_symmetry_cell_setting 'monoclinic'
loop_
_space_group_symop_operation_xyz
x,y,z
-x,y,-z
-x,-y,-z
x,-y,z
1/2+x,1/2+y,z
1/2-x,1/2+y,-z
1/2-x,1/2-y,-z
1/2+x,1/2-y,z
loop_
_atom_site_type_symbol
_atom_site_label
_atom_site_fract_x
_atom_site_fract_y
_atom_site_fract_z
Si Si1 0.896816 0.279807 0.600886
Si Si2 0.545342 0.781922 0.623272
Si Si3 0.817531 0.721960 0.176506
Si Si4 0.621393 0.500000 0.517917
Si Si5 0.322552 0.781793 0.019109
Si Si6 0.333461 0.211807 0.756557
Si Si7 0.090077 0.724374 0.123605
Si Si8 0.954108 0.277808 0.218319
O O1 0.886765 0.500000 0.593414
O O2 0.976809 0.248171 0.594455
O O3 0.861972 0.217711 0.679050
O O4 0.871424 0.160670 0.543087
O O5 0.602751 0.659976 0.578757
O O6 0.532795 0.730225 0.705184
O O7 0.559329 0.000000 0.617772
O O8 0.817579 0.500000 0.175807
O O9 0.823127 0.787924 0.096702
O O10 0.746423 0.777752 0.222319
O O11 0.881756 0.783482 0.206677
O O12 0.332335 0.000000 0.022333
O O13 0.250000 0.750000 0.000000
O O14 0.378170 0.712348 0.954346
O O15 0.364372 0.286401 0.821058
O O16 0.355494 0.000000 0.751562
O O17 0.091905 0.500000 0.121280
O O18 0.014640 0.781010 0.156788
O O19 0.954197 0.500000 0.216189
#
# Coordination Sequence:
#
# PCOD9179973 Si02
#       8
#     8   8   8   4   8   8   8   8
#     4  10  20  34  55  86 118 149 193 243 296 352
#     4  10  19  35  57  82 117 156 192 237 295 359
#     4  10  21  34  53  85 114 145 192 245 288 343
#     4  12  23  34  56  94 124 147 185 248 308 356
#     4  10  19  31  52  82 114 148 190 237 291 339
#     4  10  19  34  56  81 108 150 196 232 282 348
#     4   9  16  31  56  79 109 153 192 234 284 342
#     4   9  18  35  56  80 112 152 196 235 289 348
#
# _framework density 21.220797000000001
#
# number of rings (size 3 to 8) (size 9 to 14) (size 15 to 20)
#    0.000    2.133    2.667    1.600    0.933    1.600 
#    1.200    2.667    1.467    0.800    0.000    1.867 
#    0.000    0.000    0.000    0.000    0.000    0.000 
#
# Total GULP energy -167056.410641 kJ/mol
# GULP energy per Si atom -5568.547021 kJ/mol
# Density = 2.117250 g / cm^3
# Si number density = 21.220797 Si / 1000 Ang^3
#
#
#
# Elastic Constant Matrix: (Units=GPa)
#
#
# Indices 1 2 3 4 5 6 
#
# 1 47.5651 -14.1881 -15.9723 0.0000 8.7492 0.0000
# 2 -14.1881 97.7231 8.5932 0.0000 0.7057 0.0000
# 3 -15.9723 8.5932 67.1615 0.0000 13.5071 0.0000
# 4 0.0000 0.0000 0.0000 15.1081 0.0000 -4.0847
# 5 8.7492 0.7057 13.5071 0.0000 -29.2089 0.0000
# 6 0.0000 0.0000 0.0000 -4.0847 0.0000 12.4744
#
#
#
# Elastic Compliance Matrix: (Units=1/GPa)
#
#
# Indices 1 2 3 4 5 6 
#
# 1 0.021448 0.002780 0.003147 0.000000 0.007947 0.000000
# 2 0.002780 0.010706 -0.000849 0.000000 0.000699 0.000000
# 3 0.003147 -0.000849 0.014237 0.000000 0.007506 0.000000
# 4 0.000000 0.000000 0.000000 0.072618 0.000000 0.023779
# 5 0.007947 0.000699 0.007506 0.000000 -0.028368 0.000000
# 6 0.000000 0.000000 0.000000 0.023779 0.000000 0.087950
#
#
# Mechanical properties :
#
#
# Convention : Reuss Voigt Hill
#
# Bulk Modulus (GPa) = 17.68468 18.81281 18.24875
# Shear Modulus (GPa) = 26.69716 15.27587 20.98651
#
# Velocity S-wave (km/s) = 3.55077 2.68592 3.14818
# Velocity P-wave (km/s) = 5.01621 4.30156 4.67257
#
# Compressibility (1/GPa) = 0.05654612
#
# Stress axis : x y z
#
# Youngs Moduli (GPa) = 46.62449 93.40364 70.23939
#
# Poissons Ratio (x) = -0.25965 -0.22103
# Poissons Ratio (y) = -0.12961 0.05965
# Poissons Ratio (z) = -0.14672 0.07932
#
# Static dielectric constant tensor:
#      x y z
#    x 1.733810 0.000000 -0.005970 
#    y 0.000000 1.786860 0.000000 
#    z -0.005970 0.000000 1.740710 
# 
# From -- ./inp_files/281207.got.cif
#   From: 2010.05.17/outbox.cif.g08.bks.cpg/sg12_141_cif.got.tgz:281207.got - 2010.06.03 13:09:07.
