data_PCOD9179110
_publ_section_title
;
Structure prediction by ZEFSAII (Michael W. Deem and Ramdas Pophale) SiO2 
 PCOD9179110
Probable space group: C 2/M
;
_chemical_formula_sum "Si O2"
_cell_formula_units_Z 64
_cell_length_a 17.435302
_cell_length_b 13.419367
_cell_length_c 17.880372
_cell_angle_alpha 90.000000
_cell_angle_beta 128.626967
_cell_angle_gamma 90.000000
_cell_volume 3268.249170
_symmetry_space_group_name_H-M "C 2/M"
_symmetry_group_IT_number 12
_symmetry_cell_setting 'monoclinic'
loop_
_space_group_symop_operation_xyz
x,y,z
-x,y,-z
-x,-y,-z
x,-y,z
1/2+x,1/2+y,z
1/2-x,1/2+y,-z
1/2-x,1/2-y,-z
1/2+x,1/2-y,z
loop_
_atom_site_type_symbol
_atom_site_label
_atom_site_fract_x
_atom_site_fract_y
_atom_site_fract_z
Si Si1 0.649811 0.613896 0.447435
Si Si2 0.213251 0.270291 0.893434
Si Si3 0.955046 0.787968 0.391590
Si Si4 0.106979 0.886607 0.033734
Si Si5 0.737056 0.613280 0.667256
Si Si6 0.433462 0.611823 0.167537
Si Si7 0.617070 0.753223 0.303430
Si Si8 0.954589 0.616155 0.275502
O O1 0.652580 0.500000 0.422956
O O2 0.539004 0.649238 0.399994
O O3 0.708065 0.617127 0.561039
O O4 0.681385 0.689952 0.401792
O O5 0.150129 0.171158 0.837407
O O6 0.131103 0.356837 0.836101
O O7 0.250000 0.250000 0.000000
O O8 0.305330 0.307857 0.900838
O O9 0.859328 0.853765 0.347347
O O10 0.933477 0.687118 0.333454
O O11 0.000000 0.763220 0.500000
O O12 0.097881 0.892896 0.938301
O O13 0.129563 0.000000 0.074889
O O14 0.000000 0.858580 0.000000
O O15 0.765934 0.500000 0.702760
O O16 0.820627 0.696685 0.723925
O O17 0.447356 0.500000 0.203419
O O18 0.532639 0.676067 0.228306
O O19 0.558174 0.843605 0.307173
O O20 0.956815 0.500000 0.293156
#
# Coordination Sequence:
#
# PCOD9179110 Si02
#       8
#     8   8   8   8   8   8   8   8
#     4   9  17  31  51  71  95 132 173 213 256 303
#     4   9  18  33  53  76 100 129 169 212 251 302
#     4   9  19  34  51  74 104 138 177 214 251 306
#     4   9  17  30  50  75 101 128 159 200 251 303
#     4  10  19  32  50  71  98 133 171 212 260 306
#     4   9  18  32  50  71  97 131 166 204 251 301
#     4  10  19  31  48  73 101 126 165 215 257 303
#     4  10  20  34  53  75 101 136 173 210 258 311
#
# _framework density 19.582350000000002
#
# number of rings (size 3 to 8) (size 9 to 14) (size 15 to 20)
#    0.000    2.625    0.000    1.875    0.000    3.250 
#    0.000    3.125    0.000    1.125    0.000    0.000 
#    0.000    0.000    0.000    0.000    0.000    0.000 
#
# Total GULP energy -178372.971794 kJ/mol
# GULP energy per Si atom -5574.155369 kJ/mol
# Density = 1.953778 g / cm^3
# Si number density = 19.582350 Si / 1000 Ang^3
#
#
#
# Elastic Constant Matrix: (Units=GPa)
#
#
# Indices 1 2 3 4 5 6 
#
# 1 68.7511 41.4701 -0.1244 0.0000 16.2734 0.0000
# 2 41.4701 152.0167 20.7396 0.0000 15.5031 0.0000
# 3 -0.1244 20.7396 43.1954 0.0000 3.5480 0.0000
# 4 0.0000 0.0000 0.0000 16.8066 0.0000 -2.7584
# 5 16.2734 15.5031 3.5480 0.0000 26.0354 0.0000
# 6 0.0000 0.0000 0.0000 -2.7584 0.0000 21.8102
#
#
#
# Elastic Compliance Matrix: (Units=1/GPa)
#
#
# Indices 1 2 3 4 5 6 
#
# 1 0.019817 -0.004827 0.003192 0.000000 -0.009947 0.000000
# 2 -0.004827 0.008602 -0.004016 0.000000 -0.001558 0.000000
# 3 0.003192 -0.004016 0.025339 0.000000 -0.003057 0.000000
# 4 0.000000 0.000000 0.000000 0.060762 0.000000 0.007685
# 5 -0.009947 -0.001558 -0.003057 0.000000 0.045971 0.000000
# 6 0.000000 0.000000 0.000000 0.007685 0.000000 0.046822
#
#
# Mechanical properties :
#
#
# Convention : Reuss Voigt Hill
#
# Bulk Modulus (GPa) = 23.55406 43.12599 33.34003
# Shear Modulus (GPa) = 21.48069 26.38896 23.93483
#
# Velocity S-wave (km/s) = 3.31560 3.67493 3.49988
# Velocity P-wave (km/s) = 5.16836 6.33068 5.77882
#
# Compressibility (1/GPa) = 0.04245552
#
# Stress axis : x y z
#
# Youngs Moduli (GPa) = 50.46112 116.25449 39.46472
#
# Poissons Ratio (x) = 0.56118 -0.12596
# Poissons Ratio (y) = 0.24358 0.15849
# Poissons Ratio (z) = -0.16106 0.46688
#
# Static dielectric constant tensor:
#      x y z
#    x 1.678790 0.000000 0.010150 
#    y 0.000000 1.680940 0.000000 
#    z 0.010150 0.000000 1.766770 
# 
# From -- ./inp_files/315759.got.cif
#   From: 2010.05.17/outbox.cif.g08.bks.cpg/sg12_158_cif.got.tgz:315759.got - 2010.06.03 13:09:07.
