data_PCOD9179004
_publ_section_title
;
Structure prediction by ZEFSAII (Michael W. Deem and Ramdas Pophale) SiO2 
 PCOD9179004
Probable space group: C 2/M
;
_chemical_formula_sum "Si O2"
_cell_formula_units_Z 64
_cell_length_a 29.149116
_cell_length_b 9.073331
_cell_length_c 21.479981
_cell_angle_alpha 90.000000
_cell_angle_beta 47.851138
_cell_angle_gamma 90.000000
_cell_volume 4211.927245
_symmetry_space_group_name_H-M "C 2/M"
_symmetry_group_IT_number 12
_symmetry_cell_setting 'monoclinic'
loop_
_space_group_symop_operation_xyz
x,y,z
-x,y,-z
-x,-y,-z
x,-y,z
1/2+x,1/2+y,z
1/2-x,1/2+y,-z
1/2-x,1/2-y,-z
1/2+x,1/2-y,z
loop_
_atom_site_type_symbol
_atom_site_label
_atom_site_fract_x
_atom_site_fract_y
_atom_site_fract_z
Si Si1 0.187753 0.822993 0.342836
Si Si2 0.654835 0.176313 0.597900
Si Si3 0.396599 0.324000 0.820973
Si Si4 0.787122 0.177024 0.823110
Si Si5 0.951806 0.823082 0.489254
Si Si6 0.749296 0.675597 0.600175
Si Si7 0.703970 0.323908 0.992048
Si Si8 0.522521 0.176517 0.666548
O O1 0.200325 0.783327 0.259716
O O2 0.117439 0.784594 0.425871
O O3 0.233296 0.746164 0.349975
O O4 0.193710 0.000000 0.342735
O O5 0.688082 0.258133 0.624303
O O6 0.695011 0.211081 0.499269
O O7 0.584014 0.217340 0.649519
O O8 0.658845 0.000000 0.603661
O O9 0.406915 0.500000 0.807004
O O10 0.346595 0.285388 0.812289
O O11 0.459994 0.239695 0.752709
O O12 0.363420 0.293179 0.917419
O O13 0.726815 0.255588 0.906611
O O14 0.779551 0.000000 0.834695
O O15 0.969036 0.742575 0.410015
O O16 0.000000 0.786862 0.500000
O O17 0.954513 0.000000 0.476815
O O18 0.744946 0.500000 0.608922
O O19 0.712188 0.500000 0.984407
O O20 0.750000 0.250000 0.000000
O O21 0.520096 0.000000 0.665219
#
# Coordination Sequence:
#
# PCOD9179004 Si02
#       8
#     8   8   8   8   8   8   8   8
#     4  10  19  31  48  69  95 128 160 193 236 280
#     4   9  19  34  48  66  93 120 154 199 243 283
#     4   9  18  32  48  68  97 129 162 195 229 280
#     4   9  18  32  49  70  97 128 163 198 232 278
#     4  10  20  33  47  63  91 132 168 191 221 272
#     4  10  19  32  50  69  91 119 157 201 240 281
#     4   9  17  30  48  69  94 124 159 200 240 277
#     4  11  21  32  47  70  96 123 157 199 239 276
#
# _framework density 15.194945000000001
#
# number of rings (size 3 to 8) (size 9 to 14) (size 15 to 20)
#    0.000    2.375    1.250    2.625    0.000    6.750 
#    0.000    1.250    0.000    0.000    0.000    0.875 
#    0.000    7.000    0.000    0.000    0.000    0.000 
#
# Total GULP energy -178417.746940 kJ/mol
# GULP energy per Si atom -5575.554592 kJ/mol
# Density = 1.516036 g / cm^3
# Si number density = 15.194945 Si / 1000 Ang^3
#
#
#
# Elastic Constant Matrix: (Units=GPa)
#
#
# Indices 1 2 3 4 5 6 
#
# 1 106.6332 41.6218 62.0397 0.0001 -12.1776 0.0008
# 2 41.6218 32.4312 49.5662 -0.0054 -8.1446 0.0070
# 3 62.0397 49.5662 122.5066 0.0020 -16.0935 0.0010
# 4 0.0001 -0.0054 0.0020 28.1913 0.0027 1.7566
# 5 -12.1776 -8.1446 -16.0935 0.0027 8.8331 -0.0041
# 6 0.0008 0.0070 0.0010 1.7566 -0.0041 18.2596
#
#
#
# Elastic Compliance Matrix: (Units=1/GPa)
#
#
# Indices 1 2 3 4 5 6 
#
# 1 0.018997 -0.024646 0.001060 -0.000006 0.005397 0.000010
# 2 -0.024646 0.115448 -0.032483 0.000026 0.013289 -0.000041
# 3 0.001060 -0.032483 0.022384 -0.000010 0.012292 0.000015
# 4 -0.000006 0.000026 -0.000010 0.035686 -0.000015 -0.003433
# 5 0.005397 0.013289 0.012292 -0.000015 0.155299 0.000031
# 6 0.000010 -0.000041 0.000015 -0.003433 0.000031 0.055096
#
#
# Mechanical properties :
#
#
# Convention : Reuss Voigt Hill
#
# Bulk Modulus (GPa) = 22.37611 63.11405 42.74508
# Shear Modulus (GPa) = 9.43494 18.27969 13.85732
#
# Velocity S-wave (km/s) = 2.49454 3.47221 3.02316
# Velocity P-wave (km/s) = 4.80156 7.59614 6.35438
#
# Compressibility (1/GPa) = 0.04469052
#
# Stress axis : x y z
#
# Youngs Moduli (GPa) = 52.63852 8.66191 44.67569
#
# Poissons Ratio (x) = 0.21348 -0.04736
# Poissons Ratio (y) = 1.29732 1.45122
# Poissons Ratio (z) = -0.05580 0.28137
#
# Static dielectric constant tensor:
#      x y z
#    x 1.483610 0.000000 -0.002550 
#    y 0.000000 1.504040 0.000000 
#    z -0.002550 0.000000 1.509200 
# 
# From -- ./inp_files/326812.got.cif
#   From: 2010.05.17/outbox.cif.g08.bks.cpg/sg12_164_cif.got.tgz:326812.got - 2010.06.03 13:09:07.
