data_PCOD9179305
_publ_section_title
;
Structure prediction by ZEFSAII (Michael W. Deem and Ramdas Pophale) SiO2 
 PCOD9179305
Probable space group: C 2/M
;
_chemical_formula_sum "Si O2"
_cell_formula_units_Z 64
_cell_length_a 19.893131
_cell_length_b 7.868776
_cell_length_c 24.220149
_cell_angle_alpha 90.000000
_cell_angle_beta 119.219361
_cell_angle_gamma 90.000000
_cell_volume 3308.876535
_symmetry_space_group_name_H-M "C 2/M"
_symmetry_group_IT_number 12
_symmetry_cell_setting 'monoclinic'
loop_
_space_group_symop_operation_xyz
x,y,z
-x,y,-z
-x,-y,-z
x,-y,z
1/2+x,1/2+y,z
1/2-x,1/2+y,-z
1/2-x,1/2-y,-z
1/2+x,1/2-y,z
loop_
_atom_site_type_symbol
_atom_site_label
_atom_site_fract_x
_atom_site_fract_y
_atom_site_fract_z
Si Si1 0.179225 0.792802 0.347922
Si Si2 0.922244 0.292120 0.273565
Si Si3 0.130728 0.200054 0.208057
Si Si4 0.689822 0.204508 0.524448
Si Si5 0.196511 0.802961 0.928061
Si Si6 0.560524 0.797956 0.397575
Si Si7 0.531785 0.196401 0.829496
Si Si8 0.745878 0.206145 0.827248
O O1 0.157653 0.731376 0.278404
O O2 0.264672 0.739656 0.402582
O O3 0.117108 0.728733 0.367722
O O4 0.175864 0.000000 0.347984
O O5 0.924417 0.500000 0.274201
O O6 0.956556 0.233773 0.228111
O O7 0.832642 0.244853 0.236587
O O8 0.977493 0.231181 0.344847
O O9 0.180461 0.268243 0.177207
O O10 0.039260 0.219797 0.167988
O O11 0.148482 0.000000 0.216949
O O12 0.750000 0.250000 0.500000
O O13 0.607552 0.270844 0.469464
O O14 0.683684 0.000000 0.525049
O O15 0.114332 0.709955 0.891681
O O16 0.238460 0.771199 0.886498
O O17 0.178171 0.000000 0.925743
O O18 0.250000 0.750000 0.000000
O O19 0.551640 0.000000 0.402602
O O20 0.511062 0.000000 0.815381
O O21 0.746306 0.000000 0.831469
#
# Coordination Sequence:
#
# PCOD9179305 Si02
#       8
#     8   8   8   8   8   8   8   8
#     4   9  16  25  38  62  94 128 163 208 262 304
#     4   8  14  26  45  67  91 125 167 211 254 297
#     4  10  19  31  49  73 105 140 173 212 258 303
#     4   8  14  22  34  55  87 121 160 210 259 304
#     4  11  22  39  62  85 108 134 165 200 241 292
#     4   9  14  23  40  62  86 121 168 216 260 303
#     4  10  19  33  54  79 106 135 170 210 250 296
#     4   9  19  35  52  74 105 139 172 207 252 301
#
# _framework density 19.341913000000002
#
# number of rings (size 3 to 8) (size 9 to 14) (size 15 to 20)
#    0.000    2.750    1.250    2.250    0.000    0.500 
#    0.000    0.625    0.000    4.500    0.000    5.250 
#    0.000    0.000    0.000   22.750    0.000   18.250 
#
# Total GULP energy -178261.848339 kJ/mol
# GULP energy per Si atom -5570.682761 kJ/mol
# Density = 1.929789 g / cm^3
# Si number density = 19.341913 Si / 1000 Ang^3
#
#
#
# Elastic Constant Matrix: (Units=GPa)
#
#
# Indices 1 2 3 4 5 6 
#
# 1 81.6462 -8.7941 28.6277 0.0000 5.9749 0.0000
# 2 -8.7941 23.6399 -9.7346 0.0000 -2.6541 0.0000
# 3 28.6277 -9.7346 102.6579 0.0000 21.1423 0.0000
# 4 0.0000 0.0000 0.0000 12.0598 0.0000 0.3498
# 5 5.9749 -2.6541 21.1423 0.0000 17.6927 0.0000
# 6 0.0000 0.0000 0.0000 0.3498 0.0000 14.7929
#
#
#
# Elastic Compliance Matrix: (Units=1/GPa)
#
#
# Indices 1 2 3 4 5 6 
#
# 1 0.013882 0.003718 -0.003539 0.000000 0.000099 0.000000
# 2 0.003718 0.045077 0.002790 0.000000 0.002172 0.000000
# 3 -0.003539 0.002790 0.014140 0.000000 -0.015283 0.000000
# 4 0.000000 0.000000 0.000000 0.082977 0.000000 -0.001962
# 5 0.000099 0.002172 -0.015283 0.000000 0.075076 0.000000
# 6 0.000000 0.000000 0.000000 -0.001962 0.000000 0.067646
#
#
# Mechanical properties :
#
#
# Convention : Reuss Voigt Hill
#
# Bulk Modulus (GPa) = 12.65212 25.34912 19.00062
# Shear Modulus (GPa) = 15.66383 22.09874 18.88129
#
# Velocity S-wave (km/s) = 2.84885 3.38380 3.12779
# Velocity P-wave (km/s) = 4.16855 5.32927 4.78424
#
# Compressibility (1/GPa) = 0.07903813
#
# Stress axis : x y z
#
# Youngs Moduli (GPa) = 72.03522 22.18412 70.72040
#
# Poissons Ratio (x) = -0.08248 0.25028
# Poissons Ratio (y) = -0.26782 -0.19733
# Poissons Ratio (z) = 0.25493 -0.06190
#
# Static dielectric constant tensor:
#      x y z
#    x 1.617610 0.000000 -0.040900 
#    y 0.000000 1.617240 0.000000 
#    z -0.040900 0.000000 1.600930 
# 
# From -- ./inp_files/345565.got.cif
#   From: 2010.05.17/outbox.cif.g08.bks.cpg/sg12_173_cif.got.tgz:345565.got - 2010.06.03 13:09:07.
