data_PCOD9179024
_publ_section_title
;
Structure prediction by ZEFSAII (Michael W. Deem and Ramdas Pophale) SiO2 
 PCOD9179024
Probable space group: C 2/M
;
_chemical_formula_sum "Si O2"
_cell_formula_units_Z 48
_cell_length_a 32.625287
_cell_length_b 7.751154
_cell_length_c 18.944912
_cell_angle_alpha 90.000000
_cell_angle_beta 149.370254
_cell_angle_gamma 90.000000
_cell_volume 2440.885690
_symmetry_space_group_name_H-M "C 2/M"
_symmetry_group_IT_number 12
_symmetry_cell_setting 'monoclinic'
loop_
_space_group_symop_operation_xyz
x,y,z
-x,y,-z
-x,-y,-z
x,-y,z
1/2+x,1/2+y,z
1/2-x,1/2+y,-z
1/2-x,1/2-y,-z
1/2+x,1/2-y,z
loop_
_atom_site_type_symbol
_atom_site_label
_atom_site_fract_x
_atom_site_fract_y
_atom_site_fract_z
Si Si1 0.325014 0.787289 0.902122
Si Si2 0.498836 0.296020 0.313897
Si Si3 0.498962 0.802593 0.152519
Si Si4 0.828326 0.293102 0.571457
Si Si5 0.670557 0.702136 0.590235
Si Si6 0.173287 0.295229 0.932744
O O1 0.248089 0.724524 0.744596
O O2 0.316899 0.733141 0.971820
O O3 0.327585 0.000000 0.904339
O O4 0.412363 0.727175 0.002836
O O5 0.509029 0.500000 0.314207
O O6 0.494573 0.201835 0.231828
O O7 0.580118 0.232941 0.472395
O O8 0.412714 0.272126 0.222394
O O9 0.587481 0.726747 0.269694
O O10 0.500234 0.000000 0.128846
O O11 0.835769 0.500000 0.576891
O O12 0.750000 0.250000 0.500000
O O13 0.820396 0.221853 0.480547
O O14 0.670456 0.500000 0.608445
O O15 0.166726 0.500000 0.925727
O O16 0.250000 0.250000 0.000000
#
# Coordination Sequence:
#
# PCOD9179024 Si02
#       6
#     8   8   8   8   8   8
#     4   8  15  30  51  71  90 117 155 194 230 272
#     4   9  16  27  46  70  93 119 151 186 228 278
#     4   8  15  29  48  67  89 121 159 192 223 269
#     4  10  19  31  48  70  95 124 157 193 233 275
#     4   9  17  31  51  72  93 119 153 192 232 276
#     4  10  19  32  50  70  94 124 158 194 229 270
#
# _framework density 19.664994
#
# number of rings (size 3 to 8) (size 9 to 14) (size 15 to 20)
#    0.000    3.000    0.000    2.500    0.000    1.333 
#    0.000    5.833    0.000   10.000    0.000    0.000 
#    0.000    0.000    0.000    0.000    0.000    0.000 
#
# Total GULP energy -133602.108221 kJ/mol
# GULP energy per Si atom -5566.754509 kJ/mol
# Density = 1.962024 g / cm^3
# Si number density = 19.664994 Si / 1000 Ang^3
#
#
#
# Elastic Constant Matrix: (Units=GPa)
#
#
# Indices 1 2 3 4 5 6 
#
# 1 68.4326 -9.2704 61.4978 0.0000 41.5420 0.0000
# 2 -9.2704 35.6590 2.8045 0.0000 0.5557 0.0000
# 3 61.4978 2.8045 218.9723 0.0000 46.7208 0.0000
# 4 0.0000 0.0000 0.0000 16.0482 0.0000 4.8105
# 5 41.5420 0.5557 46.7208 0.0000 37.3461 0.0000
# 6 0.0000 0.0000 0.0000 4.8105 0.0000 19.4991
#
#
#
# Elastic Compliance Matrix: (Units=1/GPa)
#
#
# Indices 1 2 3 4 5 6 
#
# 1 0.053070 0.014918 -0.003346 0.000000 -0.055069 0.000000
# 2 0.014918 0.032265 -0.001309 0.000000 -0.015436 0.000000
# 3 -0.003346 -0.001309 0.006445 0.000000 -0.004322 0.000000
# 4 0.000000 0.000000 0.000000 0.067288 0.000000 -0.016600
# 5 -0.055069 -0.015436 -0.004322 0.000000 0.093669 0.000000
# 6 0.000000 0.000000 0.000000 -0.016600 0.000000 0.055380
#
#
# Mechanical properties :
#
#
# Convention : Reuss Voigt Hill
#
# Bulk Modulus (GPa) = 8.90422 48.12530 28.51476
# Shear Modulus (GPa) = 15.38329 32.44747 23.91538
#
# Velocity S-wave (km/s) = 2.79994 4.06644 3.49110
# Velocity P-wave (km/s) = 3.87178 6.82449 5.54817
#
# Compressibility (1/GPa) = 0.11230634
#
# Stress axis : x y z
#
# Youngs Moduli (GPa) = 18.84294 30.99309 155.14867
#
# Poissons Ratio (x) = -0.46236 0.51913
# Poissons Ratio (y) = -0.28110 0.20316
# Poissons Ratio (z) = 0.06305 0.04058
#
# Static dielectric constant tensor:
#      x y z
#    x 1.665800 0.000000 0.050920 
#    y 0.000000 2.178960 0.000000 
#    z 0.050920 0.000000 1.765300 
# 
# From -- ./inp_files/273590.got.cif
#   From: 2010.05.17/outbox.cif.g08.bks.cpg/sg12_137_cif.got.tgz:273590.got - 2010.06.03 13:09:07.
