data_PCOD9179758
_publ_section_title
;
Structure prediction by ZEFSAII (Michael W. Deem and Ramdas Pophale) SiO2 
 PCOD9179758
Probable space group: C 2/M
;
_chemical_formula_sum "Si O2"
_cell_formula_units_Z 56
_cell_length_a 30.353485
_cell_length_b 7.533804
_cell_length_c 13.093674
_cell_angle_alpha 90.000000
_cell_angle_beta 55.845106
_cell_angle_gamma 90.000000
_cell_volume 2477.789338
_symmetry_space_group_name_H-M "C 2/M"
_symmetry_group_IT_number 12
_symmetry_cell_setting 'monoclinic'
loop_
_space_group_symop_operation_xyz
x,y,z
-x,y,-z
-x,-y,-z
x,-y,z
1/2+x,1/2+y,z
1/2-x,1/2+y,-z
1/2-x,1/2-y,-z
1/2+x,1/2-y,z
loop_
_atom_site_type_symbol
_atom_site_label
_atom_site_fract_x
_atom_site_fract_y
_atom_site_fract_z
Si Si1 0.444718 0.796930 0.301911
Si Si2 0.832297 0.215190 0.957061
Si Si3 0.670853 0.718227 0.267290
Si Si4 0.554288 0.297937 0.470334
Si Si5 0.559644 0.291825 0.084635
Si Si6 0.771548 0.296486 0.241421
Si Si7 0.876575 0.715456 0.204134
O O1 0.447780 0.699136 0.404989
O O2 0.502903 0.796092 0.174521
O O3 0.402386 0.723411 0.275941
O O4 0.430071 0.000000 0.344126
O O5 0.814449 0.268873 0.867639
O O6 0.893919 0.266385 0.897658
O O7 0.829489 0.000000 0.968904
O O8 0.798659 0.293447 0.093683
O O9 0.671653 0.500000 0.269977
O O10 0.611001 0.779837 0.365413
O O11 0.713574 0.782341 0.294935
O O12 0.500000 0.212942 0.500000
O O13 0.554978 0.500000 0.427621
O O14 0.550869 0.500000 0.112420
O O15 0.584865 0.265171 0.939974
O O16 0.763946 0.500000 0.284284
O O17 0.817165 0.218012 0.254908
O O18 0.875025 0.500000 0.207553
#
# Coordination Sequence:
#
# PCOD9179758 Si02
#       7
#     8   8   8   8   8   8   8
#     4  11  22  35  51  72 101 135 169 206 250 298
#     4   9  17  30  49  76 106 130 157 199 250 297
#     4   9  17  31  52  74  97 130 168 203 244 295
#     4  10  21  38  57  75  98 129 166 208 251 295
#     4  10  19  31  51  78 105 133 167 207 249 296
#     4   9  17  31  51  74 100 131 166 200 240 294
#     4   9  19  34  50  72 104 136 164 202 251 297
#
# _framework density 22.600792999999999
#
# number of rings (size 3 to 8) (size 9 to 14) (size 15 to 20)
#    0.000    2.429    0.000    2.571    0.000    6.000 
#    0.000    2.143    0.000    0.000    0.000    0.000 
#    0.000    0.000    0.000    0.000    0.000    0.000 
#
# Total GULP energy -156367.950851 kJ/mol
# GULP energy per Si atom -5584.569673 kJ/mol
# Density = 2.254935 g / cm^3
# Si number density = 22.600793 Si / 1000 Ang^3
#
#
#
# Elastic Constant Matrix: (Units=GPa)
#
#
# Indices 1 2 3 4 5 6 
#
# 1 161.7701 -2.0195 34.7257 0.0000 -1.6079 0.0000
# 2 -2.0195 59.8185 -8.0356 0.0001 -1.4231 0.0004
# 3 34.7257 -8.0356 28.6284 0.0000 1.2135 0.0000
# 4 0.0000 0.0001 0.0000 101.0203 0.0000 422.8378
# 5 -1.6079 -1.4231 1.2135 0.0000 36.2244 0.0000
# 6 0.0000 0.0004 0.0000 422.8378 0.0000 1979.4352
#
#
#
# Elastic Compliance Matrix: (Units=1/GPa)
#
#
# Indices 1 2 3 4 5 6 
#
# 1 0.008448 -0.001121 -0.010591 0.000000 0.000686 0.000000
# 2 -0.001121 0.017531 0.006262 0.000000 0.000429 0.000000
# 3 -0.010591 0.006262 0.049615 0.000000 -0.001886 0.000000
# 4 0.000000 0.000000 0.000000 0.093496 0.000000 -0.019972
# 5 0.000686 0.000429 -0.001886 0.000000 0.027716 0.000000
# 6 0.000000 0.000000 0.000000 -0.019972 0.000000 0.004772
#
#
# Mechanical properties :
#
#
# Convention : Reuss Voigt Hill
#
# Bulk Modulus (GPa) = 15.45736 33.28425 24.37081
# Shear Modulus (GPa) = 21.36375 438.37240 229.86808
#
# Velocity S-wave (km/s) = 3.07785 13.94218 10.09598
# Velocity P-wave (km/s) = 4.41419 16.55108 12.11246
#
# Compressibility (1/GPa) = 0.06469408
#
# Stress axis : x y z
#
# Youngs Moduli (GPa) = 118.37299 57.04228 20.15538
#
# Poissons Ratio (x) = 0.06396 0.21346
# Poissons Ratio (y) = 0.13272 -0.12622
# Poissons Ratio (z) = 1.25367 -0.35722
#
# Static dielectric constant tensor:
#      x y z
#    x 1.876230 0.000000 -0.018490 
#    y 0.000000 1.869130 0.000000 
#    z -0.018490 0.000000 1.780510 
# 
# From -- ./inp_files/180722.got.cif
#   From: 2010.05.17/outbox.cif.g08.bks.cpg/sg12_91_cif.got.tgz:180722.got - 2010.06.03 13:09:07.
