data_PCOD9179806
_publ_section_title
;
Structure prediction by ZEFSAII (Michael W. Deem and Ramdas Pophale) SiO2 
 PCOD9179806
Probable space group: C 2/M
;
_chemical_formula_sum "Si O2"
_cell_formula_units_Z 56
_cell_length_a 20.362823
_cell_length_b 7.741652
_cell_length_c 27.651726
_cell_angle_alpha 90.000000
_cell_angle_beta 149.480179
_cell_angle_gamma 90.000000
_cell_volume 2213.694611
_symmetry_space_group_name_H-M "C 2/M"
_symmetry_group_IT_number 12
_symmetry_cell_setting 'monoclinic'
loop_
_space_group_symop_operation_xyz
x,y,z
-x,y,-z
-x,-y,-z
x,-y,z
1/2+x,1/2+y,z
1/2-x,1/2+y,-z
1/2-x,1/2-y,-z
1/2+x,1/2-y,z
loop_
_atom_site_type_symbol
_atom_site_label
_atom_site_fract_x
_atom_site_fract_y
_atom_site_fract_z
Si Si1 0.779536 0.705728 0.323829
Si Si2 0.258858 0.796923 0.420229
Si Si3 0.489563 0.200001 0.232745
Si Si4 0.924486 0.298582 0.887323
Si Si5 0.514141 0.794487 0.623184
Si Si6 0.107053 0.291278 0.926617
Si Si7 0.276154 0.698300 0.166203
O O1 0.752094 0.500000 0.306741
O O2 0.773117 0.772894 0.374413
O O3 0.678001 0.788188 0.222017
O O4 0.919356 0.724405 0.387360
O O5 0.368155 0.727626 0.525456
O O6 0.108676 0.777525 0.337842
O O7 0.288868 0.000000 0.436119
O O8 0.480513 0.277108 0.173295
O O9 0.349660 0.216971 0.168293
O O10 0.520139 0.000000 0.248179
O O11 0.945065 0.500000 0.911718
O O12 0.849701 0.224953 0.886569
O O13 0.054110 0.226812 0.944591
O O14 0.610949 0.703880 0.721492
O O15 0.517343 0.000000 0.638489
O O16 0.096118 0.500000 0.921049
O O17 0.250000 0.250000 0.000000
O O18 0.249828 0.500000 0.136000
#
# Coordination Sequence:
#
# PCOD9179806 Si02
#       7
#     8   8   8   8   8   8   8
#     4   9  16  28  50  79 110 145 186 230 275 323
#     4  10  19  31  51  79 112 149 191 233 275 324
#     4  11  23  39  58  81 113 148 182 228 281 329
#     4   9  18  36  58  82 112 145 181 225 274 326
#     4   9  18  32  50  77 113 151 190 233 275 318
#     4  10  22  40  63  89 113 139 175 222 277 334
#     4  10  21  37  58  81 111 151 192 228 269 325
#
# _framework density 25.297076000000001
#
# number of rings (size 3 to 8) (size 9 to 14) (size 15 to 20)
#    0.000    2.286    1.429    1.286    0.000    5.143 
#    0.000    0.714    0.000    8.571    0.000    0.000 
#    0.000    0.000    0.000    0.000    0.000    0.000 
#
# Total GULP energy -156467.553903 kJ/mol
# GULP energy per Si atom -5588.126925 kJ/mol
# Density = 2.523950 g / cm^3
# Si number density = 25.297076 Si / 1000 Ang^3
#
#
#
# Elastic Constant Matrix: (Units=GPa)
#
#
# Indices 1 2 3 4 5 6 
#
# 1 146.9095 0.3152 35.6374 0.0000 15.9385 0.0002
# 2 0.3152 48.9452 3.4769 -0.0002 -0.2410 0.0001
# 3 35.6374 3.4769 117.6782 0.0001 18.1663 0.0000
# 4 0.0000 -0.0002 0.0001 12.2626 0.0000 5.2096
# 5 15.9385 -0.2410 18.1663 0.0000 43.1097 0.0001
# 6 0.0002 0.0001 0.0000 5.2096 0.0001 14.5038
#
#
#
# Elastic Compliance Matrix: (Units=1/GPa)
#
#
# Indices 1 2 3 4 5 6 
#
# 1 0.007496 0.000082 -0.001973 0.000000 -0.001939 0.000000
# 2 0.000082 0.020481 -0.000688 0.000000 0.000374 0.000000
# 3 -0.001973 -0.000688 0.009630 0.000000 -0.003332 0.000000
# 4 0.000000 0.000000 0.000000 0.096234 0.000000 -0.034566
# 5 -0.001939 0.000374 -0.003332 0.000000 0.025320 0.000000
# 6 0.000000 0.000000 0.000000 -0.034566 0.000000 0.081363
#
#
# Mechanical properties :
#
#
# Convention : Reuss Voigt Hill
#
# Bulk Modulus (GPa) = 30.81664 43.59910 37.20787
# Shear Modulus (GPa) = 19.49337 32.24879 25.87108
#
# Velocity S-wave (km/s) = 2.77894 3.57431 3.20142
# Velocity P-wave (km/s) = 4.74395 5.85718 5.32971
#
# Compressibility (1/GPa) = 0.03245000
#
# Stress axis : x y z
#
# Youngs Moduli (GPa) = 133.40857 48.82534 103.84191
#
# Poissons Ratio (x) = -0.00402 0.20488
# Poissons Ratio (y) = -0.01098 0.07142
# Poissons Ratio (z) = 0.26322 0.03358
#
# Static dielectric constant tensor:
#      x y z
#    x 2.035300 0.000000 0.001880 
#    y 0.000000 1.917320 0.000000 
#    z 0.001880 0.000000 2.056340 
# 
# From -- ./inp_files/320269.got.cif
#   From: 2010.05.17/outbox.cif.g08.bks.cpg/sg12_161_cif.got.tgz:320269.got - 2010.06.03 13:09:07.
