data_PCOD9179920
_publ_section_title
;
Structure prediction by ZEFSAII (Michael W. Deem and Ramdas Pophale) SiO2 
 PCOD9179920
Probable space group: C 2/M
;
_chemical_formula_sum "Si O2"
_cell_formula_units_Z 56
_cell_length_a 18.596108
_cell_length_b 21.955928
_cell_length_c 11.751957
_cell_angle_alpha 90.000000
_cell_angle_beta 142.802654
_cell_angle_gamma 90.000000
_cell_volume 2900.848541
_symmetry_space_group_name_H-M "C 2/M"
_symmetry_group_IT_number 12
_symmetry_cell_setting 'monoclinic'
loop_
_space_group_symop_operation_xyz
x,y,z
-x,y,-z
-x,-y,-z
x,-y,z
1/2+x,1/2+y,z
1/2-x,1/2+y,-z
1/2-x,1/2-y,-z
1/2+x,1/2-y,z
loop_
_atom_site_type_symbol
_atom_site_label
_atom_site_fract_x
_atom_site_fract_y
_atom_site_fract_z
Si Si1 0.186295 0.888236 0.681596
Si Si2 0.414899 0.190834 0.692531
Si Si3 0.798038 0.429253 0.603490
Si Si4 0.566772 0.391808 0.753385
Si Si5 0.639837 0.265772 0.940766
Si Si6 0.048556 0.929509 0.176864
Si Si7 0.737087 0.246043 0.295781
O O1 0.277732 0.922140 0.713818
O O2 0.172879 0.903449 0.797953
O O3 0.209510 0.816393 0.690608
O O4 0.057096 0.903660 0.466731
O O5 0.394862 0.119285 0.685565
O O6 0.549719 0.210011 0.842884
O O7 0.362125 0.224760 0.738079
O O8 0.335673 0.216562 0.488916
O O9 0.819049 0.500000 0.603350
O O10 0.673382 0.406284 0.387051
O O11 0.571717 0.321404 0.796392
O O12 0.552568 0.426480 0.853975
O O13 0.750000 0.250000 0.000000
O O14 0.684465 0.282407 0.123129
O O15 0.075070 0.000000 0.185967
O O16 0.000000 0.900104 0.000000
#
# Coordination Sequence:
#
# PCOD9179920 Si02
#       7
#     8   8   8   8   8   8   8
#     4   9  17  34  53  77 114 144 183 239 281 346
#     4  10  22  37  56  86 118 151 194 237 285 348
#     4   9  19  36  58  82 110 154 199 239 289 340
#     4  10  19  31  52  79 113 146 186 232 291 345
#     4  12  23  34  56  85 118 152 187 233 292 350
#     4   9  19  33  51  80 115 148 194 247 289 340
#     4  10  20  36  56  81 117 152 182 236 292 346
#
# _framework density 19.304696
#
# number of rings (size 3 to 8) (size 9 to 14) (size 15 to 20)
#    0.000    2.143    2.857    0.429    4.000    1.143 
#    0.000    2.857    0.000    7.714    0.000    1.000 
#    0.000    0.000    0.000    0.000    0.000    0.000 
#
# Total GULP energy -156103.943253 kJ/mol
# GULP energy per Si atom -5575.140830 kJ/mol
# Density = 1.926076 g / cm^3
# Si number density = 19.304696 Si / 1000 Ang^3
#
#
#
# Elastic Constant Matrix: (Units=GPa)
#
#
# Indices 1 2 3 4 5 6 
#
# 1 104.4356 13.3414 50.0764 0.0000 -9.7638 0.0000
# 2 13.3414 34.0274 4.3810 0.0000 2.9814 0.0000
# 3 50.0764 4.3810 45.2999 0.0000 -14.2027 0.0000
# 4 0.0000 0.0000 0.0000 9.4443 0.0000 -1.9618
# 5 -9.7638 2.9814 -14.2027 0.0000 32.3343 0.0000
# 6 0.0000 0.0000 0.0000 -1.9618 0.0000 17.9393
#
#
#
# Elastic Compliance Matrix: (Units=1/GPa)
#
#
# Indices 1 2 3 4 5 6 
#
# 1 0.021704 -0.004991 -0.024714 0.000000 -0.003842 0.000000
# 2 -0.004991 0.031521 0.001258 0.000000 -0.003861 0.000000
# 3 -0.024714 0.001258 0.054387 0.000000 0.016311 0.000000
# 4 0.000000 0.000000 0.000000 0.108346 0.000000 0.011849
# 5 -0.003842 -0.003861 0.016311 0.000000 0.037287 0.000000
# 6 0.000000 0.000000 0.000000 0.011849 0.000000 0.057039
#
#
# Mechanical properties :
#
#
# Convention : Reuss Voigt Hill
#
# Bulk Modulus (GPa) = 19.71658 35.48452 27.60055
# Shear Modulus (GPa) = 13.01794 19.67451 16.34623
#
# Velocity S-wave (km/s) = 2.59962 3.19589 2.91305
# Velocity P-wave (km/s) = 4.38706 5.66034 5.06388
#
# Compressibility (1/GPa) = 0.05071873
#
# Stress axis : x y z
#
# Youngs Moduli (GPa) = 46.07410 31.72461 18.38660
#
# Poissons Ratio (x) = 0.15834 0.45441
# Poissons Ratio (y) = 0.22996 -0.02314
# Poissons Ratio (z) = 1.13869 -0.03993
#
# Static dielectric constant tensor:
#      x y z
#    x 1.700020 0.000000 -0.027920 
#    y 0.000000 1.687010 0.000000 
#    z -0.027920 0.000000 1.720890 
# 
# From -- ./inp_files/160354.got.cif
#   From: 2010.05.17/outbox.cif.g08.bks.cpg/sg12_81_cif.got.tgz:160354.got - 2010.06.03 13:09:07.
