data_PCOD9179448
_publ_section_title
;
Structure prediction by ZEFSAII (Michael W. Deem and Ramdas Pophale) SiO2 
 PCOD9179448
Probable space group: C 2/M
;
_chemical_formula_sum "Si O2"
_cell_formula_units_Z 40
_cell_length_a 20.451998
_cell_length_b 7.281097
_cell_length_c 18.889561
_cell_angle_alpha 90.000000
_cell_angle_beta 38.074738
_cell_angle_gamma 90.000000
_cell_volume 1734.684591
_symmetry_space_group_name_H-M "C 2/M"
_symmetry_group_IT_number 12
_symmetry_cell_setting 'monoclinic'
loop_
_space_group_symop_operation_xyz
x,y,z
-x,y,-z
-x,-y,-z
x,-y,z
1/2+x,1/2+y,z
1/2-x,1/2+y,-z
1/2-x,1/2-y,-z
1/2+x,1/2-y,z
loop_
_atom_site_type_symbol
_atom_site_label
_atom_site_fract_x
_atom_site_fract_y
_atom_site_fract_z
Si Si1 0.264714 0.223173 0.109885
Si Si2 0.284527 0.223583 0.255394
Si Si3 0.004131 0.710957 0.127238
Si Si4 0.428310 0.276353 0.494183
Si Si5 0.461771 0.722077 0.744631
O O1 0.253685 0.272716 0.201751
O O2 0.160851 0.284352 0.156143
O O3 0.264087 0.000000 0.106133
O O4 0.379250 0.290136 0.986474
O O5 0.401591 0.290077 0.175811
O O6 0.191864 0.281362 0.387610
O O7 0.287016 0.000000 0.255570
O O8 0.010903 0.500000 0.096651
O O9 0.987444 0.715315 0.225505
O O10 0.500000 0.220263 0.500000
O O11 0.430415 0.500000 0.491788
O O12 0.477141 0.217399 0.378031
O O13 0.462400 0.500000 0.744619
#
# Coordination Sequence:
#
# PCOD9179448 Si02
#       5
#     8   8   8   8   8
#     4   9  16  29  49  71  93 122 161 197 226 266
#     4   9  16  28  48  72  94 119 157 201 234 264
#     4  10  20  31  46  72 102 125 148 188 241 284
#     4   9  15  27  48  72  92 115 157 203 232 262
#     4  10  19  31  50  72  94 123 158 194 230 274
#
# _framework density 23.058948000000001
#
# number of rings (size 3 to 8) (size 9 to 14) (size 15 to 20)
#    0.000    2.600    2.000    1.200    0.000    3.200 
#    0.000    0.000    0.000    4.200    0.000    0.000 
#    0.000    0.000    0.000    0.000    0.000    0.000 
#
# Total GULP energy -111785.645131 kJ/mol
# GULP energy per Si atom -5589.282257 kJ/mol
# Density = 2.300646 g / cm^3
# Si number density = 23.058948 Si / 1000 Ang^3
#
#
#
# Elastic Constant Matrix: (Units=GPa)
#
#
# Indices 1 2 3 4 5 6 
#
# 1 59.5456 -8.9658 -28.4262 -0.0001 -9.4110 0.0000
# 2 -8.9658 99.6840 -6.4768 0.0005 -6.8926 0.0006
# 3 -28.4262 -6.4768 69.7505 0.0001 -5.3106 -0.0001
# 4 -0.0001 0.0005 0.0001 -14.6005 -0.0001 13.5722
# 5 -9.4110 -6.8926 -5.3106 -0.0001 24.0541 -0.0001
# 6 0.0000 0.0006 -0.0001 13.5722 -0.0001 -4.7546
#
#
#
# Elastic Compliance Matrix: (Units=1/GPa)
#
#
# Indices 1 2 3 4 5 6 
#
# 1 0.025062 0.003942 0.011607 0.000000 0.013497 0.000000
# 2 0.003942 0.010953 0.003031 -0.000001 0.005350 -0.000001
# 3 0.011607 0.003031 0.020098 0.000000 0.009847 0.000000
# 4 0.000000 -0.000001 0.000000 0.041422 0.000001 0.118240
# 5 0.013497 0.005350 0.009847 0.000001 0.050561 0.000001
# 6 0.000000 -0.000001 0.000000 0.118240 0.000001 0.127198
#
#
# Mechanical properties :
#
#
# Convention : Reuss Voigt Hill
#
# Bulk Modulus (GPa) = 10.72129 15.69360 13.20745
# Shear Modulus (GPa) = 18.57178 19.12972 18.85075
#
# Velocity S-wave (km/s) = 2.84104 2.88340 2.86230
# Velocity P-wave (km/s) = 3.92704 4.23155 4.08213
#
# Compressibility (1/GPa) = 0.09327232
#
# Stress axis : x y z
#
# Youngs Moduli (GPa) = 39.90150 91.29891 49.75514
#
# Poissons Ratio (x) = -0.35986 -0.57752
# Poissons Ratio (y) = -0.15727 -0.15079
# Poissons Ratio (z) = -0.46315 -0.27670
#
# Static dielectric constant tensor:
#      x y z
#    x 1.788770 0.000000 -0.020270 
#    y 0.000000 1.908040 0.000000 
#    z -0.020270 0.000000 1.840510 
# 
# From -- ./inp_files/140798.got.cif
#   From: 2010.05.17/outbox.cif.g08.bks.cpg/sg12_71_cif.got.tgz:140798.got - 2010.06.03 13:09:07.
