data_PCOD9179288
_publ_section_title
;
Structure prediction by ZEFSAII (Michael W. Deem and Ramdas Pophale) SiO2 
 PCOD9179288
Probable space group: C 2/M
;
_chemical_formula_sum "Si O2"
_cell_formula_units_Z 56
_cell_length_a 24.841948
_cell_length_b 7.563554
_cell_length_c 33.157522
_cell_angle_alpha 90.000000
_cell_angle_beta 152.651954
_cell_angle_gamma 90.000000
_cell_volume 2862.064837
_symmetry_space_group_name_H-M "C 2/M"
_symmetry_group_IT_number 12
_symmetry_cell_setting 'monoclinic'
loop_
_space_group_symop_operation_xyz
x,y,z
-x,y,-z
-x,-y,-z
x,-y,z
1/2+x,1/2+y,z
1/2-x,1/2+y,-z
1/2-x,1/2-y,-z
1/2+x,1/2-y,z
loop_
_atom_site_type_symbol
_atom_site_label
_atom_site_fract_x
_atom_site_fract_y
_atom_site_fract_z
Si Si1 0.559593 0.794011 0.580429
Si Si2 0.307429 0.214153 0.713253
Si Si3 0.304132 0.215242 0.617750
Si Si4 0.432060 0.211372 0.101929
Si Si5 0.458465 0.293948 0.269843
Si Si6 0.704683 0.286358 0.906862
Si Si7 0.934301 0.795356 0.578138
O O1 0.500000 0.719812 0.500000
O O2 0.698222 0.775908 0.666856
O O3 0.509909 0.709310 0.587751
O O4 0.527349 0.000000 0.561499
O O5 0.289668 0.268619 0.654761
O O6 0.435318 0.277726 0.812450
O O7 0.307230 0.000000 0.713684
O O8 0.425400 0.281672 0.680314
O O9 0.193318 0.279258 0.517907
O O10 0.306507 0.000000 0.618626
O O11 0.380897 0.244199 0.112595
O O12 0.437536 0.000000 0.100348
O O13 0.333351 0.279582 0.005349
O O14 0.428296 0.500000 0.256587
O O15 0.353172 0.217887 0.172772
O O16 0.495971 0.214722 0.337811
O O17 0.709939 0.500000 0.908041
O O18 0.912381 0.000000 0.574548
#
# Coordination Sequence:
#
# PCOD9179288 Si02
#       7
#     8   8   8   8   8   8   8
#     4  11  23  36  52  74  97 125 164 210 251 285
#     4  10  19  32  52  74  99 131 164 199 242 292
#     4  10  19  31  49  73 101 134 165 196 237 290
#     4   9  17  30  48  72  99 129 163 196 239 291
#     4  10  20  32  49  74 103 134 164 199 242 287
#     4   9  17  29  47  72 102 129 158 200 242 282
#     4  10  21  36  51  69  98 136 171 198 237 293
#
# _framework density 19.566295
#
# number of rings (size 3 to 8) (size 9 to 14) (size 15 to 20)
#    0.000    2.143    2.857    0.857    0.000    2.857 
#    0.000    0.000    0.000    0.857    0.000    6.000 
#    0.000    0.000    0.000    0.000    0.000    0.000 
#
# Total GULP energy -156274.874710 kJ/mol
# GULP energy per Si atom -5581.245525 kJ/mol
# Density = 1.952176 g / cm^3
# Si number density = 19.566295 Si / 1000 Ang^3
#
#
#
# Elastic Constant Matrix: (Units=GPa)
#
#
# Indices 1 2 3 4 5 6 
#
# 1 36.2692 -8.5054 30.6219 -0.0284 -14.9047 0.0082
# 2 -8.5054 44.5304 3.4550 -0.4666 -3.4222 0.1129
# 3 30.6219 3.4550 171.0449 0.0385 -20.2875 -0.0093
# 4 -0.0284 -0.4666 0.0385 415.6427 0.0344 -90.4186
# 5 -14.9047 -3.4222 -20.2875 0.0344 31.9268 -0.0077
# 6 0.0082 0.1129 -0.0093 -90.4186 -0.0077 38.2716
#
#
#
# Elastic Compliance Matrix: (Units=1/GPa)
#
#
# Indices 1 2 3 4 5 6 
#
# 1 0.041508 0.009659 -0.005629 0.000011 0.016836 -0.000010
# 2 0.009659 0.024896 -0.001493 0.000025 0.006229 -0.000016
# 3 -0.005629 -0.001493 0.007088 -0.000002 0.001716 0.000002
# 4 0.000011 0.000025 -0.000002 0.004950 0.000004 0.011694
# 5 0.016836 0.006229 0.001716 0.000004 0.040939 -0.000005
# 6 -0.000010 -0.000016 0.000002 0.011694 -0.000005 0.053758
#
#
# Mechanical properties :
#
#
# Convention : Reuss Voigt Hill
#
# Bulk Modulus (GPa) = 12.72835 33.66529 23.19682
# Shear Modulus (GPa) = 25.73937 112.25308 68.99623
#
# Velocity S-wave (km/s) = 3.63091 7.58256 5.94469
# Velocity P-wave (km/s) = 4.90891 9.69037 7.68117
#
# Compressibility (1/GPa) = 0.07856476
#
# Stress axis : x y z
#
# Youngs Moduli (GPa) = 24.09163 40.16665 141.08509
#
# Poissons Ratio (x) = -0.38797 0.79422
# Poissons Ratio (y) = -0.23270 0.21069
# Poissons Ratio (z) = 0.13562 0.05998
#
# Static dielectric constant tensor:
#      x y z
#    x 1.638660 0.000000 -0.033650 
#    y 0.000000 1.734690 0.000000 
#    z -0.033650 0.000000 1.734260 
# 
# From -- ./inp_files/237469.got.cif
#   From: 2010.05.17/outbox.cif.g08.bks.cpg/sg12_119_cif.got.tgz:237469.got - 2010.06.03 13:09:07.
