data_PCOD9179670
_publ_section_title
;
Structure prediction by ZEFSAII (Michael W. Deem and Ramdas Pophale) SiO2 
 PCOD9179670
Probable space group: C 2/M
;
_chemical_formula_sum "Si O2"
_cell_formula_units_Z 64
_cell_length_a 25.166772
_cell_length_b 9.349408
_cell_length_c 14.140066
_cell_angle_alpha 90.000000
_cell_angle_beta 78.792511
_cell_angle_gamma 90.000000
_cell_volume 3263.630430
_symmetry_space_group_name_H-M "C 2/M"
_symmetry_group_IT_number 12
_symmetry_cell_setting 'monoclinic'
loop_
_space_group_symop_operation_xyz
x,y,z
-x,y,-z
-x,-y,-z
x,-y,z
1/2+x,1/2+y,z
1/2-x,1/2+y,-z
1/2-x,1/2-y,-z
1/2+x,1/2-y,z
loop_
_atom_site_type_symbol
_atom_site_label
_atom_site_fract_x
_atom_site_fract_y
_atom_site_fract_z
Si Si1 0.159619 0.832675 0.066244
Si Si2 0.680849 0.169498 0.877842
Si Si3 0.707153 0.329122 0.255063
Si Si4 0.960907 0.168010 0.848025
Si Si5 0.638779 0.832349 0.431988
Si Si6 0.579709 0.334155 0.602937
Si Si7 0.081067 0.836239 0.830654
Si Si8 0.471342 0.167327 0.650488
O O1 0.174735 0.795697 0.168967
O O2 0.094739 0.814910 0.076521
O O3 0.173086 0.000000 0.049276
O O4 0.189018 0.739924 0.977437
O O5 0.730654 0.204285 0.791237
O O6 0.625119 0.231130 0.857003
O O7 0.678899 0.000000 0.888559
O O8 0.701396 0.500000 0.273694
O O9 0.683434 0.241891 0.350681
O O10 0.958356 0.270016 0.758301
O O11 0.018442 0.194801 0.877827
O O12 0.962851 0.000000 0.816205
O O13 0.627374 0.749484 0.533255
O O14 0.582126 0.818971 0.393999
O O15 0.649809 0.000000 0.442873
O O16 0.578935 0.500000 0.574227
O O17 0.583954 0.328534 0.715249
O O18 0.522944 0.257393 0.598513
O O19 0.093247 0.000000 0.855306
O O20 0.486349 0.000000 0.649121
#
# Coordination Sequence:
#
# PCOD9179670 Si02
#       8
#     8   8   8   8   8   8   8   8
#     4  10  20  37  62  86 112 146 185 234 285 336
#     4  11  24  39  58  84 112 148 191 236 285 336
#     4  10  22  40  60  83 113 149 191 233 278 337
#     4   9  18  34  58  85 112 149 191 228 276 335
#     4  11  22  34  54  86 118 148 183 230 287 338
#     4  10  21  36  57  82 111 152 195 230 270 332
#     4   9  20  39  59  81 111 149 194 234 272 328
#     4  10  19  31  50  82 121 151 179 224 283 338
#
# _framework density 19.610063
#
# number of rings (size 3 to 8) (size 9 to 14) (size 15 to 20)
#    0.000    2.000    1.250    3.000    0.000    8.000 
#    0.000    3.125    0.000    0.000    0.000    0.000 
#    0.000    0.000    0.000    0.000    0.000    0.000 
#
# Total GULP energy -178755.106656 kJ/mol
# GULP energy per Si atom -5586.097083 kJ/mol
# Density = 1.956543 g / cm^3
# Si number density = 19.610063 Si / 1000 Ang^3
#
#
#
# Elastic Constant Matrix: (Units=GPa)
#
#
# Indices 1 2 3 4 5 6 
#
# 1 50.3701 21.9300 -0.9988 0.0000 -2.1597 0.0000
# 2 21.9300 71.9979 33.1888 0.0000 -13.6297 0.0000
# 3 -0.9988 33.1888 59.6237 0.0000 -14.5186 0.0000
# 4 0.0000 0.0000 0.0000 32.7780 0.0000 -3.2884
# 5 -2.1597 -13.6297 -14.5186 0.0000 17.1548 0.0000
# 6 0.0000 0.0000 0.0000 -3.2884 0.0000 26.3129
#
#
#
# Elastic Compliance Matrix: (Units=1/GPa)
#
#
# Indices 1 2 3 4 5 6 
#
# 1 0.024446 -0.010256 0.006151 0.000000 0.000135 0.000000
# 2 -0.010256 0.023810 -0.011504 0.000000 0.007890 0.000000
# 3 0.006151 -0.011504 0.026755 0.000000 0.014278 0.000000
# 4 0.000000 0.000000 0.000000 0.030896 0.000000 0.003861
# 5 0.000135 0.007890 0.014278 0.000000 0.076662 0.000000
# 6 0.000000 0.000000 0.000000 0.003861 0.000000 0.038487
#
#
# Mechanical properties :
#
#
# Convention : Reuss Voigt Hill
#
# Bulk Modulus (GPa) = 22.83438 32.24796 27.54117
# Shear Modulus (GPa) = 18.73563 23.77391 21.25477
#
# Velocity S-wave (km/s) = 3.09432 3.48563 3.29579
# Velocity P-wave (km/s) = 4.94327 5.71663 5.34396
#
# Compressibility (1/GPa) = 0.04379361
#
# Stress axis : x y z
#
# Youngs Moduli (GPa) = 40.90633 41.99951 37.37576
#
# Poissons Ratio (x) = 0.43075 -0.22991
# Poissons Ratio (y) = 0.41954 0.42997
# Poissons Ratio (z) = -0.25163 0.48317
#
# Static dielectric constant tensor:
#      x y z
#    x 1.697510 0.000000 0.001220 
#    y 0.000000 1.652540 0.000000 
#    z 0.001220 0.000000 1.696320 
# 
# From -- ./inp_files/243879.got.cif
#   From: 2010.05.17/outbox.cif.g08.bks.cpg/sg12_122_cif.got.tgz:243879.got - 2010.06.03 13:09:07.
