data_PCOD9179018
_publ_section_title
;
Structure prediction by ZEFSAII (Michael W. Deem and Ramdas Pophale) SiO2 
 PCOD9179018
Probable space group: C 2/M
;
_chemical_formula_sum "Si O2"
_cell_formula_units_Z 56
_cell_length_a 13.674682
_cell_length_b 29.786078
_cell_length_c 7.971467
_cell_angle_alpha 90.000000
_cell_angle_beta 107.340114
_cell_angle_gamma 90.000000
_cell_volume 3099.335350
_symmetry_space_group_name_H-M "C 2/M"
_symmetry_group_IT_number 12
_symmetry_cell_setting 'monoclinic'
loop_
_space_group_symop_operation_xyz
x,y,z
-x,y,-z
-x,-y,-z
x,-y,z
1/2+x,1/2+y,z
1/2-x,1/2+y,-z
1/2-x,1/2-y,-z
1/2+x,1/2-y,z
loop_
_atom_site_type_symbol
_atom_site_label
_atom_site_fract_x
_atom_site_fract_y
_atom_site_fract_z
Si Si1 0.380537 0.596867 0.484382
Si Si2 0.587710 0.232399 0.149570
Si Si3 0.771292 0.810698 0.815573
Si Si4 0.780036 0.188071 0.412513
Si Si5 0.380272 0.500000 0.891565
Si Si6 0.927372 0.737559 0.324493
Si Si7 0.880217 0.000000 0.487471
Si Si8 0.380470 0.401102 0.889267
O O1 0.500000 0.601736 0.500000
O O2 0.316933 0.638581 0.384654
O O3 0.341089 0.548064 0.405314
O O4 0.376117 0.597830 0.684394
O O5 0.653037 0.270730 0.089656
O O6 0.670113 0.201377 0.282155
O O7 0.512376 0.257107 0.242923
O O8 0.500000 0.207409 0.000000
O O9 0.776487 0.809090 0.613385
O O10 0.655109 0.796712 0.795561
O O11 0.812364 0.858063 0.903129
O O12 0.860261 0.223709 0.377147
O O13 0.371023 0.500000 0.684666
O O14 0.343696 0.450584 0.931865
O O15 0.500000 0.500000 0.000000
O O16 0.000000 0.714204 0.500000
O O17 0.000000 0.000000 0.500000
O O18 0.500000 0.394963 0.000000
#
# Coordination Sequence:
#
# PCOD9179018 Si02
#       8
#     8   8   8   8   4   8   4   8
#     4   9  17  28  46  67  93 121 149 182 223 267
#     4  11  22  34  46  68  95 116 150 198 225 259
#     4  10  19  31  48  70  89 121 159 182 219 273
#     4  10  19  31  49  69  88 122 159 179 222 279
#     4   8  14  26  44  62  90 125 140 172 234 267
#     4  11  18  33  52  62  89 125 154 182 227 267
#     4   8  14  26  42  66  90 114 148 184 216 264
#     4   9  17  29  44  68  96 118 149 185 219 269
#
# _framework density 18.068390000000001
#
# number of rings (size 3 to 8) (size 9 to 14) (size 15 to 20)
#    0.000    2.286    2.857    1.714    2.000    2.286 
#    2.571    0.000    0.000    0.000    0.000    2.000 
#    0.000    0.000    0.000    0.000    0.000    0.000 
#
# Total GULP energy -155949.679081 kJ/mol
# GULP energy per Si atom -5569.631396 kJ/mol
# Density = 1.802727 g / cm^3
# Si number density = 18.068390 Si / 1000 Ang^3
#
#
#
# Elastic Constant Matrix: (Units=GPa)
#
#
# Indices 1 2 3 4 5 6 
#
# 1 77.5477 36.4537 18.9186 0.0000 21.9383 0.0000
# 2 36.4537 164.3440 36.7624 0.0000 31.8703 0.0000
# 3 18.9186 36.7624 61.6605 0.0000 31.5951 0.0000
# 4 0.0000 0.0000 0.0000 15.7870 0.0000 7.2941
# 5 21.9383 31.8703 31.5951 0.0000 29.0937 0.0000
# 6 0.0000 0.0000 0.0000 7.2941 0.0000 20.3026
#
#
#
# Elastic Compliance Matrix: (Units=1/GPa)
#
#
# Indices 1 2 3 4 5 6 
#
# 1 0.016991 -0.001683 0.003180 0.000000 -0.014422 0.000000
# 2 -0.001683 0.007903 -0.000924 0.000000 -0.006385 0.000000
# 3 0.003180 -0.000924 0.037208 0.000000 -0.041793 0.000000
# 4 0.000000 0.000000 0.000000 0.075951 0.000000 -0.027287
# 5 -0.014422 -0.006385 -0.041793 0.000000 0.097627 0.000000
# 6 0.000000 0.000000 0.000000 -0.027287 0.000000 0.059058
#
#
# Mechanical properties :
#
#
# Convention : Reuss Voigt Hill
#
# Bulk Modulus (GPa) = 15.81092 54.20242 35.00667
# Shear Modulus (GPa) = 15.88951 27.13115 21.51033
#
# Velocity S-wave (km/s) = 2.96870 3.87923 3.45410
# Velocity P-wave (km/s) = 4.52996 7.08012 5.94343
#
# Compressibility (1/GPa) = 0.06324741
#
# Stress axis : x y z
#
# Youngs Moduli (GPa) = 58.85589 126.53453 26.87610
#
# Poissons Ratio (x) = 0.21302 -0.08547
# Poissons Ratio (y) = 0.09908 0.02483
# Poissons Ratio (z) = -0.18718 0.11690
#
# Static dielectric constant tensor:
#      x y z
#    x 1.610770 0.000000 -0.069620 
#    y 0.000000 1.664950 0.000000 
#    z -0.069620 0.000000 1.711960 
# 
# From -- ./inp_files/67815.got.cif
#   From: 2010.05.17/outbox.cif.g08.bks.cpg/sg12_34_cif.got.tgz:67815.got - 2010.06.03 13:09:07.
