data_PCOD9179098
_publ_section_title
;
Structure prediction by ZEFSAII (Michael W. Deem and Ramdas Pophale) SiO2 
 PCOD9179098
Probable space group: C 2/M
;
_chemical_formula_sum "Si O2"
_cell_formula_units_Z 64
_cell_length_a 25.595759
_cell_length_b 8.791298
_cell_length_c 24.444855
_cell_angle_alpha 90.000000
_cell_angle_beta 46.430099
_cell_angle_gamma 90.000000
_cell_volume 3985.357379
_symmetry_space_group_name_H-M "C 2/M"
_symmetry_group_IT_number 12
_symmetry_cell_setting 'monoclinic'
loop_
_space_group_symop_operation_xyz
x,y,z
-x,y,-z
-x,-y,-z
x,-y,z
1/2+x,1/2+y,z
1/2-x,1/2+y,-z
1/2-x,1/2-y,-z
1/2+x,1/2-y,z
loop_
_atom_site_type_symbol
_atom_site_label
_atom_site_fract_x
_atom_site_fract_y
_atom_site_fract_z
Si Si1 0.194930 0.317311 0.494899
Si Si2 0.060257 0.817073 0.187282
Si Si3 0.972678 0.183181 0.914441
Si Si4 0.080508 0.317576 0.661321
Si Si5 0.296547 0.817646 0.338681
Si Si6 0.139864 0.182176 0.815884
Si Si7 0.723458 0.316397 0.076665
Si Si8 0.155886 0.317605 0.922674
O O1 0.200800 0.500000 0.489520
O O2 0.250000 0.250000 0.500000
O O3 0.117181 0.277000 0.576703
O O4 0.223421 0.248729 0.417802
O O5 0.046276 0.771651 0.134139
O O6 0.140710 0.768850 0.145795
O O7 0.996434 0.752791 0.270310
O O8 0.056864 0.000000 0.191419
O O9 0.055481 0.221828 0.867276
O O10 0.964698 0.000000 0.924725
O O11 0.917487 0.260939 0.995711
O O12 0.075218 0.500000 0.667347
O O13 0.137232 0.271834 0.668381
O O14 0.314704 0.753942 0.266182
O O15 0.293206 0.000000 0.340941
O O16 0.162440 0.244765 0.858400
O O17 0.145778 0.000000 0.809885
O O18 0.724582 0.500000 0.071889
O O19 0.778346 0.271673 0.084934
O O20 0.750000 0.250000 0.000000
O O21 0.155000 0.500000 0.918939
#
# Coordination Sequence:
#
# PCOD9179098 Si02
#       8
#     8   8   8   8   8   8   8   8
#     4   9  17  29  45  69 101 135 167 200 241 294
#     4  10  19  32  51  73  98 130 166 205 248 295
#     4  10  20  34  51  72  98 131 168 204 247 298
#     4   9  18  30  46  72 103 131 162 201 243 290
#     4  10  19  31  48  72 102 134 166 202 244 295
#     4  11  22  35  51  72 100 135 169 204 245 298
#     4  10  21  36  53  72  95 126 167 210 253 295
#     4  11  23  36  51  72  97 130 169 212 252 292
#
# _framework density 16.058785
#
# number of rings (size 3 to 8) (size 9 to 14) (size 15 to 20)
#    0.000    2.000    2.500    2.625    0.000    6.500 
#    0.000    0.000    0.000    0.000    0.000    0.875 
#    0.000    7.000    0.000    0.000    0.000    0.000 
#
# Total GULP energy -178525.639810 kJ/mol
# GULP energy per Si atom -5578.926244 kJ/mol
# Density = 1.602223 g / cm^3
# Si number density = 16.058785 Si / 1000 Ang^3
#
#
#
# Elastic Constant Matrix: (Units=GPa)
#
#
# Indices 1 2 3 4 5 6 
#
# 1 72.5910 28.6636 66.2073 0.0002 11.2635 -0.0001
# 2 28.6636 33.6747 49.7751 0.0012 3.2352 0.0025
# 3 66.2073 49.7751 182.1669 0.0000 -1.3519 -0.0003
# 4 0.0002 0.0012 0.0000 34.2411 -0.0002 -0.0574
# 5 11.2635 3.2352 -1.3519 -0.0002 17.8810 0.0004
# 6 -0.0001 0.0025 -0.0003 -0.0574 0.0004 17.9165
#
#
#
# Elastic Compliance Matrix: (Units=1/GPa)
#
#
# Indices 1 2 3 4 5 6 
#
# 1 0.026796 -0.011360 -0.006749 0.000000 -0.015334 0.000002
# 2 -0.011360 0.056503 -0.011339 -0.000002 -0.003925 -0.000008
# 3 -0.006749 -0.011339 0.011094 0.000000 0.007141 0.000002
# 4 0.000000 -0.000002 0.000000 0.029205 0.000001 0.000094
# 5 -0.015334 -0.003925 0.007141 0.000001 0.066834 -0.000001
# 6 0.000002 -0.000008 0.000002 0.000094 -0.000001 0.055815
#
#
# Mechanical properties :
#
#
# Convention : Reuss Voigt Hill
#
# Bulk Modulus (GPa) = 28.17150 64.19161 46.18155
# Shear Modulus (GPa) = 15.77413 23.59350 19.68382
#
# Velocity S-wave (km/s) = 3.13753 3.83717 3.50485
# Velocity P-wave (km/s) = 5.54132 7.72603 6.72301
#
# Compressibility (1/GPa) = 0.03549687
#
# Stress axis : x y z
#
# Youngs Moduli (GPa) = 37.31918 17.69810 90.14261
#
# Poissons Ratio (x) = 0.20105 0.60833
# Poissons Ratio (y) = 0.42395 1.02215
# Poissons Ratio (z) = 0.25185 0.20068
#
# Static dielectric constant tensor:
#      x y z
#    x 1.525340 0.000000 -0.002490 
#    y 0.000000 1.598720 0.000000 
#    z -0.002490 0.000000 1.543750 
# 
# From -- ./inp_files/324100.got.cif
#   From: 2010.05.17/outbox.cif.g08.bks.cpg/sg12_163_cif.got.tgz:324100.got - 2010.06.03 13:09:07.
