data_PCOD9179693
_publ_section_title
;
Structure prediction by ZEFSAII (Michael W. Deem and Ramdas Pophale) SiO2 
 PCOD9179693
Probable space group: C 2/M
;
_chemical_formula_sum "Si O2"
_cell_formula_units_Z 48
_cell_length_a 11.775304
_cell_length_b 13.946417
_cell_length_c 18.525469
_cell_angle_alpha 90.000000
_cell_angle_beta 136.833471
_cell_angle_gamma 90.000000
_cell_volume 2081.311086
_symmetry_space_group_name_H-M "C 2/M"
_symmetry_group_IT_number 12
_symmetry_cell_setting 'monoclinic'
loop_
_space_group_symop_operation_xyz
x,y,z
-x,y,-z
-x,-y,-z
x,-y,z
1/2+x,1/2+y,z
1/2-x,1/2+y,-z
1/2-x,1/2-y,-z
1/2+x,1/2-y,z
loop_
_atom_site_type_symbol
_atom_site_label
_atom_site_fract_x
_atom_site_fract_y
_atom_site_fract_z
Si Si1 0.309723 0.145700 0.004871
Si Si2 0.024534 0.237698 0.618424
Si Si3 0.735913 0.104072 0.640226
Si Si4 0.835548 0.685558 0.850581
Si Si5 0.543275 0.397663 0.123518
Si Si6 0.232662 0.609739 0.466082
O O1 0.311565 0.141647 0.918669
O O2 0.154657 0.093258 0.968215
O O3 0.250000 0.250000 0.000000
O O4 0.504824 0.136091 0.113858
O O5 0.124014 0.309228 0.613335
O O6 0.164060 0.182722 0.728559
O O7 0.915200 0.313813 0.615441
O O8 0.900750 0.163874 0.522997
O O9 0.755237 0.106134 0.563910
O O10 0.899148 0.110663 0.765663
O O11 0.658377 0.000000 0.623127
O O12 0.886935 0.799747 0.879506
O O13 0.613388 0.500000 0.128644
O O14 0.210262 0.500000 0.430401
#
# Coordination Sequence:
#
# PCOD9179693 Si02
#       6
#     8   8   8   8   8   8
#     4   9  17  32  50  69  97 130 161 196 243 298
#     4  10  19  31  51  75 101 133 167 207 255 296
#     4   9  17  31  53  79 103 130 169 210 244 290
#     4   9  18  32  49  72  99 130 164 201 247 298
#     4   9  17  30  51  78 103 127 162 205 244 286
#     4  10  20  33  51  76 103 132 170 212 249 293
#
# _framework density 23.062387000000001
#
# number of rings (size 3 to 8) (size 9 to 14) (size 15 to 20)
#    0.000    2.667    0.000    2.000    0.000    2.000 
#    0.000    9.167    0.000    9.000    0.000    5.833 
#    0.000    0.000    0.000    0.000    0.000    0.000 
#
# Total GULP energy -133764.391779 kJ/mol
# GULP energy per Si atom -5573.516324 kJ/mol
# Density = 2.300990 g / cm^3
# Si number density = 23.062387 Si / 1000 Ang^3
#
#
#
# Elastic Constant Matrix: (Units=GPa)
#
#
# Indices 1 2 3 4 5 6 
#
# 1 60.4192 -4.6425 14.8151 0.0000 20.0655 0.0000
# 2 -4.6425 68.5506 -8.9653 0.0000 13.5172 0.0000
# 3 14.8151 -8.9653 94.8942 0.0000 29.6601 0.0000
# 4 0.0000 0.0000 0.0000 3.7765 0.0000 3.0520
# 5 20.0655 13.5172 29.6601 0.0000 35.2223 0.0000
# 6 0.0000 0.0000 0.0000 3.0520 0.0000 12.0881
#
#
#
# Elastic Compliance Matrix: (Units=1/GPa)
#
#
# Indices 1 2 3 4 5 6 
#
# 1 0.021736 0.004900 0.002073 0.000000 -0.016009 0.000000
# 2 0.004900 0.018514 0.005534 0.000000 -0.014556 0.000000
# 3 0.002073 0.005534 0.015975 0.000000 -0.016757 0.000000
# 4 0.000000 0.000000 0.000000 0.332678 0.000000 -0.083996
# 5 -0.016009 -0.014556 -0.016757 0.000000 0.057208 0.000000
# 6 0.000000 0.000000 0.000000 -0.083996 0.000000 0.103933
#
#
# Mechanical properties :
#
#
# Convention : Reuss Voigt Hill
#
# Bulk Modulus (GPa) = 12.30959 25.14207 18.72583
# Shear Modulus (GPa) = 9.05619 25.06117 17.05868
#
# Velocity S-wave (km/s) = 1.98377 3.30004 2.72265
# Velocity P-wave (km/s) = 3.25519 5.04438 4.24512
#
# Compressibility (1/GPa) = 0.08123745
#
# Stress axis : x y z
#
# Youngs Moduli (GPa) = 46.00721 54.01439 62.59907
#
# Poissons Ratio (x) = -0.26466 -0.12978
# Poissons Ratio (y) = -0.22543 -0.34641
# Poissons Ratio (z) = -0.09538 -0.29890
#
# Static dielectric constant tensor:
#      x y z
#    x 1.792690 0.000000 0.112450 
#    y 0.000000 1.993270 0.000000 
#    z 0.112450 0.000000 1.825690 
# 
# From -- ./inp_files/305188.got.cif
#   From: 2010.05.17/outbox.cif.g08.bks.cpg/sg12_153_cif.got.tgz:305188.got - 2010.06.03 13:09:07.
