data_PCOD9179600
_publ_section_title
;
Structure prediction by ZEFSAII (Michael W. Deem and Ramdas Pophale) SiO2 
 PCOD9179600
Probable space group: C 2/M
;
_chemical_formula_sum "Si O2"
_cell_formula_units_Z 56
_cell_length_a 32.514906
_cell_length_b 12.871353
_cell_length_c 8.733259
_cell_angle_alpha 90.000000
_cell_angle_beta 117.026052
_cell_angle_gamma 90.000000
_cell_volume 3255.841505
_symmetry_space_group_name_H-M "C 2/M"
_symmetry_group_IT_number 12
_symmetry_cell_setting 'monoclinic'
loop_
_space_group_symop_operation_xyz
x,y,z
-x,y,-z
-x,-y,-z
x,-y,z
1/2+x,1/2+y,z
1/2-x,1/2+y,-z
1/2-x,1/2-y,-z
1/2+x,1/2-y,z
loop_
_atom_site_type_symbol
_atom_site_label
_atom_site_fract_x
_atom_site_fract_y
_atom_site_fract_z
Si Si1 0.223940 0.617755 0.073187
Si Si2 0.387561 0.770591 0.574206
Si Si3 0.554190 0.622412 0.102131
Si Si4 0.842369 0.622916 0.779317
Si Si5 0.823296 0.199585 0.192444
Si Si6 0.555436 0.880694 0.585584
Si Si7 0.101574 0.227791 0.905758
O O1 0.210030 0.500000 0.017789
O O2 0.206454 0.642207 0.216609
O O3 0.278619 0.630942 0.149274
O O4 0.198317 0.692519 0.909480
O O5 0.418421 0.690477 0.725572
O O6 0.353447 0.830955 0.632280
O O7 0.354786 0.715836 0.394033
O O8 0.421955 0.846685 0.538207
O O9 0.559280 0.500000 0.143205
O O10 0.500000 0.648145 0.000000
O O11 0.574306 0.651527 0.970013
O O12 0.850135 0.500000 0.789348
O O13 0.877102 0.683182 0.949894
O O14 0.857775 0.167532 0.114647
O O15 0.500000 0.878960 0.500000
O O16 0.572965 0.793308 0.733357
O O17 0.570061 0.000000 0.646057
#
# Coordination Sequence:
#
# PCOD9179600 Si02
#       7
#     8   8   8   8   8   8   8
#     4   9  18  33  51  71  99 132 164 201 247 301
#     4  10  20  33  52  76 104 132 167 213 254 297
#     4  10  21  37  54  72  99 138 179 214 250 291
#     4   9  17  30  49  72  98 130 163 198 250 310
#     4   9  19  33  51  75  99 127 164 206 251 299
#     4  10  19  31  50  77 105 131 162 205 259 313
#     4   9  18  33  51  71  99 132 168 209 251 299
#
# _framework density 17.199854999999999
#
# number of rings (size 3 to 8) (size 9 to 14) (size 15 to 20)
#    0.000    2.571    0.000    1.714    0.000    5.714 
#    0.000    2.143    0.000   14.571    0.000    0.000 
#    0.000    0.000    0.000    0.000    0.000    0.000 
#
# Total GULP energy -155899.133813 kJ/mol
# GULP energy per Si atom -5567.826208 kJ/mol
# Density = 1.716071 g / cm^3
# Si number density = 17.199855 Si / 1000 Ang^3
#
#
#
# Elastic Constant Matrix: (Units=GPa)
#
#
# Indices 1 2 3 4 5 6 
#
# 1 115.9901 21.1400 41.1588 0.0000 -7.4314 0.0000
# 2 21.1400 32.5108 9.2284 0.0000 -1.1847 0.0000
# 3 41.1588 9.2284 68.8420 0.0000 -12.9771 0.0000
# 4 0.0000 0.0000 0.0000 10.8327 0.0000 -7.1080
# 5 -7.4314 -1.1847 -12.9771 0.0000 24.5603 0.0000
# 6 0.0000 0.0000 0.0000 -7.1080 0.0000 19.8133
#
#
#
# Elastic Compliance Matrix: (Units=1/GPa)
#
#
# Indices 1 2 3 4 5 6 
#
# 1 0.011965 -0.005976 -0.006357 0.000000 -0.000027 0.000000
# 2 -0.005976 0.034975 -0.001264 0.000000 -0.000789 0.000000
# 3 -0.006357 -0.001264 0.020127 0.000000 0.008650 0.000000
# 4 0.000000 0.000000 0.000000 0.120733 0.000000 0.043313
# 5 -0.000027 -0.000789 0.008650 0.000000 0.045240 0.000000
# 6 0.000000 0.000000 0.000000 0.043313 0.000000 0.066009
#
#
# Mechanical properties :
#
#
# Convention : Reuss Voigt Hill
#
# Bulk Modulus (GPa) = 25.08082 40.04412 32.56247
# Shear Modulus (GPa) = 14.72599 20.76233 17.74416
#
# Velocity S-wave (km/s) = 2.92921 3.47814 3.21541
# Velocity P-wave (km/s) = 5.10431 6.28189 5.72347
#
# Compressibility (1/GPa) = 0.03987111
#
# Stress axis : x y z
#
# Youngs Moduli (GPa) = 83.57812 28.59167 49.68459
#
# Poissons Ratio (x) = 0.17088 0.31587
# Poissons Ratio (y) = 0.49950 0.06281
# Poissons Ratio (z) = 0.53134 0.03614
#
# Static dielectric constant tensor:
#      x y z
#    x 1.610390 0.000000 -0.017240 
#    y 0.000000 1.563490 0.000000 
#    z -0.017240 0.000000 1.563800 
# 
# From -- ./inp_files/110099.got.cif
#   From: 2010.05.17/outbox.cif.g08.bks.cpg/sg12_56_cif.got.tgz:110099.got - 2010.06.03 13:09:07.
