data_PCOD9179752
_publ_section_title
;
Structure prediction by ZEFSAII (Michael W. Deem and Ramdas Pophale) SiO2 
 PCOD9179752
Probable space group: C 2/M
;
_chemical_formula_sum "Si O2"
_cell_formula_units_Z 56
_cell_length_a 18.758179
_cell_length_b 15.075560
_cell_length_c 23.371365
_cell_angle_alpha 90.000000
_cell_angle_beta 21.489000
_cell_angle_gamma 90.000000
_cell_volume 2421.095450
_symmetry_space_group_name_H-M "C 2/M"
_symmetry_group_IT_number 12
_symmetry_cell_setting 'monoclinic'
loop_
_space_group_symop_operation_xyz
x,y,z
-x,y,-z
-x,-y,-z
x,-y,z
1/2+x,1/2+y,z
1/2-x,1/2+y,-z
1/2-x,1/2-y,-z
1/2+x,1/2-y,z
loop_
_atom_site_type_symbol
_atom_site_label
_atom_site_fract_x
_atom_site_fract_y
_atom_site_fract_z
Si Si1 0.846062 0.096195 0.562615
Si Si2 0.719716 0.101022 0.095364
Si Si3 0.261876 0.716498 0.374342
Si Si4 0.304335 0.596798 0.782518
Si Si5 0.351850 0.207478 0.744297
Si Si6 0.681257 0.599377 0.774830
Si Si7 0.879343 0.101092 0.858877
O O1 0.709123 0.180211 0.661148
O O2 0.000000 0.108115 0.500000
O O3 0.978514 0.093583 0.406575
O O4 0.751348 0.000000 0.641162
O O5 0.949437 0.100708 0.939572
O O6 0.725377 0.122069 0.023654
O O7 0.643809 0.000000 0.161207
O O8 0.632383 0.175106 0.202103
O O9 0.232557 0.665627 0.336479
O O10 0.440845 0.667520 0.270381
O O11 0.067511 0.711098 0.557013
O O12 0.219177 0.500000 0.827240
O O13 0.245694 0.697838 0.811327
O O14 0.300918 0.599208 0.853474
O O15 0.237320 0.132696 0.795279
O O16 0.752570 0.500000 0.712176
O O17 0.948521 0.000000 0.820066
#
# Coordination Sequence:
#
# PCOD9179752 Si02
#       7
#     8   8   8   8   8   8   8
#     4   9  17  30  48  72 101 130 163 205 249 292
#     4   9  19  34  51  72 101 135 165 197 247 309
#     4  10  19  31  51  78 102 130 170 210 248 293
#     4   9  19  35  53  71  97 136 174 205 247 305
#     4  11  20  29  51  79 100 128 169 212 246 283
#     4  10  20  34  50  73 109 141 159 191 255 319
#     4   9  19  36  53  70 100 140 170 198 252 313
#
# _framework density 23.130026000000001
#
# number of rings (size 3 to 8) (size 9 to 14) (size 15 to 20)
#    0.000    2.429    0.000    4.286    0.000    6.857 
#    0.000    0.000    0.000    6.857    0.000    0.000 
#    0.000    0.000    0.000    0.000    0.000    0.000 
#
# Total GULP energy -156344.336620 kJ/mol
# GULP energy per Si atom -5583.726308 kJ/mol
# Density = 2.307738 g / cm^3
# Si number density = 23.130026 Si / 1000 Ang^3
#
#
#
# Elastic Constant Matrix: (Units=GPa)
#
#
# Indices 1 2 3 4 5 6 
#
# 1 38.4450 8.6722 32.9366 0.0245 21.7657 -0.0087
# 2 8.6722 153.2042 57.7711 0.0207 6.4572 0.0002
# 3 32.9366 57.7711 75.0873 -0.0278 16.2793 -0.0009
# 4 0.0245 0.0207 -0.0278 20.3364 0.0119 5.3398
# 5 21.7657 6.4572 16.2793 0.0119 37.5476 0.0027
# 6 -0.0087 0.0002 -0.0009 5.3398 0.0027 28.2497
#
#
#
# Elastic Compliance Matrix: (Units=1/GPa)
#
#
# Indices 1 2 3 4 5 6 
#
# 1 0.062996 0.008226 -0.028408 -0.000119 -0.025615 0.000043
# 2 0.008226 0.010362 -0.011214 -0.000037 -0.001688 0.000009
# 3 -0.028408 -0.011214 0.033575 0.000096 0.003839 -0.000026
# 4 -0.000119 -0.000037 0.000096 0.051741 0.000018 -0.009780
# 5 -0.025615 -0.001688 0.003839 0.000018 0.040107 -0.000015
# 6 0.000043 0.000009 -0.000026 -0.009780 -0.000015 0.037247
#
#
# Mechanical properties :
#
#
# Convention : Reuss Voigt Hill
#
# Bulk Modulus (GPa) = 22.65575 51.72183 37.18879
# Shear Modulus (GPa) = 15.94727 28.38384 22.16555
#
# Velocity S-wave (km/s) = 2.62861 3.50686 3.09900
# Velocity P-wave (km/s) = 4.36222 6.22955 5.37756
#
# Compressibility (1/GPa) = 0.04413890
#
# Stress axis : x y z
#
# Youngs Moduli (GPa) = 15.87414 96.51103 29.78438
#
# Poissons Ratio (x) = -0.79390 0.84612
# Poissons Ratio (y) = -0.13058 0.33401
# Poissons Ratio (z) = 0.45095 1.08230
#
# Static dielectric constant tensor:
#      x y z
#    x 1.885420 -0.000020 0.006320 
#    y -0.000020 1.906840 0.000040 
#    z 0.006320 0.000040 1.840910 
# 
# From -- ./inp_files/368062.got.cif
#   From: 2010.05.17/outbox.cif.g08.bks.cpg/sg12_185_cif.got.tgz:368062.got - 2010.06.03 13:09:07.
