data_PCOD9179672
_publ_section_title
;
Structure prediction by ZEFSAII (Michael W. Deem and Ramdas Pophale) SiO2 
 PCOD9179672
Probable space group: C 2/M
;
_chemical_formula_sum "Si O2"
_cell_formula_units_Z 64
_cell_length_a 19.073693
_cell_length_b 20.136566
_cell_length_c 9.922699
_cell_angle_alpha 90.000000
_cell_angle_beta 59.713216
_cell_angle_gamma 90.000000
_cell_volume 3290.927722
_symmetry_space_group_name_H-M "C 2/M"
_symmetry_group_IT_number 12
_symmetry_cell_setting 'monoclinic'
loop_
_space_group_symop_operation_xyz
x,y,z
-x,y,-z
-x,-y,-z
x,-y,z
1/2+x,1/2+y,z
1/2-x,1/2+y,-z
1/2-x,1/2-y,-z
1/2+x,1/2-y,z
loop_
_atom_site_type_symbol
_atom_site_label
_atom_site_fract_x
_atom_site_fract_y
_atom_site_fract_z
Si Si1 0.481754 0.920819 0.672700
Si Si2 0.181017 0.368844 0.227954
Si Si3 0.758966 0.927646 0.400503
Si Si4 0.906212 0.711370 0.115917
Si Si5 0.822665 0.799316 0.968756
Si Si6 0.668095 0.706221 0.585946
Si Si7 0.378236 0.075643 0.246585
Si Si8 0.596121 0.270356 0.379022
O O1 0.500000 0.898749 0.500000
O O2 0.392804 0.893151 0.792908
O O3 0.549775 0.904530 0.717598
O O4 0.478676 0.000000 0.672239
O O5 0.196635 0.417776 0.337275
O O6 0.268807 0.360702 0.073118
O O7 0.146022 0.299239 0.320578
O O8 0.814687 0.862735 0.354807
O O9 0.703696 0.926407 0.587239
O O10 0.798812 0.000000 0.350752
O O11 0.868061 0.760910 0.043990
O O12 0.891839 0.746754 0.272962
O O13 0.870622 0.636854 0.152042
O O14 0.000000 0.704279 0.000000
O O15 0.750000 0.750000 0.000000
O O16 0.881852 0.806314 0.783406
O O17 0.750000 0.750000 0.500000
O O18 0.634543 0.693146 0.470053
O O19 0.394394 0.000000 0.180705
O O20 0.500000 0.261419 0.500000
#
# Coordination Sequence:
#
# PCOD9179672 Si02
#       8
#     8   8   8   8   8   8   8   8
#     4  10  19  31  50  83 125 165 197 232 283 360
#     4  11  19  33  57  85 125 159 196 244 301 354
#     4  11  21  36  62  91 122 162 206 251 302 360
#     4  12  24  38  62  89 123 162 202 256 303 354
#     4  10  23  38  54  87 122 158 197 253 307 348
#     4  12  21  40  64  92 118 157 206 257 295 356
#     4  10  22  36  55  88 129 171 206 237 292 371
#     4  11  23  37  61  90 120 158 200 251 307 366
#
# _framework density 19.447403999999999
#
# number of rings (size 3 to 8) (size 9 to 14) (size 15 to 20)
#    0.000    1.125    5.000    2.250    5.250    0.250 
#    0.000    0.000    0.000    2.250    0.000    0.000 
#    0.000    0.000    0.000    0.000    0.000    0.000 
#
# Total GULP energy -178587.874281 kJ/mol
# GULP energy per Si atom -5580.871071 kJ/mol
# Density = 1.940314 g / cm^3
# Si number density = 19.447404 Si / 1000 Ang^3
#
#
#
# Elastic Constant Matrix: (Units=GPa)
#
#
# Indices 1 2 3 4 5 6 
#
# 1 27.2315 11.5144 16.2378 0.0000 1.2439 0.0000
# 2 11.5144 87.7727 21.8159 0.0000 -9.1091 0.0000
# 3 16.2378 21.8159 100.3060 0.0000 -16.0527 0.0000
# 4 0.0000 0.0000 0.0000 5.7766 0.0000 -2.1049
# 5 1.2439 -9.1091 -16.0527 0.0000 30.3657 0.0000
# 6 0.0000 0.0000 0.0000 -2.1049 0.0000 25.3514
#
#
#
# Elastic Compliance Matrix: (Units=1/GPa)
#
#
# Indices 1 2 3 4 5 6 
#
# 1 0.043225 -0.004623 -0.007098 0.000000 -0.006910 0.000000
# 2 -0.004623 0.012706 -0.001502 0.000000 0.003207 0.000000
# 3 -0.007098 -0.001502 0.012475 0.000000 0.006435 0.000000
# 4 0.000000 0.000000 0.000000 0.178514 0.000000 0.014822
# 5 -0.006910 0.003207 0.006435 0.000000 0.037579 0.000000
# 6 0.000000 0.000000 0.000000 0.014822 0.000000 0.040676
#
#
# Mechanical properties :
#
#
# Convention : Reuss Voigt Hill
#
# Bulk Modulus (GPa) = 23.83221 34.93849 29.38535
# Shear Modulus (GPa) = 13.67591 23.34823 18.51207
#
# Velocity S-wave (km/s) = 2.65472 3.46870 3.08864
# Velocity P-wave (km/s) = 4.65596 5.83499 5.27850
#
# Compressibility (1/GPa) = 0.04196002
#
# Stress axis : x y z
#
# Youngs Moduli (GPa) = 23.13482 78.70515 80.16070
#
# Poissons Ratio (x) = 0.36389 0.56895
# Poissons Ratio (y) = 0.10696 0.12038
# Poissons Ratio (z) = 0.16420 0.11819
#
# Static dielectric constant tensor:
#      x y z
#    x 1.697160 0.000000 -0.002060 
#    y 0.000000 1.621440 0.000000 
#    z -0.002060 0.000000 1.799050 
# 
# From -- ./inp_files/89563.got.cif
#   From: 2010.05.17/outbox.cif.g08.bks.cpg/sg12_45_cif.got.tgz:89563.got - 2010.06.03 13:09:07.
