data_PCOD9179379
_publ_section_title
;
Structure prediction by ZEFSAII (Michael W. Deem and Ramdas Pophale) SiO2 
 PCOD9179379
Probable space group: C 2/M
;
_chemical_formula_sum "Si O2"
_cell_formula_units_Z 56
_cell_length_a 31.152823
_cell_length_b 17.982393
_cell_length_c 5.338582
_cell_angle_alpha 90.000000
_cell_angle_beta 63.613347
_cell_angle_gamma 90.000000
_cell_volume 2679.102270
_symmetry_space_group_name_H-M "C 2/M"
_symmetry_group_IT_number 12
_symmetry_cell_setting 'monoclinic'
loop_
_space_group_symop_operation_xyz
x,y,z
-x,y,-z
-x,-y,-z
x,-y,z
1/2+x,1/2+y,z
1/2-x,1/2+y,-z
1/2-x,1/2-y,-z
1/2+x,1/2-y,z
loop_
_atom_site_type_symbol
_atom_site_label
_atom_site_fract_x
_atom_site_fract_y
_atom_site_fract_z
Si Si1 0.194137 0.792890 0.908175
Si Si2 0.109269 0.590477 0.696348
Si Si3 0.052037 0.918827 0.625371
Si Si4 0.803897 0.696145 0.604186
Si Si5 0.601753 0.372294 0.996876
Si Si6 0.483452 0.727867 0.797220
Si Si7 0.442982 0.087401 0.663245
O O1 0.194695 0.739193 0.664490
O O2 0.248246 0.822535 0.802239
O O3 0.155891 0.855098 0.928880
O O4 0.180718 0.748876 0.199899
O O5 0.111401 0.500000 0.694039
O O6 0.161257 0.626614 0.524204
O O7 0.079671 0.617666 0.531880
O O8 0.081926 0.616680 0.019349
O O9 0.088347 0.908419 0.765055
O O10 0.014704 0.850120 0.723324
O O11 0.028842 0.000000 0.702257
O O12 0.078977 0.914148 0.291888
O O13 0.571669 0.294838 0.063671
O O14 0.500000 0.764219 0.500000
O O15 0.500000 0.769413 0.000000
O O16 0.500000 0.088120 0.500000
O O17 0.430010 0.000000 0.698424
#
# Coordination Sequence:
#
# PCOD9179379 Si02
#       7
#     8   8   8   8   8   8   8
#     4  10  21  38  59  78 102 141 193 232 262 317
#     4  10  19  33  56  85 115 143 174 220 278 330
#     4  10  19  31  49  75 107 143 182 218 264 324
#     4  10  21  38  60  81 102 140 185 226 270 323
#     4  10  19  32  51  73  99 133 179 231 268 299
#     4   8  16  27  44  68  96 132 171 210 259 305
#     4   9  17  30  52  81 113 146 173 202 255 334
#
# _framework density 20.902526000000002
#
# number of rings (size 3 to 8) (size 9 to 14) (size 15 to 20)
#    0.000    2.429    0.000    2.571    0.000    6.857 
#    0.000    1.429    0.000   27.429    0.000    0.000 
#    0.000    0.000    0.000    0.000    0.000    0.000 
#
# Total GULP energy -156285.411956 kJ/mol
# GULP energy per Si atom -5581.621856 kJ/mol
# Density = 2.085495 g / cm^3
# Si number density = 20.902526 Si / 1000 Ang^3
#
#
#
# Elastic Constant Matrix: (Units=GPa)
#
#
# Indices 1 2 3 4 5 6 
#
# 1 122.2385 21.4391 61.9903 0.0000 18.4778 0.0000
# 2 21.4391 49.7202 20.9846 0.0000 4.4326 0.0000
# 3 61.9903 20.9846 121.4785 0.0000 27.5502 0.0000
# 4 0.0000 0.0000 0.0000 142.7322 0.0000 57.0623
# 5 18.4778 4.4326 27.5502 0.0000 49.6278 0.0000
# 6 0.0000 0.0000 0.0000 57.0623 0.0000 68.8901
#
#
#
# Elastic Compliance Matrix: (Units=1/GPa)
#
#
# Indices 1 2 3 4 5 6 
#
# 1 0.011410 -0.002665 -0.005094 0.000000 -0.001182 0.000000
# 2 -0.002665 0.022318 -0.002595 0.000000 0.000439 0.000000
# 3 -0.005094 -0.002595 0.012352 0.000000 -0.004729 0.000000
# 4 0.000000 0.000000 0.000000 0.010475 0.000000 -0.008676
# 5 -0.001182 0.000439 -0.004729 0.000000 0.023176 0.000000
# 6 0.000000 0.000000 0.000000 -0.008676 0.000000 0.021703
#
#
# Mechanical properties :
#
#
# Convention : Reuss Voigt Hill
#
# Bulk Modulus (GPa) = 39.41325 55.80724 47.61024
# Shear Modulus (GPa) = 38.28527 64.85156 51.56841
#
# Velocity S-wave (km/s) = 4.28437 5.57612 4.97237
# Velocity P-wave (km/s) = 6.58568 8.25919 7.46945
#
# Compressibility (1/GPa) = 0.02537218
#
# Stress axis : x y z
#
# Youngs Moduli (GPa) = 87.64107 44.80769 80.95751
#
# Poissons Ratio (x) = 0.11939 0.41241
# Poissons Ratio (y) = 0.23353 0.21010
# Poissons Ratio (z) = 0.44646 0.11628
#
# Static dielectric constant tensor:
#      x y z
#    x 1.783620 0.000000 0.039780 
#    y 0.000000 1.777160 0.000000 
#    z 0.039780 0.000000 1.780860 
# 
# From -- ./inp_files/29586.got.cif
#   From: 2010.05.17/outbox.cif.g08.bks.cpg/sg12_15_cif.got.tgz:29586.got - 2010.06.03 13:09:07.
