data_PCOD9179778
_publ_section_title
;
Structure prediction by ZEFSAII (Michael W. Deem and Ramdas Pophale) SiO2 
 PCOD9179778
Probable space group: C 2/M
;
_chemical_formula_sum "Si O2"
_cell_formula_units_Z 56
_cell_length_a 19.509112
_cell_length_b 8.925440
_cell_length_c 32.042909
_cell_angle_alpha 90.000000
_cell_angle_beta 145.807161
_cell_angle_gamma 90.000000
_cell_volume 3135.594797
_symmetry_space_group_name_H-M "C 2/M"
_symmetry_group_IT_number 12
_symmetry_cell_setting 'monoclinic'
loop_
_space_group_symop_operation_xyz
x,y,z
-x,y,-z
-x,-y,-z
x,-y,z
1/2+x,1/2+y,z
1/2-x,1/2+y,-z
1/2-x,1/2-y,-z
1/2+x,1/2-y,z
loop_
_atom_site_type_symbol
_atom_site_label
_atom_site_fract_x
_atom_site_fract_y
_atom_site_fract_z
Si Si1 0.667558 0.821391 0.318178
Si Si2 0.056204 0.175663 0.396900
Si Si3 0.682012 0.821611 0.762619
Si Si4 0.402610 0.322814 0.197598
Si Si5 0.874880 0.321163 0.798581
Si Si6 0.206615 0.324083 0.543412
Si Si7 0.361335 0.677473 0.080729
O O1 0.535878 0.753249 0.263986
O O2 0.681695 0.791268 0.275993
O O3 0.766506 0.746535 0.398084
O O4 0.665838 0.000000 0.323776
O O5 0.105202 0.238441 0.465431
O O6 0.168080 0.191083 0.420458
O O7 0.941559 0.266934 0.322369
O O8 0.025362 0.000000 0.384396
O O9 0.675557 0.752195 0.805548
O O10 0.793921 0.756482 0.792770
O O11 0.686036 0.000000 0.766444
O O12 0.417506 0.500000 0.213345
O O13 0.347559 0.303183 0.123760
O O14 0.877987 0.500000 0.805884
O O15 0.011283 0.255896 0.866847
O O16 0.178672 0.500000 0.532313
O O17 0.368990 0.500000 0.076271
O O18 0.250000 0.750000 0.000000
#
# Coordination Sequence:
#
# PCOD9179778 Si02
#       7
#     8   8   8   8   8   8   8
#     4  10  19  33  55  81 108 144 189 235 278 330
#     4  10  20  33  51  76 110 148 186 234 285 331
#     4  12  23  36  56  83 115 149 188 233 280 332
#     4  10  20  35  57  84 113 148 186 226 271 327
#     4  10  22  39  59  83 115 151 186 227 279 333
#     4  10  19  31  51  78 109 145 187 237 284 328
#     4  10  21  39  64  91 118 147 183 224 271 326
#
# _framework density 17.859449000000001
#
# number of rings (size 3 to 8) (size 9 to 14) (size 15 to 20)
#    0.000    1.714    1.429    3.857    0.000    4.571 
#    0.000    1.429    0.000    8.571    0.000    0.000 
#    0.000    0.000    0.000    0.000    0.000    0.000 
#
# Total GULP energy -156443.476785 kJ/mol
# GULP energy per Si atom -5587.267028 kJ/mol
# Density = 1.781880 g / cm^3
# Si number density = 17.859449 Si / 1000 Ang^3
#
#
#
# Elastic Constant Matrix: (Units=GPa)
#
#
# Indices 1 2 3 4 5 6 
#
# 1 106.6709 64.5799 25.7295 0.0000 -10.5058 0.0000
# 2 64.5799 112.1725 39.8445 0.0000 -11.6723 0.0000
# 3 25.7295 39.8445 73.6909 0.0000 -9.9516 0.0000
# 4 0.0000 0.0000 0.0000 34.2863 0.0000 0.1315
# 5 -10.5058 -11.6723 -9.9516 0.0000 13.0632 0.0000
# 6 0.0000 0.0000 0.0000 0.1315 0.0000 27.7295
#
#
#
# Elastic Compliance Matrix: (Units=1/GPa)
#
#
# Indices 1 2 3 4 5 6 
#
# 1 0.014649 -0.007873 -0.000242 0.000000 0.004562 0.000000
# 2 -0.007873 0.015692 -0.005236 0.000000 0.003701 0.000000
# 3 -0.000242 -0.005236 0.017643 0.000000 0.008567 0.000000
# 4 0.000000 0.000000 0.000000 0.029167 0.000000 -0.000138
# 5 0.004562 0.003701 0.008567 0.000000 0.090054 0.000000
# 6 0.000000 0.000000 0.000000 -0.000138 0.000000 0.036063
#
#
# Mechanical properties :
#
#
# Convention : Reuss Voigt Hill
#
# Bulk Modulus (GPa) = 46.98758 61.42692 54.20725
# Shear Modulus (GPa) = 21.09142 25.84115 23.46629
#
# Velocity S-wave (km/s) = 3.44025 3.80796 3.62877
# Velocity P-wave (km/s) = 6.49209 7.33508 6.92642
#
# Compressibility (1/GPa) = 0.02128222
#
# Stress axis : x y z
#
# Youngs Moduli (GPa) = 68.26596 63.72478 56.68050
#
# Poissons Ratio (x) = 0.50170 0.01370
# Poissons Ratio (y) = 0.53745 0.29679
# Poissons Ratio (z) = 0.01650 0.33368
#
# Static dielectric constant tensor:
#      x y z
#    x 1.600610 0.000000 -0.019160 
#    y 0.000000 1.589580 0.000000 
#    z -0.019160 0.000000 1.590270 
# 
# From -- ./inp_files/363114.got.cif
#   From: 2010.05.17/outbox.cif.g08.bks.cpg/sg12_182_cif.got.tgz:363114.got - 2010.06.03 13:09:07.
