data_PCOD9179853
_publ_section_title
;
Structure prediction by ZEFSAII (Michael W. Deem and Ramdas Pophale) SiO2 
 PCOD9179853
Probable space group: C 2/M
;
_chemical_formula_sum "Si O2"
_cell_formula_units_Z 56
_cell_length_a 19.322875
_cell_length_b 12.597655
_cell_length_c 10.860016
_cell_angle_alpha 90.000000
_cell_angle_beta 102.144323
_cell_angle_gamma 90.000000
_cell_volume 2584.415562
_symmetry_space_group_name_H-M "C 2/M"
_symmetry_group_IT_number 12
_symmetry_cell_setting 'monoclinic'
loop_
_space_group_symop_operation_xyz
x,y,z
-x,y,-z
-x,-y,-z
x,-y,z
1/2+x,1/2+y,z
1/2-x,1/2+y,-z
1/2-x,1/2-y,-z
1/2+x,1/2-y,z
loop_
_atom_site_type_symbol
_atom_site_label
_atom_site_fract_x
_atom_site_fract_y
_atom_site_fract_z
Si Si1 0.931794 0.116976 0.730635
Si Si2 0.315130 0.118646 0.619715
Si Si3 0.221022 0.622005 0.131096
Si Si4 0.457361 0.764622 0.361828
Si Si5 0.915917 0.881131 0.989305
Si Si6 0.154708 0.826610 0.521393
Si Si7 0.844191 0.288324 0.134572
O O1 0.890680 0.139179 0.841326
O O2 0.874303 0.110085 0.603843
O O3 0.985673 0.207835 0.705706
O O4 0.966692 0.000000 0.757035
O O5 0.331865 0.133970 0.771249
O O6 0.230083 0.130729 0.588270
O O7 0.339707 0.206626 0.531762
O O8 0.336675 0.000000 0.591543
O O9 0.248634 0.500000 0.150990
O O10 0.278338 0.717976 0.160852
O O11 0.185718 0.634305 0.982566
O O12 0.500000 0.807041 0.500000
O O13 0.405571 0.674265 0.398276
O O14 0.399541 0.830233 0.259064
O O15 0.895704 0.000000 0.017947
O O16 0.888636 0.797530 0.074132
O O17 0.000000 0.874435 0.000000
#
# Coordination Sequence:
#
# PCOD9179853 Si02
#       7
#     8   8   8   8   8   8   8
#     4  10  20  33  53  84 115 146 181 226 283 343
#     4  10  20  36  58  80 109 150 191 233 274 328
#     4  10  22  37  59  85 110 150 195 232 277 332
#     4  10  21  35  55  83 111 148 183 223 280 343
#     4  10  19  31  51  82 114 146 183 225 279 338
#     4  10  20  35  54  82 115 145 185 230 279 338
#     4  11  20  37  59  82 117 151 179 236 284 327
#
# _framework density 21.668341999999999
#
# number of rings (size 3 to 8) (size 9 to 14) (size 15 to 20)
#    0.000    1.857    2.857    1.714    0.000    3.714 
#    0.000    0.714    0.000    8.143    0.000    0.000 
#    0.000    0.000    0.000    0.000    0.000    0.000 
#
# Total GULP energy -155985.593749 kJ/mol
# GULP energy per Si atom -5570.914062 kJ/mol
# Density = 2.161902 g / cm^3
# Si number density = 21.668342 Si / 1000 Ang^3
#
#
#
# Elastic Constant Matrix: (Units=GPa)
#
#
# Indices 1 2 3 4 5 6 
#
# 1 35.3612 0.9579 1.5465 0.0000 5.5128 0.0000
# 2 0.9579 88.6196 0.6677 0.0000 -3.8153 0.0000
# 3 1.5465 0.6677 101.5945 0.0000 15.6302 0.0000
# 4 0.0000 0.0000 0.0000 29.8158 0.0000 -1.4808
# 5 5.5128 -3.8153 15.6302 0.0000 35.2964 0.0000
# 6 0.0000 0.0000 0.0000 -1.4808 0.0000 9.2166
#
#
#
# Elastic Compliance Matrix: (Units=1/GPa)
#
#
# Indices 1 2 3 4 5 6 
#
# 1 0.029016 -0.000519 0.000287 0.000000 -0.004715 0.000000
# 2 -0.000519 0.011354 -0.000288 0.000000 0.001436 0.000000
# 3 0.000287 -0.000288 0.010573 0.000000 -0.004758 0.000000
# 4 0.000000 0.000000 0.000000 0.033809 0.000000 0.005432
# 5 -0.004715 0.001436 -0.004758 0.000000 0.031330 0.000000
# 6 0.000000 0.000000 0.000000 0.005432 0.000000 0.109372
#
#
# Mechanical properties :
#
#
# Convention : Reuss Voigt Hill
#
# Bulk Modulus (GPa) = 20.03848 25.76883 22.90365
# Shear Modulus (GPa) = 20.56538 29.69264 25.12901
#
# Velocity S-wave (km/s) = 3.08409 3.70580 3.40915
# Velocity P-wave (km/s) = 4.68508 5.49808 5.10778
#
# Compressibility (1/GPa) = 0.04990400
#
# Stress axis : x y z
#
# Youngs Moduli (GPa) = 34.46353 88.07646 94.58460
#
# Poissons Ratio (x) = 0.04569 -0.02716
# Poissons Ratio (y) = 0.01788 0.02720
# Poissons Ratio (z) = -0.00990 0.02533
#
# Static dielectric constant tensor:
#      x y z
#    x 1.792660 0.000000 0.031320 
#    y 0.000000 1.842220 0.000000 
#    z 0.031320 0.000000 1.941580 
# 
# From -- ./inp_files/165704.got.cif
#   From: 2010.05.17/outbox.cif.g08.bks.cpg/sg12_83_cif.got.tgz:165704.got - 2010.06.03 13:09:07.
