data_PCOD9179822
_publ_section_title
;
Structure prediction by ZEFSAII (Michael W. Deem and Ramdas Pophale) SiO2 
 PCOD9179822
Probable space group: C 2/M
;
_chemical_formula_sum "Si O2"
_cell_formula_units_Z 56
_cell_length_a 29.092406
_cell_length_b 13.979406
_cell_length_c 9.530593
_cell_angle_alpha 90.000000
_cell_angle_beta 38.317096
_cell_angle_gamma 90.000000
_cell_volume 2403.196009
_symmetry_space_group_name_H-M "C 2/M"
_symmetry_group_IT_number 12
_symmetry_cell_setting 'monoclinic'
loop_
_space_group_symop_operation_xyz
x,y,z
-x,y,-z
-x,-y,-z
x,-y,z
1/2+x,1/2+y,z
1/2-x,1/2+y,-z
1/2-x,1/2-y,-z
1/2+x,1/2-y,z
loop_
_atom_site_type_symbol
_atom_site_label
_atom_site_fract_x
_atom_site_fract_y
_atom_site_fract_z
Si Si1 0.950865 0.391764 0.805629
Si Si2 0.851351 0.351744 0.306700
Si Si3 0.653098 0.314090 0.316984
Si Si4 0.770837 0.824534 0.599553
Si Si5 0.362286 0.710801 0.952111
Si Si6 0.498836 0.608463 0.673766
Si Si7 0.873210 0.396741 0.574035
O O1 0.929776 0.500000 0.812829
O O2 0.912108 0.307578 0.808725
O O3 0.039543 0.388085 0.597049
O O4 0.917756 0.372772 0.040516
O O5 0.836349 0.239404 0.377438
O O6 0.776593 0.382596 0.400425
O O7 0.865292 0.396565 0.424036
O O8 0.700586 0.366559 0.322097
O O9 0.658910 0.342138 0.141018
O O10 0.566937 0.328892 0.563026
O O11 0.667725 0.200011 0.281292
O O12 0.709905 0.746804 0.797578
O O13 0.417983 0.645352 0.906657
O O14 0.500000 0.613869 0.500000
O O15 0.511259 0.500000 0.685841
O O16 0.846157 0.500000 0.692147
#
# Coordination Sequence:
#
# PCOD9179822 Si02
#       7
#     8   8   8   8   8   8   8
#     4  10  19  31  51  80 111 143 178 219 269 326
#     4   9  18  33  50  73 105 143 184 219 264 315
#     4  10  19  34  54  80 110 142 179 227 280 334
#     4   9  19  34  54  76 105 143 184 228 278 325
#     4  10  19  34  54  80 110 142 179 227 280 334
#     4   9  18  34  55  76 101 138 183 226 269 321
#     4  10  19  31  51  80 111 143 178 219 269 326
#
# _framework density 23.302302000000001
#
# number of rings (size 3 to 8) (size 9 to 14) (size 15 to 20)
#    0.000    2.429    1.429    1.286    0.000    1.714 
#    0.000    8.571    0.000    6.857    0.000   34.000 
#    0.000    0.000    0.000    0.000    0.000    0.000 
#
# Total GULP energy -156185.571473 kJ/mol
# GULP energy per Si atom -5578.056124 kJ/mol
# Density = 2.324927 g / cm^3
# Si number density = 23.302302 Si / 1000 Ang^3
#
#
#
# Elastic Constant Matrix: (Units=GPa)
#
#
# Indices 1 2 3 4 5 6 
#
# 1 103.6221 -12.1994 -0.5939 0.0000 4.9111 0.0000
# 2 -12.1994 68.5369 -8.2392 0.0000 -6.0726 0.0000
# 3 -0.5939 -8.2392 39.7822 0.0000 -6.6492 0.0000
# 4 0.0000 0.0000 0.0000 4.0125 0.0000 7.3735
# 5 4.9111 -6.0726 -6.6492 0.0000 25.4278 0.0000
# 6 0.0000 0.0000 0.0000 7.3735 0.0000 2.8223
#
#
#
# Elastic Compliance Matrix: (Units=1/GPa)
#
#
# Indices 1 2 3 4 5 6 
#
# 1 0.009917 0.001667 0.000251 0.000000 -0.001452 0.000000
# 2 0.001667 0.015772 0.004044 0.000000 0.004502 0.000000
# 3 0.000251 0.004044 0.027326 0.000000 0.008063 0.000000
# 4 0.000000 0.000000 0.000000 -0.065567 0.000000 0.171300
# 5 -0.001452 0.004502 0.008063 0.000000 0.042791 0.000000
# 6 0.000000 0.000000 0.000000 0.171300 0.000000 -0.093218
#
#
# Mechanical properties :
#
#
# Convention : Reuss Voigt Hill
#
# Bulk Modulus (GPa) = 15.39941 18.87514 17.13728
# Shear Modulus (GPa) = -93.88795 21.98410 -35.95192
#
# Velocity S-wave (km/s) = -6.35443 3.07486 -3.93217
# Velocity P-wave (km/s) = 6.87135 4.55237 3.63946
#
# Compressibility (1/GPa) = 0.06493757
#
# Stress axis : x y z
#
# Youngs Moduli (GPa) = 100.83785 63.40183 36.59546
#
# Poissons Ratio (x) = -0.10567 -0.00917
# Poissons Ratio (y) = -0.16806 -0.14799
# Poissons Ratio (z) = -0.02527 -0.25640
#
# Static dielectric constant tensor:
#      x y z
#    x 1.933890 0.000000 0.015190 
#    y 0.000000 1.895950 0.000000 
#    z 0.015190 0.000000 1.871730 
# 
# From -- ./inp_files/189194.got.cif
#   From: 2010.05.17/outbox.cif.g08.bks.cpg/sg12_95_cif.got.tgz:189194.got - 2010.06.03 13:09:07.
