data_PCOD9179997
_publ_section_title
;
Structure prediction by ZEFSAII (Michael W. Deem and Ramdas Pophale) SiO2 
 PCOD9179997
Probable space group: C 2/M
;
_chemical_formula_sum "Si O2"
_cell_formula_units_Z 64
_cell_length_a 18.322532
_cell_length_b 14.010379
_cell_length_c 19.198743
_cell_angle_alpha 90.000000
_cell_angle_beta 46.888931
_cell_angle_gamma 90.000000
_cell_volume 3597.899519
_symmetry_space_group_name_H-M "C 2/M"
_symmetry_group_IT_number 12
_symmetry_cell_setting 'monoclinic'
loop_
_space_group_symop_operation_xyz
x,y,z
-x,y,-z
-x,-y,-z
x,-y,z
1/2+x,1/2+y,z
1/2-x,1/2+y,-z
1/2-x,1/2-y,-z
1/2+x,1/2-y,z
loop_
_atom_site_type_symbol
_atom_site_label
_atom_site_fract_x
_atom_site_fract_y
_atom_site_fract_z
Si Si1 0.079936 0.607006 0.509102
Si Si2 0.396051 0.110428 0.102511
Si Si3 0.729041 0.709411 0.835586
Si Si4 0.096037 0.609400 0.737525
Si Si5 0.734663 0.268263 0.591809
Si Si6 0.567396 0.608977 0.026434
Si Si7 0.434357 0.888264 0.735092
Si Si8 0.622954 0.614578 0.770367
O O1 0.126665 0.500000 0.476657
O O2 0.160919 0.689489 0.449472
O O3 0.000000 0.611494 0.500000
O O4 0.018913 0.616238 0.620296
O O5 0.304056 0.180432 0.146791
O O6 0.413046 0.113512 0.174008
O O7 0.379466 0.000000 0.092282
O O8 0.500000 0.144692 0.000000
O O9 0.842530 0.679195 0.774873
O O10 0.691307 0.660407 0.787475
O O11 0.663763 0.667580 0.942040
O O12 0.112361 0.500000 0.705115
O O13 0.189788 0.672159 0.653035
O O14 0.993560 0.639318 0.766400
O O15 0.750000 0.250000 0.500000
O O16 0.656500 0.346236 0.673615
O O17 0.596338 0.500000 0.022772
O O18 0.490716 0.642980 0.135607
O O19 0.500000 0.607874 0.000000
O O20 0.400540 0.000000 0.760975
O O21 0.630132 0.500000 0.770456
#
# Coordination Sequence:
#
# PCOD9179997 Si02
#       8
#     8   8   8   8   8   8   8   8
#     4  10  21  36  56  86 119 146 183 238 291 341
#     4  10  21  38  62  85 110 151 202 244 274 327
#     4  11  18  31  59  91 114 146 183 229 287 347
#     4  10  22  40  58  80 113 152 198 240 278 333
#     4  12  22  35  57  80 111 154 194 232 280 339
#     4   8  15  27  47  81 118 140 165 218 285 347
#     4  10  20  35  55  83 120 152 182 232 293 344
#     4  10  19  31  52  84 117 142 180 236 290 341
#
# _framework density 17.788157000000002
#
# number of rings (size 3 to 8) (size 9 to 14) (size 15 to 20)
#    0.000    1.875    2.500    4.125    0.000    1.500 
#    0.000    0.625    0.000    2.625    0.000    0.000 
#    0.000    0.000    0.000    0.000    0.000    0.000 
#
# Total GULP energy -178410.439834 kJ/mol
# GULP energy per Si atom -5575.326245 kJ/mol
# Density = 1.774767 g / cm^3
# Si number density = 17.788157 Si / 1000 Ang^3
#
#
#
# Elastic Constant Matrix: (Units=GPa)
#
#
# Indices 1 2 3 4 5 6 
#
# 1 52.9730 38.6429 20.5693 0.0000 -8.2417 0.0000
# 2 38.6429 92.2317 28.7550 0.0000 -9.1017 0.0000
# 3 20.5693 28.7550 92.4402 0.0000 8.4090 0.0000
# 4 0.0000 0.0000 0.0000 32.6055 0.0000 -3.8693
# 5 -8.2417 -9.1017 8.4090 0.0000 13.7525 0.0000
# 6 0.0000 0.0000 0.0000 -3.8693 0.0000 22.5439
#
#
#
# Elastic Compliance Matrix: (Units=1/GPa)
#
#
# Indices 1 2 3 4 5 6 
#
# 1 0.030148 -0.009586 -0.005075 0.000000 0.014826 0.000000
# 2 -0.009586 0.016800 -0.003793 0.000000 0.007693 0.000000
# 3 -0.005075 -0.003793 0.014435 0.000000 -0.014378 0.000000
# 4 0.000000 0.000000 0.000000 0.031307 0.000000 0.005373
# 5 0.014826 0.007693 -0.014378 0.000000 0.095482 0.000000
# 6 0.000000 0.000000 0.000000 0.005373 0.000000 0.045280
#
#
# Mechanical properties :
#
#
# Convention : Reuss Voigt Hill
#
# Bulk Modulus (GPa) = 40.85790 45.95326 43.40558
# Shear Modulus (GPa) = 17.95219 23.75890 20.85554
#
# Velocity S-wave (km/s) = 3.18027 3.65863 3.42781
# Velocity P-wave (km/s) = 6.04190 6.61341 6.33410
#
# Compressibility (1/GPa) = 0.02447507
#
# Stress axis : x y z
#
# Youngs Moduli (GPa) = 33.17020 59.52346 69.27693
#
# Poissons Ratio (x) = 0.57057 0.35159
# Poissons Ratio (y) = 0.31796 0.26275
# Poissons Ratio (z) = 0.16834 0.22576
#
# Static dielectric constant tensor:
#      x y z
#    x 1.609090 0.000000 0.029340 
#    y 0.000000 1.644930 0.000000 
#    z 0.029340 0.000000 1.642530 
# 
# From -- ./inp_files/270665.got.cif
#   From: 2010.05.17/outbox.cif.g08.bks.cpg/sg12_136_cif.got.tgz:270665.got - 2010.06.03 13:09:07.
