data_PCOD9179094
_publ_section_title
;
Structure prediction by ZEFSAII (Michael W. Deem and Ramdas Pophale) SiO2 
 PCOD9179094
Probable space group: C 2/M
;
_chemical_formula_sum "Si O2"
_cell_formula_units_Z 56
_cell_length_a 22.124182
_cell_length_b 7.463357
_cell_length_c 20.157499
_cell_angle_alpha 90.000000
_cell_angle_beta 127.523172
_cell_angle_gamma 90.000000
_cell_volume 2639.793224
_symmetry_space_group_name_H-M "C 2/M"
_symmetry_group_IT_number 12
_symmetry_cell_setting 'monoclinic'
loop_
_space_group_symop_operation_xyz
x,y,z
-x,y,-z
-x,-y,-z
x,-y,z
1/2+x,1/2+y,z
1/2-x,1/2+y,-z
1/2-x,1/2-y,-z
1/2+x,1/2-y,z
loop_
_atom_site_type_symbol
_atom_site_label
_atom_site_fract_x
_atom_site_fract_y
_atom_site_fract_z
Si Si1 0.194540 0.285259 0.524912
Si Si2 0.522601 0.781687 0.439410
Si Si3 0.243482 0.709073 0.699181
Si Si4 0.370445 0.219490 0.264381
Si Si5 0.566067 0.781345 0.955938
Si Si6 0.670651 0.785468 0.909758
Si Si7 0.395600 0.216016 0.875158
O O1 0.189268 0.500000 0.523030
O O2 0.250000 0.250000 0.500000
O O3 0.106228 0.221893 0.470312
O O4 0.233071 0.217085 0.618711
O O5 0.500000 0.726222 0.500000
O O6 0.455432 0.729170 0.343840
O O7 0.523646 0.000000 0.442032
O O8 0.222880 0.500000 0.680399
O O9 0.186439 0.784257 0.716174
O O10 0.327958 0.722120 0.783839
O O11 0.341499 0.281646 0.173064
O O12 0.368560 0.000000 0.262047
O O13 0.605408 0.717791 0.915713
O O14 0.478753 0.725730 0.906152
O O15 0.566340 0.000000 0.955762
O O16 0.611248 0.726136 0.052633
O O17 0.663546 0.000000 0.901206
O O18 0.750000 0.750000 0.000000
O O19 0.394964 0.000000 0.874413
#
# Coordination Sequence:
#
# PCOD9179094 Si02
#       7
#     8   8   8   8   8   8   8
#     4  10  21  35  54  78 106 135 166 212 265 313
#     4   9  15  30  55  78  99 131 176 218 252 297
#     4  10  19  32  49  74 103 127 158 208 262 303
#     4   9  17  29  50  76  98 127 171 215 252 293
#     4   8  16  31  48  68  97 132 168 206 245 286
#     4  10  19  31  48  72 101 129 162 207 251 294
#     4   9  17  31  51  70  94 133 172 202 240 301
#
# _framework density 21.213782999999999
#
# number of rings (size 3 to 8) (size 9 to 14) (size 15 to 20)
#    0.000    2.714    1.429    1.714    0.000    1.714 
#    0.000    5.000    0.000    2.143    0.000    0.000 
#    0.000    0.000    0.000    0.000    0.000    0.000 
#
# Total GULP energy -156237.877318 kJ/mol
# GULP energy per Si atom -5579.924190 kJ/mol
# Density = 2.116550 g / cm^3
# Si number density = 21.213783 Si / 1000 Ang^3
#
#
#
# Elastic Constant Matrix: (Units=GPa)
#
#
# Indices 1 2 3 4 5 6 
#
# 1 180.4064 5.9707 118.8204 0.0000 -25.5011 0.0000
# 2 5.9707 60.4811 0.3187 0.0001 -6.2633 0.0001
# 3 118.8204 0.3187 206.9190 0.0000 -14.3592 0.0000
# 4 0.0000 0.0001 0.0000 32.2295 0.0000 27.1879
# 5 -25.5011 -6.2633 -14.3592 0.0000 33.8595 0.0000
# 6 0.0000 0.0001 0.0000 27.1879 0.0000 42.3609
#
#
#
# Elastic Compliance Matrix: (Units=1/GPa)
#
#
# Indices 1 2 3 4 5 6 
#
# 1 0.009708 -0.000411 -0.005226 0.000000 0.005019 0.000000
# 2 -0.000411 0.016882 0.000418 0.000000 0.002990 0.000000
# 3 -0.005226 0.000418 0.007795 0.000000 -0.000553 0.000000
# 4 0.000000 0.000000 0.000000 0.067659 0.000000 -0.043425
# 5 0.005019 0.002990 -0.000553 0.000000 0.033633 0.000000
# 6 0.000000 0.000000 0.000000 -0.043425 0.000000 0.051477
#
#
# Mechanical properties :
#
#
# Convention : Reuss Voigt Hill
#
# Bulk Modulus (GPa) = 41.76017 77.55847 59.65932
# Shear Modulus (GPa) = 24.32213 43.20312 33.76262
#
# Velocity S-wave (km/s) = 3.38971 4.51772 3.99374
# Velocity P-wave (km/s) = 5.92016 7.99080 7.03211
#
# Compressibility (1/GPa) = 0.02394626
#
# Stress axis : x y z
#
# Youngs Moduli (GPa) = 103.00875 59.23422 128.29444
#
# Poissons Ratio (x) = 0.02435 0.67043
# Poissons Ratio (y) = 0.04234 -0.05357
# Poissons Ratio (z) = 0.53829 -0.02473
#
# Static dielectric constant tensor:
#      x y z
#    x 1.752290 0.000000 -0.009620 
#    y 0.000000 1.835380 0.000000 
#    z -0.009620 0.000000 1.746330 
# 
# From -- ./inp_files/320225.got.cif
#   From: 2010.05.17/outbox.cif.g08.bks.cpg/sg12_161_cif.got.tgz:320225.got - 2010.06.03 13:09:07.
