data_PCOD9179304
_publ_section_title
;
Structure prediction by ZEFSAII (Michael W. Deem and Ramdas Pophale) SiO2 
 PCOD9179304
Probable space group: C 2/M
;
_chemical_formula_sum "Si O2"
_cell_formula_units_Z 40
_cell_length_a 11.560774
_cell_length_b 15.006129
_cell_length_c 20.678436
_cell_angle_alpha 90.000000
_cell_angle_beta 145.874184
_cell_angle_gamma 90.000000
_cell_volume 2012.544338
_symmetry_space_group_name_H-M "C 2/M"
_symmetry_group_IT_number 12
_symmetry_cell_setting 'monoclinic'
loop_
_space_group_symop_operation_xyz
x,y,z
-x,y,-z
-x,-y,-z
x,-y,z
1/2+x,1/2+y,z
1/2-x,1/2+y,-z
1/2-x,1/2-y,-z
1/2+x,1/2-y,z
loop_
_atom_site_type_symbol
_atom_site_label
_atom_site_fract_x
_atom_site_fract_y
_atom_site_fract_z
Si Si1 0.246841 0.607202 0.677247
Si Si2 0.426516 0.600339 0.399831
Si Si3 0.877710 0.390826 0.846159
Si Si4 0.697785 0.608229 0.903090
Si Si5 0.297585 0.154962 0.491834
O O1 0.249993 0.500000 0.670311
O O2 0.463776 0.635217 0.809117
O O3 0.234993 0.647955 0.599937
O O4 0.034794 0.630349 0.614784
O O5 0.500000 0.646051 0.500000
O O6 0.356469 0.500000 0.385045
O O7 0.245239 0.642831 0.273331
O O8 0.625200 0.594907 0.445972
O O9 0.871414 0.500000 0.840692
O O10 0.760280 0.366557 0.858402
O O11 0.115013 0.362498 0.964151
O O12 0.702472 0.500000 0.906685
O O13 0.250000 0.250000 0.500000
#
# Coordination Sequence:
#
# PCOD9179304 Si02
#       5
#     8   8   8   8   8
#     4  10  19  35  58  79 100 134 180 228 260 299
#     4  10  19  31  49  73 105 139 168 203 255 323
#     4   8  13  24  44  77 105 123 161 217 264 297
#     4   8  13  24  49  78 100 120 163 228 264 283
#     4  11  22  32  48  73 106 136 171 213 265 310
#
# _framework density 19.875337999999999
#
# number of rings (size 3 to 8) (size 9 to 14) (size 15 to 20)
#    0.000    2.600    2.000    3.600    2.800    0.000 
#    0.000    0.000    0.000    2.400    5.200    7.000 
#    0.000    0.000    0.000    0.000    0.000    0.000 
#
# Total GULP energy -111462.097248 kJ/mol
# GULP energy per Si atom -5573.104862 kJ/mol
# Density = 1.983010 g / cm^3
# Si number density = 19.875338 Si / 1000 Ang^3
#
#
#
# Elastic Constant Matrix: (Units=GPa)
#
#
# Indices 1 2 3 4 5 6 
#
# 1 51.7726 3.7626 62.6970 0.0001 8.1087 0.0000
# 2 3.7626 53.4679 11.6890 0.0000 2.8922 0.0000
# 3 62.6970 11.6890 225.0252 -0.0001 18.3400 0.0000
# 4 0.0001 0.0000 -0.0001 26.1337 0.0000 5.3982
# 5 8.1087 2.8922 18.3400 0.0000 38.4839 0.0000
# 6 0.0000 0.0000 0.0000 5.3982 0.0000 23.0073
#
#
#
# Elastic Compliance Matrix: (Units=1/GPa)
#
#
# Indices 1 2 3 4 5 6 
#
# 1 0.029361 -0.000194 -0.007977 0.000000 -0.002370 0.000000
# 2 -0.000194 0.018955 -0.000851 0.000000 -0.000978 0.000000
# 3 -0.007977 -0.000851 0.006834 0.000000 -0.001512 0.000000
# 4 0.000000 0.000000 0.000000 0.040214 0.000000 -0.009435
# 5 -0.002370 -0.000978 -0.001512 0.000000 0.027278 0.000000
# 6 0.000000 0.000000 0.000000 -0.009435 0.000000 0.045678
#
#
# Mechanical properties :
#
#
# Convention : Reuss Voigt Hill
#
# Bulk Modulus (GPa) = 26.94967 54.06253 40.50610
# Shear Modulus (GPa) = 25.15917 34.33278 29.74598
#
# Velocity S-wave (km/s) = 3.56174 4.16072 3.87282
# Velocity P-wave (km/s) = 5.52299 7.09521 6.35788
#
# Compressibility (1/GPa) = 0.03710621
#
# Stress axis : x y z
#
# Youngs Moduli (GPa) = 34.05837 52.75541 146.32541
#
# Poissons Ratio (x) = 0.01023 1.16731
# Poissons Ratio (y) = 0.00661 0.12450
# Poissons Ratio (z) = 0.27170 0.04489
#
# Static dielectric constant tensor:
#      x y z
#    x 1.672740 0.000000 0.011730 
#    y 0.000000 1.746970 0.000000 
#    z 0.011730 0.000000 1.766280 
# 
# From -- ./inp_files/306300.got.cif
#   From: 2010.05.17/outbox.cif.g08.bks.cpg/sg12_154_cif.got.tgz:306300.got - 2010.06.03 13:09:07.
