data_PCOD9179831
_publ_section_title
;
Structure prediction by ZEFSAII (Michael W. Deem and Ramdas Pophale) SiO2 
 PCOD9179831
Probable space group: C 2/M
;
_chemical_formula_sum "Si O2"
_cell_formula_units_Z 64
_cell_length_a 17.038888
_cell_length_b 20.245998
_cell_length_c 14.225076
_cell_angle_alpha 90.000000
_cell_angle_beta 149.555653
_cell_angle_gamma 90.000000
_cell_volume 2486.491421
_symmetry_space_group_name_H-M "C 2/M"
_symmetry_group_IT_number 12
_symmetry_cell_setting 'monoclinic'
loop_
_space_group_symop_operation_xyz
x,y,z
-x,y,-z
-x,-y,-z
x,-y,z
1/2+x,1/2+y,z
1/2-x,1/2+y,-z
1/2-x,1/2-y,-z
1/2+x,1/2-y,z
loop_
_atom_site_type_symbol
_atom_site_label
_atom_site_fract_x
_atom_site_fract_y
_atom_site_fract_z
Si Si1 0.639727 0.227521 0.580172
Si Si2 0.333485 0.420301 0.553372
Si Si3 0.887888 0.183192 0.960194
Si Si4 0.055721 0.740007 0.806224
Si Si5 0.632499 0.426459 0.763860
Si Si6 0.330584 0.918904 0.799380
Si Si7 0.841228 0.573875 0.438093
Si Si8 0.650889 0.103544 0.849462
O O1 0.500000 0.251502 0.500000
O O2 0.795154 0.238228 0.802016
O O3 0.576456 0.249735 0.412179
O O4 0.646124 0.146597 0.594059
O O5 0.345122 0.500000 0.562000
O O6 0.494346 0.392929 0.678635
O O7 0.211574 0.399668 0.349059
O O8 0.278777 0.409867 0.601789
O O9 0.775175 0.134243 0.903629
O O10 0.983265 0.221092 0.139964
O O11 0.000000 0.148589 0.000000
O O12 0.061365 0.661739 0.810919
O O13 0.250000 0.750000 0.000000
O O14 0.580548 0.500000 0.682217
O O15 0.702829 0.395622 0.742835
O O16 0.762740 0.432213 0.977549
O O17 0.330571 0.000000 0.804829
O O18 0.500000 0.896084 0.000000
O O19 0.800552 0.500000 0.355953
O O20 0.015938 0.566410 0.656793
#
# Coordination Sequence:
#
# PCOD9179831 Si02
#       8
#     8   8   8   8   8   8   8   8
#     4  11  20  40  68  97 123 172 212 259 323 391
#     4   9  18  31  49  76 114 161 207 252 302 354
#     4  11  24  42  67  93 124 160 209 273 335 386
#     4   9  19  40  67  89 117 157 205 262 320 384
#     4  10  19  31  51  80 121 162 201 250 306 366
#     4   9  16  28  48  70  98 150 207 249 297 354
#     4  10  20  35  58  90 128 169 212 253 298 375
#     4  10  20  37  59  85 119 162 205 251 311 382
#
# _framework density 25.739079
#
# number of rings (size 3 to 8) (size 9 to 14) (size 15 to 20)
#    0.000    2.125    3.750    1.500    1.750    4.250 
#    0.000    3.125   11.000    1.875    0.000    0.000 
#    0.000    0.000    0.000    0.000    0.000    0.000 
#
# Total GULP energy -178282.457316 kJ/mol
# GULP energy per Si atom -5571.326791 kJ/mol
# Density = 2.568050 g / cm^3
# Si number density = 25.739079 Si / 1000 Ang^3
#
#
#
# Elastic Constant Matrix: (Units=GPa)
#
#
# Indices 1 2 3 4 5 6 
#
# 1 138.4180 24.2310 2.7174 0.0000 0.6421 0.0000
# 2 24.2310 90.5096 12.6680 0.0000 -10.6021 0.0000
# 3 2.7174 12.6680 84.6683 0.0000 -30.3029 0.0000
# 4 0.0000 0.0000 0.0000 23.3355 0.0000 -11.0282
# 5 0.6421 -10.6021 -30.3029 0.0000 46.6636 0.0000
# 6 0.0000 0.0000 0.0000 -11.0282 0.0000 45.1357
#
#
#
# Elastic Compliance Matrix: (Units=1/GPa)
#
#
# Indices 1 2 3 4 5 6 
#
# 1 0.007597 -0.002090 -0.000180 0.000000 -0.000697 0.000000
# 2 -0.002090 0.011992 -0.000966 0.000000 0.002126 0.000000
# 3 -0.000180 -0.000966 0.015482 0.000000 0.009837 0.000000
# 4 0.000000 0.000000 0.000000 0.048447 0.000000 0.011837
# 5 -0.000697 0.002126 0.009837 0.000000 0.028310 0.000000
# 6 0.000000 0.000000 0.000000 0.011837 0.000000 0.025048
#
#
# Mechanical properties :
#
#
# Convention : Reuss Voigt Hill
#
# Bulk Modulus (GPa) = 34.96832 43.64763 39.30797
# Shear Modulus (GPa) = 32.70472 41.29228 36.99850
#
# Velocity S-wave (km/s) = 3.56845 4.00967 3.79548
# Velocity P-wave (km/s) = 5.53115 6.19929 5.87473
#
# Compressibility (1/GPa) = 0.02859732
#
# Stress axis : x y z
#
# Youngs Moduli (GPa) = 131.62782 83.38598 64.59243
#
# Poissons Ratio (x) = 0.17430 0.01165
# Poissons Ratio (y) = 0.27513 0.06242
# Poissons Ratio (z) = 0.02375 0.08058
#
# Static dielectric constant tensor:
#      x y z
#    x 2.028890 0.000000 0.000290 
#    y 0.000000 2.056580 0.000000 
#    z 0.000290 0.000000 2.128480 
# 
# From -- ./inp_files/228196.got.cif
#   From: 2010.05.17/outbox.cif.g08.bks.cpg/sg12_115_cif.got.tgz:228196.got - 2010.06.03 13:09:07.
