data_PCOD9179297
_publ_section_title
;
Structure prediction by ZEFSAII (Michael W. Deem and Ramdas Pophale) SiO2 
 PCOD9179297
Probable space group: C 2/M
;
_chemical_formula_sum "Si O2"
_cell_formula_units_Z 64
_cell_length_a 25.742495
_cell_length_b 8.910861
_cell_length_c 23.961975
_cell_angle_alpha 90.000000
_cell_angle_beta 46.559871
_cell_angle_gamma 90.000000
_cell_volume 3991.033079
_symmetry_space_group_name_H-M "C 2/M"
_symmetry_group_IT_number 12
_symmetry_cell_setting 'monoclinic'
loop_
_space_group_symop_operation_xyz
x,y,z
-x,y,-z
-x,-y,-z
x,-y,z
1/2+x,1/2+y,z
1/2-x,1/2+y,-z
1/2-x,1/2-y,-z
1/2+x,1/2-y,z
loop_
_atom_site_type_symbol
_atom_site_label
_atom_site_fract_x
_atom_site_fract_y
_atom_site_fract_z
Si Si1 0.375961 0.677966 0.668848
Si Si2 0.166110 0.320795 0.414596
Si Si3 0.919938 0.678840 0.847874
Si Si4 0.805176 0.179627 0.003641
Si Si5 0.189270 0.678437 0.174596
Si Si6 0.718300 0.319487 0.579809
Si Si7 0.475508 0.821269 0.406887
Si Si8 0.553120 0.680011 0.693161
O O1 0.384623 0.500000 0.662200
O O2 0.339640 0.734730 0.639065
O O3 0.331151 0.730065 0.755858
O O4 0.453517 0.755825 0.617405
O O5 0.170647 0.500000 0.400719
O O6 0.232788 0.274589 0.403966
O O7 0.093920 0.294589 0.503669
O O8 0.924303 0.500000 0.850519
O O9 0.880576 0.750030 0.930493
O O10 0.869050 0.709282 0.831264
O O11 0.996048 0.750322 0.777742
O O12 0.807012 0.000000 0.995614
O O13 0.750000 0.250000 0.000000
O O14 0.767326 0.211746 0.090777
O O15 0.185200 0.500000 0.189354
O O16 0.723345 0.500000 0.571382
O O17 0.750000 0.250000 0.500000
O O18 0.634982 0.279913 0.646936
O O19 0.464195 0.744666 0.355342
O O20 0.483792 0.000000 0.392882
O O21 0.546259 0.500000 0.697352
#
# Coordination Sequence:
#
# PCOD9179297 Si02
#       8
#     8   8   8   8   8   8   8   8
#     4  12  24  34  50  76 105 136 174 218 256 298
#     4  10  22  39  55  71  98 138 177 213 259 312
#     4  10  19  31  49  73 104 139 172 205 252 308
#     4   9  17  29  47  71 101 135 170 207 250 303
#     4   9  18  32  49  70 101 139 171 201 249 310
#     4  10  21  37  56  77 100 132 172 217 264 307
#     4  11  21  35  54  73 100 138 175 209 258 315
#     4  11  21  32  52  79 105 133 171 217 258 301
#
# _framework density 16.035948999999999
#
# number of rings (size 3 to 8) (size 9 to 14) (size 15 to 20)
#    0.000    1.750    2.500    3.750    0.000    6.000 
#    0.000    0.000    0.000    0.000    0.000    0.875 
#    0.000    7.000    0.000    0.000    0.000    0.000 
#
# Total GULP energy -178616.616741 kJ/mol
# GULP energy per Si atom -5581.769273 kJ/mol
# Density = 1.599945 g / cm^3
# Si number density = 16.035949 Si / 1000 Ang^3
#
#
#
# Elastic Constant Matrix: (Units=GPa)
#
#
# Indices 1 2 3 4 5 6 
#
# 1 102.6985 39.9103 54.4880 0.0000 -8.9113 0.0001
# 2 39.9103 60.3428 55.9273 0.0002 -10.5513 0.0011
# 3 54.4880 55.9273 102.6130 -0.0003 -27.7411 0.0000
# 4 0.0000 0.0002 -0.0003 28.9999 0.0000 1.6428
# 5 -8.9113 -10.5513 -27.7411 0.0000 16.8425 -0.0001
# 6 0.0001 0.0011 0.0000 1.6428 -0.0001 19.2100
#
#
#
# Elastic Compliance Matrix: (Units=1/GPa)
#
#
# Indices 1 2 3 4 5 6 
#
# 1 0.014668 -0.003911 -0.007610 0.000000 -0.007224 0.000000
# 2 -0.003911 0.037240 -0.022484 0.000000 -0.015774 -0.000002
# 3 -0.007610 -0.022484 0.038117 0.000001 0.044671 0.000001
# 4 0.000000 0.000000 0.000001 0.034651 0.000001 -0.002963
# 5 -0.007224 -0.015774 0.044671 0.000001 0.119247 0.000001
# 6 0.000000 -0.000002 0.000001 -0.002963 0.000001 0.052310
#
#
# Mechanical properties :
#
#
# Convention : Reuss Voigt Hill
#
# Bulk Modulus (GPa) = 45.42491 62.92285 54.17388
# Shear Modulus (GPa) = 13.45599 20.69905 17.07752
#
# Velocity S-wave (km/s) = 2.89989 3.59665 3.26690
# Velocity P-wave (km/s) = 6.29292 7.52142 6.93443
#
# Compressibility (1/GPa) = 0.02201435
#
# Stress axis : x y z
#
# Youngs Moduli (GPa) = 68.17583 26.85296 26.23470
#
# Poissons Ratio (x) = 0.10503 0.19964
# Poissons Ratio (y) = 0.26666 0.58987
# Poissons Ratio (z) = 0.51880 0.60377
#
# Static dielectric constant tensor:
#      x y z
#    x 1.517610 0.000000 -0.019140 
#    y 0.000000 1.532160 0.000000 
#    z -0.019140 0.000000 1.548830 
# 
# From -- ./inp_files/324183.got.cif
#   From: 2010.05.17/outbox.cif.g08.bks.cpg/sg12_163_cif.got.tgz:324183.got - 2010.06.03 13:09:07.
