data_PCOD9179286
_publ_section_title
;
Structure prediction by ZEFSAII (Michael W. Deem and Ramdas Pophale) SiO2 
 PCOD9179286
Probable space group: C 2/M
;
_chemical_formula_sum "Si O2"
_cell_formula_units_Z 64
_cell_length_a 28.309467
_cell_length_b 10.419534
_cell_length_c 12.780040
_cell_angle_alpha 90.000000
_cell_angle_beta 112.447171
_cell_angle_gamma 90.000000
_cell_volume 3484.120750
_symmetry_space_group_name_H-M "C 2/M"
_symmetry_group_IT_number 12
_symmetry_cell_setting 'monoclinic'
loop_
_space_group_symop_operation_xyz
x,y,z
-x,y,-z
-x,-y,-z
x,-y,z
1/2+x,1/2+y,z
1/2-x,1/2+y,-z
1/2-x,1/2-y,-z
1/2+x,1/2-y,z
loop_
_atom_site_type_symbol
_atom_site_label
_atom_site_fract_x
_atom_site_fract_y
_atom_site_fract_z
Si Si1 0.387884 0.643971 0.252753
Si Si2 0.541298 0.864151 0.625646
Si Si3 0.035729 0.294399 0.268617
Si Si4 0.802194 0.153235 0.330138
Si Si5 0.143682 0.656598 0.459687
Si Si6 0.313747 0.153788 0.733820
Si Si7 0.919095 0.353279 0.915841
Si Si8 0.452636 0.357236 0.104543
O O1 0.402975 0.500000 0.297190
O O2 0.420589 0.747503 0.342087
O O3 0.329697 0.660688 0.240202
O O4 0.406073 0.656395 0.148450
O O5 0.500000 0.852438 0.500000
O O6 0.509351 0.862992 0.706088
O O7 0.568813 0.000000 0.636893
O O8 0.085545 0.299531 0.384497
O O9 0.054420 0.354581 0.175687
O O10 0.006422 0.163684 0.211127
O O11 0.831705 0.251647 0.431884
O O12 0.742833 0.192226 0.280429
O O13 0.805363 0.000000 0.364718
O O14 0.144345 0.500000 0.479057
O O15 0.174635 0.682365 0.377790
O O16 0.361549 0.197322 0.844480
O O17 0.316108 0.000000 0.743918
O O18 0.918897 0.500000 0.955831
O O19 0.946472 0.254844 0.015588
O O20 0.450958 0.500000 0.057823
#
# Coordination Sequence:
#
# PCOD9179286 Si02
#       8
#     8   8   8   8   8   8   8   8
#     4   9  20  35  49  68  97 134 170 205 248 299
#     4  10  19  31  49  73 101 133 167 203 243 290
#     4  10  20  33  52  76 106 138 167 200 248 307
#     4  10  19  34  55  75 101 139 175 204 246 304
#     4  10  19  32  52  80 110 134 164 208 252 295
#     4   8  17  34  54  77 104 134 168 207 252 305
#     4  10  20  35  56  78 100 130 170 213 257 305
#     4  10  22  38  53  73 103 135 170 215 260 299
#
# _framework density 18.369052
#
# number of rings (size 3 to 8) (size 9 to 14) (size 15 to 20)
#    0.000    2.375    0.000    3.375    0.000    6.750 
#    0.000    5.625    0.000    0.000    0.000    0.000 
#    0.000    0.000    0.000    0.000    0.000    0.000 
#
# Total GULP energy -178185.516823 kJ/mol
# GULP energy per Si atom -5568.297401 kJ/mol
# Density = 1.832724 g / cm^3
# Si number density = 18.369052 Si / 1000 Ang^3
#
#
#
# Elastic Constant Matrix: (Units=GPa)
#
#
# Indices 1 2 3 4 5 6 
#
# 1 124.6676 31.5128 24.1412 0.0000 5.2481 0.0000
# 2 31.5128 84.2502 40.2526 0.0000 1.5252 0.0000
# 3 24.1412 40.2526 49.5909 0.0000 7.2317 0.0000
# 4 0.0000 0.0000 0.0000 11.3093 0.0000 2.2178
# 5 5.2481 1.5252 7.2317 0.0000 18.3728 0.0000
# 6 0.0000 0.0000 0.0000 2.2178 0.0000 15.0080
#
#
#
# Elastic Compliance Matrix: (Units=1/GPa)
#
#
# Indices 1 2 3 4 5 6 
#
# 1 0.009114 -0.002230 -0.002413 0.000000 -0.001469 0.000000
# 2 -0.002230 0.020352 -0.016211 0.000000 0.005328 0.000000
# 3 -0.002413 -0.016211 0.036284 0.000000 -0.012247 0.000000
# 4 0.000000 0.000000 0.000000 0.091061 0.000000 -0.013456
# 5 -0.001469 0.005328 -0.012247 0.000000 0.059226 0.000000
# 6 0.000000 0.000000 0.000000 -0.013456 0.000000 0.068620
#
#
# Mechanical properties :
#
#
# Convention : Reuss Voigt Hill
#
# Bulk Modulus (GPa) = 41.59268 50.03576 45.81422
# Shear Modulus (GPa) = 14.95309 19.77818 17.36563
#
# Velocity S-wave (km/s) = 2.85623 3.28489 3.07803
# Velocity P-wave (km/s) = 5.79391 6.45644 6.13412
#
# Compressibility (1/GPa) = 0.02404269
#
# Stress axis : x y z
#
# Youngs Moduli (GPa) = 109.72170 49.13452 27.56028
#
# Poissons Ratio (x) = 0.10955 0.06650
# Poissons Ratio (y) = 0.24464 0.44679
# Poissons Ratio (z) = 0.26474 0.79654
#
# Static dielectric constant tensor:
#      x y z
#    x 1.677530 0.000000 -0.017410 
#    y 0.000000 1.639870 0.000000 
#    z -0.017410 0.000000 1.632550 
# 
# From -- ./inp_files/244205.got.cif
#   From: 2010.05.17/outbox.cif.g08.bks.cpg/sg12_123_cif.got.tgz:244205.got - 2010.06.03 13:09:07.
