data_PCOD9179419
_publ_section_title
;
Structure prediction by ZEFSAII (Michael W. Deem and Ramdas Pophale) SiO2 
 PCOD9179419
Probable space group: C 2/M
;
_chemical_formula_sum "Si O2"
_cell_formula_units_Z 56
_cell_length_a 24.908801
_cell_length_b 18.015615
_cell_length_c 17.371421
_cell_angle_alpha 90.000000
_cell_angle_beta 22.523813
_cell_angle_gamma 90.000000
_cell_volume 2986.155571
_symmetry_space_group_name_H-M "C 2/M"
_symmetry_group_IT_number 12
_symmetry_cell_setting 'monoclinic'
loop_
_space_group_symop_operation_xyz
x,y,z
-x,y,-z
-x,-y,-z
x,-y,z
1/2+x,1/2+y,z
1/2-x,1/2+y,-z
1/2-x,1/2-y,-z
1/2+x,1/2-y,z
loop_
_atom_site_type_symbol
_atom_site_label
_atom_site_fract_x
_atom_site_fract_y
_atom_site_fract_z
Si Si1 0.804529 0.720019 0.116595
Si Si2 0.652954 0.584394 0.088316
Si Si3 0.096427 0.678016 0.299350
Si Si4 0.136244 0.088161 0.763826
Si Si5 0.152340 0.914732 0.273044
Si Si6 0.559004 0.688669 0.721471
Si Si7 0.334880 0.213970 0.548047
O O1 0.699619 0.757446 0.192782
O O2 0.776990 0.633443 0.142880
O O3 0.751283 0.746505 0.270001
O O4 0.957120 0.751619 0.897425
O O5 0.624240 0.500000 0.101813
O O6 0.656372 0.587335 0.175764
O O7 0.536584 0.639434 0.209147
O O8 0.802784 0.611868 0.859251
O O9 0.000000 0.657730 0.500000
O O10 0.994104 0.704495 0.367120
O O11 0.265920 0.133257 0.628345
O O12 0.111074 0.131307 0.717016
O O13 0.159746 0.000000 0.723393
O O14 0.000000 0.097106 0.000000
O O15 0.000000 0.884119 0.500000
O O16 0.159591 0.000000 0.289485
O O17 0.665606 0.735530 0.527652
#
# Coordination Sequence:
#
# PCOD9179419 Si02
#       7
#     8   8   8   8   8   8   8
#     4  10  19  35  56  84 117 147 184 225 280 335
#     4  10  20  33  52  83 119 150 182 224 278 334
#     4   9  19  33  53  84 115 147 182 223 281 335
#     4  11  24  43  61  82 112 145 190 244 296 335
#     4  10  19  31  49  77 114 152 182 217 269 331
#     4  11  21  37  60  84 110 148 193 234 277 332
#     4  11  21  37  61  86 110 149 192 232 279 337
#
# _framework density 18.753208999999998
#
# number of rings (size 3 to 8) (size 9 to 14) (size 15 to 20)
#    0.000    1.714    1.429    4.714    0.000    3.143 
#    0.000    1.429    0.000    0.000    0.000    2.000 
#    0.000    0.000    0.000    0.000    0.000    0.000 
#
# Total GULP energy -156358.774189 kJ/mol
# GULP energy per Si atom -5584.241935 kJ/mol
# Density = 1.871053 g / cm^3
# Si number density = 18.753209 Si / 1000 Ang^3
#
#
#
# Elastic Constant Matrix: (Units=GPa)
#
#
# Indices 1 2 3 4 5 6 
#
# 1 66.6495 29.9230 7.7881 0.0001 3.6559 0.0000
# 2 29.9230 103.1072 22.2220 0.0004 13.5455 -0.0003
# 3 7.7881 22.2220 29.7748 0.0007 6.1720 -0.0004
# 4 0.0001 0.0004 0.0007 48.3437 0.0003 -13.8736
# 5 3.6559 13.5455 6.1720 0.0003 8.9529 -0.0003
# 6 0.0000 -0.0003 -0.0004 -13.8736 -0.0003 44.7131
#
#
#
# Elastic Compliance Matrix: (Units=1/GPa)
#
#
# Indices 1 2 3 4 5 6 
#
# 1 0.017282 -0.004935 -0.001076 0.000000 0.001151 0.000000
# 2 -0.004935 0.014548 -0.006326 0.000000 -0.015635 0.000000
# 3 -0.001076 -0.006326 0.042601 0.000000 -0.019358 0.000000
# 4 0.000000 0.000000 0.000000 0.022707 0.000000 0.007046
# 5 0.001151 -0.015635 -0.019358 0.000000 0.148226 0.000001
# 6 0.000000 0.000000 0.000000 0.007046 0.000001 0.024551
#
#
# Mechanical properties :
#
#
# Convention : Reuss Voigt Hill
#
# Bulk Modulus (GPa) = 20.09754 35.48862 27.79308
# Shear Modulus (GPa) = 16.06817 29.70851 22.88834
#
# Velocity S-wave (km/s) = 2.93033 3.98450 3.49736
# Velocity P-wave (km/s) = 4.71054 6.33509 5.58223
#
# Compressibility (1/GPa) = 0.04975733
#
# Stress axis : x y z
#
# Youngs Moduli (GPa) = 57.86373 68.73692 23.47372
#
# Poissons Ratio (x) = 0.33920 0.02526
# Poissons Ratio (y) = 0.28554 0.14850
# Poissons Ratio (z) = 0.06226 0.43484
#
# Static dielectric constant tensor:
#      x y z
#    x 1.666650 0.000000 -0.006280 
#    y 0.000000 1.656310 0.000000 
#    z -0.006280 0.000000 1.641550 
# 
# From -- ./inp_files/145471.got.cif
#   From: 2010.05.17/outbox.cif.g08.bks.cpg/sg12_73_cif.got.tgz:145471.got - 2010.06.03 13:09:07.
