data_PCOD9179576
_publ_section_title
;
Structure prediction by ZEFSAII (Michael W. Deem and Ramdas Pophale) SiO2 
 PCOD9179576
Probable space group: C 2/M
;
_chemical_formula_sum "Si O2"
_cell_formula_units_Z 64
_cell_length_a 25.725459
_cell_length_b 8.635112
_cell_length_c 19.032989
_cell_angle_alpha 90.000000
_cell_angle_beta 61.989379
_cell_angle_gamma 90.000000
_cell_volume 3732.761270
_symmetry_space_group_name_H-M "C 2/M"
_symmetry_group_IT_number 12
_symmetry_cell_setting 'monoclinic'
loop_
_space_group_symop_operation_xyz
x,y,z
-x,y,-z
-x,-y,-z
x,-y,z
1/2+x,1/2+y,z
1/2-x,1/2+y,-z
1/2-x,1/2-y,-z
1/2+x,1/2-y,z
loop_
_atom_site_type_symbol
_atom_site_label
_atom_site_fract_x
_atom_site_fract_y
_atom_site_fract_z
Si Si1 0.753493 0.814010 0.716929
Si Si2 0.909419 0.812634 0.494221
Si Si3 0.506099 0.689027 0.319367
Si Si4 0.884211 0.812128 0.668431
Si Si5 0.056483 0.322555 0.016124
Si Si6 0.523944 0.313232 0.817639
Si Si7 0.781797 0.315648 0.547925
Si Si8 0.131917 0.185167 0.848562
O O1 0.816126 0.761284 0.710704
O O2 0.753985 0.751905 0.636973
O O3 0.695559 0.754693 0.792355
O O4 0.753575 0.000000 0.715362
O O5 0.912465 0.770737 0.574662
O O6 0.849176 0.740205 0.504649
O O7 0.962833 0.765772 0.410317
O O8 0.904925 0.000000 0.494348
O O9 0.506284 0.500000 0.317584
O O10 0.571946 0.740731 0.298211
O O11 0.482668 0.740852 0.258410
O O12 0.883062 0.000000 0.671648
O O13 0.073110 0.500000 0.018992
O O14 0.106651 0.236787 0.940052
O O15 0.000000 0.321672 0.000000
O O16 0.031937 0.242379 0.101515
O O17 0.524770 0.500000 0.817584
O O18 0.583592 0.262379 0.820344
O O19 0.778194 0.500000 0.551700
O O20 0.750000 0.250000 0.500000
O O21 0.134828 0.000000 0.843626
#
# Coordination Sequence:
#
# PCOD9179576 Si02
#       8
#     8   8   8   8   8   8   8   8
#     4  10  20  34  52  75  99 131 171 209 245 292
#     4   9  17  30  50  74  98 129 171 211 248 294
#     4   9  16  28  50  76 101 130 166 210 251 296
#     4   8  15  29  49  73  99 130 172 212 246 285
#     4   9  17  31  50  71  98 132 163 199 246 300
#     4   9  18  30  47  75 104 130 160 199 251 303
#     4  11  22  35  49  68  99 136 169 207 254 299
#     4  10  19  31  50  76 104 133 163 202 246 302
#
# _framework density 17.145485000000001
#
# number of rings (size 3 to 8) (size 9 to 14) (size 15 to 20)
#    0.000    2.625    0.000    3.375    1.750    3.500 
#    0.000    0.625    0.000   11.250    0.000    0.000 
#    0.000    0.000    0.000    0.000    0.000    0.000 
#
# Total GULP energy -178361.879004 kJ/mol
# GULP energy per Si atom -5573.808719 kJ/mol
# Density = 1.710646 g / cm^3
# Si number density = 17.145485 Si / 1000 Ang^3
#
#
#
# Elastic Constant Matrix: (Units=GPa)
#
#
# Indices 1 2 3 4 5 6 
#
# 1 61.9497 13.9939 53.6625 0.0000 -5.8612 0.0000
# 2 13.9939 30.4877 19.6732 0.0000 -6.3447 -0.0001
# 3 53.6625 19.6732 99.7990 0.0000 -24.1777 0.0000
# 4 0.0000 0.0000 0.0000 25.2902 0.0000 -6.2645
# 5 -5.8612 -6.3447 -24.1777 0.0000 20.6001 0.0000
# 6 0.0000 -0.0001 0.0000 -6.2645 0.0000 13.2575
#
#
#
# Elastic Compliance Matrix: (Units=1/GPa)
#
#
# Indices 1 2 3 4 5 6 
#
# 1 0.034510 -0.005456 -0.021671 0.000000 -0.017296 0.000000
# 2 -0.005456 0.038683 -0.003048 0.000000 0.006784 0.000000
# 3 -0.021671 -0.003048 0.028718 0.000000 0.026601 0.000000
# 4 0.000000 0.000000 0.000000 0.044783 0.000000 0.021161
# 5 -0.017296 0.006784 0.026601 0.000000 0.076932 0.000000
# 6 0.000000 0.000000 0.000000 0.021161 0.000000 0.085428
#
#
# Mechanical properties :
#
#
# Convention : Reuss Voigt Hill
#
# Bulk Modulus (GPa) = 24.06090 40.76618 32.41354
# Shear Modulus (GPa) = 13.04600 18.82334 15.93467
#
# Velocity S-wave (km/s) = 2.76143 3.31699 3.05188
# Velocity P-wave (km/s) = 4.92252 6.20469 5.60042
#
# Compressibility (1/GPa) = 0.04156121
#
# Stress axis : x y z
#
# Youngs Moduli (GPa) = 28.97699 25.85095 34.82124
#
# Poissons Ratio (x) = 0.14103 0.75461
# Poissons Ratio (y) = 0.15809 0.10615
# Poissons Ratio (z) = 0.62796 0.07881
#
# Static dielectric constant tensor:
#      x y z
#    x 1.589580 0.000000 0.001490 
#    y 0.000000 1.580550 0.000000 
#    z 0.001490 0.000000 1.569390 
# 
# From -- ./inp_files/323651.got.cif
#   From: 2010.05.17/outbox.cif.g08.bks.cpg/sg12_162_cif.got.tgz:323651.got - 2010.06.03 13:09:07.
