data_PCOD9179586
_publ_section_title
;
Structure prediction by ZEFSAII (Michael W. Deem and Ramdas Pophale) SiO2 
 PCOD9179586
Probable space group: C 2/M
;
_chemical_formula_sum "Si O2"
_cell_formula_units_Z 64
_cell_length_a 20.283747
_cell_length_b 8.558080
_cell_length_c 23.241291
_cell_angle_alpha 90.000000
_cell_angle_beta 128.925968
_cell_angle_gamma 90.000000
_cell_volume 3138.637668
_symmetry_space_group_name_H-M "C 2/M"
_symmetry_group_IT_number 12
_symmetry_cell_setting 'monoclinic'
loop_
_space_group_symop_operation_xyz
x,y,z
-x,y,-z
-x,-y,-z
x,-y,z
1/2+x,1/2+y,z
1/2-x,1/2+y,-z
1/2-x,1/2-y,-z
1/2+x,1/2-y,z
loop_
_atom_site_type_symbol
_atom_site_label
_atom_site_fract_x
_atom_site_fract_y
_atom_site_fract_z
Si Si1 0.158150 0.316471 0.827830
Si Si2 0.157760 0.679089 0.958416
Si Si3 0.325873 0.685176 0.870150
Si Si4 0.237985 0.186395 0.708557
Si Si5 0.092080 0.316509 0.257496
Si Si6 0.043681 0.190625 0.582587
Si Si7 0.999261 0.184144 0.682398
Si Si8 0.490035 0.314835 0.903436
O O1 0.155922 0.500000 0.809148
O O2 0.124480 0.311118 0.874151
O O3 0.255791 0.259932 0.877601
O O4 0.096264 0.216290 0.754767
O O5 0.166110 0.500000 0.979465
O O6 0.086232 0.756917 0.958216
O O7 0.250000 0.750000 0.000000
O O8 0.336187 0.500000 0.885449
O O9 0.275041 0.719076 0.782946
O O10 0.419921 0.750368 0.909835
O O11 0.307140 0.206982 0.696002
O O12 0.142779 0.234415 0.640919
O O13 0.237582 0.000000 0.722858
O O14 0.073987 0.500000 0.238940
O O15 0.047799 0.225787 0.180352
O O16 0.058055 0.265856 0.300881
O O17 0.995354 0.240494 0.614340
O O18 0.000000 0.244769 0.500000
O O19 0.042050 0.000000 0.581747
O O20 0.982205 0.000000 0.674987
O O21 0.492697 0.500000 0.911652
#
# Coordination Sequence:
#
# PCOD9179586 Si02
#       8
#     8   8   8   8   8   8   8   8
#     4  10  20  35  55  79 107 138 174 217 267 313
#     4  11  23  38  56  78 108 146 180 216 266 317
#     4   9  18  32  53  80 107 135 169 218 267 312
#     4   9  17  31  51  75 102 138 178 214 260 315
#     4  10  19  31  50  76 107 137 171 219 267 314
#     4   9  18  33  52  76 106 140 179 221 266 316
#     4  11  20  31  53  80 104 135 179 225 264 309
#     4  10  19  33  54  80 108 137 174 215 261 317
#
# _framework density 20.391012
#
# number of rings (size 3 to 8) (size 9 to 14) (size 15 to 20)
#    0.000    2.125    2.500    1.500    0.000    1.500 
#    0.000    1.250    0.000    7.125    0.000    0.000 
#    0.000    0.000    0.000    0.000    0.000    0.000 
#
# Total GULP energy -178544.564230 kJ/mol
# GULP energy per Si atom -5579.517632 kJ/mol
# Density = 2.034460 g / cm^3
# Si number density = 20.391012 Si / 1000 Ang^3
#
#
#
# Elastic Constant Matrix: (Units=GPa)
#
#
# Indices 1 2 3 4 5 6 
#
# 1 165.0379 17.2035 24.6671 0.0000 0.4227 0.0000
# 2 17.2035 27.5870 1.6837 0.0000 -1.6530 0.0000
# 3 24.6671 1.6837 54.1173 0.0000 -4.2272 0.0000
# 4 0.0000 0.0000 0.0000 15.9166 0.0000 4.3766
# 5 0.4227 -1.6530 -4.2272 0.0000 26.3834 0.0000
# 6 0.0000 0.0000 0.0000 4.3766 0.0000 21.7675
#
#
#
# Elastic Compliance Matrix: (Units=1/GPa)
#
#
# Indices 1 2 3 4 5 6 
#
# 1 0.006965 -0.004206 -0.003112 0.000000 -0.000874 0.000000
# 2 -0.004206 0.038975 0.000912 0.000000 0.002655 0.000000
# 3 -0.003112 0.000912 0.020129 0.000000 0.003332 0.000000
# 4 0.000000 0.000000 0.000000 0.066504 0.000000 -0.013371
# 5 -0.000874 0.002655 0.003332 0.000000 0.038617 0.000000
# 6 0.000000 0.000000 0.000000 -0.013371 0.000000 0.048629
#
#
# Mechanical properties :
#
#
# Convention : Reuss Voigt Hill
#
# Bulk Modulus (GPa) = 18.77691 37.09453 27.93572
# Shear Modulus (GPa) = 19.96938 26.35935 23.16436
#
# Velocity S-wave (km/s) = 3.13281 3.59931 3.37413
# Velocity P-wave (km/s) = 4.72381 5.95856 5.37675
#
# Compressibility (1/GPa) = 0.05325690
#
# Stress axis : x y z
#
# Youngs Moduli (GPa) = 143.57466 25.65729 49.68001
#
# Poissons Ratio (x) = 0.10791 0.15461
# Poissons Ratio (y) = 0.60386 -0.04530
# Poissons Ratio (z) = 0.44682 -0.02340
#
# Static dielectric constant tensor:
#      x y z
#    x 2.116150 0.000000 0.106640 
#    y 0.000000 1.697120 0.000000 
#    z 0.106640 0.000000 1.768360 
# 
# From -- ./inp_files/346267.got.cif
#   From: 2010.05.17/outbox.cif.g08.bks.cpg/sg12_174_cif.got.tgz:346267.got - 2010.06.03 13:09:07.
