data_PCOD9179080
_publ_section_title
;
Structure prediction by ZEFSAII (Michael W. Deem and Ramdas Pophale) SiO2 
 PCOD9179080
Probable space group: C 2/M
;
_chemical_formula_sum "Si O2"
_cell_formula_units_Z 48
_cell_length_a 26.317122
_cell_length_b 7.463267
_cell_length_c 12.157136
_cell_angle_alpha 90.000000
_cell_angle_beta 88.815694
_cell_angle_gamma 90.000000
_cell_volume 2387.293771
_symmetry_space_group_name_H-M "C 2/M"
_symmetry_group_IT_number 12
_symmetry_cell_setting 'monoclinic'
loop_
_space_group_symop_operation_xyz
x,y,z
-x,y,-z
-x,-y,-z
x,-y,z
1/2+x,1/2+y,z
1/2-x,1/2+y,-z
1/2-x,1/2-y,-z
1/2+x,1/2-y,z
loop_
_atom_site_type_symbol
_atom_site_label
_atom_site_fract_x
_atom_site_fract_y
_atom_site_fract_z
Si Si1 0.810108 0.214832 0.002232
Si Si2 0.657899 0.280594 0.237714
Si Si3 0.743786 0.212669 0.629061
Si Si4 0.854284 0.208061 0.228341
Si Si5 0.560640 0.281783 0.378471
Si Si6 0.554351 0.280935 0.630711
O O1 0.834610 0.286224 0.113828
O O2 0.815441 0.000000 0.003531
O O3 0.750000 0.250000 0.000000
O O4 0.835470 0.279194 0.888158
O O5 0.657871 0.500000 0.238338
O O6 0.707026 0.222651 0.305666
O O7 0.606251 0.221589 0.298885
O O8 0.750000 0.250000 0.500000
O O9 0.692233 0.286795 0.683580
O O10 0.741166 0.000000 0.644209
O O11 0.904204 0.285093 0.284416
O O12 0.866180 0.000000 0.206046
O O13 0.561011 0.500000 0.377782
O O14 0.568210 0.227364 0.505229
O O15 0.503896 0.226648 0.346024
O O16 0.555323 0.500000 0.631198
#
# Coordination Sequence:
#
# PCOD9179080 Si02
#       6
#     8   8   8   8   8   8
#     4  10  19  32  48  67  95 130 164 199 239 284
#     4   9  17  29  45  67  95 126 160 197 239 285
#     4  11  21  32  48  71  99 126 157 197 242 291
#     4  10  19  31  48  71  98 125 160 201 239 284
#     4   8  13  24  43  65  93 125 156 193 240 291
#     4   8  14  25  43  68  94 123 157 195 241 287
#
# _framework density 20.106449999999999
#
# number of rings (size 3 to 8) (size 9 to 14) (size 15 to 20)
#    0.000    2.667    1.667    2.500    0.000    2.667 
#    0.000    0.833    0.000    5.000    0.000   11.667 
#    0.000    2.667    0.000    0.000    0.000    0.000 
#
# Total GULP energy -133975.111886 kJ/mol
# GULP energy per Si atom -5582.296329 kJ/mol
# Density = 2.006069 g / cm^3
# Si number density = 20.106450 Si / 1000 Ang^3
#
#
#
# Elastic Constant Matrix: (Units=GPa)
#
#
# Indices 1 2 3 4 5 6 
#
# 1 150.8784 3.6905 88.0745 0.0000 25.5006 0.0000
# 2 3.6905 60.2315 3.6185 0.0000 3.2876 0.0000
# 3 88.0745 3.6185 145.1943 0.0000 30.8360 0.0000
# 4 0.0000 0.0000 0.0000 4.2765 0.0000 -1.7309
# 5 25.5006 3.2876 30.8360 0.0000 35.8113 0.0000
# 6 0.0000 0.0000 0.0000 -1.7309 0.0000 11.0102
#
#
#
# Elastic Compliance Matrix: (Units=1/GPa)
#
#
# Indices 1 2 3 4 5 6 
#
# 1 0.010432 -0.000158 -0.005812 0.000000 -0.002409 0.000000
# 2 -0.000158 0.016690 -0.000022 0.000000 -0.001400 0.000000
# 3 -0.005812 -0.000022 0.011668 0.000000 -0.005906 0.000000
# 4 0.000000 0.000000 0.000000 0.249723 0.000000 0.039259
# 5 -0.002409 -0.001400 -0.005906 0.000000 0.034853 0.000000
# 6 0.000000 0.000000 0.000000 0.039259 0.000000 0.096997
#
#
# Mechanical properties :
#
#
# Convention : Reuss Voigt Hill
#
# Bulk Modulus (GPa) = 37.30903 60.78570 49.04736
# Shear Modulus (GPa) = 11.33056 27.61432 19.47244
#
# Velocity S-wave (km/s) = 2.37645 3.70997 3.11540
# Velocity P-wave (km/s) = 5.11137 6.97491 6.11455
#
# Compressibility (1/GPa) = 0.02680317
#
# Stress axis : x y z
#
# Youngs Moduli (GPa) = 95.86064 59.91581 85.70493
#
# Poissons Ratio (x) = 0.00950 0.49815
# Poissons Ratio (y) = 0.01519 0.00193
# Poissons Ratio (z) = 0.55718 0.00135
#
# Static dielectric constant tensor:
#      x y z
#    x 1.678600 0.000000 0.019850 
#    y 0.000000 1.833670 0.000000 
#    z 0.019850 0.000000 1.692180 
# 
# From -- ./inp_files/172305.got.cif
#   From: 2010.05.17/outbox.cif.g08.bks.cpg/sg12_87_cif.got.tgz:172305.got - 2010.06.03 13:09:07.
