data_PCOD9179236
_publ_section_title
;
Structure prediction by ZEFSAII (Michael W. Deem and Ramdas Pophale) SiO2 
 PCOD9179236
Probable space group: C 2/M
;
_chemical_formula_sum "Si O2"
_cell_formula_units_Z 40
_cell_length_a 23.453085
_cell_length_b 7.777184
_cell_length_c 11.913192
_cell_angle_alpha 90.000000
_cell_angle_beta 71.936034
_cell_angle_gamma 90.000000
_cell_volume 2065.850932
_symmetry_space_group_name_H-M "C 2/M"
_symmetry_group_IT_number 12
_symmetry_cell_setting 'monoclinic'
loop_
_space_group_symop_operation_xyz
x,y,z
-x,y,-z
-x,-y,-z
x,-y,z
1/2+x,1/2+y,z
1/2-x,1/2+y,-z
1/2-x,1/2-y,-z
1/2+x,1/2-y,z
loop_
_atom_site_type_symbol
_atom_site_label
_atom_site_fract_x
_atom_site_fract_y
_atom_site_fract_z
Si Si1 0.519929 0.199454 0.659958
Si Si2 0.672661 0.206863 0.939931
Si Si3 0.054503 0.710381 0.885938
Si Si4 0.807194 0.207445 0.819504
Si Si5 0.594005 0.698819 0.408045
O O1 0.541489 0.265980 0.766856
O O2 0.462190 0.292322 0.643406
O O3 0.571807 0.211052 0.534616
O O4 0.502432 0.000000 0.683729
O O5 0.617406 0.270449 0.899441
O O6 0.738525 0.271071 0.863028
O O7 0.673889 0.000000 0.929984
O O8 0.665264 0.248739 0.075871
O O9 0.056226 0.500000 0.883912
O O10 0.000000 0.761366 0.000000
O O11 0.848778 0.271224 0.693023
O O12 0.806133 0.000000 0.812259
O O13 0.605060 0.500000 0.429693
#
# Coordination Sequence:
#
# PCOD9179236 Si02
#       5
#     8   8   8   8   8
#     4  10  19  31  49  72  93 117 157 196 226 270
#     4   9  17  31  50  70  94 122 154 192 230 270
#     4   9  17  29  47  71  95 118 147 189 237 275
#     4   9  18  31  48  70  94 123 156 189 228 274
#     4  10  19  32  48  67  95 126 154 187 232 277
#
# _framework density 19.362483000000001
#
# number of rings (size 3 to 8) (size 9 to 14) (size 15 to 20)
#    0.000    2.600    0.000    3.600    0.000    3.200 
#    0.000    3.000    0.000    5.400    0.000    0.000 
#    0.000    0.000    0.000    0.000    0.000    0.000 
#
# Total GULP energy -111589.659385 kJ/mol
# GULP energy per Si atom -5579.482969 kJ/mol
# Density = 1.931841 g / cm^3
# Si number density = 19.362483 Si / 1000 Ang^3
#
#
#
# Elastic Constant Matrix: (Units=GPa)
#
#
# Indices 1 2 3 4 5 6 
#
# 1 92.2423 -3.5684 74.9190 0.0000 14.5920 0.0000
# 2 -3.5684 29.5353 -6.6475 0.0000 1.1135 0.0000
# 3 74.9190 -6.6475 140.8030 0.0000 1.4170 0.0000
# 4 0.0000 0.0000 0.0000 -76.4283 0.0000 45.4755
# 5 14.5920 1.1135 1.4170 0.0000 31.9241 0.0000
# 6 0.0000 0.0000 0.0000 45.4755 0.0000 -15.0503
#
#
#
# Elastic Compliance Matrix: (Units=1/GPa)
#
#
# Indices 1 2 3 4 5 6 
#
# 1 0.021567 0.000402 -0.011362 0.000000 -0.009367 0.000000
# 2 0.000402 0.034280 0.001419 0.000000 -0.001442 0.000000
# 3 -0.011362 0.001419 0.013169 0.000000 0.004559 0.000000
# 4 0.000000 0.000000 0.000000 0.016399 0.000000 0.049551
# 5 -0.009367 -0.001442 0.004559 0.000000 0.035454 0.000000
# 6 0.000000 0.000000 0.000000 0.049551 0.000000 0.083278
#
#
# Mechanical properties :
#
#
# Convention : Reuss Voigt Hill
#
# Bulk Modulus (GPa) = 20.02678 43.55410 31.79044
# Shear Modulus (GPa) = 20.84430 1.28092 11.06261
#
# Velocity S-wave (km/s) = 3.28461 0.81424 2.39287
# Velocity P-wave (km/s) = 4.97498 4.84013 4.90802
#
# Compressibility (1/GPa) = 0.04993314
#
# Stress axis : x y z
#
# Youngs Moduli (GPa) = 46.36799 29.17140 75.93710
#
# Poissons Ratio (x) = -0.01171 0.86280
# Poissons Ratio (y) = -0.01862 -0.10777
# Poissons Ratio (z) = 0.52683 -0.04140
#
# Static dielectric constant tensor:
#      x y z
#    x 1.668920 0.000000 -0.023600 
#    y 0.000000 1.710160 0.000000 
#    z -0.023600 0.000000 1.663600 
# 
# From -- ./inp_files/162524.got.cif
#   From: 2010.05.17/outbox.cif.g08.bks.cpg/sg12_82_cif.got.tgz:162524.got - 2010.06.03 13:09:07.
