data_PCOD9179664
_publ_section_title
;
Structure prediction by ZEFSAII (Michael W. Deem and Ramdas Pophale) SiO2 
 PCOD9179664
Probable space group: C 2/M
;
_chemical_formula_sum "Si O2"
_cell_formula_units_Z 40
_cell_length_a 10.669862
_cell_length_b 28.720952
_cell_length_c 7.112144
_cell_angle_alpha 90.000000
_cell_angle_beta 46.180747
_cell_angle_gamma 90.000000
_cell_volume 1572.574134
_symmetry_space_group_name_H-M "C 2/M"
_symmetry_group_IT_number 12
_symmetry_cell_setting 'monoclinic'
loop_
_space_group_symop_operation_xyz
x,y,z
-x,y,-z
-x,-y,-z
x,-y,z
1/2+x,1/2+y,z
1/2-x,1/2+y,-z
1/2-x,1/2-y,-z
1/2+x,1/2-y,z
loop_
_atom_site_type_symbol
_atom_site_label
_atom_site_fract_x
_atom_site_fract_y
_atom_site_fract_z
Si Si1 0.209037 0.298993 0.817012
Si Si2 0.794175 0.398441 0.192071
Si Si3 0.295130 0.901626 0.747314
Si Si4 0.295637 0.500000 0.710714
Si Si5 0.705386 0.000000 0.242882
Si Si6 0.796685 0.800093 0.170240
O O1 0.280223 0.348303 0.665441
O O2 0.281414 0.248948 0.673402
O O3 0.246461 0.300145 0.001686
O O4 0.000000 0.298828 0.000000
O O5 0.753745 0.449174 0.318360
O O6 0.752620 0.400150 0.013286
O O7 0.000000 0.394476 0.000000
O O8 0.500000 0.905705 0.500000
O O9 0.217243 0.951247 0.765469
O O10 0.253815 0.851265 0.706579
O O11 0.500000 0.500000 0.500000
O O12 0.219337 0.500000 0.001719
O O13 0.500000 0.000000 0.500000
O O14 0.000000 0.797063 0.000000
#
# Coordination Sequence:
#
# PCOD9179664 Si02
#       6
#     8   8   8   4   4   8
#     4   8  15  29  51  72  97 139 183 215 255 324
#     4   9  17  32  53  72  97 141 186 215 254 327
#     4   9  17  31  51  74 100 135 181 222 259 318
#     4  10  19  31  50  81 112 133 169 233 289 315
#     4   8  16  33  55  73 100 147 191 217 255 331
#     4   9  16  28  49  76 103 132 171 224 276 314
#
# _framework density 25.436002999999999
#
# number of rings (size 3 to 8) (size 9 to 14) (size 15 to 20)
#    0.000    3.200    0.000    0.300    0.000    0.000 
#    0.000    7.500    0.000   40.800    0.000    0.000 
#    0.000    0.000    0.000    0.000    0.000    0.000 
#
# Total GULP energy -111427.921049 kJ/mol
# GULP energy per Si atom -5571.396052 kJ/mol
# Density = 2.537811 g / cm^3
# Si number density = 25.436003 Si / 1000 Ang^3
#
#
#
# Elastic Constant Matrix: (Units=GPa)
#
#
# Indices 1 2 3 4 5 6 
#
# 1 111.4775 14.6686 38.9878 0.0000 21.4227 0.0000
# 2 14.6686 413.8368 10.3097 0.0000 -6.7747 0.0000
# 3 38.9878 10.3097 38.6496 0.0000 22.8171 0.0000
# 4 0.0000 0.0000 0.0000 -6.4548 0.0000 20.3850
# 5 21.4227 -6.7747 22.8171 0.0000 58.8273 0.0000
# 6 0.0000 0.0000 0.0000 20.3850 0.0000 187.1512
#
#
#
# Elastic Compliance Matrix: (Units=1/GPa)
#
#
# Indices 1 2 3 4 5 6 
#
# 1 0.013878 -0.000130 -0.014231 0.000000 0.000451 0.000000
# 2 -0.000130 0.002456 -0.000932 0.000000 0.000692 0.000000
# 3 -0.014231 -0.000932 0.048613 0.000000 -0.013780 0.000000
# 4 0.000000 0.000000 0.000000 -0.115271 0.000000 0.012556
# 5 0.000451 0.000692 -0.013780 0.000000 0.022259 0.000000
# 6 0.000000 0.000000 0.000000 0.012556 0.000000 0.003976
#
#
# Mechanical properties :
#
#
# Convention : Reuss Voigt Hill
#
# Bulk Modulus (GPa) = 29.10344 76.87734 52.99039
# Shear Modulus (GPa) = 278.55389 81.23791 179.89590
#
# Velocity S-wave (km/s) = 10.47613 5.65752 8.41893
# Velocity P-wave (km/s) = 12.56182 8.54202 10.74163
#
# Compressibility (1/GPa) = 0.03436020
#
# Stress axis : x y z
#
# Youngs Moduli (GPa) = 72.05680 407.23779 20.57064
#
# Poissons Ratio (x) = 0.05294 0.29274
# Poissons Ratio (y) = 0.00937 0.01918
# Poissons Ratio (z) = 1.02543 0.37965
#
# Static dielectric constant tensor:
#      x y z
#    x 1.942650 0.000000 0.002970 
#    y 0.000000 2.228150 0.000000 
#    z 0.002970 0.000000 1.924690 
# 
# From -- ./inp_files/52355.got.cif
#   From: 2010.05.17/outbox.cif.g08.bks.cpg/sg12_27_cif.got.tgz:52355.got - 2010.06.03 13:09:07.
