data_PCOD9179814
_publ_section_title
;
Structure prediction by ZEFSAII (Michael W. Deem and Ramdas Pophale) SiO2 
 PCOD9179814
Probable space group: C 2/M
;
_chemical_formula_sum "Si O2"
_cell_formula_units_Z 56
_cell_length_a 26.892102
_cell_length_b 7.607762
_cell_length_c 14.998783
_cell_angle_alpha 90.000000
_cell_angle_beta 124.404946
_cell_angle_gamma 90.000000
_cell_volume 2531.778509
_symmetry_space_group_name_H-M "C 2/M"
_symmetry_group_IT_number 12
_symmetry_cell_setting 'monoclinic'
loop_
_space_group_symop_operation_xyz
x,y,z
-x,y,-z
-x,-y,-z
x,-y,z
1/2+x,1/2+y,z
1/2-x,1/2+y,-z
1/2-x,1/2-y,-z
1/2+x,1/2-y,z
loop_
_atom_site_type_symbol
_atom_site_label
_atom_site_fract_x
_atom_site_fract_y
_atom_site_fract_z
Si Si1 0.514875 0.798829 0.419385
Si Si2 0.402938 0.703164 0.192865
Si Si3 0.846089 0.205516 0.959957
Si Si4 0.709588 0.787471 0.801510
Si Si5 0.882989 0.283692 0.609179
Si Si6 0.135253 0.700505 0.219082
Si Si7 0.772876 0.287922 0.381602
O O1 0.500000 0.715853 0.500000
O O2 0.454539 0.799209 0.299957
O O3 0.567469 0.722460 0.411297
O O4 0.534720 0.000000 0.458559
O O5 0.422396 0.500000 0.205721
O O6 0.340809 0.712848 0.185162
O O7 0.388264 0.778873 0.080202
O O8 0.777572 0.276483 0.891489
O O9 0.870658 0.217598 0.884453
O O10 0.839908 0.000000 0.975572
O O11 0.698321 0.746807 0.685975
O O12 0.708406 0.000000 0.808489
O O13 0.883802 0.500000 0.612732
O O14 0.894247 0.222277 0.721529
O O15 0.817665 0.231986 0.504904
O O16 0.115497 0.500000 0.189590
O O17 0.206667 0.707052 0.314085
O O18 0.765344 0.500000 0.377354
#
# Coordination Sequence:
#
# PCOD9179814 Si02
#       7
#     8   8   8   8   8   8   8
#     4  10  21  39  60  77  99 137 177 208 247 306
#     4  11  22  35  53  78 106 134 169 218 265 300
#     4   9  20  37  53  73 105 141 173 206 253 313
#     4   9  17  31  53  78 104 139 175 204 247 311
#     4   9  18  33  53  77 104 136 176 215 250 299
#     4  10  19  31  51  80 108 133 169 217 259 296
#     4   9  17  32  53  77 108 141 170 204 253 313
#
# _framework density 22.118839000000001
#
# number of rings (size 3 to 8) (size 9 to 14) (size 15 to 20)
#    0.000    2.429    0.000    3.429    0.000    6.000 
#    0.000    3.571    0.000    4.286    0.000    0.000 
#    0.000    0.000    0.000    0.000    0.000    0.000 
#
# Total GULP energy -156335.093111 kJ/mol
# GULP energy per Si atom -5583.396183 kJ/mol
# Density = 2.206850 g / cm^3
# Si number density = 22.118839 Si / 1000 Ang^3
#
#
#
# Elastic Constant Matrix: (Units=GPa)
#
#
# Indices 1 2 3 4 5 6 
#
# 1 78.8963 -8.8592 22.7841 0.0000 -27.2793 0.0000
# 2 -8.8592 42.9538 -9.1251 0.0000 1.5115 0.0000
# 3 22.7841 -9.1251 107.4980 0.0000 -17.8595 0.0000
# 4 0.0000 0.0000 0.0000 -11.5912 0.0000 -3.9346
# 5 -27.2793 1.5115 -17.8595 0.0000 24.0696 0.0000
# 6 0.0000 0.0000 0.0000 -3.9346 0.0000 8.9126
#
#
#
# Elastic Compliance Matrix: (Units=1/GPa)
#
#
# Indices 1 2 3 4 5 6 
#
# 1 0.021380 0.003513 -0.000279 0.000000 0.023804 0.000000
# 2 0.003513 0.024286 0.001968 0.000000 0.003916 0.000000
# 3 -0.000279 0.001968 0.010785 0.000000 0.007563 0.000000
# 4 0.000000 0.000000 0.000000 -0.075029 0.000000 -0.033123
# 5 0.023804 0.003916 0.007563 0.000000 0.073891 0.000000
# 6 0.000000 0.000000 0.000000 -0.033123 0.000000 0.097579
#
#
# Mechanical properties :
#
#
# Convention : Reuss Voigt Hill
#
# Bulk Modulus (GPa) = 14.95780 26.54973 20.75377
# Shear Modulus (GPa) = 30.34478 19.24807 24.79642
#
# Velocity S-wave (km/s) = 3.70793 2.95313 3.35185
# Velocity P-wave (km/s) = 5.01087 4.86388 4.93792
#
# Compressibility (1/GPa) = 0.06685473
#
# Stress axis : x y z
#
# Youngs Moduli (GPa) = 46.77189 41.17680 92.72047
#
# Poissons Ratio (x) = -0.14465 0.02583
# Poissons Ratio (y) = -0.16430 -0.18244
# Poissons Ratio (z) = 0.01303 -0.08102
#
# Static dielectric constant tensor:
#      x y z
#    x 1.803000 0.000000 -0.031290 
#    y 0.000000 1.854360 0.000000 
#    z -0.031290 0.000000 1.807600 
# 
# From -- ./inp_files/238923.got.cif
#   From: 2010.05.17/outbox.cif.g08.bks.cpg/sg12_120_cif.got.tgz:238923.got - 2010.06.03 13:09:07.
