data_PCOD9179366
_publ_section_title
;
Structure prediction by ZEFSAII (Michael W. Deem and Ramdas Pophale) SiO2 
 PCOD9179366
Probable space group: C 2/M
;
_chemical_formula_sum "Si O2"
_cell_formula_units_Z 56
_cell_length_a 29.702851
_cell_length_b 7.737152
_cell_length_c 18.188097
_cell_angle_alpha 90.000000
_cell_angle_beta 136.991362
_cell_angle_gamma 90.000000
_cell_volume 2851.149960
_symmetry_space_group_name_H-M "C 2/M"
_symmetry_group_IT_number 12
_symmetry_cell_setting 'monoclinic'
loop_
_space_group_symop_operation_xyz
x,y,z
-x,y,-z
-x,-y,-z
x,-y,z
1/2+x,1/2+y,z
1/2-x,1/2+y,-z
1/2-x,1/2-y,-z
1/2+x,1/2-y,z
loop_
_atom_site_type_symbol
_atom_site_label
_atom_site_fract_x
_atom_site_fract_y
_atom_site_fract_z
Si Si1 0.394354 0.207491 0.089022
Si Si2 0.411728 0.207513 0.274094
Si Si3 0.665739 0.793630 0.676456
Si Si4 0.455017 0.704870 0.754804
Si Si5 0.813329 0.205534 0.852851
Si Si6 0.562113 0.706477 0.428732
Si Si7 0.571410 0.287833 0.116860
O O1 0.387664 0.270209 0.165202
O O2 0.465959 0.270261 0.146884
O O3 0.395496 0.000000 0.090925
O O4 0.339152 0.266931 0.966377
O O5 0.370991 0.276197 0.294655
O O6 0.489624 0.245677 0.372250
O O7 0.405327 0.000000 0.266038
O O8 0.739668 0.723531 0.755271
O O9 0.619299 0.766050 0.550998
O O10 0.671883 0.000000 0.694263
O O11 0.442082 0.500000 0.737877
O O12 0.433344 0.776459 0.649561
O O13 0.423806 0.771891 0.792914
O O14 0.869146 0.273790 0.863805
O O15 0.810688 0.000000 0.836366
O O16 0.564522 0.500000 0.428047
O O17 0.571579 0.500000 0.116719
O O18 0.500000 0.235741 0.000000
#
# Coordination Sequence:
#
# PCOD9179366 Si02
#       7
#     8   8   8   8   8   8   8
#     4  10  19  31  49  75 104 130 160 204 254 295
#     4   9  19  35  53  73  99 133 169 203 246 297
#     4  10  21  36  52  70  99 138 172 203 242 295
#     4   9  17  32  53  76 100 128 164 205 247 292
#     4  10  20  34  52  74 100 133 171 203 241 298
#     4  10  20  33  53  78 101 127 166 212 250 286
#     4   9  15  28  54  78  96 125 166 205 240 290
#
# _framework density 19.641197999999999
#
# number of rings (size 3 to 8) (size 9 to 14) (size 15 to 20)
#    0.000    2.429    1.429    1.286    0.000    4.571 
#    0.000    2.143    0.000    0.000    0.000    0.000 
#    0.000    0.000    0.000    0.000    0.000    0.000 
#
# Total GULP energy -156232.814525 kJ/mol
# GULP energy per Si atom -5579.743376 kJ/mol
# Density = 1.959649 g / cm^3
# Si number density = 19.641198 Si / 1000 Ang^3
#
#
#
# Elastic Constant Matrix: (Units=GPa)
#
#
# Indices 1 2 3 4 5 6 
#
# 1 130.8939 6.9471 150.9072 0.0000 -4.7563 0.0000
# 2 6.9471 25.9673 -5.0801 0.0000 0.9419 0.0000
# 3 150.9072 -5.0801 118.4715 0.0000 7.5057 0.0000
# 4 0.0000 0.0000 0.0000 13.7301 0.0000 -4.7170
# 5 -4.7563 0.9419 7.5057 0.0000 20.0204 0.0000
# 6 0.0000 0.0000 0.0000 -4.7170 0.0000 8.7252
#
#
#
# Elastic Compliance Matrix: (Units=1/GPa)
#
#
# Indices 1 2 3 4 5 6 
#
# 1 -0.012526 0.007000 0.016866 0.000000 -0.009628 0.000000
# 2 0.007000 0.035048 -0.007595 0.000000 0.002862 0.000000
# 3 0.016866 -0.007595 -0.013977 0.000000 0.009604 0.000000
# 4 0.000000 0.000000 0.000000 0.089445 0.000000 0.048356
# 5 -0.009628 0.002862 0.009604 0.000000 0.043926 0.000000
# 6 0.000000 0.000000 0.000000 0.048356 0.000000 0.140753
#
#
# Mechanical properties :
#
#
# Convention : Reuss Voigt Hill
#
# Bulk Modulus (GPa) = 24.33888 64.54235 44.44062
# Shear Modulus (GPa) = 18.95209 16.66571 17.80890
#
# Velocity S-wave (km/s) = 3.10968 2.91608 3.01443
# Velocity P-wave (km/s) = 5.03111 6.65357 5.89840
#
# Compressibility (1/GPa) = 0.04108653
#
# Stress axis : x y z
#
# Youngs Moduli (GPa) = -79.83266 28.53261 -71.54738
#
# Poissons Ratio (x) = -0.19973 1.20671
# Poissons Ratio (y) = 0.55883 -0.54340
# Poissons Ratio (z) = 1.34645 0.21670
#
# Static dielectric constant tensor:
#      x y z
#    x 1.703150 0.000000 -0.032950 
#    y 0.000000 1.730130 0.000000 
#    z -0.032950 0.000000 1.655930 
# 
# From -- ./inp_files/281675.got.cif
#   From: 2010.05.17/outbox.cif.g08.bks.cpg/sg12_141_cif.got.tgz:281675.got - 2010.06.03 13:09:07.
