data_PCOD9179826
_publ_section_title
;
Structure prediction by ZEFSAII (Michael W. Deem and Ramdas Pophale) SiO2 
 PCOD9179826
Probable space group: C 2/M
;
_chemical_formula_sum "Si O2"
_cell_formula_units_Z 48
_cell_length_a 18.022858
_cell_length_b 14.061143
_cell_length_c 7.400526
_cell_angle_alpha 90.000000
_cell_angle_beta 94.301561
_cell_angle_gamma 90.000000
_cell_volume 1870.172989
_symmetry_space_group_name_H-M "C 2/M"
_symmetry_group_IT_number 12
_symmetry_cell_setting 'monoclinic'
loop_
_space_group_symop_operation_xyz
x,y,z
-x,y,-z
-x,-y,-z
x,-y,z
1/2+x,1/2+y,z
1/2-x,1/2+y,-z
1/2-x,1/2-y,-z
1/2+x,1/2-y,z
loop_
_atom_site_type_symbol
_atom_site_label
_atom_site_fract_x
_atom_site_fract_y
_atom_site_fract_z
Si Si1 0.074976 0.678591 0.618119
Si Si2 0.603517 0.599975 0.560081
Si Si3 0.260260 0.855292 0.424704
Si Si4 0.374320 0.771736 0.004679
Si Si5 0.237644 0.109949 0.988507
Si Si6 0.435205 0.398198 0.842713
O O1 0.085032 0.792866 0.611151
O O2 0.150166 0.628813 0.552696
O O3 0.079028 0.670522 0.838451
O O4 0.000000 0.650600 0.500000
O O5 0.592039 0.500000 0.664012
O O6 0.691064 0.596842 0.515212
O O7 0.555824 0.593186 0.367008
O O8 0.250000 0.750000 0.500000
O O9 0.243605 0.872658 0.207640
O O10 0.310988 0.841360 0.921974
O O11 0.330309 0.678140 0.080708
O O12 0.412867 0.713147 0.855123
O O13 0.236326 0.000000 0.943036
O O14 0.607187 0.500000 0.123682
O O15 0.500000 0.400952 0.000000
#
# Coordination Sequence:
#
# PCOD9179826 Si02
#       6
#     8   8   8   8   8   8
#     4  10  21  35  51  77 113 147 185 230 285 338
#     4  10  19  32  52  76 106 144 181 227 281 333
#     4   9  18  33  54  77 103 141 187 229 273 333
#     4  10  20  33  55  83 108 148 186 230 280 340
#     4  10  19  34  57  82 110 144 189 238 283 334
#     4  10  19  31  51  80 112 146 184 227 284 348
#
# _framework density 25.666074999999999
#
# number of rings (size 3 to 8) (size 9 to 14) (size 15 to 20)
#    0.000    2.167    1.667    2.000    0.000    1.667 
#    0.000    0.000    0.000   14.000    0.000    0.000 
#    0.000    0.000    0.000    0.000    0.000    0.000 
#
# Total GULP energy -133678.389918 kJ/mol
# GULP energy per Si atom -5569.932913 kJ/mol
# Density = 2.560766 g / cm^3
# Si number density = 25.666075 Si / 1000 Ang^3
#
#
#
# Elastic Constant Matrix: (Units=GPa)
#
#
# Indices 1 2 3 4 5 6 
#
# 1 104.1777 9.4381 22.0321 0.0000 20.6196 0.0000
# 2 9.4381 91.4061 4.9105 0.0000 2.3193 0.0000
# 3 22.0321 4.9105 87.1752 0.0000 21.6140 0.0000
# 4 0.0000 0.0000 0.0000 10.1634 0.0000 -4.0019
# 5 20.6196 2.3193 21.6140 0.0000 40.8692 0.0000
# 6 0.0000 0.0000 0.0000 -4.0019 0.0000 8.3831
#
#
#
# Elastic Compliance Matrix: (Units=1/GPa)
#
#
# Indices 1 2 3 4 5 6 
#
# 1 0.010931 -0.000927 -0.001561 0.000000 -0.004637 0.000000
# 2 -0.000927 0.011056 -0.000402 0.000000 0.000053 0.000000
# 3 -0.001561 -0.000402 0.013451 0.000000 -0.006304 0.000000
# 4 0.000000 0.000000 0.000000 0.121169 0.000000 0.057843
# 5 -0.004637 0.000053 -0.006304 0.000000 0.030138 0.000000
# 6 0.000000 0.000000 0.000000 0.057843 0.000000 0.146900
#
#
# Mechanical properties :
#
#
# Convention : Reuss Voigt Hill
#
# Bulk Modulus (GPa) = 33.71625 39.50228 36.60927
# Shear Modulus (GPa) = 14.31390 28.30836 21.31113
#
# Velocity S-wave (km/s) = 2.36412 3.32467 2.88466
# Velocity P-wave (km/s) = 4.54061 5.49201 5.03881
#
# Compressibility (1/GPa) = 0.02965928
#
# Stress axis : x y z
#
# Youngs Moduli (GPa) = 91.48446 90.44738 74.34345
#
# Poissons Ratio (x) = 0.08386 0.11603
# Poissons Ratio (y) = 0.08482 0.02985
# Poissons Ratio (z) = 0.14278 0.03632
#
# Static dielectric constant tensor:
#      x y z
#    x 2.248540 0.000000 -0.095960 
#    y 0.000000 11.443480 0.000000 
#    z -0.095960 0.000000 2.074610 
# 
# From -- ./inp_files/85952.got.cif
#   From: 2010.05.17/outbox.cif.g08.bks.cpg/sg12_43_cif.got.tgz:85952.got - 2010.06.03 13:09:07.
