data_PCOD9179816
_publ_section_title
;
Structure prediction by ZEFSAII (Michael W. Deem and Ramdas Pophale) SiO2 
 PCOD9179816
Probable space group: C 2/M
;
_chemical_formula_sum "Si O2"
_cell_formula_units_Z 64
_cell_length_a 20.636779
_cell_length_b 8.746476
_cell_length_c 20.793143
_cell_angle_alpha 90.000000
_cell_angle_beta 117.528565
_cell_angle_gamma 90.000000
_cell_volume 3328.214476
_symmetry_space_group_name_H-M "C 2/M"
_symmetry_group_IT_number 12
_symmetry_cell_setting 'monoclinic'
loop_
_space_group_symop_operation_xyz
x,y,z
-x,y,-z
-x,-y,-z
x,-y,z
1/2+x,1/2+y,z
1/2-x,1/2+y,-z
1/2-x,1/2-y,-z
1/2+x,1/2-y,z
loop_
_atom_site_type_symbol
_atom_site_label
_atom_site_fract_x
_atom_site_fract_y
_atom_site_fract_z
Si Si1 0.924266 0.816300 0.837561
Si Si2 0.995729 0.316369 0.602961
Si Si3 0.264869 0.182257 0.577421
Si Si4 0.879966 0.315850 0.437195
Si Si5 0.079289 0.183162 0.310910
Si Si6 0.577910 0.684758 0.956217
Si Si7 0.300422 0.316465 0.079773
Si Si8 0.680506 0.817457 0.115310
O O1 0.937460 0.771957 0.770028
O O2 0.850119 0.751644 0.833268
O O3 0.994110 0.767397 0.911962
O O4 0.921389 0.000000 0.839253
O O5 0.995594 0.500000 0.609530
O O6 0.071104 0.272558 0.602122
O O7 0.930256 0.278682 0.522667
O O8 0.978238 0.241118 0.662781
O O9 0.250000 0.250000 0.500000
O O10 0.197623 0.235879 0.591032
O O11 0.342006 0.247175 0.635985
O O12 0.267930 0.000000 0.575287
O O13 0.870516 0.500000 0.432414
O O14 0.083168 0.000000 0.316021
O O15 0.580629 0.500000 0.967067
O O16 0.618283 0.720860 0.906689
O O17 0.624308 0.761871 0.033904
O O18 0.295352 0.500000 0.076044
O O19 0.261085 0.266955 0.127611
O O20 0.250000 0.250000 0.000000
O O21 0.678886 0.000000 0.118658
#
# Coordination Sequence:
#
# PCOD9179816 Si02
#       8
#     8   8   8   8   8   8   8   8
#     4  10  22  37  52  73 104 144 182 217 265 319
#     4   9  18  34  57  82 110 141 172 215 270 323
#     4  12  23  36  57  84 110 140 178 221 268 321
#     4   9  18  34  57  85 112 139 173 216 267 321
#     4  11  23  38  55  77 109 146 185 229 273 325
#     4   9  17  33  55  75 100 138 180 219 262 316
#     4   8  15  28  48  74 101 130 166 212 262 307
#     4  10  19  31  51  80 109 136 173 223 269 313
#
# _framework density 19.229531000000001
#
# number of rings (size 3 to 8) (size 9 to 14) (size 15 to 20)
#    0.000    2.250    1.250    3.000    0.000    4.000 
#    0.000    2.500    0.000    1.500    0.000    0.000 
#    0.000    0.000    0.000    0.000    0.000    0.000 
#
# Total GULP energy -178495.784505 kJ/mol
# GULP energy per Si atom -5577.993266 kJ/mol
# Density = 1.918576 g / cm^3
# Si number density = 19.229531 Si / 1000 Ang^3
#
#
#
# Elastic Constant Matrix: (Units=GPa)
#
#
# Indices 1 2 3 4 5 6 
#
# 1 124.1984 20.2784 14.8998 0.0000 -32.6205 0.0000
# 2 20.2784 21.4462 12.7781 0.0000 -11.8348 0.0000
# 3 14.8998 12.7781 35.8256 0.0000 -19.7285 0.0000
# 4 0.0000 0.0000 0.0000 18.3894 0.0000 -7.4459
# 5 -32.6205 -11.8348 -19.7285 0.0000 31.7513 0.0000
# 6 0.0000 0.0000 0.0000 -7.4459 0.0000 32.7774
#
#
#
# Elastic Compliance Matrix: (Units=1/GPa)
#
#
# Indices 1 2 3 4 5 6 
#
# 1 0.011916 -0.007062 0.004340 0.000000 0.012307 0.000000
# 2 -0.007062 0.067531 -0.017153 0.000000 0.007258 0.000000
# 3 0.004340 -0.017153 0.047368 0.000000 0.027497 0.000000
# 4 0.000000 0.000000 0.000000 0.059887 0.000000 0.013604
# 5 0.012307 0.007258 0.027497 0.000000 0.063929 0.000000
# 6 0.000000 0.000000 0.000000 0.013604 0.000000 0.033599
#
#
# Mechanical properties :
#
#
# Convention : Reuss Voigt Hill
#
# Bulk Modulus (GPa) = 11.48550 30.82032 21.15291
# Shear Modulus (GPa) = 14.16418 25.48455 19.82436
#
# Velocity S-wave (km/s) = 2.71695 3.64439 3.21430
# Velocity P-wave (km/s) = 3.97848 5.81130 4.97993
#
# Compressibility (1/GPa) = 0.08706628
#
# Stress axis : x y z
#
# Youngs Moduli (GPa) = 83.91764 14.80804 21.11118
#
# Poissons Ratio (x) = 0.10457 -0.09162
# Poissons Ratio (y) = 0.59263 0.36212
# Poissons Ratio (z) = -0.36421 0.25400
#
# Static dielectric constant tensor:
#      x y z
#    x 1.711820 0.000000 -0.034890 
#    y 0.000000 1.643880 0.000000 
#    z -0.034890 0.000000 1.694760 
# 
# From -- ./inp_files/320066.got.cif
#   From: 2010.05.17/outbox.cif.g08.bks.cpg/sg12_161_cif.got.tgz:320066.got - 2010.06.03 13:09:07.
