data_PCOD9179591
_publ_section_title
;
Structure prediction by ZEFSAII (Michael W. Deem and Ramdas Pophale) SiO2 
 PCOD9179591
Probable space group: C 2/M
;
_chemical_formula_sum "Si O2"
_cell_formula_units_Z 56
_cell_length_a 24.560501
_cell_length_b 7.823931
_cell_length_c 14.591643
_cell_angle_alpha 90.000000
_cell_angle_beta 113.261408
_cell_angle_gamma 90.000000
_cell_volume 2576.001429
_symmetry_space_group_name_H-M "C 2/M"
_symmetry_group_IT_number 12
_symmetry_cell_setting 'monoclinic'
loop_
_space_group_symop_operation_xyz
x,y,z
-x,y,-z
-x,-y,-z
x,-y,z
1/2+x,1/2+y,z
1/2-x,1/2+y,-z
1/2-x,1/2-y,-z
1/2+x,1/2-y,z
loop_
_atom_site_type_symbol
_atom_site_label
_atom_site_fract_x
_atom_site_fract_y
_atom_site_fract_z
Si Si1 0.751667 0.294520 0.394075
Si Si2 0.939346 0.697300 0.327195
Si Si3 0.689744 0.800080 0.056441
Si Si4 0.321496 0.696958 0.155477
Si Si5 0.117631 0.709139 0.532596
Si Si6 0.639123 0.298461 0.205350
Si Si7 0.444965 0.206420 0.694517
O O1 0.750571 0.500000 0.386328
O O2 0.750000 0.250000 0.500000
O O3 0.815639 0.234016 0.400983
O O4 0.694761 0.227654 0.301769
O O5 0.957108 0.500000 0.354004
O O6 0.875619 0.704282 0.236435
O O7 0.927944 0.771565 0.420546
O O8 0.990481 0.768868 0.295764
O O9 0.755008 0.737846 0.132608
O O10 0.643618 0.779878 0.107681
O O11 0.697044 0.000000 0.038709
O O12 0.673551 0.708706 0.951465
O O13 0.326212 0.500000 0.187717
O O14 0.117213 0.500000 0.534530
O O15 0.098591 0.758662 0.417824
O O16 0.647285 0.500000 0.198845
O O17 0.580804 0.269762 0.226885
O O18 0.444940 0.000000 0.700373
#
# Coordination Sequence:
#
# PCOD9179591 Si02
#       7
#     8   8   8   8   8   8   8
#     4  10  19  31  50  76 108 143 179 223 272 321
#     4  10  20  35  57  82 109 147 193 233 272 325
#     4  10  21  38  62  87 111 143 180 222 274 338
#     4  10  21  38  60  87 115 141 174 226 284 331
#     4   9  17  32  54  79 107 144 189 233 272 317
#     4  11  22  35  54  83 116 149 184 229 283 329
#     4  10  20  35  55  78 110 153 195 231 268 324
#
# _framework density 21.739118000000001
#
# number of rings (size 3 to 8) (size 9 to 14) (size 15 to 20)
#    0.000    2.000    1.429    2.571    0.000    5.714 
#    0.000    2.143    0.000    6.000    0.000    0.000 
#    0.000    0.000    0.000    0.000    0.000    0.000 
#
# Total GULP energy -156408.274904 kJ/mol
# GULP energy per Si atom -5586.009818 kJ/mol
# Density = 2.168964 g / cm^3
# Si number density = 21.739118 Si / 1000 Ang^3
#
#
#
# Elastic Constant Matrix: (Units=GPa)
#
#
# Indices 1 2 3 4 5 6 
#
# 1 115.9590 -2.3043 16.5439 0.0000 -33.1967 0.0000
# 2 -2.3043 38.2048 -7.5964 0.0000 -0.2291 0.0000
# 3 16.5439 -7.5964 35.6035 0.0000 -23.6240 0.0000
# 4 0.0000 0.0000 0.0000 15.8843 0.0000 -2.0498
# 5 -33.1967 -0.2291 -23.6240 0.0000 36.5816 0.0000
# 6 0.0000 0.0000 0.0000 -2.0498 0.0000 18.7513
#
#
#
# Elastic Compliance Matrix: (Units=1/GPa)
#
#
# Indices 1 2 3 4 5 6 
#
# 1 0.011889 0.001475 0.003421 0.000000 0.013007 0.000000
# 2 0.001475 0.028547 0.011220 0.000000 0.008763 0.000000
# 3 0.003421 0.011220 0.054240 0.000000 0.038202 0.000000
# 4 0.000000 0.000000 0.000000 0.063856 0.000000 0.006980
# 5 0.013007 0.008763 0.038202 0.000000 0.063865 0.000000
# 6 0.000000 0.000000 0.000000 0.006980 0.000000 0.054093
#
#
# Mechanical properties :
#
#
# Convention : Reuss Voigt Hill
#
# Bulk Modulus (GPa) = 7.87972 22.56154 15.22063
# Shear Modulus (GPa) = 17.44842 26.45171 21.95007
#
# Velocity S-wave (km/s) = 2.83614 3.49202 3.18103
# Velocity P-wave (km/s) = 3.78913 5.16331 4.52865
#
# Compressibility (1/GPa) = 0.12690805
#
# Stress axis : x y z
#
# Youngs Moduli (GPa) = 84.11395 35.02977 18.43672
#
# Poissons Ratio (x) = -0.05168 -0.06307
# Poissons Ratio (y) = -0.12409 -0.20686
# Poissons Ratio (z) = -0.28776 -0.39303
#
# Static dielectric constant tensor:
#      x y z
#    x 1.820110 0.000000 -0.001830 
#    y 0.000000 1.792420 0.000000 
#    z -0.001830 0.000000 1.770910 
# 
# From -- ./inp_files/237779.got.cif
#   From: 2010.05.17/outbox.cif.g08.bks.cpg/sg12_119_cif.got.tgz:237779.got - 2010.06.03 13:09:07.
