data_PCOD9179749
_publ_section_title
;
Structure prediction by ZEFSAII (Michael W. Deem and Ramdas Pophale) SiO2 
 PCOD9179749
Probable space group: C 2/M
;
_chemical_formula_sum "Si O2"
_cell_formula_units_Z 56
_cell_length_a 21.100352
_cell_length_b 7.429574
_cell_length_c 16.510931
_cell_angle_alpha 90.000000
_cell_angle_beta 82.828982
_cell_angle_gamma 90.000000
_cell_volume 2568.116707
_symmetry_space_group_name_H-M "C 2/M"
_symmetry_group_IT_number 12
_symmetry_cell_setting 'monoclinic'
loop_
_space_group_symop_operation_xyz
x,y,z
-x,y,-z
-x,-y,-z
x,-y,z
1/2+x,1/2+y,z
1/2-x,1/2+y,-z
1/2-x,1/2-y,-z
1/2+x,1/2-y,z
loop_
_atom_site_type_symbol
_atom_site_label
_atom_site_fract_x
_atom_site_fract_y
_atom_site_fract_z
Si Si1 0.656719 0.709807 0.342694
Si Si2 0.072034 0.784874 0.501716
Si Si3 0.213746 0.278831 0.756731
Si Si4 0.063269 0.719995 0.037939
Si Si5 0.803711 0.714876 0.058063
Si Si6 0.949315 0.718193 0.773887
Si Si7 0.086326 0.715015 0.686510
O O1 0.668820 0.500000 0.358754
O O2 0.621394 0.787705 0.427186
O O3 0.724306 0.784917 0.302393
O O4 0.606555 0.721385 0.277033
O O5 0.092080 0.752391 0.590483
O O6 0.000000 0.714273 0.500000
O O7 0.068684 0.000000 0.489480
O O8 0.215023 0.500000 0.756252
O O9 0.215278 0.219268 0.849881
O O10 0.147716 0.220222 0.726017
O O11 0.063528 0.500000 0.037711
O O12 0.061329 0.775689 0.131970
O O13 0.127742 0.782170 0.983798
O O14 0.000000 0.776240 0.000000
O O15 0.810214 0.500000 0.064291
O O16 0.750000 0.750000 0.000000
O O17 0.949206 0.500000 0.772563
O O18 0.018091 0.781917 0.730099
O O19 0.084847 0.500000 0.697539
#
# Coordination Sequence:
#
# PCOD9179749 Si02
#       7
#     8   8   8   8   8   8   8
#     4  10  20  35  54  72  99 136 169 202 246 306
#     4  10  20  35  53  75 102 133 169 205 251 307
#     4   9  19  35  53  76 103 135 170 205 252 302
#     4   9  17  30  50  75 101 131 167 206 248 294
#     4  10  19  33  54  76 103 136 170 207 248 298
#     4  10  19  31  51  78 102 127 166 212 250 288
#     4  10  20  34  54  77 103 132 167 212 254 295
#
# _framework density 21.805864
#
# number of rings (size 3 to 8) (size 9 to 14) (size 15 to 20)
#    0.000    2.286    1.429    1.714    0.000    4.857 
#    0.000    1.429    0.000    3.429    0.000    0.000 
#    0.000    0.000    0.000    0.000    0.000    0.000 
#
# Total GULP energy -156499.252194 kJ/mol
# GULP energy per Si atom -5589.259007 kJ/mol
# Density = 2.175623 g / cm^3
# Si number density = 21.805864 Si / 1000 Ang^3
#
#
#
# Elastic Constant Matrix: (Units=GPa)
#
#
# Indices 1 2 3 4 5 6 
#
# 1 115.8216 -9.0533 37.3186 0.0000 -15.8642 0.0000
# 2 -9.0533 63.5079 1.4443 0.0000 -10.2720 0.0000
# 3 37.3186 1.4443 97.1153 0.0000 -10.6909 0.0000
# 4 0.0000 0.0000 0.0000 -41.1549 0.0000 22.5306
# 5 -15.8642 -10.2720 -10.6909 0.0000 39.9756 0.0000
# 6 0.0000 0.0000 0.0000 22.5306 0.0000 4.7239
#
#
#
# Elastic Compliance Matrix: (Units=1/GPa)
#
#
# Indices 1 2 3 4 5 6 
#
# 1 0.010495 0.002186 -0.003653 0.000000 0.003750 0.000000
# 2 0.002186 0.016889 -0.000534 0.000000 0.005064 0.000000
# 3 -0.003653 -0.000534 0.011884 0.000000 0.001591 0.000000
# 4 0.000000 0.000000 0.000000 -0.006729 0.000000 0.032093
# 5 0.003750 0.005064 0.001591 0.000000 0.028230 0.000000
# 6 0.000000 0.000000 0.000000 0.032093 0.000000 0.058622
#
#
# Mechanical properties :
#
#
# Convention : Reuss Voigt Hill
#
# Bulk Modulus (GPa) = 28.35517 37.31822 32.83669
# Shear Modulus (GPa) = 36.99634 17.15793 27.07714
#
# Velocity S-wave (km/s) = 4.12348 2.80813 3.52765
# Velocity P-wave (km/s) = 5.97515 5.25976 5.62883
#
# Compressibility (1/GPa) = 0.03526694
#
# Stress axis : x y z
#
# Youngs Moduli (GPa) = 95.27987 59.21032 84.14797
#
# Poissons Ratio (x) = -0.12942 0.30737
# Poissons Ratio (y) = -0.20826 0.04490
# Poissons Ratio (z) = 0.34804 0.03159
#
# Static dielectric constant tensor:
#      x y z
#    x 1.745990 0.000000 -0.042770 
#    y 0.000000 1.832690 0.000000 
#    z -0.042770 0.000000 1.726880 
# 
# From -- ./inp_files/230875.got.cif
#   From: 2010.05.17/outbox.cif.g08.bks.cpg/sg12_116_cif.got.tgz:230875.got - 2010.06.03 13:09:07.
