data_PCOD9179321
_publ_section_title
;
Structure prediction by ZEFSAII (Michael W. Deem and Ramdas Pophale) SiO2 
 PCOD9179321
Probable space group: C 2/M
;
_chemical_formula_sum "Si O2"
_cell_formula_units_Z 48
_cell_length_a 30.769374
_cell_length_b 9.249277
_cell_length_c 7.828218
_cell_angle_alpha 90.000000
_cell_angle_beta 68.102879
_cell_angle_gamma 90.000000
_cell_volume 2067.137987
_symmetry_space_group_name_H-M "C 2/M"
_symmetry_group_IT_number 12
_symmetry_cell_setting 'monoclinic'
loop_
_space_group_symop_operation_xyz
x,y,z
-x,y,-z
-x,-y,-z
x,-y,z
1/2+x,1/2+y,z
1/2-x,1/2+y,-z
1/2-x,1/2-y,-z
1/2+x,1/2-y,z
loop_
_atom_site_type_symbol
_atom_site_label
_atom_site_fract_x
_atom_site_fract_y
_atom_site_fract_z
Si Si1 0.472259 0.835802 0.223215
Si Si2 0.721536 0.829926 0.396159
Si Si3 0.394194 0.337438 0.171561
Si Si4 0.947483 0.834272 0.723970
Si Si5 0.636334 0.827256 0.312460
Si Si6 0.811150 0.167819 0.061245
O O1 0.421506 0.773678 0.250365
O O2 0.503014 0.738426 0.304444
O O3 0.469806 0.000000 0.288496
O O4 0.500000 0.836444 0.000000
O O5 0.750000 0.750000 0.500000
O O6 0.669961 0.777894 0.418129
O O7 0.756770 0.816597 0.182804
O O8 0.718126 0.000000 0.443248
O O9 0.399035 0.500000 0.234430
O O10 0.341052 0.311543 0.191908
O O11 0.420985 0.334675 0.947948
O O12 0.913638 0.746117 0.647520
O O13 0.951652 0.000000 0.663830
O O14 0.631581 0.000000 0.325385
O O15 0.667096 0.778481 0.103574
O O16 0.819939 0.000000 0.993760
#
# Coordination Sequence:
#
# PCOD9179321 Si02
#       6
#     8   8   8   8   8   8
#     4   9  15  22  35  59  92 124 154 191 233 277
#     4  10  22  37  52  72  98 128 163 202 244 291
#     4   8  14  24  39  60  89 123 156 190 230 279
#     4   9  16  26  41  62  91 127 161 192 233 284
#     4  10  19  31  49  74 100 126 161 204 245 285
#     4   9  18  33  51  72  98 129 164 200 240 288
#
# _framework density 23.220510000000001
#
# number of rings (size 3 to 8) (size 9 to 14) (size 15 to 20)
#    0.000    2.833    0.000    3.000    0.000    8.000 
#    0.000    0.000    0.000    0.000    0.000    1.167 
#    0.000    9.333    0.000    0.000    0.000    0.000 
#
# Total GULP energy -134167.354318 kJ/mol
# GULP energy per Si atom -5590.306430 kJ/mol
# Density = 2.316766 g / cm^3
# Si number density = 23.220510 Si / 1000 Ang^3
#
#
#
# Elastic Constant Matrix: (Units=GPa)
#
#
# Indices 1 2 3 4 5 6 
#
# 1 195.1649 80.6420 23.9113 0.0000 18.2317 0.0000
# 2 80.6420 105.9456 28.1934 0.0000 32.2266 0.0000
# 3 23.9113 28.1934 58.6314 0.0000 12.9758 0.0000
# 4 0.0000 0.0000 0.0000 13.0829 0.0000 12.5133
# 5 18.2317 32.2266 12.9758 0.0000 41.0311 0.0000
# 6 0.0000 0.0000 0.0000 12.5133 0.0000 33.0015
#
#
#
# Elastic Compliance Matrix: (Units=1/GPa)
#
#
# Indices 1 2 3 4 5 6 
#
# 1 0.007559 -0.006106 -0.000500 0.000000 0.001595 0.000000
# 2 -0.006106 0.018320 -0.004016 0.000000 -0.010406 0.000000
# 3 -0.000500 -0.004016 0.019832 0.000000 -0.002895 0.000000
# 4 0.000000 0.000000 0.000000 0.119931 0.000000 -0.045475
# 5 0.001595 -0.010406 -0.002895 0.000000 0.032752 0.000000
# 6 0.000000 0.000000 0.000000 -0.045475 0.000000 0.047545
#
#
# Mechanical properties :
#
#
# Convention : Reuss Voigt Hill
#
# Bulk Modulus (GPa) = 40.87124 69.47058 55.17091
# Shear Modulus (GPa) = 18.15950 32.55611 25.35780
#
# Velocity S-wave (km/s) = 2.79954 3.74845 3.30819
# Velocity P-wave (km/s) = 5.29995 6.97977 6.19704
#
# Compressibility (1/GPa) = 0.02446708
#
# Stress axis : x y z
#
# Youngs Moduli (GPa) = 132.29221 54.58367 50.42477
#
# Poissons Ratio (x) = 0.33328 0.02520
# Poissons Ratio (y) = 0.80775 0.20253
# Poissons Ratio (z) = 0.06610 0.21923
#
# Static dielectric constant tensor:
#      x y z
#    x 1.865190 0.000000 -0.044910 
#    y 0.000000 1.795050 0.000000 
#    z -0.044910 0.000000 1.923900 
# 
# From -- ./inp_files/108641.got.cif
#   From: 2010.05.17/outbox.cif.g08.bks.cpg/sg12_55_cif.got.tgz:108641.got - 2010.06.03 13:09:07.
