data_PCOD9179995
_publ_section_title
;
Structure prediction by ZEFSAII (Michael W. Deem and Ramdas Pophale) SiO2 
 PCOD9179995
Probable space group: C 2/M
;
_chemical_formula_sum "Si O2"
_cell_formula_units_Z 56
_cell_length_a 24.330673
_cell_length_b 9.373117
_cell_length_c 12.905520
_cell_angle_alpha 90.000000
_cell_angle_beta 107.905177
_cell_angle_gamma 90.000000
_cell_volume 2800.611522
_symmetry_space_group_name_H-M "C 2/M"
_symmetry_group_IT_number 12
_symmetry_cell_setting 'monoclinic'
loop_
_space_group_symop_operation_xyz
x,y,z
-x,y,-z
-x,-y,-z
x,-y,z
1/2+x,1/2+y,z
1/2-x,1/2+y,-z
1/2-x,1/2-y,-z
1/2+x,1/2-y,z
loop_
_atom_site_type_symbol
_atom_site_label
_atom_site_fract_x
_atom_site_fract_y
_atom_site_fract_z
Si Si1 0.794785 0.337866 0.094017
Si Si2 0.681265 0.831855 0.310156
Si Si3 0.115197 0.829155 0.453407
Si Si4 0.007223 0.837304 0.266506
Si Si5 0.424228 0.161973 0.088878
Si Si6 0.309847 0.333538 0.312331
Si Si7 0.904407 0.164507 0.876943
O O1 0.774381 0.500000 0.095123
O O2 0.856333 0.339871 0.072730
O O3 0.804675 0.264137 0.209821
O O4 0.750000 0.250000 0.000000
O O5 0.654995 0.757608 0.396425
O O6 0.750109 0.817953 0.341764
O O7 0.650699 0.753126 0.195618
O O8 0.666838 0.000000 0.299752
O O9 0.048645 0.798290 0.386501
O O10 0.136906 0.799336 0.581330
O O11 0.123120 0.000000 0.439260
O O12 0.050781 0.835047 0.192841
O O13 0.957046 0.730773 0.205411
O O14 0.986036 0.000000 0.267157
O O15 0.444329 0.000000 0.082386
O O16 0.431500 0.260034 0.992256
O O17 0.313946 0.500000 0.283496
O O18 0.889831 0.000000 0.891245
#
# Coordination Sequence:
#
# PCOD9179995 Si02
#       7
#     8   8   8   8   8   8   8
#     4  11  25  42  59  81 108 140 180 224 269 321
#     4  10  19  31  52  84 116 144 178 220 269 322
#     4   9  19  36  56  81 113 145 180 221 264 317
#     4   9  19  35  55  80 109 142 180 218 262 321
#     4  11  23  37  54  79 109 140 179 226 274 321
#     4  10  21  37  57  81 110 145 184 225 267 315
#     4  10  20  34  54  81 112 145 181 220 266 323
#
# _framework density 19.995633000000002
#
# number of rings (size 3 to 8) (size 9 to 14) (size 15 to 20)
#    0.000    2.000    0.000    4.286    0.000   12.000 
#    0.000    0.714    0.000    4.286    0.000    0.000 
#    0.000    0.000    0.000    0.000    0.000    0.000 
#
# Total GULP energy -156445.251621 kJ/mol
# GULP energy per Si atom -5587.330415 kJ/mol
# Density = 1.995012 g / cm^3
# Si number density = 19.995633 Si / 1000 Ang^3
#
#
#
# Elastic Constant Matrix: (Units=GPa)
#
#
# Indices 1 2 3 4 5 6 
#
# 1 29.5730 26.1587 21.5726 0.0000 22.6993 0.0000
# 2 26.1587 119.2282 81.4903 0.0000 23.5162 0.0000
# 3 21.5726 81.4903 137.6992 0.0000 34.9314 0.0000
# 4 0.0000 0.0000 0.0000 29.7085 0.0000 4.0114
# 5 22.6993 23.5162 34.9314 0.0000 32.5017 0.0000
# 6 0.0000 0.0000 0.0000 4.0114 0.0000 25.3193
#
#
#
# Elastic Compliance Matrix: (Units=1/GPa)
#
#
# Indices 1 2 3 4 5 6 
#
# 1 0.084555 -0.013546 0.009987 0.000000 -0.059986 0.000000
# 2 -0.013546 0.016322 -0.009543 0.000000 0.007907 0.000000
# 3 0.009987 -0.009543 0.015622 0.000000 -0.016860 0.000000
# 4 0.000000 0.000000 0.000000 0.034396 0.000000 -0.005449
# 5 -0.059986 0.007907 -0.016860 0.000000 0.085061 0.000000
# 6 0.000000 0.000000 0.000000 -0.005449 0.000000 0.040359
#
#
# Mechanical properties :
#
#
# Convention : Reuss Voigt Hill
#
# Bulk Modulus (GPa) = 11.07481 60.54928 35.81205
# Shear Modulus (GPa) = 15.03224 27.99117 21.51170
#
# Velocity S-wave (km/s) = 2.74483 3.74553 3.28353
# Velocity P-wave (km/s) = 3.94919 7.00374 5.68544
#
# Compressibility (1/GPa) = 0.09029499
#
# Stress axis : x y z
#
# Youngs Moduli (GPa) = 11.82666 61.26608 64.01065
#
# Poissons Ratio (x) = 0.82989 -0.63926
# Poissons Ratio (y) = 0.16020 0.61087
# Poissons Ratio (z) = -0.11811 0.58468
#
# Static dielectric constant tensor:
#      x y z
#    x 1.717680 0.000000 0.011770 
#    y 0.000000 1.688580 0.000000 
#    z 0.011770 0.000000 1.703940 
# 
# From -- ./inp_files/180994.got.cif
#   From: 2010.05.17/outbox.cif.g08.bks.cpg/sg12_91_cif.got.tgz:180994.got - 2010.06.03 13:09:07.
