data_PCOD9179561
_publ_section_title
;
Structure prediction by ZEFSAII (Michael W. Deem and Ramdas Pophale) SiO2 
 PCOD9179561
Probable space group: C 2/M
;
_chemical_formula_sum "Si O2"
_cell_formula_units_Z 48
_cell_length_a 19.101912
_cell_length_b 11.172862
_cell_length_c 9.651653
_cell_angle_alpha 90.000000
_cell_angle_beta 90.623544
_cell_angle_gamma 90.000000
_cell_volume 2059.763014
_symmetry_space_group_name_H-M "C 2/M"
_symmetry_group_IT_number 12
_symmetry_cell_setting 'monoclinic'
loop_
_space_group_symop_operation_xyz
x,y,z
-x,y,-z
-x,-y,-z
x,-y,z
1/2+x,1/2+y,z
1/2-x,1/2+y,-z
1/2-x,1/2-y,-z
1/2+x,1/2-y,z
loop_
_atom_site_type_symbol
_atom_site_label
_atom_site_fract_x
_atom_site_fract_y
_atom_site_fract_z
Si Si1 0.681061 0.371005 0.615807
Si Si2 0.189745 0.216201 0.315193
Si Si3 0.851013 0.373400 0.032076
Si Si4 0.186591 0.871024 0.000058
Si Si5 0.936866 0.365680 0.757636
Si Si6 0.980869 0.134547 0.336765
O O1 0.710670 0.500000 0.658911
O O2 0.732829 0.268351 0.667200
O O3 0.677665 0.364541 0.448540
O O4 0.602451 0.362280 0.665163
O O5 0.180579 0.153546 0.165887
O O6 0.133748 0.324308 0.323201
O O7 0.857629 0.500000 0.112465
O O8 0.850808 0.236879 0.079804
O O9 0.909595 0.375104 0.914780
O O10 0.770345 0.374889 0.972355
O O11 0.156243 0.000000 0.967650
O O12 0.961183 0.500000 0.717352
O O13 0.987476 0.251944 0.737174
O O14 0.000000 0.144085 0.500000
O O15 0.004425 0.000000 0.289662
#
# Coordination Sequence:
#
# PCOD9179561 Si02
#       6
#     8   8   8   8   8   8
#     4  10  20  34  48  69 102 136 166 202 247 294
#     4  10  19  31  50  75  99 132 167 203 245 297
#     4   8  16  29  46  72 103 130 160 202 250 293
#     4   9  16  28  48  73 100 129 163 204 247 294
#     4  10  19  32  51  76 103 130 162 204 249 294
#     4  10  20  35  52  71  98 133 170 206 244 292
#
# _framework density 23.303650999999999
#
# number of rings (size 3 to 8) (size 9 to 14) (size 15 to 20)
#    0.000    2.500    1.667    1.000    0.000    3.667 
#    0.000    1.667    0.000    1.000    0.000    5.833 
#    0.000    0.000    0.000    0.000    0.000    0.000 
#
# Total GULP energy -133835.585589 kJ/mol
# GULP energy per Si atom -5576.482733 kJ/mol
# Density = 2.325061 g / cm^3
# Si number density = 23.303651 Si / 1000 Ang^3
#
#
#
# Elastic Constant Matrix: (Units=GPa)
#
#
# Indices 1 2 3 4 5 6 
#
# 1 64.2841 51.8377 19.0503 0.0000 -15.1552 0.0000
# 2 51.8377 244.2996 45.2956 0.0000 -22.9128 0.0000
# 3 19.0503 45.2956 99.5449 0.0000 -1.9787 0.0000
# 4 0.0000 0.0000 0.0000 -17.4290 0.0000 10.7664
# 5 -15.1552 -22.9128 -1.9787 0.0000 30.1209 0.0000
# 6 0.0000 0.0000 0.0000 10.7664 0.0000 6.8946
#
#
#
# Elastic Compliance Matrix: (Units=1/GPa)
#
#
# Indices 1 2 3 4 5 6 
#
# 1 0.020688 -0.003225 -0.002337 0.000000 0.007803 0.000000
# 2 -0.003225 0.005320 -0.001758 0.000000 0.002309 0.000000
# 3 -0.002337 -0.001758 0.011257 0.000000 -0.001773 0.000000
# 4 0.000000 0.000000 0.000000 -0.029204 0.000000 0.045605
# 5 0.007803 0.002309 -0.001773 0.000000 0.038765 0.000000
# 6 0.000000 0.000000 0.000000 0.045605 0.000000 0.073826
#
#
# Mechanical properties :
#
#
# Convention : Reuss Voigt Hill
#
# Bulk Modulus (GPa) = 44.19432 71.16621 57.68026
# Shear Modulus (GPa) = 35.00568 23.38029 29.19298
#
# Velocity S-wave (km/s) = 3.87997 3.17091 3.54322
# Velocity P-wave (km/s) = 6.25123 6.63409 6.44551
#
# Compressibility (1/GPa) = 0.02262734
#
# Stress axis : x y z
#
# Youngs Moduli (GPa) = 48.33642 187.96800 88.82979
#
# Poissons Ratio (x) = 0.60615 0.20757
# Poissons Ratio (y) = 0.15587 0.15614
# Poissons Ratio (z) = 0.11295 0.33040
#
# Static dielectric constant tensor:
#      x y z
#    x 1.846680 0.000000 -0.009970 
#    y 0.000000 1.974440 0.000000 
#    z -0.009970 0.000000 1.894310 
# 
# From -- ./inp_files/164012.got.cif
#   From: 2010.05.17/outbox.cif.g08.bks.cpg/sg12_83_cif.got.tgz:164012.got - 2010.06.03 13:09:07.
