data_PCOD9179278
_publ_section_title
;
Structure prediction by ZEFSAII (Michael W. Deem and Ramdas Pophale) SiO2 
 PCOD9179278
Probable space group: C 2/M
;
_chemical_formula_sum "Si O2"
_cell_formula_units_Z 56
_cell_length_a 19.038757
_cell_length_b 9.442266
_cell_length_c 18.389613
_cell_angle_alpha 90.000000
_cell_angle_beta 113.687651
_cell_angle_gamma 90.000000
_cell_volume 3027.359254
_symmetry_space_group_name_H-M "C 2/M"
_symmetry_group_IT_number 12
_symmetry_cell_setting 'monoclinic'
loop_
_space_group_symop_operation_xyz
x,y,z
-x,y,-z
-x,-y,-z
x,-y,z
1/2+x,1/2+y,z
1/2-x,1/2+y,-z
1/2-x,1/2-y,-z
1/2+x,1/2-y,z
loop_
_atom_site_type_symbol
_atom_site_label
_atom_site_fract_x
_atom_site_fract_y
_atom_site_fract_z
Si Si1 0.172127 0.835668 0.061345
Si Si2 0.017796 0.336146 0.420849
Si Si3 0.825015 0.171817 0.497451
Si Si4 0.562027 0.660277 0.876400
Si Si5 0.135892 0.831657 0.655031
Si Si6 0.446496 0.840977 0.905079
Si Si7 0.304762 0.663004 0.170718
O O1 0.122681 0.759960 0.102899
O O2 0.253090 0.759865 0.098672
O O3 0.180884 0.000000 0.079282
O O4 0.124751 0.821111 0.967007
O O5 0.025219 0.500000 0.399110
O O6 0.095963 0.246236 0.441342
O O7 0.000000 0.340494 0.500000
O O8 0.941520 0.256300 0.362068
O O9 0.750000 0.250000 0.500000
O O10 0.830886 0.193747 0.411988
O O11 0.823863 0.000000 0.509818
O O12 0.531436 0.500000 0.872006
O O13 0.497046 0.774446 0.862637
O O14 0.608323 0.672017 0.821583
O O15 0.195266 0.799283 0.744514
O O16 0.118243 0.000000 0.652084
O O17 0.421462 0.000000 0.879631
O O18 0.500000 0.843138 0.000000
O O19 0.280038 0.500000 0.150841
#
# Coordination Sequence:
#
# PCOD9179278 Si02
#       7
#     8   8   8   8   8   8   8
#     4  10  19  31  49  73 100 131 169 211 254 297
#     4   9  17  31  53  78 102 129 161 196 237 290
#     4  10  19  33  55  81 106 131 164 204 244 290
#     4   9  18  32  50  72  98 129 167 211 254 298
#     4   9  19  35  53  74 102 135 167 202 247 296
#     4   9  17  30  49  70  92 121 160 206 252 298
#     4  10  20  34  51  72 101 134 167 206 252 298
#
# _framework density 18.497969000000001
#
# number of rings (size 3 to 8) (size 9 to 14) (size 15 to 20)
#    0.000    2.571    0.000    2.143    0.000    5.714 
#    0.000    1.429    0.000    0.000    0.000    0.000 
#    0.000    0.000    0.000    0.000    0.000    0.000 
#
# Total GULP energy -155996.418534 kJ/mol
# GULP energy per Si atom -5571.300662 kJ/mol
# Density = 1.845587 g / cm^3
# Si number density = 18.497969 Si / 1000 Ang^3
#
#
#
# Elastic Constant Matrix: (Units=GPa)
#
#
# Indices 1 2 3 4 5 6 
#
# 1 89.6840 55.3351 3.8336 0.0000 1.9610 0.0000
# 2 55.3351 92.6817 28.3533 0.0000 -0.4715 0.0000
# 3 3.8336 28.3533 25.5874 0.0000 -8.2655 0.0000
# 4 0.0000 0.0000 0.0000 14.8593 0.0000 4.4291
# 5 1.9610 -0.4715 -8.2655 0.0000 13.9682 0.0000
# 6 0.0000 0.0000 0.0000 4.4291 0.0000 35.0972
#
#
#
# Elastic Compliance Matrix: (Units=1/GPa)
#
#
# Indices 1 2 3 4 5 6 
#
# 1 0.022280 -0.019849 0.021548 0.000000 0.008953 0.000000
# 2 -0.019849 0.036003 -0.044048 0.000000 -0.022063 0.000000
# 3 0.021548 -0.044048 0.102868 0.000000 0.056359 0.000000
# 4 0.000000 0.000000 0.000000 0.069928 0.000000 -0.008825
# 5 0.008953 -0.022063 0.056359 0.000000 0.102939 0.000000
# 6 0.000000 0.000000 0.000000 -0.008825 0.000000 0.029606
#
#
# Mechanical properties :
#
#
# Convention : Reuss Voigt Hill
#
# Bulk Modulus (GPa) = 13.07970 42.55522 27.81746
# Shear Modulus (GPa) = 10.55283 20.81367 15.68325
#
# Velocity S-wave (km/s) = 2.39108 3.35802 2.91492
# Velocity P-wave (km/s) = 3.83526 6.17174 5.13807
#
# Compressibility (1/GPa) = 0.07645434
#
# Stress axis : x y z
#
# Youngs Moduli (GPa) = 44.88325 27.77539 9.72117
#
# Poissons Ratio (x) = 0.55130 -0.20947
# Poissons Ratio (y) = 0.89087 0.42820
# Poissons Ratio (z) = -0.96715 1.22345
#
# Static dielectric constant tensor:
#      x y z
#    x 1.652370 0.000000 -0.004950 
#    y 0.000000 1.631130 0.000000 
#    z -0.004950 0.000000 1.661590 
# 
# From -- ./inp_files/314436.got.cif
#   From: 2010.05.17/outbox.cif.g08.bks.cpg/sg12_158_cif.got.tgz:314436.got - 2010.06.03 13:09:07.
