data_PCOD9179482
_publ_section_title
;
Structure prediction by ZEFSAII (Michael W. Deem and Ramdas Pophale) SiO2 
 PCOD9179482
Probable space group: C 2/M
;
_chemical_formula_sum "Si O2"
_cell_formula_units_Z 64
_cell_length_a 18.286204
_cell_length_b 7.630473
_cell_length_c 22.077413
_cell_angle_alpha 90.000000
_cell_angle_beta 90.686694
_cell_angle_gamma 90.000000
_cell_volume 3080.292867
_symmetry_space_group_name_H-M "C 2/M"
_symmetry_group_IT_number 12
_symmetry_cell_setting 'monoclinic'
loop_
_space_group_symop_operation_xyz
x,y,z
-x,y,-z
-x,-y,-z
x,-y,z
1/2+x,1/2+y,z
1/2-x,1/2+y,-z
1/2-x,1/2-y,-z
1/2+x,1/2-y,z
loop_
_atom_site_type_symbol
_atom_site_label
_atom_site_fract_x
_atom_site_fract_y
_atom_site_fract_z
Si Si1 0.703728 0.208980 0.439679
Si Si2 0.796629 0.789826 0.059674
Si Si3 0.965795 0.297001 0.059926
Si Si4 0.711978 0.714876 0.679406
Si Si5 0.035673 0.794749 0.439749
Si Si6 0.457766 0.288577 0.319493
Si Si7 0.776595 0.800281 0.189595
Si Si8 0.944913 0.292462 0.188513
O O1 0.750000 0.250000 0.500000
O O2 0.743813 0.272663 0.379048
O O3 0.622444 0.282087 0.443943
O O4 0.697794 0.000000 0.434778
O O5 0.877956 0.713070 0.054363
O O6 0.761077 0.724071 0.122803
O O7 0.804258 0.000000 0.065525
O O8 0.750000 0.750000 0.000000
O O9 0.990161 0.500000 0.060992
O O10 0.983046 0.226655 0.127424
O O11 0.000000 0.214585 0.000000
O O12 0.712575 0.500000 0.680848
O O13 0.626882 0.767842 0.673540
O O14 0.742991 0.777053 0.744900
O O15 0.000000 0.716749 0.500000
O O16 0.004819 0.721766 0.376345
O O17 0.014409 0.000000 0.438678
O O18 0.458545 0.500000 0.319001
O O19 0.483599 0.232419 0.253058
O O20 0.865662 0.798890 0.192274
O O21 0.749146 0.000000 0.189068
O O22 0.930624 0.500000 0.180671
#
# Coordination Sequence:
#
# PCOD9179482 Si02
#       8
#     8   8   8   8   8   8   8   8
#     4  11  22  36  55  78 105 134 166 206 249 295
#     4  10  19  31  50  74 100 131 167 209 252 297
#     4   9  18  33  51  71  98 133 171 209 249 295
#     4   8  15  31  54  75  94 125 167 203 240 292
#     4  10  21  38  57  75 100 136 173 206 244 292
#     4   9  17  32  54  74  96 129 166 202 244 298
#     4   8  15  30  50  69  92 128 170 202 238 295
#     4   9  16  27  47  74 100 125 159 205 250 292
#
# _framework density 20.777242999999999
#
# number of rings (size 3 to 8) (size 9 to 14) (size 15 to 20)
#    0.000    2.750    0.000    2.625    0.000    4.000 
#    0.000    8.750    0.000    6.000    0.000    0.000 
#    0.000    0.000    0.000    0.000    0.000    0.000 
#
# Total GULP energy -178356.735617 kJ/mol
# GULP energy per Si atom -5573.647988 kJ/mol
# Density = 2.072995 g / cm^3
# Si number density = 20.777243 Si / 1000 Ang^3
#
#
#
# Elastic Constant Matrix: (Units=GPa)
#
#
# Indices 1 2 3 4 5 6 
#
# 1 48.0977 -12.6869 71.1229 0.0000 -0.5256 0.0000
# 2 -12.6869 50.8557 -1.7025 0.0000 -2.0194 0.0000
# 3 71.1229 -1.7025 264.7938 0.0000 -4.4606 0.0000
# 4 0.0000 0.0000 0.0000 37.2061 0.0000 5.6166
# 5 -0.5256 -2.0194 -4.4606 0.0000 39.0884 0.0000
# 6 0.0000 0.0000 0.0000 5.6166 0.0000 15.4253
#
#
#
# Elastic Compliance Matrix: (Units=1/GPa)
#
#
# Indices 1 2 3 4 5 6 
#
# 1 0.038385 0.009226 -0.010254 0.000000 -0.000177 0.000000
# 2 0.009226 0.021927 -0.002320 0.000000 0.000992 0.000000
# 3 -0.010254 -0.002320 0.006524 0.000000 0.000487 0.000000
# 4 0.000000 0.000000 0.000000 0.028441 0.000000 -0.010356
# 5 -0.000177 0.000992 0.000487 0.000000 0.025687 0.000000
# 6 0.000000 0.000000 0.000000 -0.010356 0.000000 0.068599
#
#
# Mechanical properties :
#
#
# Convention : Reuss Voigt Hill
#
# Bulk Modulus (GPa) = 16.62823 53.02379 34.82601
# Shear Modulus (GPa) = 23.11540 38.81155 30.96348
#
# Velocity S-wave (km/s) = 3.33909 4.32671 3.86458
# Velocity P-wave (km/s) = 4.78398 7.10887 6.05898
#
# Compressibility (1/GPa) = 0.06013868
#
# Stress axis : x y z
#
# Youngs Moduli (GPa) = 26.05184 45.60654 153.28160
#
# Poissons Ratio (x) = -0.42075 1.57172
# Poissons Ratio (y) = -0.24034 0.35566
# Poissons Ratio (z) = 0.26713 0.10582
#
# Static dielectric constant tensor:
#      x y z
#    x 1.619440 0.000000 -0.041530 
#    y 0.000000 1.810030 0.000000 
#    z -0.041530 0.000000 1.802590 
# 
# From -- ./inp_files/314126.got.cif
#   From: 2010.05.17/outbox.cif.g08.bks.cpg/sg12_158_cif.got.tgz:314126.got - 2010.06.03 13:09:07.
