data_PCOD9179312
_publ_section_title
;
Structure prediction by ZEFSAII (Michael W. Deem and Ramdas Pophale) SiO2 
 PCOD9179312
Probable space group: C 2/M
;
_chemical_formula_sum "Si O2"
_cell_formula_units_Z 64
_cell_length_a 14.655633
_cell_length_b 7.737709
_cell_length_c 30.172993
_cell_angle_alpha 90.000000
_cell_angle_beta 75.260828
_cell_angle_gamma 90.000000
_cell_volume 3309.055654
_symmetry_space_group_name_H-M "C 2/M"
_symmetry_group_IT_number 12
_symmetry_cell_setting 'monoclinic'
loop_
_space_group_symop_operation_xyz
x,y,z
-x,y,-z
-x,-y,-z
x,-y,z
1/2+x,1/2+y,z
1/2-x,1/2+y,-z
1/2-x,1/2-y,-z
1/2+x,1/2-y,z
loop_
_atom_site_type_symbol
_atom_site_label
_atom_site_fract_x
_atom_site_fract_y
_atom_site_fract_z
Si Si1 0.005290 0.202569 0.950177
Si Si2 0.467640 0.704732 0.374169
Si Si3 0.644592 0.290843 0.697477
Si Si4 0.587525 0.708809 0.801785
Si Si5 0.192976 0.705142 0.876811
Si Si6 0.598108 0.711948 0.123820
Si Si7 0.170893 0.793072 0.376244
Si Si8 0.215283 0.706023 0.553106
O O1 0.110346 0.216578 0.917304
O O2 0.935617 0.272562 0.920678
O O3 0.980872 0.000000 0.957137
O O4 0.000000 0.279626 0.000000
O O5 0.480290 0.500000 0.365512
O O6 0.422730 0.774292 0.334025
O O7 0.568699 0.777506 0.375741
O O8 0.388578 0.727710 0.421606
O O9 0.640108 0.500000 0.698190
O O10 0.613810 0.228664 0.749637
O O11 0.750460 0.241542 0.670652
O O12 0.585951 0.500000 0.800940
O O13 0.662858 0.760755 0.829891
O O14 0.484653 0.765732 0.832063
O O15 0.191167 0.500000 0.884520
O O16 0.297601 0.768988 0.875544
O O17 0.597907 0.500000 0.123708
O O18 0.214208 0.726069 0.417223
O O19 0.161652 0.000000 0.382394
O O20 0.211727 0.500000 0.557587
O O21 0.250000 0.750000 0.500000
#
# Coordination Sequence:
#
# PCOD9179312 Si02
#       8
#     8   8   8   8   8   8   8   8
#     4   9  18  34  53  70  93 128 162 192 236 293
#     4   9  18  34  53  73  97 128 163 198 240 291
#     4   9  18  32  52  74  96 125 162 200 237 281
#     4   9  18  34  51  69  97 131 162 193 234 288
#     4  10  19  31  49  73  98 125 159 201 241 277
#     4   8  16  31  49  69  96 127 158 193 236 285
#     4   9  19  34  52  73  99 128 159 198 243 287
#     4  10  20  34  51  73 100 130 162 200 242 284
#
# _framework density 19.340866999999999
#
# number of rings (size 3 to 8) (size 9 to 14) (size 15 to 20)
#    0.000    2.875    0.000    1.500    0.000    3.750 
#    0.000   10.000    0.000    0.000    0.000    0.000 
#    0.000    0.000    0.000    0.000    0.000    0.000 
#
# Total GULP energy -178441.846408 kJ/mol
# GULP energy per Si atom -5576.307700 kJ/mol
# Density = 1.929685 g / cm^3
# Si number density = 19.340867 Si / 1000 Ang^3
#
#
#
# Elastic Constant Matrix: (Units=GPa)
#
#
# Indices 1 2 3 4 5 6 
#
# 1 163.1431 -4.7406 59.9978 0.0000 7.5028 0.0000
# 2 -4.7406 21.3638 -13.4362 0.0000 4.7733 0.0000
# 3 59.9978 -13.4362 139.9022 0.0000 0.9903 0.0000
# 4 0.0000 0.0000 0.0000 17.2709 0.0000 -3.4368
# 5 7.5028 4.7733 0.9903 0.0000 5.9298 0.0000
# 6 0.0000 0.0000 0.0000 -3.4368 0.0000 16.2002
#
#
#
# Elastic Compliance Matrix: (Units=1/GPa)
#
#
# Indices 1 2 3 4 5 6 
#
# 1 0.007842 0.002340 -0.003058 0.000000 -0.011295 0.000000
# 2 0.002340 0.062920 0.005425 0.000000 -0.054517 0.000000
# 3 -0.003058 0.005425 0.008995 0.000000 -0.002000 0.000000
# 4 0.000000 0.000000 0.000000 0.060453 0.000000 0.012825
# 5 -0.011295 -0.054517 -0.002000 0.000000 0.227152 0.000000
# 6 0.000000 0.000000 0.000000 0.012825 0.000000 0.064448
#
#
# Mechanical properties :
#
#
# Convention : Reuss Voigt Hill
#
# Bulk Modulus (GPa) = 11.21440 45.33900 28.27670
# Shear Modulus (GPa) = 11.05903 26.71937 18.88920
#
# Velocity S-wave (km/s) = 2.39382 3.72088 3.12853
# Velocity P-wave (km/s) = 3.66761 6.47711 5.26328
#
# Compressibility (1/GPa) = 0.08917108
#
# Stress axis : x y z
#
# Youngs Moduli (GPa) = 127.52243 15.89312 111.17810
#
# Poissons Ratio (x) = -0.03720 0.34001
# Poissons Ratio (y) = -0.29845 -0.60315
# Poissons Ratio (z) = 0.39000 -0.08622
#
# Static dielectric constant tensor:
#      x y z
#    x 1.664750 0.000000 0.025540 
#    y 0.000000 1.712470 0.000000 
#    z 0.025540 0.000000 1.649440 
# 
# From -- ./inp_files/359798.got.cif
#   From: 2010.05.17/outbox.cif.g08.bks.cpg/sg12_180_cif.got.tgz:359798.got - 2010.06.03 13:09:07.
