data_PCOD9179786
_publ_section_title
;
Structure prediction by ZEFSAII (Michael W. Deem and Ramdas Pophale) SiO2 
 PCOD9179786
Probable space group: C 2/M
;
_chemical_formula_sum "Si O2"
_cell_formula_units_Z 48
_cell_length_a 5.304434
_cell_length_b 14.417926
_cell_length_c 29.105041
_cell_angle_alpha 90.000000
_cell_angle_beta 105.712795
_cell_angle_gamma 90.000000
_cell_volume 2142.742745
_symmetry_space_group_name_H-M "C 2/M"
_symmetry_group_IT_number 12
_symmetry_cell_setting 'monoclinic'
loop_
_space_group_symop_operation_xyz
x,y,z
-x,y,-z
-x,-y,-z
x,-y,z
1/2+x,1/2+y,z
1/2-x,1/2+y,-z
1/2-x,1/2-y,-z
1/2+x,1/2-y,z
loop_
_atom_site_type_symbol
_atom_site_label
_atom_site_fract_x
_atom_site_fract_y
_atom_site_fract_z
Si Si1 0.218905 0.353878 0.479049
Si Si2 0.395502 0.887467 0.630966
Si Si3 0.522746 0.613090 0.313525
Si Si4 0.830347 0.889165 0.846867
Si Si5 0.250695 0.886374 0.793883
Si Si6 0.130046 0.809236 0.050638
O O1 0.500000 0.398739 0.500000
O O2 0.250000 0.250000 0.500000
O O3 0.000000 0.398467 0.500000
O O4 0.140284 0.351617 0.422235
O O5 0.157673 0.859674 0.652349
O O6 0.676208 0.859138 0.665371
O O7 0.394240 0.000000 0.628271
O O8 0.521755 0.500000 0.312203
O O9 0.390292 0.644798 0.259697
O O10 0.551500 0.856545 0.813090
O O11 0.850837 0.863841 0.901107
O O12 0.077538 0.856752 0.829079
O O13 0.828960 0.000000 0.842829
O O14 0.252589 0.000000 0.793183
O O15 0.417082 0.772128 0.050791
O O16 0.000000 0.858959 0.000000
#
# Coordination Sequence:
#
# PCOD9179786 Si02
#       6
#     8   8   8   8   8   8
#     4  10  21  36  52  73  95 132 172 201 250 309
#     4  10  19  31  51  79 105 130 166 211 257 300
#     4   9  17  30  49  78 110 135 163 208 260 312
#     4  10  19  32  54  84 110 143 184 228 274 322
#     4   9  17  30  50  80 113 138 172 215 268 329
#     4  10  21  37  55  78 107 150 193 228 279 332
#
# _framework density 22.401195000000001
#
# number of rings (size 3 to 8) (size 9 to 14) (size 15 to 20)
#    0.000    2.333    0.000    3.000    0.000    5.000 
#    0.000    0.000    0.000    6.000   86.667    0.000 
#    0.000    0.000    0.000    0.000    0.000    0.000 
#
# Total GULP energy -134183.186816 kJ/mol
# GULP energy per Si atom -5590.966117 kJ/mol
# Density = 2.235021 g / cm^3
# Si number density = 22.401195 Si / 1000 Ang^3
#
#
#
# Elastic Constant Matrix: (Units=GPa)
#
#
# Indices 1 2 3 4 5 6 
#
# 1 107.5411 -12.6990 -20.1640 0.0000 0.5070 0.0000
# 2 -12.6990 69.7935 -8.9845 0.0000 2.9486 0.0000
# 3 -20.1640 -8.9845 78.0898 0.0000 0.5565 0.0000
# 4 0.0000 0.0000 0.0000 33.5090 0.0000 -7.3682
# 5 0.5070 2.9486 0.5565 0.0000 43.8671 0.0000
# 6 0.0000 0.0000 0.0000 -7.3682 0.0000 -15.2256
#
#
#
# Elastic Compliance Matrix: (Units=1/GPa)
#
#
# Indices 1 2 3 4 5 6 
#
# 1 0.010100 0.002219 0.002865 0.000000 -0.000302 0.000000
# 2 0.002219 0.015075 0.002315 0.000000 -0.001068 0.000000
# 3 0.002865 0.002315 0.013815 0.000000 -0.000364 0.000000
# 4 0.000000 0.000000 0.000000 0.026973 0.000000 -0.013053
# 5 -0.000302 -0.001068 -0.000364 0.000000 0.022876 0.000000
# 6 0.000000 0.000000 0.000000 -0.013053 0.000000 -0.059362
#
#
# Mechanical properties :
#
#
# Convention : Reuss Voigt Hill
#
# Bulk Modulus (GPa) = 18.59139 19.08105 18.83622
# Shear Modulus (GPa) = 153.34819 32.24823 92.79821
#
# Velocity S-wave (km/s) = 8.28275 3.79829 6.44325
# Velocity P-wave (km/s) = 9.98946 5.26995 7.98629
#
# Compressibility (1/GPa) = 0.05378833
#
# Stress axis : x y z
#
# Youngs Moduli (GPa) = 99.01477 66.33529 72.38721
#
# Poissons Ratio (x) = -0.14721 -0.20741
# Poissons Ratio (y) = -0.21974 -0.16758
# Poissons Ratio (z) = -0.28371 -0.15357
#
# Static dielectric constant tensor:
#      x y z
#    x 1.799340 0.000000 0.004610 
#    y 0.000000 1.835720 0.000000 
#    z 0.004610 0.000000 1.773730 
# 
# From -- ./inp_files/331051.got.cif
#   From: 2010.05.17/outbox.cif.g08.bks.cpg/sg12_166_cif.got.tgz:331051.got - 2010.06.03 13:09:07.
