data_PCOD9179287
_publ_section_title
;
Structure prediction by ZEFSAII (Michael W. Deem and Ramdas Pophale) SiO2 
 PCOD9179287
Probable space group: C 2/M
;
_chemical_formula_sum "Si O2"
_cell_formula_units_Z 48
_cell_length_a 32.171010
_cell_length_b 7.594999
_cell_length_c 9.852788
_cell_angle_alpha 90.000000
_cell_angle_beta 80.317563
_cell_angle_gamma 90.000000
_cell_volume 2373.124782
_symmetry_space_group_name_H-M "C 2/M"
_symmetry_group_IT_number 12
_symmetry_cell_setting 'monoclinic'
loop_
_space_group_symop_operation_xyz
x,y,z
-x,y,-z
-x,-y,-z
x,-y,z
1/2+x,1/2+y,z
1/2-x,1/2+y,-z
1/2-x,1/2-y,-z
1/2+x,1/2-y,z
loop_
_atom_site_type_symbol
_atom_site_label
_atom_site_fract_x
_atom_site_fract_y
_atom_site_fract_z
Si Si1 0.639629 0.712501 0.877045
Si Si2 0.617617 0.207838 0.588310
Si Si3 0.264680 0.712020 0.145331
Si Si4 0.888459 0.785558 0.816047
Si Si5 0.544344 0.703773 0.430065
Si Si6 0.813912 0.293861 0.650426
O O1 0.640690 0.500000 0.880428
O O2 0.619028 0.765393 0.747186
O O3 0.687992 0.777034 0.856645
O O4 0.615819 0.770786 0.026324
O O5 0.577620 0.290292 0.535163
O O6 0.660600 0.278448 0.493309
O O7 0.615475 0.000000 0.559620
O O8 0.265485 0.500000 0.157394
O O9 0.230066 0.782031 0.271210
O O10 0.250000 0.750000 0.000000
O O11 0.929604 0.721692 0.712025
O O12 0.847424 0.724561 0.754910
O O13 0.888006 0.000000 0.810938
O O14 0.500000 0.784676 0.500000
O O15 0.535601 0.500000 0.399362
O O16 0.806323 0.500000 0.627482
#
# Coordination Sequence:
#
# PCOD9179287 Si02
#       6
#     8   8   8   8   8   8
#     4  10  20  33  49  73 104 136 168 207 250 293
#     4  10  21  35  51  74 104 136 167 204 251 299
#     4  10  19  31  49  73 101 133 172 212 247 288
#     4   9  17  31  52  76 100 129 167 205 248 300
#     4   9  18  35  59  81  99 125 163 206 252 305
#     4   9  18  32  49  71 100 133 171 210 247 290
#
# _framework density 20.226495
#
# number of rings (size 3 to 8) (size 9 to 14) (size 15 to 20)
#    0.000    2.500    1.667    0.500    0.000    3.000 
#    0.000    0.833    0.000    5.000    0.000    0.000 
#    0.000    0.000    0.000    0.000    0.000    0.000 
#
# Total GULP energy -133889.232997 kJ/mol
# GULP energy per Si atom -5578.718042 kJ/mol
# Density = 2.018046 g / cm^3
# Si number density = 20.226495 Si / 1000 Ang^3
#
#
#
# Elastic Constant Matrix: (Units=GPa)
#
#
# Indices 1 2 3 4 5 6 
#
# 1 121.0640 1.0262 57.9670 0.0000 -39.8874 0.0000
# 2 1.0262 46.5559 -9.7041 0.0000 -7.2137 0.0000
# 3 57.9670 -9.7041 136.8686 0.0000 -20.0076 0.0000
# 4 0.0000 0.0000 0.0000 -10.5873 0.0000 11.4892
# 5 -39.8874 -7.2137 -20.0076 0.0000 27.9015 0.0000
# 6 0.0000 0.0000 0.0000 11.4892 0.0000 10.5609
#
#
#
# Elastic Compliance Matrix: (Units=1/GPa)
#
#
# Indices 1 2 3 4 5 6 
#
# 1 0.017781 0.002372 -0.003973 0.000000 0.023183 0.000000
# 2 0.002372 0.023635 0.002301 0.000000 0.011152 0.000000
# 3 -0.003973 0.002301 0.009394 0.000000 0.001651 0.000000
# 4 0.000000 0.000000 0.000000 -0.043316 0.000000 0.047123
# 5 0.023183 0.011152 0.001651 0.000000 0.073049 0.000000
# 6 0.000000 0.000000 0.000000 0.047123 0.000000 0.043424
#
#
# Mechanical properties :
#
#
# Convention : Reuss Voigt Hill
#
# Bulk Modulus (GPa) = 19.15388 44.78521 31.96954
# Shear Modulus (GPa) = 35.72205 22.58832 29.15519
#
# Velocity S-wave (km/s) = 4.20706 3.34543 3.80074
# Velocity P-wave (km/s) = 5.75234 6.09200 5.92461
#
# Compressibility (1/GPa) = 0.05220874
#
# Stress axis : x y z
#
# Youngs Moduli (GPa) = 56.24076 42.31036 106.45576
#
# Poissons Ratio (x) = -0.10036 0.42300
# Poissons Ratio (y) = -0.13340 -0.24499
# Poissons Ratio (z) = 0.22347 -0.09737
#
# Static dielectric constant tensor:
#      x y z
#    x 1.712490 0.000000 -0.055950 
#    y 0.000000 1.749920 0.000000 
#    z -0.055950 0.000000 1.710650 
# 
# From -- ./inp_files/108693.got.cif
#   From: 2010.05.17/outbox.cif.g08.bks.cpg/sg12_55_cif.got.tgz:108693.got - 2010.06.03 13:09:07.
