data_PCOD9179017
_publ_section_title
;
Structure prediction by ZEFSAII (Michael W. Deem and Ramdas Pophale) SiO2 
 PCOD9179017
Probable space group: C 2/M
;
_chemical_formula_sum "Si O2"
_cell_formula_units_Z 64
_cell_length_a 14.519484
_cell_length_b 25.001404
_cell_length_c 9.862105
_cell_angle_alpha 90.000000
_cell_angle_beta 101.645685
_cell_angle_gamma 90.000000
_cell_volume 3506.321864
_symmetry_space_group_name_H-M "C 2/M"
_symmetry_group_IT_number 12
_symmetry_cell_setting 'monoclinic'
loop_
_space_group_symop_operation_xyz
x,y,z
-x,y,-z
-x,-y,-z
x,-y,z
1/2+x,1/2+y,z
1/2-x,1/2+y,-z
1/2-x,1/2-y,-z
1/2+x,1/2-y,z
loop_
_atom_site_type_symbol
_atom_site_label
_atom_site_fract_x
_atom_site_fract_y
_atom_site_fract_z
Si Si1 0.582384 0.436651 0.849145
Si Si2 0.911620 0.756456 0.567188
Si Si3 0.428373 0.283578 0.869410
Si Si4 0.300637 0.201310 0.937268
Si Si5 0.787215 0.127015 0.900918
Si Si6 0.187574 0.938663 0.593975
Si Si7 0.374774 0.562285 0.723625
Si Si8 0.748921 0.823874 0.378104
O O1 0.583068 0.500000 0.886520
O O2 0.625326 0.433073 0.710777
O O3 0.474528 0.417015 0.810334
O O4 0.646498 0.403286 0.970658
O O5 0.954275 0.778556 0.721042
O O6 0.843053 0.800435 0.476979
O O7 0.839950 0.708118 0.584977
O O8 0.000000 0.741965 0.500000
O O9 0.398649 0.225473 0.917564
O O10 0.338222 0.321538 0.851548
O O11 0.500000 0.305850 0.000000
O O12 0.247033 0.188571 0.781424
O O13 0.250000 0.250000 0.000000
O O14 0.298395 0.150964 0.037776
O O15 0.785450 0.088360 0.771385
O O16 0.127925 0.932493 0.438542
O O17 0.256854 0.887915 0.610491
O O18 0.225588 0.000000 0.604925
O O19 0.373251 0.500000 0.754388
#
# Coordination Sequence:
#
# PCOD9179017 Si02
#       8
#     8   8   8   8   8   8   8   8
#     4  10  19  31  48  70 101 141 180 217 257 311
#     4  10  23  37  59  83 110 148 185 230 281 334
#     4  10  21  35  51  76 104 134 176 219 269 322
#     4   9  20  34  51  72 104 138 174 220 272 318
#     4  11  19  31  48  69 100 141 171 207 257 317
#     4  10  20  34  53  75 106 145 183 224 274 324
#     4  10  20  31  44  72 106 134 176 220 255 310
#     4  10  20  39  56  82 115 143 187 234 273 336
#
# _framework density 18.252745999999998
#
# number of rings (size 3 to 8) (size 9 to 14) (size 15 to 20)
#    0.000    2.000    1.250    2.625    3.500    5.500 
#    0.000    0.000    0.000    0.375    0.000    0.000 
#    0.000    4.500    0.000    0.000    0.000    0.000 
#
# Total GULP energy -178260.846340 kJ/mol
# GULP energy per Si atom -5570.651448 kJ/mol
# Density = 1.821120 g / cm^3
# Si number density = 18.252746 Si / 1000 Ang^3
#
#
#
# Elastic Constant Matrix: (Units=GPa)
#
#
# Indices 1 2 3 4 5 6 
#
# 1 36.6262 17.7052 22.1350 0.0000 -12.9882 0.0000
# 2 17.7052 89.9746 22.2314 0.0000 -7.3742 0.0000
# 3 22.1350 22.2314 87.2009 0.0000 -21.5963 0.0000
# 4 0.0000 0.0000 0.0000 27.8384 0.0000 -6.6740
# 5 -12.9882 -7.3742 -21.5963 0.0000 24.0558 0.0000
# 6 0.0000 0.0000 0.0000 -6.6740 0.0000 12.6494
#
#
#
# Elastic Compliance Matrix: (Units=1/GPa)
#
#
# Indices 1 2 3 4 5 6 
#
# 1 0.037772 -0.005080 -0.004665 0.000000 0.014649 0.000000
# 2 -0.005080 0.012571 -0.002109 0.000000 -0.000783 0.000000
# 3 -0.004665 -0.002109 0.015953 0.000000 0.011156 0.000000
# 4 0.000000 0.000000 0.000000 0.041123 0.000000 0.021697
# 5 0.014649 -0.000783 0.011156 0.000000 0.059255 0.000000
# 6 0.000000 0.000000 0.000000 0.021697 0.000000 0.090503
#
#
# Mechanical properties :
#
#
# Convention : Reuss Voigt Hill
#
# Bulk Modulus (GPa) = 23.48093 37.54944 30.51519
# Shear Modulus (GPa) = 16.94452 23.02407 19.98430
#
# Velocity S-wave (km/s) = 3.05015 3.55548 3.31246
# Velocity P-wave (km/s) = 5.02959 6.12142 5.60217
#
# Compressibility (1/GPa) = 0.04258775
#
# Stress axis : x y z
#
# Youngs Moduli (GPa) = 26.47439 79.54919 62.68532
#
# Poissons Ratio (x) = 0.40408 0.29244
# Poissons Ratio (y) = 0.13448 0.13222
# Poissons Ratio (z) = 0.12351 0.16779
#
# Static dielectric constant tensor:
#      x y z
#    x 1.634170 0.000000 -0.007950 
#    y 0.000000 1.676670 0.000000 
#    z -0.007950 0.000000 1.672730 
# 
# From -- ./inp_files/66995.got.cif
#   From: 2010.05.17/outbox.cif.g08.bks.cpg/sg12_34_cif.got.tgz:66995.got - 2010.06.03 13:09:07.
