data_PCOD9179503
_publ_section_title
;
Structure prediction by ZEFSAII (Michael W. Deem and Ramdas Pophale) SiO2 
 PCOD9179503
Probable space group: C 2/M
;
_chemical_formula_sum "Si O2"
_cell_formula_units_Z 64
_cell_length_a 20.296042
_cell_length_b 22.019290
_cell_length_c 18.408630
_cell_angle_alpha 90.000000
_cell_angle_beta 151.835971
_cell_angle_gamma 90.000000
_cell_volume 3883.074470
_symmetry_space_group_name_H-M "C 2/M"
_symmetry_group_IT_number 12
_symmetry_cell_setting 'monoclinic'
loop_
_space_group_symop_operation_xyz
x,y,z
-x,y,-z
-x,-y,-z
x,-y,z
1/2+x,1/2+y,z
1/2-x,1/2+y,-z
1/2-x,1/2-y,-z
1/2+x,1/2-y,z
loop_
_atom_site_type_symbol
_atom_site_label
_atom_site_fract_x
_atom_site_fract_y
_atom_site_fract_z
Si Si1 0.066655 0.219831 0.141341
Si Si2 0.617954 0.333144 0.338591
Si Si3 0.937515 0.660426 0.085128
Si Si4 0.063498 0.890183 0.428868
Si Si5 0.895165 0.755715 0.465135
Si Si6 0.265999 0.569559 0.178983
Si Si7 0.928671 0.303226 0.645410
Si Si8 0.339307 0.933259 0.759110
O O1 0.072300 0.169057 0.210429
O O2 0.970309 0.275410 0.077922
O O3 0.229756 0.241609 0.291790
O O4 0.000000 0.201110 0.000000
O O5 0.544191 0.376925 0.324368
O O6 0.784708 0.340877 0.509399
O O7 0.596061 0.263473 0.343672
O O8 0.957943 0.667810 0.191357
O O9 0.056888 0.616866 0.169116
O O10 0.797785 0.624829 0.929422
O O11 0.094382 0.824452 0.494914
O O12 0.199463 0.929421 0.576354
O O13 0.930955 0.920253 0.337211
O O14 0.951131 0.711202 0.583094
O O15 0.000000 0.750224 0.500000
O O16 0.236798 0.500000 0.126719
O O17 0.204096 0.576908 0.199608
O O18 0.403650 0.000000 0.816649
#
# Coordination Sequence:
#
# PCOD9179503 Si02
#       8
#     8   8   8   8   8   8   8   8
#     4  10  19  31  50  74  99 124 156 192 232 284
#     4   8  15  31  49  68  92 124 158 189 227 281
#     4  11  19  33  49  66  93 133 161 193 235 274
#     4  11  19  33  49  66  93 133 161 193 235 274
#     4  10  19  31  50  74  99 124 156 192 232 284
#     4  11  24  34  43  68 101 125 160 207 240 264
#     4   8  15  31  49  68  92 124 158 189 227 281
#     4  11  20  32  49  66  89 125 170 201 228 272
#
# _framework density 16.481784999999999
#
# number of rings (size 3 to 8) (size 9 to 14) (size 15 to 20)
#    0.000    2.000    2.500    4.500    1.750    2.000 
#    2.250    1.875    0.000    0.000    0.000    0.000 
#    0.000    6.000    0.000    0.000    0.000    0.000 
#
# Total GULP energy -178323.540587 kJ/mol
# GULP energy per Si atom -5572.610643 kJ/mol
# Density = 1.644427 g / cm^3
# Si number density = 16.481785 Si / 1000 Ang^3
#
#
#
# Elastic Constant Matrix: (Units=GPa)
#
#
# Indices 1 2 3 4 5 6 
#
# 1 62.2116 4.0993 13.8800 -0.0001 -17.6051 0.0000
# 2 4.0993 24.5810 2.2469 0.0000 -9.1996 0.0000
# 3 13.8800 2.2469 59.8252 -0.0006 -19.7542 -0.0001
# 4 -0.0001 0.0000 -0.0006 285.8696 -0.0004 30.2639
# 5 -17.6051 -9.1996 -19.7542 -0.0004 32.8012 0.0000
# 6 0.0000 0.0000 -0.0001 30.2639 0.0000 17.6132
#
#
#
# Elastic Compliance Matrix: (Units=1/GPa)
#
#
# Indices 1 2 3 4 5 6 
#
# 1 0.019040 0.000536 -0.001265 0.000000 0.009608 0.000000
# 2 0.000536 0.045940 0.003120 0.000000 0.015052 0.000000
# 3 -0.001265 0.003120 0.021165 0.000000 0.012943 0.000000
# 4 0.000000 0.000000 0.000000 0.004276 0.000000 -0.007347
# 5 0.009608 0.015052 0.012943 0.000000 0.047659 0.000000
# 6 0.000000 0.000000 0.000000 -0.007347 0.000000 0.069400
#
#
# Mechanical properties :
#
#
# Convention : Reuss Voigt Hill
#
# Bulk Modulus (GPa) = 10.99771 20.78556 15.89164
# Shear Modulus (GPa) = 21.45853 75.68291 48.57072
#
# Velocity S-wave (km/s) = 3.61218 6.78372 5.43446
# Velocity P-wave (km/s) = 4.90757 8.60215 7.00290
#
# Compressibility (1/GPa) = 0.09092800
#
# Stress axis : x y z
#
# Youngs Moduli (GPa) = 52.52118 21.76737 47.24704
#
# Poissons Ratio (x) = -0.01167 0.05978
# Poissons Ratio (y) = -0.02816 -0.14742
# Poissons Ratio (z) = 0.06645 -0.06792
#
# Static dielectric constant tensor:
#      x y z
#    x 1.568400 0.000000 -0.013120 
#    y 0.000000 1.543310 0.000000 
#    z -0.013120 0.000000 1.596680 
# 
# From -- ./inp_files/286215.got.cif
#   From: 2010.05.17/outbox.cif.g08.bks.cpg/sg12_144_cif.got.tgz:286215.got - 2010.06.03 13:09:07.
