data_PCOD9179564
_publ_section_title
;
Structure prediction by ZEFSAII (Michael W. Deem and Ramdas Pophale) SiO2 
 PCOD9179564
Probable space group: C 2/M
;
_chemical_formula_sum "Si O2"
_cell_formula_units_Z 40
_cell_length_a 28.000293
_cell_length_b 7.584117
_cell_length_c 16.427489
_cell_angle_alpha 90.000000
_cell_angle_beta 32.562028
_cell_angle_gamma 90.000000
_cell_volume 1877.554008
_symmetry_space_group_name_H-M "C 2/M"
_symmetry_group_IT_number 12
_symmetry_cell_setting 'monoclinic'
loop_
_space_group_symop_operation_xyz
x,y,z
-x,y,-z
-x,-y,-z
x,-y,z
1/2+x,1/2+y,z
1/2-x,1/2+y,-z
1/2-x,1/2-y,-z
1/2+x,1/2-y,z
loop_
_atom_site_type_symbol
_atom_site_label
_atom_site_fract_x
_atom_site_fract_y
_atom_site_fract_z
Si Si1 0.601696 0.703110 0.700139
Si Si2 0.658322 0.209698 0.175506
Si Si3 0.018460 0.793334 0.664090
Si Si4 0.224674 0.216702 0.656922
Si Si5 0.183631 0.702485 0.319130
O O1 0.577610 0.500000 0.750977
O O2 0.528919 0.776873 0.741751
O O3 0.691339 0.715540 0.516181
O O4 0.635912 0.776250 0.737375
O O5 0.576922 0.278711 0.239312
O O6 0.665661 0.283195 0.256851
O O7 0.643903 0.000000 0.201590
O O8 0.750000 0.250000 0.000000
O O9 0.091521 0.705161 0.501247
O O10 0.042469 0.000000 0.632735
O O11 0.243409 0.275053 0.722375
O O12 0.227942 0.000000 0.649892
O O13 0.210558 0.500000 0.265626
#
# Coordination Sequence:
#
# PCOD9179564 Si02
#       5
#     8   8   8   8   8
#     4   8  14  24  41  68  98 123 149 184 226 274
#     4  11  23  37  51  68  93 126 164 203 243 285
#     4  10  19  31  50  76 102 127 157 192 232 282
#     4   8  13  24  43  67  95 123 150 185 230 274
#     4   9  18  32  51  74  98 125 159 198 237 279
#
# _framework density 21.304316
#
# number of rings (size 3 to 8) (size 9 to 14) (size 15 to 20)
#    0.000    2.800    0.000    1.800    0.000    4.800 
#    0.000    0.000    0.000    1.200    0.000    8.400 
#    0.000    0.000    0.000    0.000    0.000    0.000 
#
# Total GULP energy -111371.051039 kJ/mol
# GULP energy per Si atom -5568.552552 kJ/mol
# Density = 2.125583 g / cm^3
# Si number density = 21.304316 Si / 1000 Ang^3
#
#
#
# Elastic Constant Matrix: (Units=GPa)
#
#
# Indices 1 2 3 4 5 6 
#
# 1 263.6442 0.3338 58.9696 -0.0013 -44.8376 0.0011
# 2 0.3338 60.9738 -11.1546 0.0014 0.9210 0.0002
# 3 58.9696 -11.1546 26.6945 0.0011 -6.8828 -0.0006
# 4 -0.0013 0.0014 0.0011 12.9466 -0.0011 -3.8123
# 5 -44.8376 0.9210 -6.8828 -0.0011 -2.5913 0.0004
# 6 0.0011 0.0002 -0.0006 -3.8123 0.0004 15.0666
#
#
#
# Elastic Compliance Matrix: (Units=1/GPa)
#
#
# Indices 1 2 3 4 5 6 
#
# 1 0.003237 -0.002165 -0.013470 0.000000 -0.021001 0.000000
# 2 -0.002165 0.018934 0.014296 -0.000003 0.006214 0.000000
# 3 -0.013470 0.014296 0.079885 -0.000007 0.025968 0.000001
# 4 0.000000 -0.000003 -0.000007 0.083458 -0.000012 0.021117
# 5 -0.021001 0.006214 0.025968 -0.000012 -0.089287 0.000002
# 6 0.000000 0.000000 0.000001 0.021117 0.000002 0.071715
#
#
# Mechanical properties :
#
#
# Convention : Reuss Voigt Hill
#
# Bulk Modulus (GPa) = 10.06253 49.73446 29.89849
# Shear Modulus (GPa) = 24.54028 25.29529 24.91779
#
# Velocity S-wave (km/s) = 3.39764 3.44951 3.42367
# Velocity P-wave (km/s) = 4.48613 6.26585 5.44914
#
# Compressibility (1/GPa) = 0.09937859
#
# Stress axis : x y z
#
# Youngs Moduli (GPa) = 308.93333 52.81568 12.51792
#
# Poissons Ratio (x) = 0.11433 0.16862
# Poissons Ratio (y) = 0.66875 -0.17895
# Poissons Ratio (z) = 4.16130 -0.75504
#
# Static dielectric constant tensor:
#      x y z
#    x 1.882640 0.000000 -0.006260 
#    y 0.000000 1.884210 0.000000 
#    z -0.006260 0.000000 1.681990 
# 
# From -- ./inp_files/211224.got.cif
#   From: 2010.05.17/outbox.cif.g08.bks.cpg/sg12_106_cif.got.tgz:211224.got - 2010.06.03 13:09:07.
