data_PCOD9179859
_publ_section_title
;
Structure prediction by ZEFSAII (Michael W. Deem and Ramdas Pophale) SiO2 
 PCOD9179859
Probable space group: C 2/M
;
_chemical_formula_sum "Si O2"
_cell_formula_units_Z 64
_cell_length_a 27.507548
_cell_length_b 20.229197
_cell_length_c 12.114683
_cell_angle_alpha 90.000000
_cell_angle_beta 27.401824
_cell_angle_gamma 90.000000
_cell_volume 3102.527649
_symmetry_space_group_name_H-M "C 2/M"
_symmetry_group_IT_number 12
_symmetry_cell_setting 'monoclinic'
loop_
_space_group_symop_operation_xyz
x,y,z
-x,y,-z
-x,-y,-z
x,-y,z
1/2+x,1/2+y,z
1/2-x,1/2+y,-z
1/2-x,1/2-y,-z
1/2+x,1/2-y,z
loop_
_atom_site_type_symbol
_atom_site_label
_atom_site_fract_x
_atom_site_fract_y
_atom_site_fract_z
Si Si1 0.793332 0.828462 0.348119
Si Si2 0.899051 0.077691 0.778332
Si Si3 0.646501 0.768828 0.463786
Si Si4 0.550673 0.787233 0.007163
Si Si5 0.038287 0.925386 0.093702
Si Si6 0.814175 0.650475 0.081232
Si Si7 0.794923 0.677564 0.878167
Si Si8 0.792279 0.926100 0.539145
O O1 0.707597 0.816526 0.426203
O O2 0.754347 0.867550 0.534426
O O3 0.856602 0.759334 0.229006
O O4 0.885063 0.876253 0.121074
O O5 0.000000 0.095325 0.500000
O O6 0.940928 0.082607 0.818588
O O7 0.871255 0.000000 0.813260
O O8 0.801491 0.127551 0.956317
O O9 0.540706 0.747240 0.741203
O O10 0.723660 0.707106 0.282665
O O11 0.634639 0.808140 0.372207
O O12 0.500000 0.819031 0.000000
O O13 0.593719 0.832157 0.018823
O O14 0.916926 0.917280 0.306221
O O15 0.068021 0.000000 0.002683
O O16 0.761410 0.584347 0.233657
O O17 0.845252 0.651608 0.890762
O O18 0.750000 0.750000 0.000000
O O19 0.770925 0.000000 0.540586
#
# Coordination Sequence:
#
# PCOD9179859 Si02
#       8
#     8   8   8   8   8   8   8   8
#     4  11  20  35  57  85 120 154 194 242 300 360
#     4  10  20  35  59  88 121 162 202 250 314 377
#     4  10  21  38  59  84 119 156 199 251 306 359
#     4  11  22  36  59  85 115 155 197 247 303 363
#     4  10  19  31  51  83 117 150 187 231 294 358
#     4  10  22  38  57  84 116 154 200 246 308 361
#     4  10  21  40  55  87 125 159 208 255 304 368
#     4  11  22  36  58  87 122 159 197 247 301 367
#
# _framework density 20.628342
#
# number of rings (size 3 to 8) (size 9 to 14) (size 15 to 20)
#    0.000    1.625    1.250    4.500    0.000    6.000 
#    0.000    0.000    0.000    4.875    0.000    1.750 
#    0.000    0.000    0.000    0.000    0.000    0.000 
#
# Total GULP energy -178628.289634 kJ/mol
# GULP energy per Si atom -5582.134051 kJ/mol
# Density = 2.058139 g / cm^3
# Si number density = 20.628342 Si / 1000 Ang^3
#
#
#
# Elastic Constant Matrix: (Units=GPa)
#
#
# Indices 1 2 3 4 5 6 
#
# 1 115.0668 30.4431 31.5298 0.0000 26.5901 0.0000
# 2 30.4431 83.5582 9.3990 0.0000 5.6674 0.0000
# 3 31.5298 9.3990 56.4857 0.0000 19.5168 0.0000
# 4 0.0000 0.0000 0.0000 21.7334 0.0000 -8.3095
# 5 26.5901 5.6674 19.5168 0.0000 27.8914 0.0000
# 6 0.0000 0.0000 0.0000 -8.3095 0.0000 6.3759
#
#
#
# Elastic Compliance Matrix: (Units=1/GPa)
#
#
# Indices 1 2 3 4 5 6 
#
# 1 0.012640 -0.003619 -0.003355 0.000000 -0.008967 0.000000
# 2 -0.003619 0.013274 -0.000592 0.000000 0.001167 0.000000
# 3 -0.003355 -0.000592 0.024436 0.000000 -0.013780 0.000000
# 4 0.000000 0.000000 0.000000 0.091710 0.000000 0.119521
# 5 -0.008967 0.001167 -0.013780 0.000000 0.053807 0.000000
# 6 0.000000 0.000000 0.000000 0.119521 0.000000 0.312608
#
#
# Mechanical properties :
#
#
# Convention : Reuss Voigt Hill
#
# Bulk Modulus (GPa) = 28.39509 44.20606 36.30058
# Shear Modulus (GPa) = 9.33977 23.44938 16.39458
#
# Velocity S-wave (km/s) = 2.13013 3.37524 2.82221
# Velocity P-wave (km/s) = 4.45476 6.05524 5.31558
#
# Compressibility (1/GPa) = 0.03521735
#
# Stress axis : x y z
#
# Youngs Moduli (GPa) = 79.11653 75.33653 40.92320
#
# Poissons Ratio (x) = 0.27268 0.13729
# Poissons Ratio (y) = 0.28636 0.02422
# Poissons Ratio (z) = 0.26542 0.04458
#
# Static dielectric constant tensor:
#      x y z
#    x 1.765240 0.000000 0.033270 
#    y 0.000000 1.749280 0.000000 
#    z 0.033270 0.000000 1.774760 
# 
# From -- ./inp_files/184689.got.cif
#   From: 2010.05.17/outbox.cif.g08.bks.cpg/sg12_93_cif.got.tgz:184689.got - 2010.06.03 13:09:07.
