data_PCOD9179570
_publ_section_title
;
Structure prediction by ZEFSAII (Michael W. Deem and Ramdas Pophale) SiO2 
 PCOD9179570
Probable space group: C 2/M
;
_chemical_formula_sum "Si O2"
_cell_formula_units_Z 56
_cell_length_a 27.683048
_cell_length_b 7.374739
_cell_length_c 20.441492
_cell_angle_alpha 90.000000
_cell_angle_beta 144.105077
_cell_angle_gamma 90.000000
_cell_volume 2446.771836
_symmetry_space_group_name_H-M "C 2/M"
_symmetry_group_IT_number 12
_symmetry_cell_setting 'monoclinic'
loop_
_space_group_symop_operation_xyz
x,y,z
-x,y,-z
-x,-y,-z
x,-y,z
1/2+x,1/2+y,z
1/2-x,1/2+y,-z
1/2-x,1/2-y,-z
1/2+x,1/2-y,z
loop_
_atom_site_type_symbol
_atom_site_label
_atom_site_fract_x
_atom_site_fract_y
_atom_site_fract_z
Si Si1 0.033235 0.279287 0.608081
Si Si2 0.217283 0.278776 0.790472
Si Si3 0.739316 0.721297 0.309223
Si Si4 0.500533 0.282425 0.207179
Si Si5 0.448816 0.721642 0.880332
Si Si6 0.179418 0.783634 0.975663
Si Si7 0.104046 0.285585 0.442160
O O1 0.034214 0.500000 0.611469
O O2 0.127619 0.220066 0.717515
O O3 0.000000 0.229286 0.500000
O O4 0.970133 0.213181 0.593745
O O5 0.217458 0.500000 0.790479
O O6 0.232318 0.223605 0.732399
O O7 0.287004 0.218280 0.917435
O O8 0.737623 0.500000 0.307883
O O9 0.646211 0.779518 0.220035
O O10 0.807701 0.783177 0.436475
O O11 0.497577 0.500000 0.201985
O O12 0.512711 0.219604 0.146330
O O13 0.412768 0.214865 0.139150
O O14 0.576421 0.238227 0.337565
O O15 0.449985 0.500000 0.882031
O O16 0.500000 0.779851 0.000000
O O17 0.172834 0.000000 0.973062
O O18 0.250000 0.750000 0.000000
O O19 0.106633 0.500000 0.457608
#
# Coordination Sequence:
#
# PCOD9179570 Si02
#       7
#     8   8   8   8   8   8   8
#     4   9  14  23  41  69 100 123 150 198 250 283
#     4   9  15  25  44  70  97 122 156 207 254 285
#     4   9  16  27  47  75  99 123 167 217 249 284
#     4  10  21  35  50  72 105 137 163 200 252 304
#     4   9  17  31  51  73  99 131 167 209 256 298
#     4  10  20  33  50  73 100 131 165 201 246 299
#     4  10  19  31  50  76 103 132 169 208 247 294
#
# _framework density 22.887298999999999
#
# number of rings (size 3 to 8) (size 9 to 14) (size 15 to 20)
#    0.000    2.571    1.429    1.714    0.000    5.714 
#    0.000    0.000    0.000    1.714    0.000    0.000 
#    0.000    0.000    0.000    0.000    0.000    0.000 
#
# Total GULP energy -156463.256337 kJ/mol
# GULP energy per Si atom -5587.973441 kJ/mol
# Density = 2.283521 g / cm^3
# Si number density = 22.887299 Si / 1000 Ang^3
#
#
#
# Elastic Constant Matrix: (Units=GPa)
#
#
# Indices 1 2 3 4 5 6 
#
# 1 113.4768 -2.9912 75.1253 0.0000 8.0700 0.0000
# 2 -2.9912 79.0221 0.7737 0.0000 5.8823 0.0000
# 3 75.1253 0.7737 195.5674 0.0000 4.5795 0.0000
# 4 0.0000 0.0000 0.0000 -12.0841 0.0000 -5.5588
# 5 8.0700 5.8823 4.5795 0.0000 41.5317 0.0000
# 6 0.0000 0.0000 0.0000 -5.5588 0.0000 -4.0113
#
#
#
# Elastic Compliance Matrix: (Units=1/GPa)
#
#
# Indices 1 2 3 4 5 6 
#
# 1 0.011986 0.000641 -0.004562 0.000000 -0.001917 0.000000
# 2 0.000641 0.012824 -0.000252 0.000000 -0.001913 0.000000
# 3 -0.004562 -0.000252 0.006863 0.000000 0.000165 0.000000
# 4 0.000000 0.000000 0.000000 -0.228264 0.000000 0.316325
# 5 -0.001917 -0.001913 0.000165 0.000000 0.024703 0.000000
# 6 0.000000 0.000000 0.000000 0.316325 0.000000 -0.687654
#
#
# Mechanical properties :
#
#
# Convention : Reuss Voigt Hill
#
# Bulk Modulus (GPa) = 42.86994 59.32021 51.09507
# Shear Modulus (GPa) = -5.92823 26.09782 10.08479
#
# Velocity S-wave (km/s) = -1.61115 3.38046 2.10139
# Velocity P-wave (km/s) = 3.91286 6.41961 5.31610
#
# Compressibility (1/GPa) = 0.02332637
#
# Stress axis : x y z
#
# Youngs Moduli (GPa) = 83.43304 77.97980 145.71243
#
# Poissons Ratio (x) = -0.04999 0.66471
# Poissons Ratio (y) = -0.05348 0.03675
# Poissons Ratio (z) = 0.38061 0.01967
#
# Static dielectric constant tensor:
#      x y z
#    x 1.825530 0.000000 0.031070 
#    y 0.000000 1.918530 0.000000 
#    z 0.031070 0.000000 1.864150 
# 
# From -- ./inp_files/245704.got.cif
#   From: 2010.05.17/outbox.cif.g08.bks.cpg/sg12_123_cif.got.tgz:245704.got - 2010.06.03 13:09:07.
