data_PCOD9179398
_publ_section_title
;
Structure prediction by ZEFSAII (Michael W. Deem and Ramdas Pophale) SiO2 
 PCOD9179398
Probable space group: C 2/M
;
_chemical_formula_sum "Si O2"
_cell_formula_units_Z 56
_cell_length_a 29.187833
_cell_length_b 7.893279
_cell_length_c 15.047577
_cell_angle_alpha 90.000000
_cell_angle_beta 59.661996
_cell_angle_gamma 90.000000
_cell_volume 2992.038843
_symmetry_space_group_name_H-M "C 2/M"
_symmetry_group_IT_number 12
_symmetry_cell_setting 'monoclinic'
loop_
_space_group_symop_operation_xyz
x,y,z
-x,y,-z
-x,-y,-z
x,-y,z
1/2+x,1/2+y,z
1/2-x,1/2+y,-z
1/2-x,1/2-y,-z
1/2+x,1/2-y,z
loop_
_atom_site_type_symbol
_atom_site_label
_atom_site_fract_x
_atom_site_fract_y
_atom_site_fract_z
Si Si1 0.924757 0.702659 0.825742
Si Si2 0.850183 0.701442 0.057362
Si Si3 0.369216 0.796316 0.696902
Si Si4 0.738561 0.804335 0.112722
Si Si5 0.444024 0.704984 0.098467
Si Si6 0.953891 0.800208 0.479495
Si Si7 0.040976 0.194434 0.723289
O O1 0.933708 0.500000 0.827132
O O2 0.908265 0.737115 0.741511
O O3 0.977617 0.799933 0.799273
O O4 0.877129 0.751074 0.937420
O O5 0.842767 0.500000 0.064277
O O6 0.792173 0.781657 0.116399
O O7 0.893507 0.747879 0.088656
O O8 0.312072 0.728660 0.785739
O O9 0.397774 0.719675 0.583500
O O10 0.366751 0.000000 0.685827
O O11 0.724541 0.000000 0.117450
O O12 0.750000 0.750000 0.000000
O O13 0.447372 0.500000 0.099084
O O14 0.437315 0.770167 0.206132
O O15 0.500000 0.764761 0.000000
O O16 0.951570 0.726507 0.381900
O O17 0.000000 0.729010 0.500000
O O18 0.966465 0.000000 0.456283
O O19 0.060138 0.000000 0.699881
#
# Coordination Sequence:
#
# PCOD9179398 Si02
#       7
#     8   8   8   8   8   8   8
#     4  10  19  31  49  76 110 141 175 214 259 314
#     4  11  22  36  53  79 112 144 180 221 267 320
#     4  10  21  36  52  76 109 143 177 215 261 318
#     4  11  22  37  56  80 110 143 180 221 269 321
#     4  10  20  34  54  79 107 144 182 218 269 323
#     4  10  20  33  52  79 108 140 177 219 265 313
#     4  10  20  34  51  77 111 142 179 219 262 318
#
# _framework density 18.716334
#
# number of rings (size 3 to 8) (size 9 to 14) (size 15 to 20)
#    0.000    1.714    4.286    0.857    0.000    3.429 
#    0.000    0.000    0.000    0.857    0.000    0.000 
#    0.000    0.000    0.000    0.000    0.000    0.000 
#
# Total GULP energy -156175.381119 kJ/mol
# GULP energy per Si atom -5577.692183 kJ/mol
# Density = 1.867373 g / cm^3
# Si number density = 18.716334 Si / 1000 Ang^3
#
#
#
# Elastic Constant Matrix: (Units=GPa)
#
#
# Indices 1 2 3 4 5 6 
#
# 1 62.3676 -9.1723 30.9024 0.0000 0.9033 0.0000
# 2 -9.1723 13.5385 -0.4199 0.0000 3.1020 0.0000
# 3 30.9024 -0.4199 105.0411 0.0000 9.4135 0.0000
# 4 0.0000 0.0000 0.0000 16.5092 0.0000 -4.1537
# 5 0.9033 3.1020 9.4135 0.0000 33.0190 0.0000
# 6 0.0000 0.0000 0.0000 -4.1537 0.0000 18.0551
#
#
#
# Elastic Compliance Matrix: (Units=1/GPa)
#
#
# Indices 1 2 3 4 5 6 
#
# 1 0.021175 0.014191 -0.006159 0.000000 -0.000157 0.000000
# 2 0.014191 0.085093 -0.003164 0.000000 -0.007480 0.000000
# 3 -0.006159 -0.003164 0.011573 0.000000 -0.002834 0.000000
# 4 0.000000 0.000000 0.000000 0.064294 0.000000 0.014791
# 5 -0.000157 -0.007480 -0.002834 0.000000 0.031800 0.000000
# 6 0.000000 0.000000 0.000000 0.014791 0.000000 0.058789
#
#
# Mechanical properties :
#
#
# Convention : Reuss Voigt Hill
#
# Bulk Modulus (GPa) = 7.83841 24.84085 16.33963
# Shear Modulus (GPa) = 16.36583 24.15913 20.26248
#
# Velocity S-wave (km/s) = 2.96026 3.59667 3.29387
# Velocity P-wave (km/s) = 3.98513 5.52713 4.81822
#
# Compressibility (1/GPa) = 0.12757688
#
# Stress axis : x y z
#
# Youngs Moduli (GPa) = 47.22594 11.75179 86.40629
#
# Poissons Ratio (x) = -0.16677 0.53215
# Poissons Ratio (y) = -0.67017 0.27342
# Poissons Ratio (z) = 0.29085 0.03719
#
# Static dielectric constant tensor:
#      x y z
#    x 1.641730 0.000000 0.010330 
#    y 0.000000 1.688860 0.000000 
#    z 0.010330 0.000000 1.675490 
# 
# From -- ./inp_files/238902.got.cif
#   From: 2010.05.17/outbox.cif.g08.bks.cpg/sg12_120_cif.got.tgz:238902.got - 2010.06.03 13:09:07.
