data_PCOD9179262
_publ_section_title
;
Structure prediction by ZEFSAII (Michael W. Deem and Ramdas Pophale) SiO2 
 PCOD9179262
Probable space group: C 2/M
;
_chemical_formula_sum "Si O2"
_cell_formula_units_Z 56
_cell_length_a 18.073878
_cell_length_b 7.688984
_cell_length_c 30.319962
_cell_angle_alpha 90.000000
_cell_angle_beta 139.986065
_cell_angle_gamma 90.000000
_cell_volume 2709.207701
_symmetry_space_group_name_H-M "C 2/M"
_symmetry_group_IT_number 12
_symmetry_cell_setting 'monoclinic'
loop_
_space_group_symop_operation_xyz
x,y,z
-x,y,-z
-x,-y,-z
x,-y,z
1/2+x,1/2+y,z
1/2-x,1/2+y,-z
1/2-x,1/2-y,-z
1/2+x,1/2-y,z
loop_
_atom_site_type_symbol
_atom_site_label
_atom_site_fract_x
_atom_site_fract_y
_atom_site_fract_z
Si Si1 0.164893 0.292387 0.000804
Si Si2 0.563284 0.711310 0.714754
Si Si3 0.758254 0.296029 0.281834
Si Si4 0.056391 0.296642 0.569590
Si Si5 0.231028 0.798369 0.861400
Si Si6 0.403111 0.704880 0.863364
Si Si7 0.617571 0.292807 0.433263
O O1 0.153424 0.500000 0.000068
O O2 0.219107 0.220424 0.071018
O O3 0.250000 0.250000 0.000000
O O4 0.037609 0.225379 0.932502
O O5 0.569395 0.500000 0.718535
O O6 0.649874 0.775359 0.716087
O O7 0.617071 0.775214 0.785298
O O8 0.437965 0.760808 0.639226
O O9 0.739743 0.500000 0.282991
O O10 0.826331 0.220962 0.355181
O O11 0.642867 0.228156 0.205300
O O12 0.080976 0.500000 0.571193
O O13 0.000000 0.217848 0.500000
O O14 0.959745 0.288020 0.563428
O O15 0.330651 0.790792 0.869730
O O16 0.204998 0.000000 0.859474
O O17 0.374886 0.500000 0.852298
O O18 0.603146 0.500000 0.430149
O O19 0.750000 0.250000 0.500000
#
# Coordination Sequence:
#
# PCOD9179262 Si02
#       7
#     8   8   8   8   8   8   8
#     4  11  23  37  52  71  99 132 162 197 242 289
#     4   8  15  29  49  71  93 121 159 200 241 282
#     4   8  15  28  47  72  98 124 157 197 239 280
#     4   9  17  31  51  73  98 129 164 201 240 283
#     4   9  18  34  55  76  96 122 161 205 243 282
#     4  10  19  32  53  78 101 126 159 199 240 287
#     4  10  19  31  49  72  99 130 162 199 242 288
#
# _framework density 20.670249999999999
#
# number of rings (size 3 to 8) (size 9 to 14) (size 15 to 20)
#    0.000    2.714    0.000    1.714    0.000    4.286 
#    0.000    1.429    0.000    8.571    0.000    0.000 
#    0.000    0.000    0.000    0.000    0.000    0.000 
#
# Total GULP energy -155939.932250 kJ/mol
# GULP energy per Si atom -5569.283295 kJ/mol
# Density = 2.062320 g / cm^3
# Si number density = 20.670250 Si / 1000 Ang^3
#
#
#
# Elastic Constant Matrix: (Units=GPa)
#
#
# Indices 1 2 3 4 5 6 
#
# 1 29.0004 -11.5379 58.7041 0.0000 -10.0071 0.0002
# 2 -11.5379 44.2876 2.9465 0.0000 -4.6387 0.0004
# 3 58.7041 2.9465 271.7804 0.0000 -21.4032 0.0000
# 4 0.0000 0.0000 0.0000 14.1486 0.0000 2.4662
# 5 -10.0071 -4.6387 -21.4032 0.0000 29.8786 0.0000
# 6 0.0002 0.0004 0.0000 2.4662 0.0000 15.8292
#
#
#
# Elastic Compliance Matrix: (Units=1/GPa)
#
#
# Indices 1 2 3 4 5 6 
#
# 1 0.087691 0.026198 -0.017584 0.000001 0.020841 -0.000002
# 2 0.026198 0.030780 -0.005220 0.000000 0.009814 -0.000001
# 3 -0.017584 -0.005220 0.007425 0.000000 -0.001381 0.000000
# 4 0.000001 0.000000 0.000000 0.072652 0.000000 -0.011319
# 5 0.020841 0.009814 -0.001381 0.000000 0.040984 0.000000
# 6 -0.000002 -0.000001 0.000000 -0.011319 0.000000 0.064938
#
#
# Mechanical properties :
#
#
# Convention : Reuss Voigt Hill
#
# Bulk Modulus (GPa) = 7.53658 49.47707 28.50682
# Shear Modulus (GPa) = 14.62377 31.63499 23.12938
#
# Velocity S-wave (km/s) = 2.66273 3.91635 3.34873
# Velocity P-wave (km/s) = 3.62043 6.66624 5.36406
#
# Compressibility (1/GPa) = 0.13268624
#
# Stress axis : x y z
#
# Youngs Moduli (GPa) = 11.40366 32.48852 134.67287
#
# Poissons Ratio (x) = -0.85114 2.36807
# Poissons Ratio (y) = -0.29876 0.70294
# Poissons Ratio (z) = 0.20052 0.16958
#
# Static dielectric constant tensor:
#      x y z
#    x 1.695530 0.000000 -0.022750 
#    y 0.000000 1.823330 0.000000 
#    z -0.022750 0.000000 1.844910 
# 
# From -- ./inp_files/377760.got.cif
#   From: 2010.05.17/outbox.cif.g08.bks.cpg/sg12_189_cif.got.tgz:377760.got - 2010.06.03 13:09:07.
