data_PCOD9179807
_publ_section_title
;
Structure prediction by ZEFSAII (Michael W. Deem and Ramdas Pophale) SiO2 
 PCOD9179807
Probable space group: C 2/M
;
_chemical_formula_sum "Si O2"
_cell_formula_units_Z 64
_cell_length_a 27.655900
_cell_length_b 15.350962
_cell_length_c 13.052100
_cell_angle_alpha 90.000000
_cell_angle_beta 143.090350
_cell_angle_gamma 90.000000
_cell_volume 3327.794521
_symmetry_space_group_name_H-M "C 2/M"
_symmetry_group_IT_number 12
_symmetry_cell_setting 'monoclinic'
loop_
_space_group_symop_operation_xyz
x,y,z
-x,y,-z
-x,-y,-z
x,-y,z
1/2+x,1/2+y,z
1/2-x,1/2+y,-z
1/2-x,1/2-y,-z
1/2+x,1/2-y,z
loop_
_atom_site_type_symbol
_atom_site_label
_atom_site_fract_x
_atom_site_fract_y
_atom_site_fract_z
Si Si1 0.764545 0.598984 0.276716
Si Si2 0.549923 0.400462 0.234035
Si Si3 0.683170 0.902881 0.297940
Si Si4 0.736456 0.769839 0.095344
Si Si5 0.612503 0.346710 0.127725
Si Si6 0.414355 0.103642 0.671332
Si Si7 0.174004 0.105637 0.602050
Si Si8 0.090821 0.330429 0.970764
O O1 0.757601 0.500000 0.224917
O O2 0.744709 0.676633 0.165721
O O3 0.699044 0.611469 0.256162
O O4 0.852732 0.611429 0.473309
O O5 0.576010 0.500000 0.261419
O O6 0.586654 0.348207 0.201396
O O7 0.586172 0.375595 0.405314
O O8 0.454693 0.395853 0.054767
O O9 0.633789 0.864348 0.309158
O O10 0.764579 0.865623 0.385803
O O11 0.705099 0.000000 0.370170
O O12 0.625264 0.906558 0.100691
O O13 0.799070 0.837556 0.255034
O O14 0.750000 0.750000 0.000000
O O15 0.648701 0.811495 0.972695
O O16 0.607562 0.250758 0.073987
O O17 0.497278 0.154207 0.793971
O O18 0.432238 0.000000 0.716030
O O19 0.182395 0.000000 0.632984
#
# Coordination Sequence:
#
# PCOD9179807 Si02
#       8
#     8   8   8   8   8   8   8   8
#     4  10  21  38  59  81 111 150 191 235 287 349
#     4  10  19  31  51  79 114 152 186 225 273 331
#     4   9  17  30  50  79 120 156 180 213 269 348
#     4  10  23  42  60  80 107 145 196 247 299 342
#     4  10  20  31  51  81 116 156 189 223 273 335
#     4  10  20  33  55  85 120 156 184 224 282 350
#     4   9  19  35  57  86 116 151 192 239 291 344
#     4  10  21  33  51  80 110 148 189 229 277 332
#
# _framework density 19.231956
#
# number of rings (size 3 to 8) (size 9 to 14) (size 15 to 20)
#    0.000    2.250    0.000    3.000    5.250    4.000 
#    0.000    4.375    0.000    1.500    0.000    4.375 
#    0.000    0.000    0.000    0.000    0.000    0.000 
#
# Total GULP energy -178362.353831 kJ/mol
# GULP energy per Si atom -5573.823557 kJ/mol
# Density = 1.918818 g / cm^3
# Si number density = 19.231956 Si / 1000 Ang^3
#
#
#
# Elastic Constant Matrix: (Units=GPa)
#
#
# Indices 1 2 3 4 5 6 
#
# 1 60.3665 21.6122 33.2242 0.0000 -14.0369 0.0000
# 2 21.6122 88.2762 30.4369 0.0000 -6.5805 0.0000
# 3 33.2242 30.4369 93.3473 0.0000 10.7640 0.0000
# 4 0.0000 0.0000 0.0000 27.0918 0.0000 -0.0988
# 5 -14.0369 -6.5805 10.7640 0.0000 24.7965 0.0000
# 6 0.0000 0.0000 0.0000 -0.0988 0.0000 15.2003
#
#
#
# Elastic Compliance Matrix: (Units=1/GPa)
#
#
# Indices 1 2 3 4 5 6 
#
# 1 0.028690 -0.001211 -0.012266 0.000000 0.021244 0.000000
# 2 -0.001211 0.013559 -0.004554 0.000000 0.004890 0.000000
# 3 -0.012266 -0.004554 0.018426 0.000000 -0.016151 0.000000
# 4 0.000000 0.000000 0.000000 0.036912 0.000000 0.000240
# 5 0.021244 0.004890 -0.016151 0.000000 0.060663 0.000000
# 6 0.000000 0.000000 0.000000 0.000240 0.000000 0.065790
#
#
# Mechanical properties :
#
#
# Convention : Reuss Voigt Hill
#
# Bulk Modulus (GPa) = 40.62975 45.83741 43.23358
# Shear Modulus (GPa) = 18.63542 23.86549 21.25046
#
# Velocity S-wave (km/s) = 3.11623 3.52650 3.32769
# Velocity P-wave (km/s) = 5.84122 6.36140 6.10685
#
# Compressibility (1/GPa) = 0.02461251
#
# Stress axis : x y z
#
# Youngs Moduli (GPa) = 34.85549 73.75046 54.27214
#
# Poissons Ratio (x) = 0.08932 0.66571
# Poissons Ratio (y) = 0.04221 0.24715
# Poissons Ratio (z) = 0.42754 0.33585
#
# Static dielectric constant tensor:
#      x y z
#    x 1.661810 0.000000 0.038280 
#    y 0.000000 1.831690 0.000000 
#    z 0.038280 0.000000 1.703910 
# 
# From -- ./inp_files/183833.got.cif
#   From: 2010.05.17/outbox.cif.g08.bks.cpg/sg12_92_cif.got.tgz:183833.got - 2010.06.03 13:09:07.
