data_PCOD9179067
_publ_section_title
;
Structure prediction by ZEFSAII (Michael W. Deem and Ramdas Pophale) SiO2 
 PCOD9179067
Probable space group: C 2/M
;
_chemical_formula_sum "Si O2"
_cell_formula_units_Z 64
_cell_length_a 5.215812
_cell_length_b 23.090302
_cell_length_c 31.625936
_cell_angle_alpha 90.000000
_cell_angle_beta 104.778031
_cell_angle_gamma 90.000000
_cell_volume 3682.867047
_symmetry_space_group_name_H-M "C 2/M"
_symmetry_group_IT_number 12
_symmetry_cell_setting 'monoclinic'
loop_
_space_group_symop_operation_xyz
x,y,z
-x,y,-z
-x,-y,-z
x,-y,z
1/2+x,1/2+y,z
1/2-x,1/2+y,-z
1/2-x,1/2-y,-z
1/2+x,1/2-y,z
loop_
_atom_site_type_symbol
_atom_site_label
_atom_site_fract_x
_atom_site_fract_y
_atom_site_fract_z
Si Si1 0.875321 0.431659 0.759431
Si Si2 0.815200 0.132456 0.726408
Si Si3 0.072264 0.862555 0.886424
Si Si4 0.508925 0.211610 0.545573
Si Si5 0.809704 0.783843 0.804121
Si Si6 0.728120 0.209230 0.642558
Si Si7 0.780124 0.184334 0.019543
Si Si8 0.451032 0.931395 0.135785
O O1 0.824787 0.500000 0.753561
O O2 0.602742 0.396880 0.742259
O O3 0.090761 0.410948 0.734287
O O4 0.991534 0.421508 0.811615
O O5 0.801235 0.185701 0.758579
O O6 0.764593 0.159178 0.678374
O O7 0.139986 0.820780 0.928557
O O8 0.330239 0.896181 0.881173
O O9 0.953280 0.824775 0.843621
O O10 0.839376 0.907627 0.887526
O O11 0.500000 0.179287 0.500000
O O12 0.217629 0.235893 0.544680
O O13 0.631182 0.184623 0.593044
O O14 0.513802 0.769432 0.807148
O O15 0.499366 0.254455 0.647609
O O16 0.500000 0.155260 0.000000
O O17 0.750000 0.250000 0.000000
O O18 0.000000 0.155441 0.000000
O O19 0.473151 0.000000 0.129391
#
# Coordination Sequence:
#
# PCOD9179067 Si02
#       8
#     8   8   8   8   8   8   8   8
#     4  11  22  38  57  78 106 138 181 233 272 306
#     4  12  21  37  50  77 111 145 180 211 273 321
#     4  12  23  40  64  86 115 144 178 217 261 312
#     4   8  14  25  42  65  94 134 185 227 262 305
#     4  12  24  34  52  80 115 147 173 209 245 313
#     4  10  19  31  48  71 108 153 180 216 267 323
#     4  10  23  40  59  84 113 144 171 207 256 306
#     4  11  22  41  64  89 109 139 184 228 270 308
#
# _framework density 17.377766000000001
#
# number of rings (size 3 to 8) (size 9 to 14) (size 15 to 20)
#    0.000    1.250    2.500    4.500    3.500    2.000 
#    0.000    0.000    0.000    7.500    0.000    0.000 
#    0.000    3.000    0.000    0.000    0.000    0.000 
#
# Total GULP energy -178571.149249 kJ/mol
# GULP energy per Si atom -5580.348414 kJ/mol
# Density = 1.733821 g / cm^3
# Si number density = 17.377766 Si / 1000 Ang^3
#
#
#
# Elastic Constant Matrix: (Units=GPa)
#
#
# Indices 1 2 3 4 5 6 
#
# 1 81.7407 2.2509 5.4290 0.0000 -0.6556 0.0000
# 2 2.2509 48.7572 27.9905 0.0000 -3.9295 0.0000
# 3 5.4290 27.9905 113.7845 0.0000 -9.2869 0.0000
# 4 0.0000 0.0000 0.0000 10.4945 0.0000 4.2930
# 5 -0.6556 -3.9295 -9.2869 0.0000 19.9493 0.0000
# 6 0.0000 0.0000 0.0000 4.2930 0.0000 20.7072
#
#
#
# Elastic Compliance Matrix: (Units=1/GPa)
#
#
# Indices 1 2 3 4 5 6 
#
# 1 0.012276 -0.000264 -0.000512 0.000000 0.000113 0.000000
# 2 -0.000264 0.023969 -0.005716 0.000000 0.002052 0.000000
# 3 -0.000512 -0.005716 0.010526 0.000000 0.003757 0.000000
# 4 0.000000 0.000000 0.000000 0.104118 0.000000 -0.021586
# 5 0.000113 0.002052 0.003757 0.000000 0.052284 0.000000
# 6 0.000000 0.000000 0.000000 -0.021586 0.000000 0.052767
#
#
# Mechanical properties :
#
#
# Convention : Reuss Voigt Hill
#
# Bulk Modulus (GPa) = 29.59697 35.06924 32.33311
# Shear Modulus (GPa) = 17.84532 24.13766 20.99149
#
# Velocity S-wave (km/s) = 3.20801 3.73097 3.47933
# Velocity P-wave (km/s) = 5.54890 6.22772 5.89808
#
# Compressibility (1/GPa) = 0.03378724
#
# Stress axis : x y z
#
# Youngs Moduli (GPa) = 81.46003 41.72081 95.00486
#
# Poissons Ratio (x) = 0.01101 0.04860
# Poissons Ratio (y) = 0.02150 0.54307
# Poissons Ratio (z) = 0.04167 0.23848
#
# Static dielectric constant tensor:
#      x y z
#    x 1.627220 0.000000 -0.006520 
#    y 0.000000 1.574390 0.000000 
#    z -0.006520 0.000000 1.618540 
# 
# From -- ./inp_files/371683.got.cif
#   From: 2010.05.17/outbox.cif.g08.bks.cpg/sg12_186_cif.got.tgz:371683.got - 2010.06.03 13:09:07.
