data_PCOD9179214
_publ_section_title
;
Structure prediction by ZEFSAII (Michael W. Deem and Ramdas Pophale) SiO2 
 PCOD9179214
Probable space group: C 2/M
;
_chemical_formula_sum "Si O2"
_cell_formula_units_Z 48
_cell_length_a 18.957445
_cell_length_b 7.630952
_cell_length_c 17.026782
_cell_angle_alpha 90.000000
_cell_angle_beta 71.745871
_cell_angle_gamma 90.000000
_cell_volume 2339.197111
_symmetry_space_group_name_H-M "C 2/M"
_symmetry_group_IT_number 12
_symmetry_cell_setting 'monoclinic'
loop_
_space_group_symop_operation_xyz
x,y,z
-x,y,-z
-x,-y,-z
x,-y,z
1/2+x,1/2+y,z
1/2-x,1/2+y,-z
1/2-x,1/2-y,-z
1/2+x,1/2-y,z
loop_
_atom_site_type_symbol
_atom_site_label
_atom_site_fract_x
_atom_site_fract_y
_atom_site_fract_z
Si Si1 0.265191 0.785961 0.762825
Si Si2 0.532231 0.202080 0.068814
Si Si3 0.362604 0.202810 0.404624
Si Si4 0.401043 0.702347 0.223045
Si Si5 0.314880 0.789102 0.916012
Si Si6 0.193284 0.713467 0.418193
O O1 0.179999 0.729548 0.776087
O O2 0.294326 0.723351 0.836284
O O3 0.314928 0.735847 0.669876
O O4 0.263472 0.000000 0.763828
O O5 0.468296 0.204812 0.156382
O O6 0.607573 0.281085 0.077076
O O7 0.551111 0.000000 0.042589
O O8 0.500000 0.282695 0.000000
O O9 0.403801 0.287778 0.316677
O O10 0.275248 0.219316 0.412796
O O11 0.363559 0.271815 0.493929
O O12 0.384600 0.000000 0.397704
O O13 0.405041 0.500000 0.197999
O O14 0.321155 0.000000 0.906129
O O15 0.250000 0.750000 0.000000
O O16 0.195892 0.500000 0.421341
#
# Coordination Sequence:
#
# PCOD9179214 Si02
#       6
#     8   8   8   8   8   8
#     4   8  15  29  48  70  94 122 158 195 230 270
#     4  10  21  35  50  71  98 124 153 193 239 283
#     4   9  15  24  42  68  97 125 154 193 237 276
#     4  10  19  31  49  71  96 126 160 196 231 276
#     4  10  20  34  52  71  94 123 154 192 234 279
#     4   8  14  25  42  66  95 125 158 194 231 275
#
# _framework density 20.519863000000001
#
# number of rings (size 3 to 8) (size 9 to 14) (size 15 to 20)
#    0.000    2.833    0.000    3.000    0.000    1.667 
#    0.000    3.333    0.000    1.000    0.000    7.000 
#    0.000    0.000    0.000    0.000    0.000    0.000 
#
# Total GULP energy -133735.964980 kJ/mol
# GULP energy per Si atom -5572.331874 kJ/mol
# Density = 2.047316 g / cm^3
# Si number density = 20.519863 Si / 1000 Ang^3
#
#
#
# Elastic Constant Matrix: (Units=GPa)
#
#
# Indices 1 2 3 4 5 6 
#
# 1 104.3514 3.9382 83.9525 0.0000 16.2581 0.0000
# 2 3.9382 40.2539 -7.1751 0.0000 2.4978 0.0000
# 3 83.9525 -7.1751 177.3158 0.0000 26.9871 0.0000
# 4 0.0000 0.0000 0.0000 20.4472 0.0000 -2.6456
# 5 16.2581 2.4978 26.9871 0.0000 28.3747 0.0000
# 6 0.0000 0.0000 0.0000 -2.6456 0.0000 -0.3495
#
#
#
# Elastic Compliance Matrix: (Units=1/GPa)
#
#
# Indices 1 2 3 4 5 6 
#
# 1 0.015892 -0.002749 -0.007351 0.000000 -0.001873 0.000000
# 2 -0.002749 0.025835 0.002869 0.000000 -0.003428 -0.000001
# 3 -0.007351 0.002869 0.010095 0.000000 -0.005642 0.000000
# 4 0.000000 0.000000 0.000000 0.024708 0.000000 -0.187020
# 5 -0.001873 -0.003428 -0.005642 0.000000 0.041983 0.000000
# 6 0.000000 -0.000001 0.000000 -0.187020 0.000000 -1.445426
#
#
# Mechanical properties :
#
#
# Convention : Reuss Voigt Hill
#
# Bulk Modulus (GPa) = 26.76629 53.70580 40.23605
# Shear Modulus (GPa) = -3.84616 25.77485 10.96434
#
# Velocity S-wave (km/s) = -1.37056 3.54798 2.31406
# Velocity P-wave (km/s) = 3.25082 6.55848 5.17598
#
# Compressibility (1/GPa) = 0.03736043
#
# Stress axis : x y z
#
# Youngs Moduli (GPa) = 62.92416 38.70682 99.06277
#
# Poissons Ratio (x) = 0.10640 0.72816
# Poissons Ratio (y) = 0.17296 -0.28416
# Poissons Ratio (z) = 0.46253 -0.11103
#
# Static dielectric constant tensor:
#      x y z
#    x 1.722160 0.000000 0.037450 
#    y 0.000000 1.879880 0.000000 
#    z 0.037450 0.000000 1.757020 
# 
# From -- ./inp_files/274074.got.cif
#   From: 2010.05.17/outbox.cif.g08.bks.cpg/sg12_138_cif.got.tgz:274074.got - 2010.06.03 13:09:07.
