data_PCOD9179787
_publ_section_title
;
Structure prediction by ZEFSAII (Michael W. Deem and Ramdas Pophale) SiO2 
 PCOD9179787
Probable space group: C 2/M
;
_chemical_formula_sum "Si O2"
_cell_formula_units_Z 64
_cell_length_a 20.264653
_cell_length_b 7.356857
_cell_length_c 20.093184
_cell_angle_alpha 90.000000
_cell_angle_beta 59.867426
_cell_angle_gamma 90.000000
_cell_volume 2590.771744
_symmetry_space_group_name_H-M "C 2/M"
_symmetry_group_IT_number 12
_symmetry_cell_setting 'monoclinic'
loop_
_space_group_symop_operation_xyz
x,y,z
-x,y,-z
-x,-y,-z
x,-y,z
1/2+x,1/2+y,z
1/2-x,1/2+y,-z
1/2-x,1/2-y,-z
1/2+x,1/2-y,z
loop_
_atom_site_type_symbol
_atom_site_label
_atom_site_fract_x
_atom_site_fract_y
_atom_site_fract_z
Si Si1 0.696672 0.795288 0.369958
Si Si2 0.139815 0.222038 0.665647
Si Si3 0.373512 0.220106 0.830627
Si Si4 0.202021 0.778589 0.882246
Si Si5 0.912925 0.221445 0.168384
Si Si6 0.572727 0.779998 0.335653
Si Si7 0.593837 0.289601 0.543207
Si Si8 0.426138 0.708514 0.951950
O O1 0.774961 0.717390 0.358125
O O2 0.648963 0.712791 0.333722
O O3 0.637240 0.802990 0.460969
O O4 0.717340 0.000000 0.337411
O O5 0.088245 0.278797 0.754208
O O6 0.116726 0.284762 0.604247
O O7 0.137906 0.000000 0.663667
O O8 0.287355 0.279324 0.856247
O O9 0.426184 0.276809 0.741846
O O10 0.399445 0.288803 0.888904
O O11 0.374569 0.000000 0.833421
O O12 0.164113 0.726179 0.831201
O O13 0.205141 0.000000 0.881442
O O14 0.141083 0.715143 0.968487
O O15 0.988525 0.286670 0.092086
O O16 0.915678 0.000000 0.166882
O O17 0.497341 0.721311 0.412231
O O18 0.574317 0.000000 0.336686
O O19 0.617005 0.500000 0.527680
O O20 0.434066 0.500000 0.970703
#
# Coordination Sequence:
#
# PCOD9179787 Si02
#       8
#     8   8   8   8   8   8   8   8
#     4  10  20  36  56  75  98 132 174 213 247 293
#     4   9  18  32  51  75 102 133 169 210 254 297
#     4  10  20  34  52  74 102 136 172 210 251 297
#     4   9  17  30  50  76 103 133 172 213 250 292
#     4   9  16  29  51  77 102 130 170 216 253 289
#     4  10  21  36  54  75  99 133 176 214 247 291
#     4  11  22  35  53  79 108 133 160 203 260 312
#     4  10  19  31  51  79 107 134 166 208 256 302
#
# _framework density 24.703061999999999
#
# number of rings (size 3 to 8) (size 9 to 14) (size 15 to 20)
#    0.000    2.250    0.000    3.375    0.000    8.000 
#    0.000    0.625    0.000    3.000    0.000    0.000 
#    0.000    0.000    0.000    0.000    0.000    0.000 
#
# Total GULP energy -179012.874812 kJ/mol
# GULP energy per Si atom -5594.152338 kJ/mol
# Density = 2.464684 g / cm^3
# Si number density = 24.703062 Si / 1000 Ang^3
#
#
#
# Elastic Constant Matrix: (Units=GPa)
#
#
# Indices 1 2 3 4 5 6 
#
# 1 89.0167 -10.0088 -6.9519 -0.0003 -0.9126 0.0004
# 2 -10.0088 95.3554 -5.8324 0.0013 0.5782 0.0064
# 3 -6.9519 -5.8324 83.0317 -0.0005 1.9890 -0.0011
# 4 -0.0003 0.0013 -0.0005 -0.7319 -0.0006 10.5860
# 5 -0.9126 0.5782 1.9890 -0.0006 46.1264 0.0008
# 6 0.0004 0.0064 -0.0011 10.5860 0.0008 2.7732
#
#
#
# Elastic Compliance Matrix: (Units=1/GPa)
#
#
# Indices 1 2 3 4 5 6 
#
# 1 0.011459 0.001266 0.001044 -0.000001 0.000166 0.000000
# 2 0.001266 0.010673 0.000859 -0.000006 -0.000146 -0.000002
# 3 0.001044 0.000859 0.012204 0.000001 -0.000516 0.000001
# 4 -0.000001 -0.000006 0.000001 -0.024306 -0.000002 0.092784
# 5 0.000166 -0.000146 -0.000516 -0.000002 0.021707 0.000001
# 6 0.000000 -0.000002 0.000001 0.092784 0.000001 0.006415
#
#
# Mechanical properties :
#
#
# Convention : Reuss Voigt Hill
#
# Bulk Modulus (GPa) = 24.58507 24.64639 24.61573
# Shear Modulus (GPa) = 110.20013 28.98000 69.59006
#
# Velocity S-wave (km/s) = 6.68631 3.42882 5.31336
# Velocity P-wave (km/s) = 8.34163 5.06700 6.90135
#
# Compressibility (1/GPa) = 0.04067510
#
# Stress axis : x y z
#
# Youngs Moduli (GPa) = 87.26446 93.69116 81.94198
#
# Poissons Ratio (x) = -0.11858 -0.08558
# Poissons Ratio (y) = -0.11045 -0.07040
# Poissons Ratio (z) = -0.09114 -0.08050
#
# Static dielectric constant tensor:
#      x y z
#    x 1.913250 0.000000 -0.000970 
#    y 0.000000 2.080170 0.000000 
#    z -0.000970 0.000000 1.907070 
# 
# From -- ./inp_files/319783.got.cif
#   From: 2010.05.17/outbox.cif.g08.bks.cpg/sg12_160_cif.got.tgz:319783.got - 2010.06.03 13:09:07.
