data_PCOD9179841
_publ_section_title
;
Structure prediction by ZEFSAII (Michael W. Deem and Ramdas Pophale) SiO2 
 PCOD9179841
Probable space group: C 2/M
;
_chemical_formula_sum "Si O2"
_cell_formula_units_Z 48
_cell_length_a 19.048201
_cell_length_b 9.480948
_cell_length_c 30.116099
_cell_angle_alpha 90.000000
_cell_angle_beta 153.043176
_cell_angle_gamma 90.000000
_cell_volume 2465.518760
_symmetry_space_group_name_H-M "C 2/M"
_symmetry_group_IT_number 12
_symmetry_cell_setting 'monoclinic'
loop_
_space_group_symop_operation_xyz
x,y,z
-x,y,-z
-x,-y,-z
x,-y,z
1/2+x,1/2+y,z
1/2-x,1/2+y,-z
1/2-x,1/2-y,-z
1/2+x,1/2-y,z
loop_
_atom_site_type_symbol
_atom_site_label
_atom_site_fract_x
_atom_site_fract_y
_atom_site_fract_z
Si Si1 0.621168 0.836977 0.026792
Si Si2 0.649733 0.163698 0.786807
Si Si3 0.107989 0.837723 0.158787
Si Si4 0.849130 0.159998 0.590604
Si Si5 0.384179 0.767312 0.468577
Si Si6 0.694876 0.344079 0.665351
O O1 0.764574 0.744031 0.124759
O O2 0.660857 0.000000 0.039637
O O3 0.500000 0.838677 0.000000
O O4 0.533769 0.758820 0.937427
O O5 0.769402 0.162836 0.812882
O O6 0.501863 0.253114 0.688769
O O7 0.613412 0.000000 0.776539
O O8 0.197361 0.769615 0.250553
O O9 0.062664 0.000000 0.141108
O O10 0.750000 0.250000 0.500000
O O11 0.738967 0.154874 0.571757
O O12 0.882463 0.000000 0.594908
O O13 0.500000 0.848931 0.500000
O O14 0.299322 0.666865 0.385013
O O15 0.512160 0.687542 0.570843
O O16 0.735147 0.500000 0.703714
#
# Coordination Sequence:
#
# PCOD9179841 Si02
#       6
#     8   8   8   8   8   8
#     4   9  17  31  52  77 107 146 189 234 280 332
#     4  10  21  35  52  79 115 151 185 231 285 338
#     4  10  19  31  51  81 114 148 187 232 281 334
#     4  12  25  39  58  85 117 153 189 235 284 336
#     4   8  21  39  57  82 110 148 193 235 280 335
#     4   9  18  33  56  81 106 140 187 234 276 328
#
# _framework density 19.468519000000001
#
# number of rings (size 3 to 8) (size 9 to 14) (size 15 to 20)
#    1.000    1.167    0.000    4.000    0.000   11.000 
#    0.000    0.000    0.000    1.000    0.000    0.000 
#    0.000    0.000    0.000    0.000    0.000    0.000 
#
# Total GULP energy -133678.535233 kJ/mol
# GULP energy per Si atom -5569.938968 kJ/mol
# Density = 1.942421 g / cm^3
# Si number density = 19.468519 Si / 1000 Ang^3
#
#
#
# Elastic Constant Matrix: (Units=GPa)
#
#
# Indices 1 2 3 4 5 6 
#
# 1 18.7288 15.7825 6.9824 0.0002 4.0627 0.0000
# 2 15.7825 197.8538 92.2046 0.0002 -1.0318 0.0000
# 3 6.9824 92.2046 164.1126 0.0007 -10.4626 0.0001
# 4 0.0002 0.0002 0.0007 81.5025 0.0002 -5.1140
# 5 4.0627 -1.0318 -10.4626 0.0002 16.8719 0.0000
# 6 0.0000 0.0000 0.0001 -5.1140 0.0000 14.9304
#
#
#
# Elastic Compliance Matrix: (Units=1/GPa)
#
#
# Indices 1 2 3 4 5 6 
#
# 1 0.060925 -0.004429 -0.001100 0.000000 -0.015623 0.000000
# 2 -0.004429 0.007238 -0.003937 0.000000 -0.000933 0.000000
# 3 -0.001100 -0.003937 0.008698 0.000000 0.005418 0.000000
# 4 0.000000 0.000000 0.000000 0.012539 0.000000 0.004295
# 5 -0.015623 -0.000933 0.005418 0.000000 0.066335 0.000000
# 6 0.000000 0.000000 0.000000 0.004295 0.000000 0.068448
#
#
# Mechanical properties :
#
#
# Convention : Reuss Voigt Hill
#
# Bulk Modulus (GPa) = 17.26278 67.84824 42.55551
# Shear Modulus (GPa) = 19.05315 40.37602 29.71458
#
# Velocity S-wave (km/s) = 3.13176 4.55896 3.91101
# Velocity P-wave (km/s) = 4.68652 7.91442 6.50390
#
# Compressibility (1/GPa) = 0.05792811
#
# Stress axis : x y z
#
# Youngs Moduli (GPa) = 16.41365 138.16829 114.97265
#
# Poissons Ratio (x) = 0.61191 0.12646
# Poissons Ratio (y) = 0.07269 0.45269
# Poissons Ratio (z) = 0.01805 0.54402
#
# Static dielectric constant tensor:
#      x y z
#    x 1.709220 0.000000 -0.010660 
#    y 0.000000 1.691570 0.000000 
#    z -0.010660 0.000000 1.672720 
# 
# From -- ./inp_files/380250.got.cif
#   From: 2010.05.17/outbox.cif.g08.bks.cpg/sg12_191_cif.got.tgz:380250.got - 2010.06.03 13:09:07.
