data_PCOD9179911
_publ_section_title
;
Structure prediction by ZEFSAII (Michael W. Deem and Ramdas Pophale) SiO2 
 PCOD9179911
Probable space group: C 2/M
;
_chemical_formula_sum "Si O2"
_cell_formula_units_Z 56
_cell_length_a 10.792591
_cell_length_b 14.455815
_cell_length_c 17.776264
_cell_angle_alpha 90.000000
_cell_angle_beta 55.374678
_cell_angle_gamma 90.000000
_cell_volume 2282.170627
_symmetry_space_group_name_H-M "C 2/M"
_symmetry_group_IT_number 12
_symmetry_cell_setting 'monoclinic'
loop_
_space_group_symop_operation_xyz
x,y,z
-x,y,-z
-x,-y,-z
x,-y,z
1/2+x,1/2+y,z
1/2-x,1/2+y,-z
1/2-x,1/2-y,-z
1/2+x,1/2-y,z
loop_
_atom_site_type_symbol
_atom_site_label
_atom_site_fract_x
_atom_site_fract_y
_atom_site_fract_z
Si Si1 0.636794 0.612566 0.551381
Si Si2 0.109009 0.140818 0.118735
Si Si3 0.334203 0.852542 0.166392
Si Si4 0.650448 0.864008 0.089315
Si Si5 0.223254 0.855763 0.801357
Si Si6 0.642023 0.887824 0.399279
Si Si7 0.203149 0.111506 0.367785
O O1 0.637611 0.500000 0.551775
O O2 0.713134 0.641499 0.601882
O O3 0.729208 0.640997 0.444762
O O4 0.465584 0.641250 0.597331
O O5 0.197469 0.109062 0.163434
O O6 0.116977 0.253576 0.111864
O O7 0.937590 0.106186 0.171878
O O8 0.208787 0.114918 0.012292
O O9 0.498378 0.894939 0.099791
O O10 0.328123 0.744141 0.150146
O O11 0.308902 0.857651 0.264684
O O12 0.690419 0.899874 0.158372
O O13 0.335692 0.849944 0.691892
O O14 0.500000 0.861023 0.500000
O O15 0.636842 0.000000 0.394150
O O16 0.205334 0.000000 0.367150
#
# Coordination Sequence:
#
# PCOD9179911 Si02
#       7
#     8   8   8   8   8   8   8
#     4   8  16  32  51  70  91 128 179 205 231 298
#     4   9  17  33  54  75 104 137 169 206 252 311
#     4  10  19  31  52  79 106 127 168 211 254 298
#     4   9  18  31  53  79 103 135 170 207 253 305
#     4  10  20  34  52  77 104 129 173 216 253 299
#     4  10  21  36  53  71  99 139 177 209 252 310
#     4   9  17  31  52  73  98 133 168 204 247 302
#
# _framework density 24.538041
#
# number of rings (size 3 to 8) (size 9 to 14) (size 15 to 20)
#    0.000    2.714    0.000    2.571    2.000    3.429 
#    2.571    0.714    0.000    5.143    0.000    0.000 
#    0.000    0.000    0.000    0.000    0.000    0.000 
#
# Total GULP energy -156349.182109 kJ/mol
# GULP energy per Si atom -5583.899361 kJ/mol
# Density = 2.448219 g / cm^3
# Si number density = 24.538041 Si / 1000 Ang^3
#
#
#
# Elastic Constant Matrix: (Units=GPa)
#
#
# Indices 1 2 3 4 5 6 
#
# 1 113.1070 4.5408 34.0263 0.0000 11.4325 0.0000
# 2 4.5408 89.9948 -11.9258 0.0000 -3.8352 0.0000
# 3 34.0263 -11.9258 91.4473 0.0000 5.5390 0.0000
# 4 0.0000 0.0000 0.0000 30.1385 0.0000 6.0178
# 5 11.4325 -3.8352 5.5390 0.0000 40.7868 0.0000
# 6 0.0000 0.0000 0.0000 6.0178 0.0000 -14.3418
#
#
#
# Elastic Compliance Matrix: (Units=1/GPa)
#
#
# Indices 1 2 3 4 5 6 
#
# 1 0.010287 -0.001131 -0.003826 0.000000 -0.002470 0.000000
# 2 -0.001131 0.011462 0.001846 0.000000 0.001144 0.000000
# 3 -0.003826 0.001846 0.012628 0.000000 -0.000469 0.000000
# 4 0.000000 0.000000 0.000000 0.030615 0.000000 0.012846
# 5 -0.002470 0.001144 -0.000469 0.000000 0.025381 0.000000
# 6 0.000000 0.000000 0.000000 0.012846 0.000000 -0.064336
#
#
# Mechanical properties :
#
#
# Convention : Reuss Voigt Hill
#
# Bulk Modulus (GPa) = 35.51582 38.64797 37.08189
# Shear Modulus (GPa) = 120.06397 29.17722 74.62059
#
# Velocity S-wave (km/s) = 7.00257 3.45202 5.52052
# Velocity P-wave (km/s) = 8.93792 5.62787 7.46858
#
# Compressibility (1/GPa) = 0.02815647
#
# Stress axis : x y z
#
# Youngs Moduli (GPa) = 97.20854 87.24271 79.18950
#
# Poissons Ratio (x) = 0.09870 0.30295
# Poissons Ratio (y) = 0.10997 -0.14622
# Poissons Ratio (z) = 0.37188 -0.16109
#
# Static dielectric constant tensor:
#      x y z
#    x 1.969980 0.000000 -0.018980 
#    y 0.000000 1.998960 0.000000 
#    z -0.018980 0.000000 1.907570 
# 
# From -- ./inp_files/134817.got.cif
#   From: 2010.05.17/outbox.cif.g08.bks.cpg/sg12_68_cif.got.tgz:134817.got - 2010.06.03 13:09:07.
