data_PCOD9179336
_publ_section_title
;
Structure prediction by ZEFSAII (Michael W. Deem and Ramdas Pophale) SiO2 
 PCOD9179336
Probable space group: C 2/M
;
_chemical_formula_sum "Si O2"
_cell_formula_units_Z 36
_cell_length_a 5.203934
_cell_length_b 25.495712
_cell_length_c 15.445960
_cell_angle_alpha 90.000000
_cell_angle_beta 62.409262
_cell_angle_gamma 90.000000
_cell_volume 1816.285120
_symmetry_space_group_name_H-M "C 2/M"
_symmetry_group_IT_number 12
_symmetry_cell_setting 'monoclinic'
loop_
_space_group_symop_operation_xyz
x,y,z
-x,y,-z
-x,-y,-z
x,-y,z
1/2+x,1/2+y,z
1/2-x,1/2+y,-z
1/2-x,1/2-y,-z
1/2+x,1/2-y,z
loop_
_atom_site_type_symbol
_atom_site_label
_atom_site_fract_x
_atom_site_fract_y
_atom_site_fract_z
Si Si1 0.207163 0.063016 0.233980
Si Si2 0.656926 0.000000 0.569206
Si Si3 0.860522 0.063231 0.111219
Si Si4 0.862319 0.279349 0.618889
Si Si5 0.367724 0.103596 0.616366
O O1 0.535082 0.082866 0.178428
O O2 0.065618 0.072353 0.161119
O O3 0.971218 0.089353 0.333423
O O4 0.198997 0.000000 0.251042
O O5 0.500000 0.000000 0.500000
O O6 0.533599 0.946763 0.631152
O O7 0.000000 0.000000 0.500000
O O8 0.831145 0.000000 0.107261
O O9 0.000000 0.082554 0.000000
O O10 0.536523 0.260810 0.651858
O O11 0.897383 0.338245 0.649016
O O12 0.000000 0.278129 0.500000
O O13 0.500000 0.107670 0.500000
#
# Coordination Sequence:
#
# PCOD9179336 Si02
#       5
#     8   4   8   8   8
#     4  10  19  31  49  74 102 136 172 205 253 312
#     4  10  22  34  48  70 101 144 175 198 246 300
#     4   9  18  32  49  69  98 134 172 214 255 300
#     4   9  19  34  52  70  94 134 181 222 257 288
#     4  10  21  36  52  76 111 144 176 213 252 310
#
# _framework density 19.820677
#
# number of rings (size 3 to 8) (size 9 to 14) (size 15 to 20)
#    0.000    2.444    1.111    0.667    0.000   14.222 
#    0.000    0.000    0.000    0.000    0.000    0.000 
#    0.000   17.778    0.000    0.000    0.000    0.000 
#
# Total GULP energy -100470.151946 kJ/mol
# GULP energy per Si atom -5581.675108 kJ/mol
# Density = 1.977556 g / cm^3
# Si number density = 19.820677 Si / 1000 Ang^3
#
#
#
# Elastic Constant Matrix: (Units=GPa)
#
#
# Indices 1 2 3 4 5 6 
#
# 1 103.5243 33.1145 34.9441 0.0000 -21.1240 0.0000
# 2 33.1145 103.7197 7.6955 0.0000 -3.8324 0.0000
# 3 34.9441 7.6955 108.4162 0.0000 -13.5423 0.0000
# 4 0.0000 0.0000 0.0000 -4.9400 0.0000 0.1316
# 5 -21.1240 -3.8324 -13.5423 0.0000 24.5051 0.0000
# 6 0.0000 0.0000 0.0000 0.1316 0.0000 15.7837
#
#
#
# Elastic Compliance Matrix: (Units=1/GPa)
#
#
# Indices 1 2 3 4 5 6 
#
# 1 0.013882 -0.003852 -0.002988 0.000000 0.009713 0.000000
# 2 -0.003852 0.010795 0.000291 0.000000 -0.001471 0.000000
# 3 -0.002988 0.000291 0.010580 0.000000 0.003317 0.000000
# 4 0.000000 0.000000 0.000000 -0.202382 0.000000 0.001688
# 5 0.009713 -0.001471 0.003317 0.000000 0.050784 0.000000
# 6 0.000000 0.000000 0.000000 0.001688 0.000000 0.063343
#
#
# Mechanical properties :
#
#
# Convention : Reuss Voigt Hill
#
# Bulk Modulus (GPa) = 45.12258 51.90759 48.51508
# Shear Modulus (GPa) = -153.77261 23.06348 -65.35456
#
# Velocity S-wave (km/s) = -8.81762 3.41487 -5.74843
# Velocity P-wave (km/s) = 8.99179 6.46482 4.41918
#
# Compressibility (1/GPa) = 0.02216185
#
# Stress axis : x y z
#
# Youngs Moduli (GPa) = 72.03572 92.63482 94.51482
#
# Poissons Ratio (x) = 0.35678 0.28238
# Poissons Ratio (y) = 0.27745 -0.02755
# Poissons Ratio (z) = 0.21522 -0.02700
#
# Static dielectric constant tensor:
#      x y z
#    x 1.668980 0.000000 -0.002800 
#    y 0.000000 1.709770 0.000000 
#    z -0.002800 0.000000 1.717050 
# 
# From -- ./inp_files/191441.got.cif
#   From: 2010.05.17/outbox.cif.g08.bks.cpg/sg12_96_cif.got.tgz:191441.got - 2010.06.03 13:09:07.
