data_PCOD9179998
_publ_section_title
;
Structure prediction by ZEFSAII (Michael W. Deem and Ramdas Pophale) SiO2 
 PCOD9179998
Probable space group: C 2/M
;
_chemical_formula_sum "Si O2"
_cell_formula_units_Z 64
_cell_length_a 22.208905
_cell_length_b 14.498325
_cell_length_c 11.916521
_cell_angle_alpha 90.000000
_cell_angle_beta 128.969828
_cell_angle_gamma 90.000000
_cell_volume 2983.198501
_symmetry_space_group_name_H-M "C 2/M"
_symmetry_group_IT_number 12
_symmetry_cell_setting 'monoclinic'
loop_
_space_group_symop_operation_xyz
x,y,z
-x,y,-z
-x,-y,-z
x,-y,z
1/2+x,1/2+y,z
1/2-x,1/2+y,-z
1/2-x,1/2-y,-z
1/2+x,1/2-y,z
loop_
_atom_site_type_symbol
_atom_site_label
_atom_site_fract_x
_atom_site_fract_y
_atom_site_fract_z
Si Si1 0.701072 0.260070 0.063520
Si Si2 0.205957 0.106181 0.511109
Si Si3 0.696247 0.605562 0.753341
Si Si4 0.474983 0.760919 0.183007
Si Si5 0.052524 0.396732 0.654858
Si Si6 0.036919 0.106614 0.665830
Si Si7 0.197750 0.393674 0.668615
Si Si8 0.644936 0.799384 0.371919
O O1 0.726996 0.163034 0.144733
O O2 0.735982 0.336854 0.189256
O O3 0.750000 0.250000 0.000000
O O4 0.608051 0.269321 0.963160
O O5 0.170284 0.110831 0.593666
O O6 0.296872 0.133414 0.626163
O O7 0.173472 0.192468 0.401930
O O8 0.195662 0.000000 0.460654
O O9 0.709826 0.500000 0.798031
O O10 0.625836 0.638022 0.749493
O O11 0.448491 0.842443 0.233535
O O12 0.500779 0.674118 0.289746
O O13 0.555914 0.797362 0.226899
O O14 0.021112 0.500000 0.636395
O O15 0.134344 0.400643 0.692077
O O16 0.000000 0.347650 0.500000
O O17 0.000000 0.110410 0.500000
O O18 0.035664 0.000000 0.700982
O O19 0.217062 0.500000 0.659089
O O20 0.159831 0.338520 0.517945
#
# Coordination Sequence:
#
# PCOD9179998 Si02
#       8
#     8   8   8   8   8   8   8   8
#     4  12  23  37  55  89 129 173 204 242 305 375
#     4  10  22  42  68  93 117 153 208 263 310 361
#     4  10  20  38  60  84 121 162 204 249 303 367
#     4  12  23  35  57  88 129 159 200 256 298 372
#     4  10  19  31  52  84 121 159 198 250 309 359
#     4  10  20  32  55  89 120 154 195 249 311 362
#     4  11  22  38  60  87 124 164 207 251 304 369
#     4  11  23  40  67  94 117 158 206 265 312 358
#
# _framework density 21.453484
#
# number of rings (size 3 to 8) (size 9 to 14) (size 15 to 20)
#    0.000    1.250    5.000    1.500    0.000    3.500 
#    0.000    0.625    0.000    1.500    0.000    2.625 
#    0.000    0.000    0.000    0.000    0.000    0.000 
#
# Total GULP energy -178283.768342 kJ/mol
# GULP energy per Si atom -5571.367761 kJ/mol
# Density = 2.140466 g / cm^3
# Si number density = 21.453484 Si / 1000 Ang^3
#
#
#
# Elastic Constant Matrix: (Units=GPa)
#
#
# Indices 1 2 3 4 5 6 
#
# 1 52.0248 4.5918 2.0221 0.0000 16.2145 0.0000
# 2 4.5918 90.3018 14.8004 0.0000 5.8173 0.0000
# 3 2.0221 14.8004 83.6022 0.0000 32.8018 0.0000
# 4 0.0000 0.0000 0.0000 15.2188 0.0000 -7.2697
# 5 16.2145 5.8173 32.8018 0.0000 29.6096 0.0000
# 6 0.0000 0.0000 0.0000 -7.2697 0.0000 14.2532
#
#
#
# Elastic Compliance Matrix: (Units=1/GPa)
#
#
# Indices 1 2 3 4 5 6 
#
# 1 0.026620 -0.001283 0.009205 0.000000 -0.024522 0.000000
# 2 -0.001283 0.011467 -0.002460 0.000000 0.001174 0.000000
# 3 0.009205 -0.002460 0.024697 0.000000 -0.031917 0.000000
# 4 0.000000 0.000000 0.000000 0.086874 0.000000 0.044309
# 5 -0.024522 0.001174 -0.031917 0.000000 0.082328 0.000000
# 6 0.000000 0.000000 0.000000 0.044309 0.000000 0.092759
#
#
# Mechanical properties :
#
#
# Convention : Reuss Voigt Hill
#
# Bulk Modulus (GPa) = 13.56698 29.86193 21.71445
# Shear Modulus (GPa) = 14.77589 25.45063 20.11326
#
# Velocity S-wave (km/s) = 2.62723 3.44803 3.06523
# Velocity P-wave (km/s) = 3.94218 5.45907 4.76142
#
# Compressibility (1/GPa) = 0.07370840
#
# Stress axis : x y z
#
# Youngs Moduli (GPa) = 37.56591 87.20919 40.49070
#
# Poissons Ratio (x) = 0.11185 -0.37270
# Poissons Ratio (y) = 0.04818 0.09960
# Poissons Ratio (z) = -0.34578 0.21451
#
# Static dielectric constant tensor:
#      x y z
#    x 1.841020 0.000000 0.017130 
#    y 0.000000 1.788880 0.000000 
#    z 0.017130 0.000000 1.901470 
# 
# From -- ./inp_files/240707.got.cif
#   From: 2010.05.17/outbox.cif.g08.bks.cpg/sg12_121_cif.got.tgz:240707.got - 2010.06.03 13:09:07.
