data_PCOD9179878
_publ_section_title
;
Structure prediction by ZEFSAII (Michael W. Deem and Ramdas Pophale) SiO2 
 PCOD9179878
Probable space group: C 2/M
;
_chemical_formula_sum "Si O2"
_cell_formula_units_Z 56
_cell_length_a 26.051811
_cell_length_b 8.091865
_cell_length_c 15.574864
_cell_angle_alpha 90.000000
_cell_angle_beta 105.449835
_cell_angle_gamma 90.000000
_cell_volume 3164.656655
_symmetry_space_group_name_H-M "C 2/M"
_symmetry_group_IT_number 12
_symmetry_cell_setting 'monoclinic'
loop_
_space_group_symop_operation_xyz
x,y,z
-x,y,-z
-x,-y,-z
x,-y,z
1/2+x,1/2+y,z
1/2-x,1/2+y,-z
1/2-x,1/2-y,-z
1/2+x,1/2-y,z
loop_
_atom_site_type_symbol
_atom_site_label
_atom_site_fract_x
_atom_site_fract_y
_atom_site_fract_z
Si Si1 0.076301 0.800913 0.096057
Si Si2 0.241359 0.197633 0.594741
Si Si3 0.948123 0.301095 0.288651
Si Si4 0.067339 0.702253 0.386905
Si Si5 0.850429 0.698679 0.723642
Si Si6 0.377013 0.800937 0.412667
Si Si7 0.540140 0.300805 0.896060
O O1 0.126276 0.745201 0.173756
O O2 0.021224 0.744237 0.117338
O O3 0.075337 0.000000 0.095596
O O4 0.072243 0.745898 0.995181
O O5 0.250000 0.250000 0.500000
O O6 0.291679 0.259613 0.672767
O O7 0.184424 0.255882 0.603176
O O8 0.241824 0.000000 0.597226
O O9 0.949077 0.500000 0.294181
O O10 0.904824 0.240105 0.337930
O O11 0.938478 0.255252 0.185799
O O12 0.007297 0.242163 0.341609
O O13 0.067093 0.500000 0.386530
O O14 0.107536 0.757360 0.329933
O O15 0.090014 0.756253 0.488953
O O16 0.849514 0.500000 0.717916
O O17 0.380265 0.000000 0.414228
O O18 0.539367 0.500000 0.896456
#
# Coordination Sequence:
#
# PCOD9179878 Si02
#       7
#     8   8   8   8   8   8   8
#     4   9  18  32  50  74 102 135 166 201 254 306
#     4  11  22  36  53  74 101 135 173 212 252 292
#     4  10  19  31  52  77 102 136 172 204 247 300
#     4   9  16  30  49  73 104 135 164 201 250 296
#     4  10  19  32  52  75 101 131 167 210 252 294
#     4  10  20  35  52  73 103 138 174 209 245 296
#     4   9  18  32  49  72 106 136 162 201 253 307
#
# _framework density 17.695443000000001
#
# number of rings (size 3 to 8) (size 9 to 14) (size 15 to 20)
#    0.000    2.286    2.857    1.714    0.000    4.000 
#    0.000    2.143    0.000    2.571    0.000    0.000 
#    0.000    0.000    0.000    0.000    0.000    0.000 
#
# Total GULP energy -156204.269096 kJ/mol
# GULP energy per Si atom -5578.723896 kJ/mol
# Density = 1.765517 g / cm^3
# Si number density = 17.695443 Si / 1000 Ang^3
#
#
#
# Elastic Constant Matrix: (Units=GPa)
#
#
# Indices 1 2 3 4 5 6 
#
# 1 125.6186 7.9582 92.9638 0.0000 -9.1237 0.0000
# 2 7.9582 8.5800 9.0572 0.0000 -1.4611 0.0000
# 3 92.9638 9.0572 173.1680 0.0000 2.8331 0.0000
# 4 0.0000 0.0000 0.0000 14.4244 0.0000 -1.2592
# 5 -9.1237 -1.4611 2.8331 0.0000 25.0359 0.0000
# 6 0.0000 0.0000 0.0000 -1.2592 0.0000 21.2508
#
#
#
# Elastic Compliance Matrix: (Units=1/GPa)
#
#
# Indices 1 2 3 4 5 6 
#
# 1 0.014194 -0.004275 -0.007491 0.000000 0.005771 0.000000
# 2 -0.004275 0.126247 -0.004411 0.000000 0.006309 0.000000
# 3 -0.007491 -0.004411 0.010094 0.000000 -0.004130 0.000000
# 4 0.000000 0.000000 0.000000 0.069687 0.000000 0.004129
# 5 0.005771 0.006309 -0.004130 0.000000 0.042881 0.000000
# 6 0.000000 0.000000 0.000000 0.004129 0.000000 0.047302
#
#
# Mechanical properties :
#
#
# Convention : Reuss Voigt Hill
#
# Bulk Modulus (GPa) = 8.46160 58.59168 33.52664
# Shear Modulus (GPa) = 13.08372 25.30136 19.19254
#
# Velocity S-wave (km/s) = 2.72211 3.78540 3.29690
# Velocity P-wave (km/s) = 3.83041 7.23110 5.78622
#
# Compressibility (1/GPa) = 0.11818097
#
# Stress axis : x y z
#
# Youngs Moduli (GPa) = 70.45155 7.92098 99.06489
#
# Poissons Ratio (x) = 0.03386 0.74208
# Poissons Ratio (y) = 0.30121 0.43699
# Poissons Ratio (z) = 0.52774 0.03494
#
# Static dielectric constant tensor:
#      x y z
#    x 1.561630 0.000000 0.001620 
#    y 0.000000 1.636360 0.000000 
#    z 0.001620 0.000000 1.606170 
# 
# From -- ./inp_files/237305.got.cif
#   From: 2010.05.17/outbox.cif.g08.bks.cpg/sg12_119_cif.got.tgz:237305.got - 2010.06.03 13:09:07.
