data_PCOD9179566
_publ_section_title
;
Structure prediction by ZEFSAII (Michael W. Deem and Ramdas Pophale) SiO2 
 PCOD9179566
Probable space group: C 2/M
;
_chemical_formula_sum "Si O2"
_cell_formula_units_Z 56
_cell_length_a 19.770406
_cell_length_b 8.198664
_cell_length_c 20.161016
_cell_angle_alpha 90.000000
_cell_angle_beta 114.348248
_cell_angle_gamma 90.000000
_cell_volume 2977.257273
_symmetry_space_group_name_H-M "C 2/M"
_symmetry_group_IT_number 12
_symmetry_cell_setting 'monoclinic'
loop_
_space_group_symop_operation_xyz
x,y,z
-x,y,-z
-x,-y,-z
x,-y,z
1/2+x,1/2+y,z
1/2-x,1/2+y,-z
1/2-x,1/2-y,-z
1/2+x,1/2-y,z
loop_
_atom_site_type_symbol
_atom_site_label
_atom_site_fract_x
_atom_site_fract_y
_atom_site_fract_z
Si Si1 0.458556 0.813837 0.676215
Si Si2 0.824046 0.304135 0.068590
Si Si3 0.126102 0.299197 0.762666
Si Si4 0.521285 0.190700 0.932430
Si Si5 0.593654 0.684653 0.212258
Si Si6 0.243679 0.306684 0.702411
Si Si7 0.299065 0.805450 0.581358
O O1 0.541704 0.742922 0.713063
O O2 0.432437 0.807834 0.741884
O O3 0.384552 0.739754 0.612061
O O4 0.466572 0.000000 0.655423
O O5 0.820454 0.500000 0.070712
O O6 0.841927 0.247889 0.151908
O O7 0.895756 0.258479 0.053482
O O8 0.750000 0.250000 0.000000
O O9 0.124844 0.500000 0.763881
O O10 0.178403 0.244283 0.723145
O O11 0.462572 0.297432 0.869578
O O12 0.513770 0.000000 0.908879
O O13 0.500000 0.200344 0.000000
O O14 0.591463 0.500000 0.238914
O O15 0.678376 0.718734 0.228012
O O16 0.231397 0.500000 0.690073
O O17 0.259768 0.241693 0.635025
O O18 0.250000 0.750000 0.500000
O O19 0.305263 0.000000 0.583248
#
# Coordination Sequence:
#
# PCOD9179566 Si02
#       7
#     8   8   8   8   8   8   8
#     4   9  17  34  58  78 100 137 179 211 251 309
#     4  10  21  36  53  74 104 141 179 223 273 315
#     4   9  17  34  57  76 102 139 179 221 261 311
#     4  10  21  36  52  70  98 138 181 222 265 314
#     4  10  19  31  50  76 102 131 169 218 267 309
#     4   9  19  34  54  80 107 136 172 215 264 313
#     4  10  20  35  58  84 110 140 172 212 257 310
#
# _framework density 18.809256999999999
#
# number of rings (size 3 to 8) (size 9 to 14) (size 15 to 20)
#    0.000    2.429    1.429    0.857    2.000    2.000 
#    0.000    2.143    0.000    4.286    0.000    0.000 
#    0.000    0.000    0.000    0.000    0.000    0.000 
#
# Total GULP energy -155893.754853 kJ/mol
# GULP energy per Si atom -5567.634102 kJ/mol
# Density = 1.876645 g / cm^3
# Si number density = 18.809257 Si / 1000 Ang^3
#
#
#
# Elastic Constant Matrix: (Units=GPa)
#
#
# Indices 1 2 3 4 5 6 
#
# 1 163.5006 22.9307 86.0569 0.0000 20.1054 0.0000
# 2 22.9307 11.5460 18.5286 0.0000 4.6483 0.0000
# 3 86.0569 18.5286 137.9715 0.0000 29.6750 0.0000
# 4 0.0000 0.0000 0.0000 19.3023 0.0000 1.7777
# 5 20.1054 4.6483 29.6750 0.0000 25.2058 0.0000
# 6 0.0000 0.0000 0.0000 1.7777 0.0000 16.3053
#
#
#
# Elastic Compliance Matrix: (Units=1/GPa)
#
#
# Indices 1 2 3 4 5 6 
#
# 1 0.010470 -0.013116 -0.004677 0.000000 -0.000426 0.000000
# 2 -0.013116 0.127119 -0.008166 0.000000 -0.003366 0.000000
# 3 -0.004677 -0.008166 0.013572 0.000000 -0.010742 0.000000
# 4 0.000000 0.000000 0.000000 0.052333 0.000000 -0.005706
# 5 -0.000426 -0.003366 -0.010742 0.000000 0.053281 0.000000
# 6 0.000000 0.000000 0.000000 -0.005706 0.000000 0.061952
#
#
# Mechanical properties :
#
#
# Convention : Reuss Voigt Hill
#
# Bulk Modulus (GPa) = 10.07638 63.11674 36.59656
# Shear Modulus (GPa) = 12.38459 24.52945 18.45702
#
# Velocity S-wave (km/s) = 2.56877 3.61517 3.13593
# Velocity P-wave (km/s) = 3.76389 7.14528 5.71060
#
# Compressibility (1/GPa) = 0.09924199
#
# Stress axis : x y z
#
# Youngs Moduli (GPa) = 95.51105 7.86663 73.67876
#
# Poissons Ratio (x) = 0.10318 0.34463
# Poissons Ratio (y) = 1.25273 0.60168
# Poissons Ratio (z) = 0.44675 0.06424
#
# Static dielectric constant tensor:
#      x y z
#    x 1.662520 0.000000 0.030000 
#    y 0.000000 1.709530 0.000000 
#    z 0.030000 0.000000 1.659300 
# 
# From -- ./inp_files/313688.got.cif
#   From: 2010.05.17/outbox.cif.g08.bks.cpg/sg12_157_cif.got.tgz:313688.got - 2010.06.03 13:09:07.
