data_PCOD9179724
_publ_section_title
;
Structure prediction by ZEFSAII (Michael W. Deem and Ramdas Pophale) SiO2 
 PCOD9179724
Probable space group: C 2/M
;
_chemical_formula_sum "Si O2"
_cell_formula_units_Z 64
_cell_length_a 20.525500
_cell_length_b 7.904763
_cell_length_c 21.754583
_cell_angle_alpha 90.000000
_cell_angle_beta 134.907360
_cell_angle_gamma 90.000000
_cell_volume 2499.881536
_symmetry_space_group_name_H-M "C 2/M"
_symmetry_group_IT_number 12
_symmetry_cell_setting 'monoclinic'
loop_
_space_group_symop_operation_xyz
x,y,z
-x,y,-z
-x,-y,-z
x,-y,z
1/2+x,1/2+y,z
1/2-x,1/2+y,-z
1/2-x,1/2-y,-z
1/2+x,1/2-y,z
loop_
_atom_site_type_symbol
_atom_site_label
_atom_site_fract_x
_atom_site_fract_y
_atom_site_fract_z
Si Si1 0.877034 0.196233 0.595191
Si Si2 0.241028 0.799959 0.064608
Si Si3 0.507789 0.202368 0.436314
Si Si4 0.059061 0.292594 0.791243
Si Si5 0.690504 0.203934 0.709661
Si Si6 0.790949 0.205134 0.657600
Si Si7 0.127257 0.696068 0.096865
Si Si8 0.972759 0.300183 0.855186
O O1 0.802612 0.267241 0.594919
O O2 0.903241 0.267239 0.546090
O O3 0.973747 0.221055 0.696473
O O4 0.858146 0.000000 0.574535
O O5 0.338241 0.740430 0.158756
O O6 0.152201 0.745623 0.044121
O O7 0.242413 0.000000 0.069355
O O8 0.250000 0.750000 0.000000
O O9 0.500000 0.271720 0.500000
O O10 0.411866 0.259591 0.341338
O O11 0.501090 0.000000 0.436309
O O12 0.052708 0.500000 0.783566
O O13 0.045050 0.235484 0.853122
O O14 0.707418 0.241307 0.648263
O O15 0.775565 0.278014 0.803429
O O16 0.696811 0.000000 0.721859
O O17 0.877960 0.277308 0.753289
O O18 0.798814 0.000000 0.660659
O O19 0.105644 0.500000 0.080412
O O20 0.051960 0.773943 0.093952
O O21 0.991045 0.500000 0.874100
#
# Coordination Sequence:
#
# PCOD9179724 Si02
#       8
#     8   8   8   8   8   8   8   8
#     4  10  19  31  51  77 101 125 156 200 250 294
#     4  11  23  37  52  71  99 134 168 202 240 284
#     4  10  21  35  49  67  95 133 172 205 239 284
#     4   9  18  34  55  76  98 128 165 200 237 286
#     4   9  17  32  53  73  96 128 165 202 239 286
#     4   8  15  28  47  72  98 123 154 195 244 291
#     4  10  19  32  53  79 103 126 157 200 247 293
#     4   8  15  29  50  75  99 123 156 198 239 282
#
# _framework density 25.601212
#
# number of rings (size 3 to 8) (size 9 to 14) (size 15 to 20)
#    0.000    2.625    0.000    1.875    0.000    5.750 
#    0.000    1.250    0.000    3.750    0.000    0.000 
#    0.000    0.000    0.000    0.000    0.000    0.000 
#
# Total GULP energy -178709.253396 kJ/mol
# GULP energy per Si atom -5584.664169 kJ/mol
# Density = 2.554294 g / cm^3
# Si number density = 25.601212 Si / 1000 Ang^3
#
#
#
# Elastic Constant Matrix: (Units=GPa)
#
#
# Indices 1 2 3 4 5 6 
#
# 1 198.4875 13.3129 38.1054 0.0000 -14.1239 0.0000
# 2 13.3129 30.8724 1.5582 0.0000 1.3213 0.0000
# 3 38.1054 1.5582 93.7457 0.0000 -25.0376 0.0000
# 4 0.0000 0.0000 0.0000 9.5506 0.0000 -16.0896
# 5 -14.1239 1.3213 -25.0376 0.0000 54.0683 0.0000
# 6 0.0000 0.0000 0.0000 -16.0896 0.0000 21.6850
#
#
#
# Elastic Compliance Matrix: (Units=1/GPa)
#
#
# Indices 1 2 3 4 5 6 
#
# 1 0.005639 -0.002349 -0.002105 0.000000 0.000556 0.000000
# 2 -0.002349 0.033464 0.000019 -0.000001 -0.001423 -0.000001
# 3 -0.002105 0.000019 0.012981 0.000000 0.005461 0.000000
# 4 0.000000 -0.000001 0.000000 -0.418868 0.000000 -0.310787
# 5 0.000556 -0.001423 0.005461 0.000000 0.021204 0.000000
# 6 0.000000 -0.000001 0.000000 -0.310787 0.000000 -0.184479
#
#
# Mechanical properties :
#
#
# Convention : Reuss Voigt Hill
#
# Bulk Modulus (GPa) = 23.14074 47.67315 35.40695
# Shear Modulus (GPa) = -9.86615 35.06940 12.60163
#
# Velocity S-wave (km/s) = -1.96523 3.70514 2.22103
# Velocity P-wave (km/s) = 1.97712 6.07996 4.52078
#
# Compressibility (1/GPa) = 0.04321383
#
# Stress axis : x y z
#
# Youngs Moduli (GPa) = 177.32723 29.88251 77.03662
#
# Poissons Ratio (x) = 0.07020 0.16214
# Poissons Ratio (y) = 0.41660 -0.00144
# Poissons Ratio (z) = 0.37322 -0.00056
#
# Static dielectric constant tensor:
#      x y z
#    x 2.053640 0.000000 -0.050460 
#    y 0.000000 1.929750 0.000000 
#    z -0.050460 0.000000 2.118230 
# 
# From -- ./inp_files/319789.got.cif
#   From: 2010.05.17/outbox.cif.g08.bks.cpg/sg12_160_cif.got.tgz:319789.got - 2010.06.03 13:09:07.
