data_PCOD9179828
_publ_section_title
;
Structure prediction by ZEFSAII (Michael W. Deem and Ramdas Pophale) SiO2 
 PCOD9179828
Probable space group: C 2/M
;
_chemical_formula_sum "Si O2"
_cell_formula_units_Z 64
_cell_length_a 30.566192
_cell_length_b 9.055481
_cell_length_c 17.734885
_cell_angle_alpha 90.000000
_cell_angle_beta 136.701840
_cell_angle_gamma 90.000000
_cell_volume 3366.476130
_symmetry_space_group_name_H-M "C 2/M"
_symmetry_group_IT_number 12
_symmetry_cell_setting 'monoclinic'
loop_
_space_group_symop_operation_xyz
x,y,z
-x,y,-z
-x,-y,-z
x,-y,z
1/2+x,1/2+y,z
1/2-x,1/2+y,-z
1/2-x,1/2-y,-z
1/2+x,1/2-y,z
loop_
_atom_site_type_symbol
_atom_site_label
_atom_site_fract_x
_atom_site_fract_y
_atom_site_fract_z
Si Si1 0.094508 0.177490 0.673431
Si Si2 0.361474 0.832028 0.984131
Si Si3 0.271199 0.663691 0.098456
Si Si4 0.195087 0.675989 0.380909
Si Si5 0.047179 0.176198 0.778711
Si Si6 0.415674 0.827073 0.640435
Si Si7 0.355417 0.174741 0.401674
Si Si8 0.292897 0.677865 0.766771
O O1 0.166386 0.226742 0.785200
O O2 0.056138 0.219253 0.701120
O O3 0.092449 0.247844 0.587765
O O4 0.089071 0.000000 0.657775
O O5 0.403629 0.755498 0.102195
O O6 0.384494 0.000000 0.998119
O O7 0.289869 0.843841 0.926187
O O8 0.347676 0.737287 0.891973
O O9 0.290648 0.500000 0.098530
O O10 0.250000 0.750000 0.000000
O O11 0.206219 0.500000 0.387834
O O12 0.250000 0.750000 0.500000
O O13 0.129481 0.696968 0.344536
O O14 0.195123 0.752270 0.299856
O O15 0.977180 0.224674 0.716032
O O16 0.056564 0.000000 0.794673
O O17 0.375533 0.801149 0.513620
O O18 0.435394 0.000000 0.664350
O O19 0.280459 0.220913 0.301952
O O20 0.357735 0.000000 0.388788
O O21 0.294118 0.500000 0.765748
#
# Coordination Sequence:
#
# PCOD9179828 Si02
#       8
#     8   8   8   8   8   8   8   8
#     4  10  21  36  54  84 123 158 203 251 297 352
#     4  11  22  37  59  88 121 162 204 247 303 360
#     4  10  19  31  51  80 114 152 198 247 293 346
#     4  11  22  40  67  96 125 155 195 248 307 365
#     4  11  24  41  60  85 120 166 209 250 298 353
#     4  10  23  44  63  86 120 158 202 248 298 364
#     4  10  21  37  59  88 122 158 198 246 303 356
#     4  11  22  38  61  95 129 155 194 251 308 362
#
# _framework density 19.010977
#
# number of rings (size 3 to 8) (size 9 to 14) (size 15 to 20)
#    0.000    1.500    3.750    1.500    0.000    4.500 
#    0.000    3.125    0.000    3.750    0.000    0.000 
#    0.000    0.000    0.000    0.000    0.000    0.000 
#
# Total GULP energy -178441.153640 kJ/mol
# GULP energy per Si atom -5576.286051 kJ/mol
# Density = 1.896771 g / cm^3
# Si number density = 19.010977 Si / 1000 Ang^3
#
#
#
# Elastic Constant Matrix: (Units=GPa)
#
#
# Indices 1 2 3 4 5 6 
#
# 1 107.6048 56.2831 32.8438 0.0000 -20.4734 0.0000
# 2 56.2831 71.7012 34.7491 0.0000 -10.3424 0.0000
# 3 32.8438 34.7491 54.9570 0.0000 -10.2919 0.0000
# 4 0.0000 0.0000 0.0000 30.8646 0.0000 -4.5811
# 5 -20.4734 -10.3424 -10.2919 0.0000 35.3603 0.0000
# 6 0.0000 0.0000 0.0000 -4.5811 0.0000 32.1733
#
#
#
# Elastic Compliance Matrix: (Units=1/GPa)
#
#
# Indices 1 2 3 4 5 6 
#
# 1 0.017076 -0.011735 -0.001667 0.000000 0.005969 0.000000
# 2 -0.011735 0.028353 -0.011247 0.000000 -0.001775 0.000000
# 3 -0.001667 -0.011247 0.026977 0.000000 0.003597 0.000000
# 4 0.000000 0.000000 0.000000 0.033099 0.000000 0.004713
# 5 0.005969 -0.001775 0.003597 0.000000 0.032264 0.000000
# 6 0.000000 0.000000 0.000000 0.004713 0.000000 0.031753
#
#
# Mechanical properties :
#
#
# Convention : Reuss Voigt Hill
#
# Bulk Modulus (GPa) = 43.27439 53.55722 48.41581
# Shear Modulus (GPa) = 22.07283 27.03877 24.55580
#
# Velocity S-wave (km/s) = 3.41113 3.77539 3.59787
# Velocity P-wave (km/s) = 6.19085 6.87297 6.54081
#
# Compressibility (1/GPa) = 0.02310836
#
# Stress axis : x y z
#
# Youngs Moduli (GPa) = 58.56189 35.26968 37.06828
#
# Poissons Ratio (x) = 0.41389 0.06180
# Poissons Ratio (y) = 0.68723 0.41690
# Poissons Ratio (z) = 0.09763 0.39667
#
# Static dielectric constant tensor:
#      x y z
#    x 1.658110 0.000000 -0.041870 
#    y 0.000000 1.651870 0.000000 
#    z -0.041870 0.000000 1.617640 
# 
# From -- ./inp_files/295732.got.cif
#   From: 2010.05.17/outbox.cif.g08.bks.cpg/sg12_148_cif.got.tgz:295732.got - 2010.06.03 13:09:07.
