data_PCOD9179923
_publ_section_title
;
Structure prediction by ZEFSAII (Michael W. Deem and Ramdas Pophale) SiO2 
 PCOD9179923
Probable space group: C 2/M
;
_chemical_formula_sum "Si O2"
_cell_formula_units_Z 48
_cell_length_a 19.897677
_cell_length_b 7.399048
_cell_length_c 14.266681
_cell_angle_alpha 90.000000
_cell_angle_beta 79.630762
_cell_angle_gamma 90.000000
_cell_volume 2066.092806
_symmetry_space_group_name_H-M "C 2/M"
_symmetry_group_IT_number 12
_symmetry_cell_setting 'monoclinic'
loop_
_space_group_symop_operation_xyz
x,y,z
-x,y,-z
-x,-y,-z
x,-y,z
1/2+x,1/2+y,z
1/2-x,1/2+y,-z
1/2-x,1/2-y,-z
1/2+x,1/2-y,z
loop_
_atom_site_type_symbol
_atom_site_label
_atom_site_fract_x
_atom_site_fract_y
_atom_site_fract_z
Si Si1 0.552894 0.220927 0.744105
Si Si2 0.571617 0.204355 0.104898
Si Si3 0.285682 0.290257 0.848093
Si Si4 0.863725 0.707715 0.443942
Si Si5 0.635064 0.779194 0.905007
Si Si6 0.225321 0.718577 0.368184
O O1 0.481293 0.282247 0.806744
O O2 0.576879 0.287271 0.636336
O O3 0.608320 0.271287 0.809417
O O4 0.552509 0.000000 0.737408
O O5 0.646901 0.198361 0.130045
O O6 0.546156 0.000000 0.094506
O O7 0.584137 0.285106 0.999035
O O8 0.291009 0.500000 0.872941
O O9 0.212646 0.218500 0.901600
O O10 0.283057 0.275702 0.736302
O O11 0.882445 0.500000 0.458730
O O12 0.836429 0.783575 0.549038
O O13 0.795878 0.712047 0.395405
O O14 0.636294 0.000000 0.907699
O O15 0.227737 0.500000 0.371726
#
# Coordination Sequence:
#
# PCOD9179923 Si02
#       6
#     8   8   8   8   8   8
#     4   9  16  31  55  80 104 132 168 210 257 306
#     4  10  20  33  53  79 105 133 172 216 253 301
#     4  11  21  35  53  73 106 143 171 208 258 307
#     4   9  17  32  54  79 105 132 165 209 261 306
#     4   9  17  31  54  79 100 133 176 213 251 299
#     4  10  19  31  52  80 104 130 171 216 252 298
#
# _framework density 23.232258999999999
#
# number of rings (size 3 to 8) (size 9 to 14) (size 15 to 20)
#    0.000    2.333    1.667    2.000    0.000    2.667 
#    0.000    2.500    0.000    6.000    0.000    0.000 
#    0.000    0.000    0.000    0.000    0.000    0.000 
#
# Total GULP energy -134035.776026 kJ/mol
# GULP energy per Si atom -5584.824001 kJ/mol
# Density = 2.317938 g / cm^3
# Si number density = 23.232259 Si / 1000 Ang^3
#
#
#
# Elastic Constant Matrix: (Units=GPa)
#
#
# Indices 1 2 3 4 5 6 
#
# 1 72.3447 -3.4662 19.5435 0.0000 -34.5017 0.0000
# 2 -3.4662 89.5469 -5.3001 0.0000 -5.5308 0.0000
# 3 19.5435 -5.3001 144.3063 0.0000 -51.0369 0.0000
# 4 0.0000 0.0000 0.0000 6.4039 0.0000 3.1167
# 5 -34.5017 -5.5308 -51.0369 0.0000 49.4734 0.0000
# 6 0.0000 0.0000 0.0000 3.1167 0.0000 12.1647
#
#
#
# Elastic Compliance Matrix: (Units=1/GPa)
#
#
# Indices 1 2 3 4 5 6 
#
# 1 0.022473 0.002373 0.004220 0.000000 0.020291 0.000000
# 2 0.002373 0.011665 0.001816 0.000000 0.004833 0.000000
# 3 0.004220 0.001816 0.011867 0.000000 0.015388 0.000000
# 4 0.000000 0.000000 0.000000 0.178401 0.000000 -0.045707
# 5 0.020291 0.004833 0.015388 0.000000 0.050778 0.000000
# 6 0.000000 0.000000 0.000000 -0.045707 0.000000 0.093915
#
#
# Mechanical properties :
#
#
# Convention : Reuss Voigt Hill
#
# Bulk Modulus (GPa) = 15.91756 36.41690 26.16723
# Shear Modulus (GPa) = 13.39682 33.30310 23.34996
#
# Velocity S-wave (km/s) = 2.40395 3.79025 3.17372
# Velocity P-wave (km/s) = 3.81729 5.90456 4.97169
#
# Compressibility (1/GPa) = 0.06282372
#
# Stress axis : x y z
#
# Youngs Moduli (GPa) = 44.49729 85.72529 84.26543
#
# Poissons Ratio (x) = -0.20342 -0.35559
# Poissons Ratio (y) = -0.10559 -0.15304
# Poissons Ratio (z) = -0.18777 -0.15569
#
# Static dielectric constant tensor:
#      x y z
#    x 1.838620 0.000000 -0.049510 
#    y 0.000000 -0.292260 0.000000 
#    z -0.049510 0.000000 1.885660 
# 
# From -- ./inp_files/229860.got.cif
#   From: 2010.05.17/outbox.cif.g08.bks.cpg/sg12_115_cif.got.tgz:229860.got - 2010.06.03 13:09:07.
