data_PCOD9179002
_publ_section_title
;
Structure prediction by ZEFSAII (Michael W. Deem and Ramdas Pophale) SiO2 
 PCOD9179002
Probable space group: C 2/M
;
_chemical_formula_sum "Si O2"
_cell_formula_units_Z 64
_cell_length_a 29.481294
_cell_length_b 8.893421
_cell_length_c 22.851027
_cell_angle_alpha 90.000000
_cell_angle_beta 48.732217
_cell_angle_gamma 90.000000
_cell_volume 4503.272070
_symmetry_space_group_name_H-M "C 2/M"
_symmetry_group_IT_number 12
_symmetry_cell_setting 'monoclinic'
loop_
_space_group_symop_operation_xyz
x,y,z
-x,y,-z
-x,-y,-z
x,-y,z
1/2+x,1/2+y,z
1/2-x,1/2+y,-z
1/2-x,1/2-y,-z
1/2+x,1/2-y,z
loop_
_atom_site_type_symbol
_atom_site_label
_atom_site_fract_x
_atom_site_fract_y
_atom_site_fract_z
Si Si1 0.442661 0.180491 0.007415
Si Si2 0.782316 0.176406 0.417637
Si Si3 0.596551 0.324342 0.737719
Si Si4 0.959324 0.820208 0.864466
Si Si5 0.814544 0.179220 0.150389
Si Si6 0.344928 0.822313 0.905426
Si Si7 0.752349 0.677596 0.092242
Si Si8 0.303414 0.822398 0.281207
O O1 0.452609 0.248767 0.934552
O O2 0.436129 0.000000 0.008857
O O3 0.500000 0.214143 0.000000
O O4 0.381007 0.249897 0.084835
O O5 0.750000 0.250000 0.500000
O O6 0.855731 0.191805 0.356062
O O7 0.768105 0.256754 0.367707
O O8 0.768294 0.000000 0.426485
O O9 0.600248 0.500000 0.753405
O O10 0.527495 0.289156 0.785211
O O11 0.627144 0.221605 0.761372
O O12 0.909054 0.750232 0.865300
O O13 0.950911 0.000000 0.875517
O O14 0.773869 0.235839 0.131293
O O15 0.788920 0.240212 0.233424
O O16 0.818815 0.000000 0.147123
O O17 0.308496 0.742634 0.884397
O O18 0.349951 0.000000 0.890356
O O19 0.303982 0.801991 0.998665
O O20 0.747037 0.500000 0.108328
O O21 0.296685 0.000000 0.282214
#
# Coordination Sequence:
#
# PCOD9179002 Si02
#       8
#     8   8   8   8   8   8   8   8
#     4  11  23  34  44  62  88 122 162 201 233 276
#     4   9  17  32  50  72  97 126 158 190 228 277
#     4   8  18  32  46  67  97 126 156 192 230 274
#     4  11  20  32  48  66  90 124 159 196 240 280
#     4  12  22  33  48  66  91 123 159 199 241 282
#     4  10  20  33  49  67  89 116 155 204 245 282
#     4  10  20  34  50  66  87 116 157 202 245 287
#     4  10  19  31  48  69  95 127 157 193 233 274
#
# _framework density 14.211888
#
# number of rings (size 3 to 8) (size 9 to 14) (size 15 to 20)
#    0.750    1.125    1.250    4.500    0.000    5.000 
#    0.000    0.000    0.000    0.000    0.000    0.000 
#    0.000    1.000    0.000   10.750    0.000    4.750 
#
# Total GULP energy -178338.315255 kJ/mol
# GULP energy per Si atom -5573.072352 kJ/mol
# Density = 1.417954 g / cm^3
# Si number density = 14.211888 Si / 1000 Ang^3
#
#
#
# Elastic Constant Matrix: (Units=GPa)
#
#
# Indices 1 2 3 4 5 6 
#
# 1 89.7791 51.8829 38.7051 -0.0026 12.6650 0.0019
# 2 51.8829 94.3706 44.2702 -0.0101 7.8116 0.0065
# 3 38.7051 44.2702 79.3979 -0.0003 9.8064 0.0031
# 4 -0.0026 -0.0101 -0.0003 22.1983 -0.0026 2.2381
# 5 12.6650 7.8116 9.8064 -0.0026 10.2940 -0.0007
# 6 0.0019 0.0065 0.0031 2.2381 -0.0007 25.6977
#
#
#
# Elastic Compliance Matrix: (Units=1/GPa)
#
#
# Indices 1 2 3 4 5 6 
#
# 1 0.019048 -0.007794 -0.003146 -0.000003 -0.014523 0.000001
# 2 -0.007794 0.017665 -0.006323 0.000008 0.002207 -0.000004
# 3 -0.003146 -0.006323 0.018794 -0.000004 -0.009236 0.000000
# 4 -0.000003 0.000008 -0.000004 0.045447 0.000013 -0.003958
# 5 -0.014523 0.002207 -0.009236 0.000013 0.122136 0.000004
# 6 0.000001 -0.000004 0.000000 -0.003958 0.000004 0.039259
#
#
# Mechanical properties :
#
#
# Convention : Reuss Voigt Hill
#
# Bulk Modulus (GPa) = 47.66033 59.25155 53.45594
# Shear Modulus (GPa) = 16.45452 20.21730 18.33591
#
# Velocity S-wave (km/s) = 3.40634 3.77578 3.59581
# Velocity P-wave (km/s) = 7.00565 7.79684 7.41181
#
# Compressibility (1/GPa) = 0.02098181
#
# Stress axis : x y z
#
# Youngs Moduli (GPa) = 52.50018 56.60987 53.20742
#
# Poissons Ratio (x) = 0.44122 0.16738
# Poissons Ratio (y) = 0.40919 0.33641
# Poissons Ratio (z) = 0.16516 0.35792
#
# Static dielectric constant tensor:
#      x y z
#    x 1.457880 0.000000 -0.003910 
#    y 0.000000 1.472240 0.000000 
#    z -0.003910 0.000000 1.456780 
# 
# From -- ./inp_files/326581.got.cif
#   From: 2010.05.17/outbox.cif.g08.bks.cpg/sg12_164_cif.got.tgz:326581.got - 2010.06.03 13:09:07.
