data_PCOD9179277
_publ_section_title
;
Structure prediction by ZEFSAII (Michael W. Deem and Ramdas Pophale) SiO2 
 PCOD9179277
Probable space group: C 2/M
;
_chemical_formula_sum "Si O2"
_cell_formula_units_Z 48
_cell_length_a 18.965664
_cell_length_b 8.686221
_cell_length_c 19.544580
_cell_angle_alpha 90.000000
_cell_angle_beta 59.884023
_cell_angle_gamma 90.000000
_cell_volume 2785.140897
_symmetry_space_group_name_H-M "C 2/M"
_symmetry_group_IT_number 12
_symmetry_cell_setting 'monoclinic'
loop_
_space_group_symop_operation_xyz
x,y,z
-x,y,-z
-x,-y,-z
x,-y,z
1/2+x,1/2+y,z
1/2-x,1/2+y,-z
1/2-x,1/2-y,-z
1/2+x,1/2-y,z
loop_
_atom_site_type_symbol
_atom_site_label
_atom_site_fract_x
_atom_site_fract_y
_atom_site_fract_z
Si Si1 0.754825 0.184786 0.168628
Si Si2 0.087374 0.313600 0.985953
Si Si3 0.820197 0.317329 0.514107
Si Si4 0.170958 0.685010 0.077069
Si Si5 0.491892 0.677005 0.421173
Si Si6 0.828493 0.814980 0.662669
O O1 0.839149 0.240997 0.093573
O O2 0.683265 0.233235 0.149496
O O3 0.736389 0.259198 0.250440
O O4 0.755528 0.000000 0.174034
O O5 0.094049 0.500000 0.977567
O O6 0.098506 0.270736 0.060862
O O7 0.000000 0.266563 0.000000
O O8 0.813779 0.500000 0.519639
O O9 0.750000 0.250000 0.500000
O O10 0.910582 0.269929 0.443931
O O11 0.812988 0.250666 0.594601
O O12 0.174566 0.500000 0.075560
O O13 0.250000 0.750000 0.000000
O O14 0.500000 0.675590 0.500000
O O15 0.481199 0.500000 0.403939
O O16 0.580890 0.736357 0.356172
O O17 0.830522 0.000000 0.657114
#
# Coordination Sequence:
#
# PCOD9179277 Si02
#       6
#     8   8   8   8   8   8
#     4  10  19  31  49  73 100 129 165 211 256 301
#     4   9  17  31  51  72  97 132 169 206 252 306
#     4  11  21  34  54  78 105 136 170 207 251 305
#     4   8  15  28  46  68  92 121 159 198 238 288
#     4   8  16  32  52  73  98 129 166 206 247 295
#     4  10  20  35  54  75 101 133 170 213 259 305
#
# _framework density 17.234316
#
# number of rings (size 3 to 8) (size 9 to 14) (size 15 to 20)
#    0.000    2.667    0.000    3.500    0.000    4.667 
#    0.000    1.667    0.000    6.000    0.000    0.000 
#    0.000    0.000    0.000    0.000    0.000    0.000 
#
# Total GULP energy -133626.841951 kJ/mol
# GULP energy per Si atom -5567.785081 kJ/mol
# Density = 1.719509 g / cm^3
# Si number density = 17.234316 Si / 1000 Ang^3
#
#
#
# Elastic Constant Matrix: (Units=GPa)
#
#
# Indices 1 2 3 4 5 6 
#
# 1 147.1785 48.2374 44.3564 0.0000 4.6771 0.0002
# 2 48.2374 61.6139 27.8802 0.0000 1.9763 0.0004
# 3 44.3564 27.8802 78.2941 0.0000 3.5133 0.0000
# 4 0.0000 0.0000 0.0000 19.5096 0.0000 -2.0973
# 5 4.6771 1.9763 3.5133 0.0000 18.1074 0.0000
# 6 0.0002 0.0004 0.0000 -2.0973 0.0000 23.5825
#
#
#
# Elastic Compliance Matrix: (Units=1/GPa)
#
#
# Indices 1 2 3 4 5 6 
#
# 1 0.009861 -0.006172 -0.003334 0.000000 -0.001227 0.000000
# 2 -0.006172 0.023222 -0.004772 0.000000 -0.000014 0.000000
# 3 -0.003334 -0.004772 0.016441 0.000000 -0.001808 0.000000
# 4 0.000000 0.000000 0.000000 0.051752 0.000000 0.004602
# 5 -0.001227 -0.000014 -0.001808 0.000000 0.055895 0.000000
# 6 0.000000 0.000000 0.000000 0.004602 0.000000 0.042814
#
#
# Mechanical properties :
#
#
# Convention : Reuss Voigt Hill
#
# Bulk Modulus (GPa) = 47.68968 58.67049 53.18008
# Shear Modulus (GPa) = 21.22867 23.34741 22.28804
#
# Velocity S-wave (km/s) = 3.51346 3.68462 3.60006
# Velocity P-wave (km/s) = 6.64760 7.22625 6.94296
#
# Compressibility (1/GPa) = 0.02096890
#
# Stress axis : x y z
#
# Youngs Moduli (GPa) = 101.40812 43.06229 60.82228
#
# Poissons Ratio (x) = 0.26580 0.20276
# Poissons Ratio (y) = 0.62594 0.29023
# Poissons Ratio (z) = 0.33806 0.20548
#
# Static dielectric constant tensor:
#      x y z
#    x 1.609260 0.000000 0.007140 
#    y 0.000000 1.579980 0.000000 
#    z 0.007140 0.000000 1.584190 
# 
# From -- ./inp_files/313229.got.cif
#   From: 2010.05.17/outbox.cif.g08.bks.cpg/sg12_157_cif.got.tgz:313229.got - 2010.06.03 13:09:07.
