data_PCOD9179953
_publ_section_title
;
Structure prediction by ZEFSAII (Michael W. Deem and Ramdas Pophale) SiO2 
 PCOD9179953
Probable space group: C 2/M
;
_chemical_formula_sum "Si O2"
_cell_formula_units_Z 58
_cell_length_a 24.846357
_cell_length_b 7.679637
_cell_length_c 14.985172
_cell_angle_alpha 90.000000
_cell_angle_beta 92.346602
_cell_angle_gamma 90.000000
_cell_volume 2856.937920
_symmetry_space_group_name_H-M "C 2/M"
_symmetry_group_IT_number 12
_symmetry_cell_setting 'monoclinic'
loop_
_space_group_symop_operation_xyz
x,y,z
-x,y,-z
-x,-y,-z
x,-y,z
1/2+x,1/2+y,z
1/2-x,1/2+y,-z
1/2-x,1/2-y,-z
1/2+x,1/2-y,z
loop_
_atom_site_type_symbol
_atom_site_label
_atom_site_fract_x
_atom_site_fract_y
_atom_site_fract_z
Si Si1 0.167392 0.703184 0.435607
Si Si2 0.000000 0.500000 0.500000
Si Si3 0.215143 0.288574 0.623640
Si Si4 0.436547 0.798285 0.087419
Si Si5 0.461234 0.295183 0.389142
Si Si6 0.929626 0.796665 0.696081
Si Si7 0.131865 0.710688 0.755785
Si Si8 0.058804 0.800488 0.110320
O O1 0.155252 0.500000 0.441164
O O2 0.178752 0.771778 0.536552
O O3 0.224582 0.725942 0.389455
O O4 0.120321 0.784005 0.373454
O O5 0.956835 0.656461 0.467838
O O6 0.216426 0.500000 0.620030
O O7 0.187749 0.232569 0.714338
O O8 0.388616 0.733962 0.147954
O O9 0.493402 0.704696 0.109516
O O10 0.446891 0.000000 0.110385
O O11 0.425175 0.786830 0.981524
O O12 0.465299 0.500000 0.414539
O O13 0.515926 0.226199 0.344355
O O14 0.413962 0.273004 0.315401
O O15 0.920539 0.723294 0.794766
O O16 0.941997 0.000000 0.711472
O O17 0.133128 0.500000 0.755559
O O18 0.076680 0.000000 0.103715
#
# Coordination Sequence:
#
# PCOD9179953 Si02
#       8
#     8   2   8   8   8   8   8   8
#     4  10  21  35  57  82 106 142 187 235 284 328
#     4  12  26  40  52  74 126 152 194 240 276 348
#     4   9  20  38  57  77 107 147 187 228 283 335
#     4  10  19  31  52  81 111 144 184 226 277 336
#     4  11  24  38  56  82 113 156 194 230 287 344
#     4  10  22  37  55  80 111 146 190 232 280 343
#     4  10  20  36  57  81 114 150 186 235 284 336
#     4  10  19  33  52  76 110 147 182 225 279 334
#
# _framework density 20.301456999999999
#
# number of rings (size 3 to 8) (size 9 to 14) (size 15 to 20)
#    0.000    1.931    2.069    2.276    2.897    2.759 
#    0.000    0.000    0.000    0.828    0.000    0.000 
#    0.000    0.000    0.000    0.000    0.000    0.000 
#
# Total GULP energy -161625.054445 kJ/mol
# GULP energy per Si atom -5573.277739 kJ/mol
# Density = 2.025525 g / cm^3
# Si number density = 20.301457 Si / 1000 Ang^3
#
#
#
# Elastic Constant Matrix: (Units=GPa)
#
#
# Indices 1 2 3 4 5 6 
#
# 1 72.5968 -5.2910 37.8754 0.0000 -21.3993 0.0000
# 2 -5.2910 60.4266 7.4051 0.0000 -6.0742 0.0000
# 3 37.8754 7.4051 88.7318 0.0000 -26.4630 0.0000
# 4 0.0000 0.0000 0.0000 20.4596 0.0000 0.1922
# 5 -21.3993 -6.0742 -26.4630 0.0000 37.1304 0.0000
# 6 0.0000 0.0000 0.0000 0.1922 0.0000 28.3104
#
#
#
# Elastic Compliance Matrix: (Units=1/GPa)
#
#
# Indices 1 2 3 4 5 6 
#
# 1 0.019485 0.003216 -0.006451 0.000000 0.007158 0.000000
# 2 0.003216 0.017395 -0.001807 0.000000 0.003411 0.000000
# 3 -0.006451 -0.001807 0.016480 0.000000 0.007732 0.000000
# 4 0.000000 0.000000 0.000000 0.048880 0.000000 -0.000332
# 5 0.007158 0.003411 0.007732 0.000000 0.037126 0.000000
# 6 0.000000 0.000000 0.000000 -0.000332 0.000000 0.035325
#
#
# Mechanical properties :
#
#
# Convention : Reuss Voigt Hill
#
# Bulk Modulus (GPa) = 23.10720 33.52602 28.31661
# Shear Modulus (GPa) = 25.10042 29.29779 27.19910
#
# Velocity S-wave (km/s) = 3.52004 3.80299 3.66425
# Velocity P-wave (km/s) = 5.28466 5.98611 5.64629
#
# Compressibility (1/GPa) = 0.04327656
#
# Stress axis : x y z
#
# Youngs Moduli (GPa) = 51.32272 57.48786 60.67893
#
# Poissons Ratio (x) = -0.18489 0.39141
# Poissons Ratio (y) = -0.16506 0.10966
# Poissons Ratio (z) = 0.33106 0.10389
#
# Static dielectric constant tensor:
#      x y z
#    x 1.722290 0.000000 -0.058530 
#    y 0.000000 1.757410 0.000000 
#    z -0.058530 0.000000 1.802330 
# 
# From -- ./inp_files/237738.got.cif
#   From: 2010.05.17/outbox.cif.g08.bks.cpg/sg12_119_cif.got.tgz:237738.got - 2010.06.03 13:09:07.
