data_PCOD9179634
_publ_section_title
;
Structure prediction by ZEFSAII (Michael W. Deem and Ramdas Pophale) SiO2 
 PCOD9179634
Probable space group: C 2/M
;
_chemical_formula_sum "Si O2"
_cell_formula_units_Z 56
_cell_length_a 25.393152
_cell_length_b 7.448453
_cell_length_c 17.627130
_cell_angle_alpha 90.000000
_cell_angle_beta 132.684840
_cell_angle_gamma 90.000000
_cell_volume 2450.796110
_symmetry_space_group_name_H-M "C 2/M"
_symmetry_group_IT_number 12
_symmetry_cell_setting 'monoclinic'
loop_
_space_group_symop_operation_xyz
x,y,z
-x,y,-z
-x,-y,-z
x,-y,z
1/2+x,1/2+y,z
1/2-x,1/2+y,-z
1/2-x,1/2-y,-z
1/2+x,1/2-y,z
loop_
_atom_site_type_symbol
_atom_site_label
_atom_site_fract_x
_atom_site_fract_y
_atom_site_fract_z
Si Si1 0.082713 0.217693 0.173441
Si Si2 0.185926 0.219468 0.707416
Si Si3 0.330930 0.713601 0.601852
Si Si4 0.053604 0.205730 0.866501
Si Si5 0.065597 0.780844 0.707056
Si Si6 0.842454 0.707196 0.905699
Si Si7 0.407383 0.719055 0.525964
O O1 0.145688 0.277266 0.292514
O O2 0.100643 0.280764 0.107088
O O3 0.010232 0.282000 0.143784
O O4 0.079985 0.000000 0.164993
O O5 0.133487 0.275728 0.724294
O O6 0.266899 0.280946 0.801333
O O7 0.148265 0.278500 0.592561
O O8 0.187493 0.000000 0.706144
O O9 0.340613 0.500000 0.613729
O O10 0.250000 0.750000 0.500000
O O11 0.381707 0.780209 0.583853
O O12 0.065094 0.281995 0.793914
O O13 0.030939 0.000000 0.830428
O O14 0.124151 0.207183 0.986815
O O15 0.989870 0.728704 0.595407
O O16 0.067883 0.000000 0.709206
O O17 0.830866 0.500000 0.913754
O O18 0.406086 0.500000 0.524234
#
# Coordination Sequence:
#
# PCOD9179634 Si02
#       7
#     8   8   8   8   8   8   8
#     4  10  20  36  55  76 104 139 182 223 258 305
#     4   9  18  30  48  77 110 137 167 214 267 313
#     4  10  19  31  50  78 110 141 172 211 259 312
#     4  10  20  36  57  79 102 136 182 225 259 304
#     4   9  16  30  53  78 102 134 176 218 260 307
#     4  11  23  36  51  78 111 141 173 216 271 324
#     4   9  15  28  50  76 104 133 170 215 260 306
#
# _framework density 22.849716999999998
#
# number of rings (size 3 to 8) (size 9 to 14) (size 15 to 20)
#    0.000    2.286    1.429    2.143    0.000    6.286 
#    0.000    0.000    0.000    0.857    0.000    0.000 
#    0.000    9.143    0.000    0.000    0.000    0.000 
#
# Total GULP energy -156459.740399 kJ/mol
# GULP energy per Si atom -5587.847871 kJ/mol
# Density = 2.279771 g / cm^3
# Si number density = 22.849717 Si / 1000 Ang^3
#
#
#
# Elastic Constant Matrix: (Units=GPa)
#
#
# Indices 1 2 3 4 5 6 
#
# 1 48.8373 -6.8104 1.9475 0.0000 -2.9282 0.0000
# 2 -6.8104 65.0235 -5.3834 0.0000 1.5553 0.0000
# 3 1.9475 -5.3834 113.0949 0.0000 -13.3719 0.0000
# 4 0.0000 0.0000 0.0000 10.9090 0.0000 11.2482
# 5 -2.9282 1.5553 -13.3719 0.0000 25.7192 0.0000
# 6 0.0000 0.0000 0.0000 11.2482 0.0000 -9.9893
#
#
#
# Elastic Compliance Matrix: (Units=1/GPa)
#
#
# Indices 1 2 3 4 5 6 
#
# 1 0.020909 0.002137 0.000008 0.000000 0.002256 0.000000
# 2 0.002137 0.015667 0.000667 0.000000 -0.000357 0.000000
# 3 0.000008 0.000667 0.009450 0.000000 0.004874 0.000000
# 4 0.000000 0.000000 0.000000 0.042418 0.000000 0.047764
# 5 0.002256 -0.000357 0.004874 0.000000 0.041694 0.000000
# 6 0.000000 0.000000 0.000000 0.047764 0.000000 -0.046323
#
#
# Mechanical properties :
#
#
# Convention : Reuss Voigt Hill
#
# Bulk Modulus (GPa) = 19.36145 22.94037 21.15091
# Shear Modulus (GPa) = 52.40698 21.14124 36.77411
#
# Velocity S-wave (km/s) = 4.79430 3.04506 4.01607
# Velocity P-wave (km/s) = 6.25610 4.73547 5.54813
#
# Compressibility (1/GPa) = 0.05164903
#
# Stress axis : x y z
#
# Youngs Moduli (GPa) = 47.82625 63.83006 105.82024
#
# Poissons Ratio (x) = -0.13638 -0.00088
# Poissons Ratio (y) = -0.10219 -0.07055
# Poissons Ratio (z) = -0.00040 -0.04255
#
# Static dielectric constant tensor:
#      x y z
#    x 1.816590 0.000000 0.010810 
#    y 0.000000 1.898350 0.000000 
#    z 0.010810 0.000000 1.859390 
# 
# From -- ./inp_files/288400.got.cif
#   From: 2010.05.17/outbox.cif.g08.bks.cpg/sg12_145_cif.got.tgz:288400.got - 2010.06.03 13:09:07.
