data_PCOD9179547
_publ_section_title
;
Structure prediction by ZEFSAII (Michael W. Deem and Ramdas Pophale) SiO2 
 PCOD9179547
Probable space group: C 2/M
;
_chemical_formula_sum "Si O2"
_cell_formula_units_Z 64
_cell_length_a 16.358364
_cell_length_b 16.242300
_cell_length_c 13.196506
_cell_angle_alpha 90.000000
_cell_angle_beta 103.014285
_cell_angle_gamma 90.000000
_cell_volume 3416.215632
_symmetry_space_group_name_H-M "C 2/M"
_symmetry_group_IT_number 12
_symmetry_cell_setting 'monoclinic'
loop_
_space_group_symop_operation_xyz
x,y,z
-x,y,-z
-x,-y,-z
x,-y,z
1/2+x,1/2+y,z
1/2-x,1/2+y,-z
1/2-x,1/2-y,-z
1/2+x,1/2-y,z
loop_
_atom_site_type_symbol
_atom_site_label
_atom_site_fract_x
_atom_site_fract_y
_atom_site_fract_z
Si Si1 0.407139 0.282519 0.971900
Si Si2 0.399797 0.402260 0.493064
Si Si3 0.254333 0.912675 0.840213
Si Si4 0.912239 0.328258 0.177107
Si Si5 0.253381 0.408294 0.926851
Si Si6 0.403994 0.160221 0.777989
Si Si7 0.309630 0.721116 0.608941
Si Si8 0.165488 0.779006 0.697472
O O1 0.330123 0.345015 0.943554
O O2 0.403520 0.225041 0.871555
O O3 0.500000 0.322822 0.000000
O O4 0.403430 0.227056 0.072626
O O5 0.500000 0.396140 0.500000
O O6 0.378496 0.500000 0.485637
O O7 0.363443 0.356976 0.584454
O O8 0.358488 0.346897 0.392738
O O9 0.335002 0.905646 0.791178
O O10 0.201124 0.832958 0.799409
O O11 0.209880 0.000000 0.808774
O O12 0.275968 0.909864 0.963934
O O13 0.829017 0.382576 0.156949
O O14 0.910443 0.271454 0.276723
O O15 0.001669 0.372232 0.200710
O O16 0.281569 0.500000 0.906970
O O17 0.372613 0.208929 0.669508
O O18 0.250000 0.750000 0.500000
O O19 0.239125 0.718704 0.677877
#
# Coordination Sequence:
#
# PCOD9179547 Si02
#       8
#     8   8   8   8   8   8   8   8
#     4  10  20  35  54  76 106 146 191 229 267 328
#     4  10  20  35  56  83 110 132 166 224 283 327
#     4  10  19  31  50  75 105 139 181 229 269 312
#     4  11  20  34  55  79 109 146 186 228 266 329
#     4  11  21  33  50  75 110 147 182 225 274 318
#     4  10  20  34  54  79 106 145 190 226 275 322
#     4   9  19  35  54  79 107 140 181 224 269 326
#     4  10  19  34  57  77 102 142 185 218 264 324
#
# _framework density 18.734181
#
# number of rings (size 3 to 8) (size 9 to 14) (size 15 to 20)
#    0.000    1.875    2.500    3.000    0.000    0.750 
#    0.000    3.750    0.000    0.000    0.000    0.000 
#    0.000   20.000    0.000    0.000    0.000    0.000 
#
# Total GULP energy -178162.014776 kJ/mol
# GULP energy per Si atom -5567.562962 kJ/mol
# Density = 1.869154 g / cm^3
# Si number density = 18.734181 Si / 1000 Ang^3
#
#
#
# Elastic Constant Matrix: (Units=GPa)
#
#
# Indices 1 2 3 4 5 6 
#
# 1 64.0430 12.2888 -3.7573 0.0000 7.2748 0.0000
# 2 12.2888 53.4093 13.3557 0.0000 -8.9795 0.0000
# 3 -3.7573 13.3557 56.7762 0.0000 0.4457 0.0000
# 4 0.0000 0.0000 0.0000 20.1702 0.0000 -4.1424
# 5 7.2748 -8.9795 0.4457 0.0000 19.6747 0.0000
# 6 0.0000 0.0000 0.0000 -4.1424 0.0000 17.1120
#
#
#
# Elastic Compliance Matrix: (Units=1/GPa)
#
#
# Indices 1 2 3 4 5 6 
#
# 1 0.018136 -0.006513 0.002809 0.000000 -0.009742 0.000000
# 2 -0.006513 0.024044 -0.006193 0.000000 0.013522 0.000000
# 3 0.002809 -0.006193 0.019289 0.000000 -0.004302 0.000000
# 4 0.000000 0.000000 0.000000 0.052172 0.000000 0.012630
# 5 -0.009742 0.013522 -0.004302 0.000000 0.060698 0.000000
# 6 0.000000 0.000000 0.000000 0.012630 0.000000 0.061496
#
#
# Mechanical properties :
#
#
# Convention : Reuss Voigt Hill
#
# Bulk Modulus (GPa) = 23.99559 24.22253 24.10906
# Shear Modulus (GPa) = 18.55148 21.54749 20.04949
#
# Velocity S-wave (km/s) = 3.15023 3.39509 3.27495
# Velocity P-wave (km/s) = 5.10571 5.32227 5.21511
#
# Compressibility (1/GPa) = 0.04167432
#
# Stress axis : x y z
#
# Youngs Moduli (GPa) = 55.14015 41.59048 51.84168
#
# Poissons Ratio (x) = 0.27088 -0.14561
# Poissons Ratio (y) = 0.35913 0.32106
# Poissons Ratio (z) = -0.15487 0.25757
#
# Static dielectric constant tensor:
#      x y z
#    x 1.669630 0.000000 0.005120 
#    y 0.000000 1.652430 0.000000 
#    z 0.005120 0.000000 1.723410 
# 
# From -- ./inp_files/215959.got.cif
#   From: 2010.05.17/outbox.cif.g08.bks.cpg/sg12_108_cif.got.tgz:215959.got - 2010.06.03 13:09:07.
