data_PCOD9179429
_publ_section_title
;
Structure prediction by ZEFSAII (Michael W. Deem and Ramdas Pophale) SiO2 
 PCOD9179429
Probable space group: C 2/M
;
_chemical_formula_sum "Si O2"
_cell_formula_units_Z 48
_cell_length_a 13.548747
_cell_length_b 18.960525
_cell_length_c 8.326621
_cell_angle_alpha 90.000000
_cell_angle_beta 119.942559
_cell_angle_gamma 90.000000
_cell_volume 1853.531646
_symmetry_space_group_name_H-M "C 2/M"
_symmetry_group_IT_number 12
_symmetry_cell_setting 'monoclinic'
loop_
_space_group_symop_operation_xyz
x,y,z
-x,y,-z
-x,-y,-z
x,-y,z
1/2+x,1/2+y,z
1/2-x,1/2+y,-z
1/2-x,1/2-y,-z
1/2+x,1/2-y,z
loop_
_atom_site_type_symbol
_atom_site_label
_atom_site_fract_x
_atom_site_fract_y
_atom_site_fract_z
Si Si1 0.169508 0.924055 0.605804
Si Si2 0.622703 0.772113 0.321456
Si Si3 0.415163 0.077267 0.616092
Si Si4 0.729188 0.818813 0.089396
Si Si5 0.715449 0.078804 0.803084
Si Si6 0.928112 0.876265 0.789157
O O1 0.294253 0.923373 0.619810
O O2 0.169749 0.858227 0.727525
O O3 0.084253 0.919038 0.385347
O O4 0.156281 0.000000 0.675715
O O5 0.750000 0.750000 0.500000
O O6 0.558019 0.839420 0.342474
O O7 0.644537 0.794420 0.157122
O O8 0.547168 0.702277 0.251289
O O9 0.385658 0.072333 0.404116
O O10 0.468060 0.000000 0.708847
O O11 0.750000 0.750000 0.000000
O O12 0.686257 0.881765 0.941321
O O13 0.805296 0.124849 0.776337
O O14 0.761348 0.000000 0.866815
O O15 0.000000 0.901341 0.000000
#
# Coordination Sequence:
#
# PCOD9179429 Si02
#       6
#     8   8   8   8   8   8
#     4   9  18  31  48  71 101 138 174 209 252 314
#     4  11  17  33  54  73  99 133 179 224 267 307
#     4   8  15  28  49  73  96 125 167 213 261 308
#     4  11  18  29  53  76 101 132 171 225 271 293
#     4  10  19  31  49  79 108 132 168 211 259 318
#     4  11  21  34  53  76 104 147 185 211 254 315
#
# _framework density 25.896511
#
# number of rings (size 3 to 8) (size 9 to 14) (size 15 to 20)
#    0.000    2.000    6.667    2.000    0.000    2.000 
#    0.000    0.833    0.000    2.500    0.000    0.000 
#    0.000    2.667    0.000    0.000    0.000    0.000 
#
# Total GULP energy -133901.887076 kJ/mol
# GULP energy per Si atom -5579.245295 kJ/mol
# Density = 2.583757 g / cm^3
# Si number density = 25.896511 Si / 1000 Ang^3
#
#
#
# Elastic Constant Matrix: (Units=GPa)
#
#
# Indices 1 2 3 4 5 6 
#
# 1 47.0061 9.2623 24.0259 0.0000 6.6751 0.0000
# 2 9.2623 210.9130 57.6059 0.0000 -23.5252 0.0000
# 3 24.0259 57.6059 134.9240 0.0000 -17.4855 0.0000
# 4 0.0000 0.0000 0.0000 36.1824 0.0000 -16.6126
# 5 6.6751 -23.5252 -17.4855 0.0000 35.5915 0.0000
# 6 0.0000 0.0000 0.0000 -16.6126 0.0000 28.8213
#
#
#
# Elastic Compliance Matrix: (Units=1/GPa)
#
#
# Indices 1 2 3 4 5 6 
#
# 1 0.025141 -0.000524 -0.005243 0.000000 -0.007637 0.000000
# 2 -0.000524 0.005611 -0.001932 0.000000 0.002858 0.000000
# 3 -0.005243 -0.001932 0.009753 0.000000 0.004498 0.000000
# 4 0.000000 0.000000 0.000000 0.037584 0.000000 0.021663
# 5 -0.007637 0.002858 0.004498 0.000000 0.033628 0.000000
# 6 0.000000 0.000000 0.000000 0.021663 0.000000 0.047183
#
#
# Mechanical properties :
#
#
# Convention : Reuss Voigt Hill
#
# Bulk Modulus (GPa) = 39.82882 63.84790 51.83836
# Shear Modulus (GPa) = 27.37226 40.24899 33.81062
#
# Velocity S-wave (km/s) = 3.25466 3.94664 3.61724
# Velocity P-wave (km/s) = 5.43481 6.74363 6.12428
#
# Compressibility (1/GPa) = 0.02510745
#
# Stress axis : x y z
#
# Youngs Moduli (GPa) = 39.77501 178.23120 102.53372
#
# Poissons Ratio (x) = 0.09339 0.53758
# Poissons Ratio (y) = 0.02084 0.19808
# Poissons Ratio (z) = 0.20854 0.34431
#
# Static dielectric constant tensor:
#      x y z
#    x 2.194620 0.000000 0.146050 
#    y 0.000000 2.053500 0.000000 
#    z 0.146050 0.000000 2.071190 
# 
# From -- ./inp_files/97869.got.cif
#   From: 2010.05.17/outbox.cif.g08.bks.cpg/sg12_49_cif.got.tgz:97869.got - 2010.06.03 13:09:07.
