data_PCOD9179641
_publ_section_title
;
Structure prediction by ZEFSAII (Michael W. Deem and Ramdas Pophale) SiO2 
 PCOD9179641
Probable space group: C 2/M
;
_chemical_formula_sum "Si O2"
_cell_formula_units_Z 56
_cell_length_a 16.537982
_cell_length_b 18.500475
_cell_length_c 20.750862
_cell_angle_alpha 90.000000
_cell_angle_beta 25.594244
_cell_angle_gamma 90.000000
_cell_volume 2742.713251
_symmetry_space_group_name_H-M "C 2/M"
_symmetry_group_IT_number 12
_symmetry_cell_setting 'monoclinic'
loop_
_space_group_symop_operation_xyz
x,y,z
-x,y,-z
-x,-y,-z
x,-y,z
1/2+x,1/2+y,z
1/2-x,1/2+y,-z
1/2-x,1/2-y,-z
1/2+x,1/2-y,z
loop_
_atom_site_type_symbol
_atom_site_label
_atom_site_fract_x
_atom_site_fract_y
_atom_site_fract_z
Si Si1 0.138287 0.829338 0.845568
Si Si2 0.109703 0.291684 0.009509
Si Si3 0.940924 0.079703 0.888421
Si Si4 0.732733 0.084877 0.527383
Si Si5 0.983815 0.418546 0.588494
Si Si6 0.598955 0.833634 0.166828
Si Si7 0.854753 0.917087 0.798528
O O1 0.344236 0.856060 0.711901
O O2 0.077425 0.746526 0.882119
O O3 0.000000 0.859645 0.000000
O O4 0.082022 0.863674 0.817544
O O5 0.074771 0.311419 0.109425
O O6 0.279411 0.231702 0.888720
O O7 0.187703 0.360256 0.915191
O O8 0.741044 0.098479 0.063637
O O9 0.006807 0.000000 0.857465
O O10 0.910454 0.085020 0.834362
O O11 0.670690 0.087714 0.496592
O O12 0.593592 0.139378 0.663826
O O13 0.952172 0.102349 0.376275
O O14 0.706884 0.000000 0.565372
O O15 0.910033 0.500000 0.655211
O O16 0.000000 0.413023 0.500000
O O17 0.804323 0.000000 0.819077
#
# Coordination Sequence:
#
# PCOD9179641 Si02
#       7
#     8   8   8   8   8   8   8
#     4  11  21  32  48  70 100 136 173 206 234 285
#     4   9  19  34  48  69  97 130 170 205 251 298
#     4   9  16  28  46  68  97 133 165 195 238 287
#     4  10  19  31  50  79 105 127 163 203 243 296
#     4  10  20  32  47  72 110 149 172 189 228 292
#     4   9  17  29  46  68  97 127 161 210 248 282
#     4   9  18  33  53  73  97 128 162 208 258 296
#
# _framework density 20.417738
#
# number of rings (size 3 to 8) (size 9 to 14) (size 15 to 20)
#    0.000    2.429    0.000    4.286    0.000    5.714 
#    0.000    1.429    0.000    0.429    0.000    0.000 
#    0.000    2.857    0.000    0.000    0.000    0.000 
#
# Total GULP energy -156129.710238 kJ/mol
# GULP energy per Si atom -5576.061080 kJ/mol
# Density = 2.037127 g / cm^3
# Si number density = 20.417738 Si / 1000 Ang^3
#
#
#
# Elastic Constant Matrix: (Units=GPa)
#
#
# Indices 1 2 3 4 5 6 
#
# 1 32.9049 23.7420 7.0652 -0.0066 -1.2266 -0.0052
# 2 23.7420 96.4344 55.5591 -0.0037 -8.1104 0.0071
# 3 7.0652 55.5591 88.1527 0.0126 -2.9121 -0.0121
# 4 -0.0066 -0.0037 0.0126 30.8970 0.0018 1.3499
# 5 -1.2266 -8.1104 -2.9121 0.0018 26.8438 0.0007
# 6 -0.0052 0.0071 -0.0121 1.3499 0.0007 24.1962
#
#
#
# Elastic Compliance Matrix: (Units=1/GPa)
#
#
# Indices 1 2 3 4 5 6 
#
# 1 0.038104 -0.012113 0.004533 0.000004 -0.001427 0.000014
# 2 -0.012113 0.020532 -0.011826 0.000005 0.004367 -0.000015
# 3 0.004533 -0.011826 0.018389 -0.000008 -0.001371 0.000014
# 4 0.000004 0.000005 -0.000008 0.032445 -0.000001 -0.001810
# 5 -0.001427 0.004367 -0.001371 -0.000001 0.038358 -0.000003
# 6 0.000014 -0.000015 0.000014 -0.001810 -0.000003 0.041430
#
#
# Mechanical properties :
#
#
# Convention : Reuss Voigt Hill
#
# Bulk Modulus (GPa) = 26.16826 43.35827 34.76327
# Shear Modulus (GPa) = 20.76359 25.12909 22.94634
#
# Velocity S-wave (km/s) = 3.19241 3.51201 3.35601
# Velocity P-wave (km/s) = 5.14129 6.14225 5.66393
#
# Compressibility (1/GPa) = 0.03821423
#
# Stress axis : x y z
#
# Youngs Moduli (GPa) = 26.24402 48.70365 54.38164
#
# Poissons Ratio (x) = 0.58994 -0.24652
# Poissons Ratio (y) = 0.31789 0.64310
# Poissons Ratio (z) = -0.11897 0.57595
#
# Static dielectric constant tensor:
#      x y z
#    x 1.751290 0.000000 0.018340 
#    y 0.000000 1.750190 0.000020 
#    z 0.018340 0.000020 1.743300 
# 
# From -- ./inp_files/347756.got.cif
#   From: 2010.05.17/outbox.cif.g08.bks.cpg/sg12_174_cif.got.tgz:347756.got - 2010.06.03 13:09:07.
