data_PCOD9179981
_publ_section_title
;
Structure prediction by ZEFSAII (Michael W. Deem and Ramdas Pophale) SiO2 
 PCOD9179981
Probable space group: C 2/M
;
_chemical_formula_sum "Si O2"
_cell_formula_units_Z 48
_cell_length_a 22.125147
_cell_length_b 14.405084
_cell_length_c 13.458463
_cell_angle_alpha 90.000000
_cell_angle_beta 42.037229
_cell_angle_gamma 90.000000
_cell_volume 2872.245252
_symmetry_space_group_name_H-M "C 2/M"
_symmetry_group_IT_number 12
_symmetry_cell_setting 'monoclinic'
loop_
_space_group_symop_operation_xyz
x,y,z
-x,y,-z
-x,-y,-z
x,-y,z
1/2+x,1/2+y,z
1/2-x,1/2+y,-z
1/2-x,1/2-y,-z
1/2+x,1/2-y,z
loop_
_atom_site_type_symbol
_atom_site_label
_atom_site_fract_x
_atom_site_fract_y
_atom_site_fract_z
Si Si1 0.977012 0.285026 0.336351
Si Si2 0.215315 0.764086 0.432622
Si Si3 0.525619 0.108621 0.080493
Si Si4 0.235526 0.607521 0.794583
Si Si5 0.847160 0.609861 0.626352
Si Si6 0.329194 0.749682 0.822259
O O1 0.072464 0.242110 0.248806
O O2 0.892209 0.215526 0.437189
O O3 0.943564 0.359660 0.460409
O O4 0.982643 0.334331 0.222645
O O5 0.250000 0.750000 0.500000
O O6 0.265048 0.844415 0.312311
O O7 0.220186 0.667224 0.364699
O O8 0.633860 0.114913 0.960228
O O9 0.499313 0.000000 0.120253
O O10 0.500000 0.139538 0.000000
O O11 0.259765 0.500000 0.760239
O O12 0.304269 0.666949 0.777159
O O13 0.836271 0.500000 0.639816
O O14 0.832979 0.656845 0.750875
O O15 0.250000 0.750000 0.000000
#
# Coordination Sequence:
#
# PCOD9179981 Si02
#       6
#     8   8   8   8   8   8
#     4  10  20  33  57  78 111 137 182 217 277 316
#     4   9  20  36  54  81 111 142 178 218 270 322
#     4  10  19  31  52  83 110 137 177 225 277 324
#     4  10  21  36  54  78 110 148 182 221 265 318
#     4   9  21  35  57  84 109 136 175 228 281 321
#     4  11  21  37  53  79 112 141 181 220 270 329
#
# _framework density 16.711665
#
# number of rings (size 3 to 8) (size 9 to 14) (size 15 to 20)
#    1.000    1.167    1.667    2.000    0.000    3.333 
#    0.000    1.667    0.000    0.000    0.000    1.167 
#    0.000    0.000    0.000    0.000    0.000    0.000 
#
# Total GULP energy -133609.341445 kJ/mol
# GULP energy per Si atom -5567.055894 kJ/mol
# Density = 1.667363 g / cm^3
# Si number density = 16.711665 Si / 1000 Ang^3
#
#
#
# Elastic Constant Matrix: (Units=GPa)
#
#
# Indices 1 2 3 4 5 6 
#
# 1 61.6886 8.3727 9.2808 0.0000 7.9066 0.0000
# 2 8.3727 74.3877 26.6612 0.0000 -0.6237 0.0000
# 3 9.2808 26.6612 93.5428 0.0000 12.8607 0.0000
# 4 0.0000 0.0000 0.0000 14.3256 0.0000 -3.5044
# 5 7.9066 -0.6237 12.8607 0.0000 26.5729 0.0000
# 6 0.0000 0.0000 0.0000 -3.5044 0.0000 12.6230
#
#
#
# Elastic Compliance Matrix: (Units=1/GPa)
#
#
# Indices 1 2 3 4 5 6 
#
# 1 0.017159 -0.001786 -0.000520 0.000000 -0.004896 0.000000
# 2 -0.001786 0.015327 -0.004621 0.000000 0.003128 0.000000
# 3 -0.000520 -0.004621 0.012912 0.000000 -0.006203 0.000000
# 4 0.000000 0.000000 0.000000 0.074891 0.000000 0.020791
# 5 -0.004896 0.003128 -0.006203 0.000000 0.042164 0.000000
# 6 0.000000 0.000000 0.000000 0.020791 0.000000 0.084992
#
#
# Mechanical properties :
#
#
# Convention : Reuss Voigt Hill
#
# Bulk Modulus (GPa) = 31.70343 35.36094 33.53219
# Shear Modulus (GPa) = 18.39496 23.05794 20.72645
#
# Velocity S-wave (km/s) = 3.32132 3.71853 3.52552
# Velocity P-wave (km/s) = 5.80691 6.29619 6.05649
#
# Compressibility (1/GPa) = 0.03154233
#
# Stress axis : x y z
#
# Youngs Moduli (GPa) = 58.27994 65.24614 77.44860
#
# Poissons Ratio (x) = 0.11652 0.04030
# Poissons Ratio (y) = 0.10408 0.35790
# Poissons Ratio (z) = 0.03032 0.30151
#
# Static dielectric constant tensor:
#      x y z
#    x 1.583600 0.000000 0.007020 
#    y 0.000000 1.533440 0.000000 
#    z 0.007020 0.000000 1.576580 
# 
# From -- ./inp_files/166527.got.cif
#   From: 2010.05.17/outbox.cif.g08.bks.cpg/sg12_84_cif.got.tgz:166527.got - 2010.06.03 13:09:07.
