data_PCOD9179462
_publ_section_title
;
Structure prediction by ZEFSAII (Michael W. Deem and Ramdas Pophale) SiO2 
 PCOD9179462
Probable space group: C 2/M
;
_chemical_formula_sum "Si O2"
_cell_formula_units_Z 56
_cell_length_a 19.457629
_cell_length_b 7.567652
_cell_length_c 21.134428
_cell_angle_alpha 90.000000
_cell_angle_beta 62.077224
_cell_angle_gamma 90.000000
_cell_volume 2749.712104
_symmetry_space_group_name_H-M "C 2/M"
_symmetry_group_IT_number 12
_symmetry_cell_setting 'monoclinic'
loop_
_space_group_symop_operation_xyz
x,y,z
-x,y,-z
-x,-y,-z
x,-y,z
1/2+x,1/2+y,z
1/2-x,1/2+y,-z
1/2-x,1/2-y,-z
1/2+x,1/2-y,z
loop_
_atom_site_type_symbol
_atom_site_label
_atom_site_fract_x
_atom_site_fract_y
_atom_site_fract_z
Si Si1 0.622780 0.708562 0.568463
Si Si2 0.769774 0.292234 0.123610
Si Si3 0.271835 0.285551 0.588072
Si Si4 0.300517 0.283403 0.717582
Si Si5 0.466308 0.712597 0.698835
Si Si6 0.573438 0.216791 0.010543
Si Si7 0.102793 0.290706 0.138686
O O1 0.609600 0.500000 0.564096
O O2 0.657496 0.778260 0.487323
O O3 0.692295 0.730226 0.588679
O O4 0.543757 0.782875 0.632053
O O5 0.784743 0.500000 0.124987
O O6 0.753063 0.221100 0.201223
O O7 0.688987 0.276285 0.119948
O O8 0.845161 0.221751 0.055335
O O9 0.273613 0.500000 0.587059
O O10 0.277415 0.225492 0.657741
O O11 0.299380 0.500000 0.718577
O O12 0.388085 0.228003 0.697176
O O13 0.467881 0.500000 0.694318
O O14 0.454248 0.754334 0.777939
O O15 0.572757 0.275464 0.083991
O O16 0.572500 0.000000 0.011424
O O17 0.500000 0.272521 0.000000
O O18 0.111268 0.500000 0.129839
#
# Coordination Sequence:
#
# PCOD9179462 Si02
#       7
#     8   8   8   8   8   8   8
#     4   9  18  31  47  68  95 126 155 187 232 280
#     4   9  17  32  52  70  94 126 154 186 232 282
#     4   9  17  30  48  70  95 122 155 192 228 273
#     4   8  15  28  48  71  90 117 157 193 225 265
#     4   9  18  33  50  68  93 124 157 192 232 276
#     4   9  18  31  48  72  98 123 155 193 230 271
#     4  10  19  31  50  73  94 120 156 195 232 273
#
# _framework density 20.365767999999999
#
# number of rings (size 3 to 8) (size 9 to 14) (size 15 to 20)
#    0.000    3.000    0.000    1.714    0.000    2.286 
#    0.000    9.286    0.000    3.857    0.000    8.000 
#    0.000    0.000    0.000    0.000    0.000    0.000 
#
# Total GULP energy -156154.357104 kJ/mol
# GULP energy per Si atom -5576.941325 kJ/mol
# Density = 2.031941 g / cm^3
# Si number density = 20.365768 Si / 1000 Ang^3
#
#
#
# Elastic Constant Matrix: (Units=GPa)
#
#
# Indices 1 2 3 4 5 6 
#
# 1 -99.0305 25.1402 -192.2445 0.0003 36.4815 -0.0010
# 2 25.1402 29.2270 60.6993 0.0001 -8.7042 -0.0001
# 3 -192.2445 60.6993 -307.7004 0.0006 57.3896 -0.0021
# 4 0.0003 0.0001 0.0006 11.4128 0.0000 6.8341
# 5 36.4815 -8.7042 57.3896 0.0000 37.4578 0.0005
# 6 -0.0010 -0.0001 -0.0021 6.8341 0.0005 10.1245
#
#
#
# Elastic Compliance Matrix: (Units=1/GPa)
#
#
# Indices 1 2 3 4 5 6 
#
# 1 0.058581 0.018287 -0.033320 0.000001 -0.001755 -0.000002
# 2 0.018287 0.030064 -0.005844 -0.000002 -0.001871 0.000002
# 3 -0.033320 -0.005844 0.017277 0.000000 0.004623 0.000000
# 4 0.000001 -0.000002 0.000000 0.147064 0.000000 -0.099269
# 5 -0.001755 -0.001871 0.004623 0.000000 0.020888 0.000000
# 6 -0.000002 0.000002 0.000000 -0.099269 0.000000 0.165777
#
#
# Mechanical properties :
#
#
# Convention : Reuss Voigt Hill
#
# Bulk Modulus (GPa) = 15.58377 -65.59042 -25.00332
# Shear Modulus (GPa) = 9.94444 -6.27423 1.83511
#
# Velocity S-wave (km/s) = 2.21213 -1.75712 0.95028
# Velocity P-wave (km/s) = 3.76739 6.03264 3.33163
#
# Compressibility (1/GPa) = 0.06416932
#
# Stress axis : x y z
#
# Youngs Moduli (GPa) = 17.07033 33.26229 57.87992
#
# Poissons Ratio (x) = -0.60828 1.92856
# Poissons Ratio (y) = -0.31217 0.33824
# Poissons Ratio (z) = 0.56878 0.19438
#
# Static dielectric constant tensor:
#      x y z
#    x 1.678320 0.000000 -0.007680 
#    y 0.000000 1.779970 0.000000 
#    z -0.007680 0.000000 1.740270 
# 
# From -- ./inp_files/319009.got.cif
#   From: 2010.05.17/outbox.cif.g08.bks.cpg/sg12_160_cif.got.tgz:319009.got - 2010.06.03 13:09:07.
