data_PCOD9179884
_publ_section_title
;
Structure prediction by ZEFSAII (Michael W. Deem and Ramdas Pophale) SiO2 
 PCOD9179884
Probable space group: C 2/M
;
_chemical_formula_sum "Si O2"
_cell_formula_units_Z 56
_cell_length_a 20.288457
_cell_length_b 7.530096
_cell_length_c 22.021182
_cell_angle_alpha 90.000000
_cell_angle_beta 54.438850
_cell_angle_gamma 90.000000
_cell_volume 2736.813479
_symmetry_space_group_name_H-M "C 2/M"
_symmetry_group_IT_number 12
_symmetry_cell_setting 'monoclinic'
loop_
_space_group_symop_operation_xyz
x,y,z
-x,y,-z
-x,-y,-z
x,-y,z
1/2+x,1/2+y,z
1/2-x,1/2+y,-z
1/2-x,1/2-y,-z
1/2+x,1/2-y,z
loop_
_atom_site_type_symbol
_atom_site_label
_atom_site_fract_x
_atom_site_fract_y
_atom_site_fract_z
Si Si1 0.099621 0.794690 0.125619
Si Si2 0.844037 0.287382 0.451798
Si Si3 0.906167 0.283181 0.547184
Si Si4 0.861920 0.716409 0.701145
Si Si5 0.424776 0.282075 0.997797
Si Si6 0.747880 0.208154 0.132468
Si Si7 0.012562 0.285924 0.703952
O O1 0.073783 0.723701 0.073617
O O2 0.180246 0.719669 0.115287
O O3 0.025983 0.780294 0.212849
O O4 0.119916 0.000000 0.105552
O O5 0.855895 0.500000 0.445968
O O6 0.750000 0.250000 0.500000
O O7 0.873449 0.217944 0.500893
O O8 0.900074 0.222851 0.366184
O O9 0.902192 0.500000 0.549243
O O10 0.860591 0.223282 0.632496
O O11 0.000000 0.235312 0.500000
O O12 0.858290 0.500000 0.702786
O O13 0.793958 0.782778 0.784264
O O14 0.948095 0.760998 0.685695
O O15 0.426859 0.500000 0.997007
O O16 0.500000 0.225201 0.000000
O O17 0.336507 0.221593 0.069034
O O18 0.760165 0.000000 0.137068
O O19 0.012672 0.500000 0.709147
#
# Coordination Sequence:
#
# PCOD9179884 Si02
#       7
#     8   8   8   8   8   8   8
#     4  10  19  31  52  78 100 125 161 209 252 290
#     4  10  20  33  50  73 103 135 165 204 249 294
#     4   9  14  25  48  74  95 118 162 212 240 270
#     4   8  13  24  46  75  94 114 160 211 243 270
#     4   9  18  33  50  73 104 131 161 205 252 292
#     4   9  17  31  53  75  98 130 164 199 245 302
#     4   9  17  32  52  72  98 133 168 202 244 294
#
# _framework density 20.461753000000002
#
# number of rings (size 3 to 8) (size 9 to 14) (size 15 to 20)
#    0.000    2.857    1.429    1.714    0.000    0.571 
#    2.571    0.714    0.000    7.714    0.000    0.000 
#    0.000    0.000    0.000    0.000    0.000    0.000 
#
# Total GULP energy -156104.749932 kJ/mol
# GULP energy per Si atom -5575.169640 kJ/mol
# Density = 2.041518 g / cm^3
# Si number density = 20.461753 Si / 1000 Ang^3
#
#
#
# Elastic Constant Matrix: (Units=GPa)
#
#
# Indices 1 2 3 4 5 6 
#
# 1 129.6368 -6.2572 97.3955 -0.0040 -7.4964 0.0167
# 2 -6.2572 45.1749 -2.0782 -0.0060 0.4358 0.0220
# 3 97.3955 -2.0782 169.8342 -0.0003 -7.4086 0.0012
# 4 -0.0040 -0.0060 -0.0003 39.9182 -0.0011 -128.2004
# 5 -7.4964 0.4358 -7.4086 -0.0011 28.8127 0.0053
# 6 0.0167 0.0220 0.0012 -128.2004 0.0053 560.1562
#
#
#
# Elastic Compliance Matrix: (Units=1/GPa)
#
#
# Indices 1 2 3 4 5 6 
#
# 1 0.013726 0.001528 -0.007785 0.000000 0.001546 0.000000
# 2 0.001528 0.022321 -0.000607 0.000002 -0.000096 0.000000
# 3 -0.007785 -0.000607 0.010374 0.000000 0.000651 0.000000
# 4 0.000000 0.000002 0.000000 0.094540 0.000000 0.021637
# 5 0.001546 -0.000096 0.000651 0.000000 0.035278 0.000000
# 6 0.000000 0.000000 0.000000 0.021637 0.000000 0.006737
#
#
# Mechanical properties :
#
#
# Convention : Reuss Voigt Hill
#
# Bulk Modulus (GPa) = 30.58909 58.08513 44.33711
# Shear Modulus (GPa) = 24.08449 142.81647 83.45048
#
# Velocity S-wave (km/s) = 3.43454 8.36351 6.39314
# Velocity P-wave (km/s) = 5.54165 11.03237 8.72992
#
# Compressibility (1/GPa) = 0.03269139
#
# Stress axis : x y z
#
# Youngs Moduli (GPa) = 72.85323 44.80116 96.39634
#
# Poissons Ratio (x) = -0.06846 0.75049
# Poissons Ratio (y) = -0.11133 0.05855
# Poissons Ratio (z) = 0.56720 0.02721
#
# Static dielectric constant tensor:
#      x y z
#    x 1.713870 0.000000 -0.056610 
#    y 0.000000 1.814000 0.000000 
#    z -0.056610 0.000000 1.668980 
# 
# From -- ./inp_files/319666.got.cif
#   From: 2010.05.17/outbox.cif.g08.bks.cpg/sg12_160_cif.got.tgz:319666.got - 2010.06.03 13:09:07.
