data_PCOD9179949
_publ_section_title
;
Structure prediction by ZEFSAII (Michael W. Deem and Ramdas Pophale) SiO2 
 PCOD9179949
Probable space group: C 2/M
;
_chemical_formula_sum "Si O2"
_cell_formula_units_Z 48
_cell_length_a 25.817743
_cell_length_b 12.507961
_cell_length_c 9.716719
_cell_angle_alpha 90.000000
_cell_angle_beta 41.792644
_cell_angle_gamma 90.000000
_cell_volume 2091.141287
_symmetry_space_group_name_H-M "C 2/M"
_symmetry_group_IT_number 12
_symmetry_cell_setting 'monoclinic'
loop_
_space_group_symop_operation_xyz
x,y,z
-x,y,-z
-x,-y,-z
x,-y,z
1/2+x,1/2+y,z
1/2-x,1/2+y,-z
1/2-x,1/2-y,-z
1/2+x,1/2-y,z
loop_
_atom_site_type_symbol
_atom_site_label
_atom_site_fract_x
_atom_site_fract_y
_atom_site_fract_z
Si Si1 0.334503 0.281021 0.995316
Si Si2 0.515387 0.882103 0.629812
Si Si3 0.816188 0.383516 0.786615
Si Si4 0.307215 0.123644 0.308894
Si Si5 0.371952 0.323623 0.316599
Si Si6 0.523129 0.674727 0.156119
O O1 0.329931 0.211098 0.867068
O O2 0.321589 0.194307 0.142579
O O3 0.261635 0.359537 0.141316
O O4 0.414955 0.347501 0.845922
O O5 0.500000 0.849990 0.500000
O O6 0.484255 0.802121 0.804273
O O7 0.481465 0.000000 0.711491
O O8 0.607759 0.885978 0.456621
O O9 0.810400 0.500000 0.867470
O O10 0.350352 0.197815 0.337362
O O11 0.213104 0.124722 0.514490
O O12 0.332516 0.000000 0.254202
O O13 0.432481 0.355269 0.318847
O O14 0.425600 0.352858 0.078639
#
# Coordination Sequence:
#
# PCOD9179949 Si02
#       6
#     8   8   8   8   8   8
#     4  10  20  34  57  82 113 152 187 227 277 333
#     4  10  19  31  52  81 109 141 183 226 277 330
#     4  10  20  35  54  83 116 150 189 228 275 331
#     4  10  20  38  59  81 110 146 186 229 278 334
#     4   9  21  37  56  83 110 143 188 228 276 329
#     4  10  19  36  54  77 116 145 179 233 275 325
#
# _framework density 22.953975
#
# number of rings (size 3 to 8) (size 9 to 14) (size 15 to 20)
#    0.000    2.167    1.667    1.500    0.000    3.333 
#    0.000   17.500    0.000    0.000    0.000    5.833 
#    0.000    0.000    0.000    0.000    0.000    0.000 
#
# Total GULP energy -133640.455130 kJ/mol
# GULP energy per Si atom -5568.352297 kJ/mol
# Density = 2.290173 g / cm^3
# Si number density = 22.953975 Si / 1000 Ang^3
#
#
#
# Elastic Constant Matrix: (Units=GPa)
#
#
# Indices 1 2 3 4 5 6 
#
# 1 89.1839 3.1026 12.5725 0.0000 -41.9677 0.0000
# 2 3.1026 41.2237 5.3268 0.0000 -1.2352 0.0000
# 3 12.5725 5.3268 76.2967 0.0000 -35.8187 0.0000
# 4 0.0000 0.0000 0.0000 1.1497 0.0000 -2.0552
# 5 -41.9677 -1.2352 -35.8187 0.0000 51.4794 0.0000
# 6 0.0000 0.0000 0.0000 -2.0552 0.0000 6.1568
#
#
#
# Elastic Compliance Matrix: (Units=1/GPa)
#
#
# Indices 1 2 3 4 5 6 
#
# 1 0.020292 -0.001761 0.006721 0.000000 0.021177 0.000000
# 2 -0.001761 0.024659 -0.002714 0.000000 -0.002733 0.000000
# 3 0.006721 -0.002714 0.021876 0.000000 0.020635 0.000000
# 4 0.000000 0.000000 0.000000 2.156931 0.000000 0.720018
# 5 0.021177 -0.002733 0.020635 0.000000 0.050981 0.000000
# 6 0.000000 0.000000 0.000000 0.720018 0.000000 0.402775
#
#
# Mechanical properties :
#
#
# Convention : Reuss Voigt Hill
#
# Bulk Modulus (GPa) = 14.02168 27.63424 20.82796
# Shear Modulus (GPa) = 1.85405 24.13733 12.99569
#
# Velocity S-wave (km/s) = 0.89971 3.24628 2.38200
# Velocity P-wave (km/s) = 2.68350 5.11041 4.08151
#
# Compressibility (1/GPa) = 0.07131814
#
# Stress axis : x y z
#
# Youngs Moduli (GPa) = 49.28113 40.55268 45.71167
#
# Poissons Ratio (x) = 0.07142 -0.30722
# Poissons Ratio (y) = 0.08679 0.12408
# Poissons Ratio (z) = -0.33121 0.11007
#
# Static dielectric constant tensor:
#      x y z
#    x 1.995630 0.000000 -0.031820 
#    y 0.000000 1.860830 0.000000 
#    z -0.031820 0.000000 1.883160 
# 
# From -- ./inp_files/189359.got.cif
#   From: 2010.05.17/outbox.cif.g08.bks.cpg/sg12_95_cif.got.tgz:189359.got - 2010.06.03 13:09:07.
