data_PCOD9179545
_publ_section_title
;
Structure prediction by ZEFSAII (Michael W. Deem and Ramdas Pophale) SiO2 
 PCOD9179545
Probable space group: C 2/M
;
_chemical_formula_sum "Si O2"
_cell_formula_units_Z 64
_cell_length_a 23.380306
_cell_length_b 9.053089
_cell_length_c 20.828578
_cell_angle_alpha 90.000000
_cell_angle_beta 60.664650
_cell_angle_gamma 90.000000
_cell_volume 3843.325007
_symmetry_space_group_name_H-M "C 2/M"
_symmetry_group_IT_number 12
_symmetry_cell_setting 'monoclinic'
loop_
_space_group_symop_operation_xyz
x,y,z
-x,y,-z
-x,-y,-z
x,-y,z
1/2+x,1/2+y,z
1/2-x,1/2+y,-z
1/2-x,1/2-y,-z
1/2+x,1/2-y,z
loop_
_atom_site_type_symbol
_atom_site_label
_atom_site_fract_x
_atom_site_fract_y
_atom_site_fract_z
Si Si1 0.234514 0.168872 0.408252
Si Si2 0.438583 0.177930 0.287095
Si Si3 0.852826 0.330246 0.448153
Si Si4 0.287179 0.675999 0.919104
Si Si5 0.808380 0.173879 0.123077
Si Si6 0.327438 0.323890 0.261778
Si Si7 0.572167 0.824245 0.147397
Si Si8 0.946697 0.826399 0.975079
O O1 0.171363 0.235149 0.478650
O O2 0.292679 0.170192 0.429848
O O3 0.263502 0.264488 0.334362
O O4 0.224415 0.000000 0.394188
O O5 0.413765 0.223608 0.371572
O O6 0.390221 0.250589 0.261531
O O7 0.513499 0.210807 0.228916
O O8 0.429474 0.000000 0.288579
O O9 0.863314 0.500000 0.462146
O O10 0.287165 0.500000 0.926773
O O11 0.247208 0.727114 0.878513
O O12 0.360820 0.737871 0.876356
O O13 0.250000 0.750000 0.000000
O O14 0.823061 0.211047 0.188895
O O15 0.874815 0.190788 0.045408
O O16 0.789631 0.000000 0.130237
O O17 0.332135 0.500000 0.266360
O O18 0.584144 0.000000 0.141533
O O19 0.547898 0.773307 0.090520
O O20 0.955369 0.000000 0.952914
O O21 0.000000 0.790662 0.000000
#
# Coordination Sequence:
#
# PCOD9179545 Si02
#       8
#     8   8   8   8   8   8   8   8
#     4   9  16  26  42  67 100 135 169 206 245 292
#     4   9  19  33  49  73 106 138 168 207 251 299
#     4   8  14  26  43  65  96 134 171 203 240 291
#     4  12  24  39  58  76  96 127 169 217 260 301
#     4  10  21  36  53  74 101 132 169 210 252 299
#     4  10  19  31  50  75 104 138 170 205 250 301
#     4  11  22  36  54  76 101 132 169 210 256 303
#     4  10  20  34  52  74 102 135 167 203 248 299
#
# _framework density 16.652248
#
# number of rings (size 3 to 8) (size 9 to 14) (size 15 to 20)
#    0.000    2.125    1.250    3.750    0.000    6.250 
#    0.000    0.000    0.000    0.000    0.000    0.875 
#    0.000    7.000    0.000    0.000    0.000    0.000 
#
# Total GULP energy -178525.630814 kJ/mol
# GULP energy per Si atom -5578.925963 kJ/mol
# Density = 1.661435 g / cm^3
# Si number density = 16.652248 Si / 1000 Ang^3
#
#
#
# Elastic Constant Matrix: (Units=GPa)
#
#
# Indices 1 2 3 4 5 6 
#
# 1 59.7939 31.0348 17.9034 0.0000 -22.1117 -0.0001
# 2 31.0348 58.4565 34.6144 0.0000 -16.9125 -0.0002
# 3 17.9034 34.6144 87.5613 0.0000 -29.6218 0.0000
# 4 0.0000 0.0000 0.0000 26.2474 0.0000 0.3245
# 5 -22.1117 -16.9125 -29.6218 0.0000 18.4000 0.0000
# 6 -0.0001 -0.0002 0.0000 0.3245 0.0000 22.6303
#
#
#
# Elastic Compliance Matrix: (Units=1/GPa)
#
#
# Indices 1 2 3 4 5 6 
#
# 1 0.048403 -0.016299 0.024498 0.000000 0.082625 0.000000
# 2 -0.016299 0.029560 -0.012709 0.000000 -0.012877 0.000000
# 3 0.024498 -0.012709 0.038304 0.000000 0.079424 0.000000
# 4 0.000000 0.000000 0.000000 0.038106 0.000000 -0.000546
# 5 0.082625 -0.012877 0.079424 0.000000 0.269666 0.000001
# 6 0.000000 0.000000 0.000000 -0.000546 0.000001 0.044196
#
#
# Mechanical properties :
#
#
# Convention : Reuss Voigt Hill
#
# Bulk Modulus (GPa) = 9.32421 41.43522 25.37971
# Shear Modulus (GPa) = 9.74649 21.60615 15.67632
#
# Velocity S-wave (km/s) = 2.42191 3.60598 3.07154
# Velocity P-wave (km/s) = 3.66502 6.50186 5.27762
#
# Compressibility (1/GPa) = 0.10724774
#
# Stress axis : x y z
#
# Youngs Moduli (GPa) = 20.65979 33.82942 26.10660
#
# Poissons Ratio (x) = 0.55139 -0.63956
# Poissons Ratio (y) = 0.33674 0.33179
# Poissons Ratio (z) = -0.50613 0.42994
#
# Static dielectric constant tensor:
#      x y z
#    x 1.540280 0.000000 -0.014360 
#    y 0.000000 1.562120 0.000000 
#    z -0.014360 0.000000 1.572450 
# 
# From -- ./inp_files/319775.got.cif
#   From: 2010.05.17/outbox.cif.g08.bks.cpg/sg12_160_cif.got.tgz:319775.got - 2010.06.03 13:09:07.
