data_PCOD9179298
_publ_section_title
;
Structure prediction by ZEFSAII (Michael W. Deem and Ramdas Pophale) SiO2 
 PCOD9179298
Probable space group: C 2/M
;
_chemical_formula_sum "Si O2"
_cell_formula_units_Z 40
_cell_length_a 26.750183
_cell_length_b 7.734430
_cell_length_c 19.037839
_cell_angle_alpha 90.000000
_cell_angle_beta 149.981570
_cell_angle_gamma 90.000000
_cell_volume 1970.537015
_symmetry_space_group_name_H-M "C 2/M"
_symmetry_group_IT_number 12
_symmetry_cell_setting 'monoclinic'
loop_
_space_group_symop_operation_xyz
x,y,z
-x,y,-z
-x,-y,-z
x,-y,z
1/2+x,1/2+y,z
1/2-x,1/2+y,-z
1/2-x,1/2-y,-z
1/2+x,1/2-y,z
loop_
_atom_site_type_symbol
_atom_site_label
_atom_site_fract_x
_atom_site_fract_y
_atom_site_fract_z
Si Si1 0.254210 0.801750 0.323579
Si Si2 0.933504 0.711680 0.626635
Si Si3 0.846545 0.293608 0.072308
Si Si4 0.887089 0.299855 0.727164
Si Si5 0.608660 0.298620 0.028920
O O1 0.360154 0.725195 0.476357
O O2 0.187014 0.799212 0.312006
O O3 0.185936 0.722757 0.179454
O O4 0.273283 0.000000 0.324808
O O5 0.929920 0.500000 0.622010
O O6 0.893244 0.765546 0.654594
O O7 0.049387 0.762729 0.764582
O O8 0.852585 0.500000 0.070499
O O9 0.750000 0.250000 0.000000
O O10 0.846054 0.214440 0.993939
O O11 0.856121 0.500000 0.688586
O O12 0.000155 0.288266 0.894072
O O13 0.590537 0.500000 0.024657
#
# Coordination Sequence:
#
# PCOD9179298 Si02
#       5
#     8   8   8   8   8
#     4  10  19  32  50  73 103 135 168 206 245 289
#     4   8  17  33  51  73  99 130 169 207 244 289
#     4  10  20  37  59  77  96 125 163 207 252 300
#     4  10  19  31  49  73 104 140 172 203 242 291
#     4  10  20  33  51  75 101 132 169 206 245 292
#
# _framework density 20.299035
#
# number of rings (size 3 to 8) (size 9 to 14) (size 15 to 20)
#    0.000    2.400    0.000    4.200    0.000    4.000 
#    0.000    6.000    0.000    6.000    0.000    0.000 
#    0.000    0.000    0.000    0.000    0.000    0.000 
#
# Total GULP energy -111633.582124 kJ/mol
# GULP energy per Si atom -5581.679106 kJ/mol
# Density = 2.025283 g / cm^3
# Si number density = 20.299035 Si / 1000 Ang^3
#
#
#
# Elastic Constant Matrix: (Units=GPa)
#
#
# Indices 1 2 3 4 5 6 
#
# 1 46.6811 -13.2785 29.0573 0.0000 20.8637 0.0000
# 2 -13.2785 44.4580 -6.7671 0.0000 -3.3947 0.0000
# 3 29.0573 -6.7671 160.6690 0.0000 -6.7743 0.0000
# 4 0.0000 0.0000 0.0000 9.3059 0.0000 0.9702
# 5 20.8637 -3.3947 -6.7743 0.0000 16.2756 0.0000
# 6 0.0000 0.0000 0.0000 0.9702 0.0000 22.1632
#
#
#
# Elastic Compliance Matrix: (Units=1/GPa)
#
#
# Indices 1 2 3 4 5 6 
#
# 1 0.102139 0.016434 -0.023569 0.000000 -0.137313 0.000000
# 2 0.016434 0.025725 -0.002596 0.000000 -0.016781 0.000000
# 3 -0.023569 -0.002596 0.011836 0.000000 0.034598 0.000000
# 4 0.000000 0.000000 0.000000 0.107951 0.000000 -0.004726
# 5 -0.137313 -0.016781 0.034598 0.000000 0.248364 0.000000
# 6 0.000000 0.000000 0.000000 -0.004726 0.000000 0.045327
#
#
# Mechanical properties :
#
#
# Convention : Reuss Voigt Hill
#
# Bulk Modulus (GPa) = 8.31701 29.98128 19.14914
# Shear Modulus (GPa) = 8.32109 25.73539 17.02824
#
# Velocity S-wave (km/s) = 2.02686 3.56450 2.89947
# Velocity P-wave (km/s) = 3.09575 5.63407 4.54568
#
# Compressibility (1/GPa) = 0.12023559
#
# Stress axis : x y z
#
# Youngs Moduli (GPa) = 9.79062 38.87290 84.48822
#
# Poissons Ratio (x) = -0.63882 1.99133
# Poissons Ratio (y) = -0.16089 0.21934
# Poissons Ratio (z) = 0.23076 0.10092
#
# Static dielectric constant tensor:
#      x y z
#    x 1.668330 0.000000 -0.006600 
#    y 0.000000 1.786580 0.000000 
#    z -0.006600 0.000000 1.774490 
# 
# From -- ./inp_files/151933.got.cif
#   From: 2010.05.17/outbox.cif.g08.bks.cpg/sg12_76_cif.got.tgz:151933.got - 2010.06.03 13:09:07.
