data_PCOD9179307
_publ_section_title
;
Structure prediction by ZEFSAII (Michael W. Deem and Ramdas Pophale) SiO2 
 PCOD9179307
Probable space group: C 2/M
;
_chemical_formula_sum "Si O2"
_cell_formula_units_Z 64
_cell_length_a 14.499979
_cell_length_b 7.630063
_cell_length_c 28.399085
_cell_angle_alpha 90.000000
_cell_angle_beta 106.207651
_cell_angle_gamma 90.000000
_cell_volume 3017.081661
_symmetry_space_group_name_H-M "C 2/M"
_symmetry_group_IT_number 12
_symmetry_cell_setting 'monoclinic'
loop_
_space_group_symop_operation_xyz
x,y,z
-x,y,-z
-x,-y,-z
x,-y,z
1/2+x,1/2+y,z
1/2-x,1/2+y,-z
1/2-x,1/2-y,-z
1/2+x,1/2-y,z
loop_
_atom_site_type_symbol
_atom_site_label
_atom_site_fract_x
_atom_site_fract_y
_atom_site_fract_z
Si Si1 0.290365 0.710304 0.863169
Si Si2 0.489659 0.202718 0.384418
Si Si3 0.879299 0.284365 0.677248
Si Si4 0.102747 0.289444 0.213533
Si Si5 0.414639 0.210839 0.131891
Si Si6 0.521977 0.710292 0.055231
Si Si7 0.297363 0.296633 0.409393
Si Si8 0.398980 0.709931 0.512480
O O1 0.289276 0.500000 0.868323
O O2 0.314751 0.747592 0.812366
O O3 0.187819 0.778190 0.865484
O O4 0.379246 0.778311 0.907312
O O5 0.527568 0.268814 0.339790
O O6 0.397758 0.292193 0.394802
O O7 0.580658 0.215857 0.433127
O O8 0.463277 0.000000 0.376298
O O9 0.877761 0.500000 0.677127
O O10 0.880708 0.225060 0.731273
O O11 0.785968 0.221843 0.635134
O O12 0.095965 0.500000 0.215204
O O13 0.003502 0.222949 0.176199
O O14 0.439267 0.252273 0.081414
O O15 0.413914 0.000000 0.136280
O O16 0.531223 0.500000 0.053133
O O17 0.500000 0.778335 0.000000
O O18 0.273981 0.500000 0.414207
O O19 0.319239 0.220072 0.464581
O O20 0.500000 0.744651 0.500000
O O21 0.389347 0.500000 0.515406
#
# Coordination Sequence:
#
# PCOD9179307 Si02
#       8
#     8   8   8   8   8   8   8   8
#     4   9  18  33  51  72  99 129 162 201 243 281
#     4  10  19  31  49  73  97 120 152 196 239 278
#     4   9  19  34  50  69  95 125 155 192 241 290
#     4   9  18  34  52  69  92 124 162 199 237 286
#     4   9  18  32  51  73  97 128 163 199 241 285
#     4   9  18  32  49  72 104 136 164 198 237 278
#     4   9  18  34  51  66  91 127 158 185 229 289
#     4   8  15  29  48  67  91 124 155 184 227 285
#
# _framework density 21.21255
#
# number of rings (size 3 to 8) (size 9 to 14) (size 15 to 20)
#    0.000    3.000    0.000    1.125    0.000    5.000 
#    0.000    4.375    0.000    0.000    0.000    0.000 
#    0.000    0.000    0.000    0.000    0.000    0.000 
#
# Total GULP energy -178534.856735 kJ/mol
# GULP energy per Si atom -5579.214273 kJ/mol
# Density = 2.116427 g / cm^3
# Si number density = 21.212550 Si / 1000 Ang^3
#
#
#
# Elastic Constant Matrix: (Units=GPa)
#
#
# Indices 1 2 3 4 5 6 
#
# 1 98.0090 -4.2846 67.2902 0.0000 -23.4891 0.0000
# 2 -4.2846 34.9899 4.0989 0.0000 4.6409 0.0000
# 3 67.2902 4.0989 149.9489 0.0000 -23.4443 0.0000
# 4 0.0000 0.0000 0.0000 15.0561 0.0000 -16.4791
# 5 -23.4891 4.6409 -23.4443 0.0000 18.3460 0.0000
# 6 0.0000 0.0000 0.0000 -16.4791 0.0000 -24.8967
#
#
#
# Elastic Compliance Matrix: (Units=1/GPa)
#
#
# Indices 1 2 3 4 5 6 
#
# 1 0.017765 0.000786 -0.005584 0.000000 0.015410 0.000000
# 2 0.000786 0.030358 -0.002782 0.000000 -0.010228 0.000000
# 3 -0.005584 -0.002782 0.010301 0.000000 0.006718 0.000000
# 4 0.000000 0.000000 0.000000 0.038515 0.000000 -0.025493
# 5 0.015410 -0.010228 0.006718 0.000000 0.085411 0.000000
# 6 0.000000 0.000000 0.000000 -0.025493 0.000000 -0.023292
#
#
# Mechanical properties :
#
#
# Convention : Reuss Voigt Hill
#
# Bulk Modulus (GPa) = 23.11391 46.35076 34.73234
# Shear Modulus (GPa) = 26.50556 16.09062 21.29809
#
# Velocity S-wave (km/s) = 3.53869 2.75715 3.17208
# Velocity P-wave (km/s) = 5.25514 5.65985 5.46124
#
# Compressibility (1/GPa) = 0.04326399
#
# Stress axis : x y z
#
# Youngs Moduli (GPa) = 56.29183 32.93988 97.07624
#
# Poissons Ratio (x) = -0.02588 0.54208
# Poissons Ratio (y) = -0.04422 0.27002
# Poissons Ratio (z) = 0.31434 0.09162
#
# Static dielectric constant tensor:
#      x y z
#    x 1.777480 0.000000 0.013360 
#    y 0.000000 1.769340 0.000000 
#    z 0.013360 0.000000 1.760050 
# 
# From -- ./inp_files/338873.got.cif
#   From: 2010.05.17/outbox.cif.g08.bks.cpg/sg12_170_cif.got.tgz:338873.got - 2010.06.03 13:09:07.
