data_PCOD9179751
_publ_section_title
;
Structure prediction by ZEFSAII (Michael W. Deem and Ramdas Pophale) SiO2 
 PCOD9179751
Probable space group: C 2/M
;
_chemical_formula_sum "Si O2"
_cell_formula_units_Z 64
_cell_length_a 24.779541
_cell_length_b 8.042400
_cell_length_c 16.864490
_cell_angle_alpha 90.000000
_cell_angle_beta 79.609267
_cell_angle_gamma 90.000000
_cell_volume 3305.757170
_symmetry_space_group_name_H-M "C 2/M"
_symmetry_group_IT_number 12
_symmetry_cell_setting 'monoclinic'
loop_
_space_group_symop_operation_xyz
x,y,z
-x,y,-z
-x,-y,-z
x,-y,z
1/2+x,1/2+y,z
1/2-x,1/2+y,-z
1/2-x,1/2-y,-z
1/2+x,1/2-y,z
loop_
_atom_site_type_symbol
_atom_site_label
_atom_site_fract_x
_atom_site_fract_y
_atom_site_fract_z
Si Si1 0.091911 0.811575 0.989573
Si Si2 0.466202 0.189313 0.845223
Si Si3 0.008274 0.203376 0.408218
Si Si4 0.149646 0.205222 0.813180
Si Si5 0.891172 0.195779 0.726672
Si Si6 0.275267 0.808372 0.773635
Si Si7 0.437242 0.692497 0.283783
Si Si8 0.306620 0.190778 0.948639
O O1 0.048244 0.726360 0.059686
O O2 0.146174 0.806733 0.030214
O O3 0.073632 0.000000 0.980043
O O4 0.114905 0.740598 0.900271
O O5 0.413791 0.214989 0.800607
O O6 0.513960 0.299152 0.794230
O O7 0.484204 0.000000 0.833469
O O8 0.066689 0.247053 0.353714
O O9 0.000000 0.260756 0.500000
O O10 0.962363 0.264570 0.357849
O O11 0.006001 0.000000 0.409226
O O12 0.213123 0.259768 0.791236
O O13 0.116191 0.262135 0.744986
O O14 0.150537 0.000000 0.817620
O O15 0.828201 0.226286 0.719140
O O16 0.898203 0.000000 0.740373
O O17 0.295384 0.804041 0.858930
O O18 0.271908 0.000000 0.747975
O O19 0.424970 0.500000 0.303402
O O20 0.320231 0.000000 0.967280
O O21 0.250000 0.250000 0.000000
#
# Coordination Sequence:
#
# PCOD9179751 Si02
#       8
#     8   8   8   8   8   8   8   8
#     4  11  20  32  48  67  94 130 177 220 252 288
#     4  11  21  33  48  70 101 132 166 213 262 297
#     4   8  15  30  55  84 104 118 150 203 251 293
#     4   9  19  34  50  69  95 133 177 210 240 288
#     4  10  19  31  51  78 102 129 165 202 248 299
#     4  10  19  32  48  69 100 134 168 209 251 288
#     4   9  18  35  56  74  95 129 169 203 243 299
#     4  11  20  30  45  67  96 132 173 219 256 288
#
# _framework density 19.360161999999999
#
# number of rings (size 3 to 8) (size 9 to 14) (size 15 to 20)
#    0.000    2.125    2.500    3.000    0.000    1.000 
#    0.000    4.375    0.000   10.125    0.000    0.000 
#    0.000    0.000    0.000    0.000    0.000    0.500 
#
# Total GULP energy -178353.540771 kJ/mol
# GULP energy per Si atom -5573.548149 kJ/mol
# Density = 1.931610 g / cm^3
# Si number density = 19.360162 Si / 1000 Ang^3
#
#
#
# Elastic Constant Matrix: (Units=GPa)
#
#
# Indices 1 2 3 4 5 6 
#
# 1 80.8043 -3.3735 50.5089 0.0000 12.4978 0.0000
# 2 -3.3735 26.8624 12.4021 0.0000 1.8390 0.0000
# 3 50.5089 12.4021 112.0007 0.0000 2.1732 0.0000
# 4 0.0000 0.0000 0.0000 4.2758 0.0000 -5.1819
# 5 12.4978 1.8390 2.1732 0.0000 17.5141 0.0000
# 6 0.0000 0.0000 0.0000 -5.1819 0.0000 16.5822
#
#
#
# Elastic Compliance Matrix: (Units=1/GPa)
#
#
# Indices 1 2 3 4 5 6 
#
# 1 0.021518 0.008508 -0.010356 0.000000 -0.014964 0.000000
# 2 0.008508 0.042823 -0.008394 0.000000 -0.009526 0.000000
# 3 -0.010356 -0.008394 0.014402 0.000000 0.006484 0.000000
# 4 0.000000 0.000000 0.000000 0.376439 0.000000 0.117636
# 5 -0.014964 -0.009526 0.006484 0.000000 0.067971 0.000000
# 6 0.000000 0.000000 0.000000 0.117636 0.000000 0.097067
#
#
# Mechanical properties :
#
#
# Convention : Reuss Voigt Hill
#
# Bulk Modulus (GPa) = 17.16442 37.63805 27.40124
# Shear Modulus (GPa) = 7.57434 18.34973 12.96203
#
# Velocity S-wave (km/s) = 1.98011 3.08199 2.59032
# Velocity P-wave (km/s) = 3.75671 5.66993 4.80941
#
# Compressibility (1/GPa) = 0.05826005
#
# Stress axis : x y z
#
# Youngs Moduli (GPa) = 46.47171 23.35205 69.43284
#
# Poissons Ratio (x) = -0.19868 0.71904
# Poissons Ratio (y) = -0.39538 0.58281
# Poissons Ratio (z) = 0.48126 0.19602
#
# Static dielectric constant tensor:
#      x y z
#    x 1.721750 0.000000 -0.010970 
#    y 0.000000 1.733800 0.000000 
#    z -0.010970 0.000000 1.670680 
# 
# From -- ./inp_files/287577.got.cif
#   From: 2010.05.17/outbox.cif.g08.bks.cpg/sg12_144_cif.got.tgz:287577.got - 2010.06.03 13:09:07.
