data_PCOD9179568
_publ_section_title
;
Structure prediction by ZEFSAII (Michael W. Deem and Ramdas Pophale) SiO2 
 PCOD9179568
Probable space group: C 2/M
;
_chemical_formula_sum "Si O2"
_cell_formula_units_Z 48
_cell_length_a 28.262105
_cell_length_b 8.964378
_cell_length_c 11.586077
_cell_angle_alpha 90.000000
_cell_angle_beta 78.315675
_cell_angle_gamma 90.000000
_cell_volume 2874.532261
_symmetry_space_group_name_H-M "C 2/M"
_symmetry_group_IT_number 12
_symmetry_cell_setting 'monoclinic'
loop_
_space_group_symop_operation_xyz
x,y,z
-x,y,-z
-x,-y,-z
x,-y,z
1/2+x,1/2+y,z
1/2-x,1/2+y,-z
1/2-x,1/2-y,-z
1/2+x,1/2-y,z
loop_
_atom_site_type_symbol
_atom_site_label
_atom_site_fract_x
_atom_site_fract_y
_atom_site_fract_z
Si Si1 0.221704 0.177639 0.342747
Si Si2 0.486906 0.328761 0.869793
Si Si3 0.675655 0.822401 0.587521
Si Si4 0.593199 0.320361 0.780141
Si Si5 0.892099 0.323251 0.977075
Si Si6 0.791263 0.321571 0.900283
O O1 0.277240 0.203475 0.354876
O O2 0.188681 0.249247 0.458651
O O3 0.212158 0.252325 0.224921
O O4 0.214186 0.000000 0.340911
O O5 0.476263 0.500000 0.842457
O O6 0.536905 0.278990 0.786491
O O7 0.500000 0.329047 0.000000
O O8 0.439349 0.229746 0.883477
O O9 0.629555 0.748678 0.670145
O O10 0.669467 0.000000 0.578758
O O11 0.595808 0.500000 0.779751
O O12 0.607305 0.259943 0.900057
O O13 0.894836 0.500000 0.997248
O O14 0.843195 0.290654 0.932392
O O15 0.784890 0.500000 0.898218
O O16 0.750000 0.250000 0.000000
#
# Coordination Sequence:
#
# PCOD9179568 Si02
#       6
#     8   8   8   8   8   8
#     4  10  21  36  53  74 100 132 168 203 245 295
#     4   8  16  30  47  70  99 130 164 202 246 295
#     4  10  20  34  53  76 101 129 164 206 248 292
#     4  10  19  31  50  76 103 131 166 205 246 294
#     4  10  20  32  48  73 103 133 166 205 249 294
#     4  11  23  36  51  74 103 134 168 204 244 293
#
# _framework density 16.698367999999999
#
# number of rings (size 3 to 8) (size 9 to 14) (size 15 to 20)
#    0.000    2.167    0.000    4.500    0.000   12.333 
#    0.000    0.000    0.000    1.000    0.000    7.000 
#    0.000    0.000    0.000    0.000    0.000    0.000 
#
# Total GULP energy -133930.395386 kJ/mol
# GULP energy per Si atom -5580.433141 kJ/mol
# Density = 1.666036 g / cm^3
# Si number density = 16.698368 Si / 1000 Ang^3
#
#
#
# Elastic Constant Matrix: (Units=GPa)
#
#
# Indices 1 2 3 4 5 6 
#
# 1 133.2887 81.3819 83.2510 0.0000 -27.2145 0.0000
# 2 81.3819 82.2274 59.4176 0.0000 -9.0972 0.0000
# 3 83.2510 59.4176 111.4856 0.0000 -19.0961 0.0000
# 4 0.0000 0.0000 0.0000 31.8685 0.0000 -4.4728
# 5 -27.2145 -9.0972 -19.0961 0.0000 33.0024 0.0000
# 6 0.0000 0.0000 0.0000 -4.4728 0.0000 29.7565
#
#
#
# Elastic Compliance Matrix: (Units=1/GPa)
#
#
# Indices 1 2 3 4 5 6 
#
# 1 0.026548 -0.019697 -0.007223 0.000000 0.012283 0.000000
# 2 -0.019697 0.034408 -0.005314 0.000000 -0.009833 0.000000
# 3 -0.007223 -0.005314 0.017676 0.000000 0.002807 0.000000
# 4 0.000000 0.000000 0.000000 0.032055 0.000000 0.004818
# 5 0.012283 -0.009833 0.002807 0.000000 0.039344 0.000000
# 6 0.000000 0.000000 0.000000 0.004818 0.000000 0.034330
#
#
# Mechanical properties :
#
#
# Convention : Reuss Voigt Hill
#
# Bulk Modulus (GPa) = 70.59652 86.12252 78.35952
# Shear Modulus (GPa) = 19.71996 25.78889 22.75443
#
# Velocity S-wave (km/s) = 3.44023 3.93414 3.69545
# Velocity P-wave (km/s) = 7.62558 8.50435 8.07693
#
# Compressibility (1/GPa) = 0.01416500
#
# Stress axis : x y z
#
# Youngs Moduli (GPa) = 37.66727 29.06335 56.57317
#
# Poissons Ratio (x) = 0.57246 0.40863
# Poissons Ratio (y) = 0.74193 0.30061
# Poissons Ratio (z) = 0.27207 0.15443
#
# Static dielectric constant tensor:
#      x y z
#    x 1.565030 0.000000 -0.016200 
#    y 0.000000 1.556660 0.000000 
#    z -0.016200 0.000000 1.534900 
# 
# From -- ./inp_files/179191.got.cif
#   From: 2010.05.17/outbox.cif.g08.bks.cpg/sg12_90_cif.got.tgz:179191.got - 2010.06.03 13:09:07.
