data_PCOD9179050
_publ_section_title
;
Structure prediction by ZEFSAII (Michael W. Deem and Ramdas Pophale) SiO2 
 PCOD9179050
Probable space group: C 2/M
;
_chemical_formula_sum "Si O2"
_cell_formula_units_Z 60
_cell_length_a 28.502491
_cell_length_b 19.245384
_cell_length_c 6.819605
_cell_angle_alpha 90.000000
_cell_angle_beta 94.372593
_cell_angle_gamma 90.000000
_cell_volume 3729.947252
_symmetry_space_group_name_H-M "C 2/M"
_symmetry_group_IT_number 12
_symmetry_cell_setting 'monoclinic'
loop_
_space_group_symop_operation_xyz
x,y,z
-x,y,-z
-x,-y,-z
x,-y,z
1/2+x,1/2+y,z
1/2-x,1/2+y,-z
1/2-x,1/2-y,-z
1/2+x,1/2-y,z
loop_
_atom_site_type_symbol
_atom_site_label
_atom_site_fract_x
_atom_site_fract_y
_atom_site_fract_z
Si Si1 0.208888 0.808069 0.014530
Si Si2 0.641114 0.209552 0.799320
Si Si3 0.000000 0.636614 0.000000
Si Si4 0.456383 0.797961 0.367674
Si Si5 0.856548 0.578752 0.938823
Si Si6 0.431895 0.921400 0.655976
Si Si7 0.736638 0.822854 0.596601
Si Si8 0.748272 0.080264 0.238087
O O1 0.222613 0.836800 0.230681
O O2 0.250000 0.750000 0.000000
O O3 0.161346 0.765947 0.959470
O O4 0.215501 0.869049 0.859728
O O5 0.594931 0.236198 0.672160
O O6 0.685345 0.189151 0.676278
O O7 0.627901 0.138923 0.909891
O O8 0.974108 0.683049 0.155656
O O9 0.034978 0.591043 0.143812
O O10 0.500000 0.763565 0.500000
O O11 0.445511 0.867206 0.493154
O O12 0.869129 0.500000 0.005053
O O13 0.880274 0.589469 0.733181
O O14 0.800390 0.583346 0.900132
O O15 0.436438 0.000000 0.585952
O O16 0.750000 0.750000 0.500000
O O17 0.736740 0.884609 0.441510
O O18 0.762452 0.000000 0.257958
#
# Coordination Sequence:
#
# PCOD9179050 Si02
#       8
#     8   8   4   8   8   8   8   8
#     4  10  19  34  53  75  99 135 175 205 252 318
#     4  11  19  35  55  68 101 137 177 217 259 306
#     4  10  19  34  46  62  90 122 171 226 270 294
#     4  10  22  34  48  71  92 128 173 221 271 306
#     4  10  19  31  48  70  99 135 175 218 257 298
#     4  10  20  32  46  64  89 127 176 218 263 308
#     4  11  19  33  55  78 100 136 182 210 251 316
#     4  11  21  34  50  78 110 134 168 219 256 298
#
# _framework density 16.086017999999999
#
# number of rings (size 3 to 8) (size 9 to 14) (size 15 to 20)
#    0.000    1.600    6.667    1.000    0.000    4.533 
#    0.000    0.000    0.000    0.000    0.000    0.000 
#    0.000    0.533    0.000    1.800    0.000    0.000 
#
# Total GULP energy -167179.779063 kJ/mol
# GULP energy per Si atom -5572.659302 kJ/mol
# Density = 1.604941 g / cm^3
# Si number density = 16.086018 Si / 1000 Ang^3
#
#
#
# Elastic Constant Matrix: (Units=GPa)
#
#
# Indices 1 2 3 4 5 6 
#
# 1 71.4516 17.5537 25.4680 0.0000 14.0329 0.0000
# 2 17.5537 56.9349 14.8707 0.0000 -0.3121 0.0000
# 3 25.4680 14.8707 67.7257 0.0000 4.8635 0.0000
# 4 0.0000 0.0000 0.0000 21.6465 0.0000 -1.1651
# 5 14.0329 -0.3121 4.8635 0.0000 32.5856 0.0000
# 6 0.0000 0.0000 0.0000 -1.1651 0.0000 13.0781
#
#
#
# Elastic Compliance Matrix: (Units=1/GPa)
#
#
# Indices 1 2 3 4 5 6 
#
# 1 0.018400 -0.004285 -0.005465 0.000000 -0.007149 0.000000
# 2 -0.004285 0.019651 -0.002880 0.000000 0.002463 0.000000
# 3 -0.005465 -0.002880 0.017473 0.000000 -0.000282 0.000000
# 4 0.000000 0.000000 0.000000 0.046419 0.000000 0.004135
# 5 -0.007149 0.002463 -0.000282 0.000000 0.033833 0.000000
# 6 0.000000 0.000000 0.000000 0.004135 0.000000 0.076832
#
#
# Mechanical properties :
#
#
# Convention : Reuss Voigt Hill
#
# Bulk Modulus (GPa) = 33.04286 34.65523 33.84904
# Shear Modulus (GPa) = 20.16478 22.67671 21.42074
#
# Velocity S-wave (km/s) = 3.54441 3.75869 3.65312
# Velocity P-wave (km/s) = 6.11035 6.35826 6.23554
#
# Compressibility (1/GPa) = 0.03026373
#
# Stress axis : x y z
#
# Youngs Moduli (GPa) = 54.34714 50.88856 57.23026
#
# Poissons Ratio (x) = 0.21805 0.31277
# Poissons Ratio (y) = 0.23287 0.16485
# Poissons Ratio (z) = 0.29701 0.14658
#
# Static dielectric constant tensor:
#      x y z
#    x 1.598950 0.000000 0.012040 
#    y 0.000000 1.516160 0.000000 
#    z 0.012040 0.000000 1.587640 
# 
# From -- ./inp_files/32266.got.cif
#   From: 2010.05.17/outbox.cif.g08.bks.cpg/sg12_17_cif.got.tgz:32266.got - 2010.06.03 13:09:07.
