data_PCOD9179532
_publ_section_title
;
Structure prediction by ZEFSAII (Michael W. Deem and Ramdas Pophale) SiO2 
 PCOD9179532
Probable space group: C 2/M
;
_chemical_formula_sum "Si O2"
_cell_formula_units_Z 48
_cell_length_a 20.665868
_cell_length_b 8.459139
_cell_length_c 30.098357
_cell_angle_alpha 90.000000
_cell_angle_beta 30.940326
_cell_angle_gamma 90.000000
_cell_volume 2705.255321
_symmetry_space_group_name_H-M "C 2/M"
_symmetry_group_IT_number 12
_symmetry_cell_setting 'monoclinic'
loop_
_space_group_symop_operation_xyz
x,y,z
-x,y,-z
-x,-y,-z
x,-y,z
1/2+x,1/2+y,z
1/2-x,1/2+y,-z
1/2-x,1/2-y,-z
1/2+x,1/2-y,z
loop_
_atom_site_type_symbol
_atom_site_label
_atom_site_fract_x
_atom_site_fract_y
_atom_site_fract_z
Si Si1 0.140016 0.310156 0.431168
Si Si2 0.523329 0.309912 0.239122
Si Si3 0.119866 0.690075 0.761324
Si Si4 0.217045 0.311664 0.568098
Si Si5 0.451423 0.192681 0.098161
Si Si6 0.196904 0.307315 0.901361
O O1 0.144301 0.500000 0.429729
O O2 0.244378 0.250098 0.334947
O O3 0.183440 0.247361 0.453603
O O4 0.000000 0.259518 0.500000
O O5 0.521183 0.500000 0.240256
O O6 0.479083 0.249843 0.217054
O O7 0.418244 0.250628 0.335532
O O8 0.663141 0.254299 0.169328
O O9 0.120794 0.500000 0.760050
O O10 0.084733 0.745727 0.831397
O O11 0.215561 0.500000 0.569241
O O12 0.250000 0.250000 0.500000
O O13 0.352956 0.241517 0.117883
O O14 0.451139 0.000000 0.098814
O O15 0.589784 0.241637 0.999713
O O16 0.198255 0.500000 0.900688
#
# Coordination Sequence:
#
# PCOD9179532 Si02
#       6
#     8   8   8   8   8   8
#     4  10  21  37  55  76 104 136 170 212 260 307
#     4  10  19  32  51  75 102 133 168 206 252 302
#     4  10  19  31  50  75 102 133 168 208 252 301
#     4  11  22  37  56  77 104 136 171 212 256 305
#     4   8  15  29  48  72 100 129 167 210 250 293
#     4   8  15  29  49  72  99 131 167 209 250 293
#
# _framework density 17.743243
#
# number of rings (size 3 to 8) (size 9 to 14) (size 15 to 20)
#    0.000    2.500    0.000    6.000    0.000    3.333 
#    0.000    1.667    0.000    6.000    0.000    9.333 
#    0.000    0.000    0.000    0.000    0.000    0.000 
#
# Total GULP energy -133888.771106 kJ/mol
# GULP energy per Si atom -5578.698796 kJ/mol
# Density = 1.770286 g / cm^3
# Si number density = 17.743243 Si / 1000 Ang^3
#
#
#
# Elastic Constant Matrix: (Units=GPa)
#
#
# Indices 1 2 3 4 5 6 
#
# 1 182.2378 50.4313 168.4221 -0.0002 -1.0359 -0.0013
# 2 50.4313 69.6302 48.3916 -0.0004 -1.4775 -0.0013
# 3 168.4221 48.3916 172.1451 -0.0002 0.5217 -0.0006
# 4 -0.0002 -0.0004 -0.0002 17.4703 0.0001 1.2606
# 5 -1.0359 -1.4775 0.5217 0.0001 46.5956 -0.0001
# 6 -0.0013 -0.0013 -0.0006 1.2606 -0.0001 21.9615
#
#
#
# Elastic Compliance Matrix: (Units=1/GPa)
#
#
# Indices 1 2 3 4 5 6 
#
# 1 0.057996 -0.003142 -0.055864 0.000000 0.001815 0.000002
# 2 -0.003142 0.018037 -0.001998 0.000000 0.000524 0.000001
# 3 -0.055864 -0.001998 0.061032 0.000000 -0.001989 -0.000002
# 4 0.000000 0.000000 0.000000 0.057478 0.000000 -0.003299
# 5 0.001815 0.000524 -0.001989 0.000000 0.021540 0.000000
# 6 0.000002 0.000001 -0.000002 -0.003299 0.000000 0.045724
#
#
# Mechanical properties :
#
#
# Convention : Reuss Voigt Hill
#
# Bulk Modulus (GPa) = 66.41133 106.50034 86.45583
# Shear Modulus (GPa) = 12.85894 27.65669 20.25782
#
# Velocity S-wave (km/s) = 2.69499 3.95234 3.38260
# Velocity P-wave (km/s) = 6.86981 8.99896 8.00549
#
# Compressibility (1/GPa) = 0.01505767
#
# Stress axis : x y z
#
# Youngs Moduli (GPa) = 17.24257 55.44202 16.38474
#
# Poissons Ratio (x) = 0.17421 0.91532
# Poissons Ratio (y) = 0.05418 0.03273
# Poissons Ratio (z) = 0.96324 0.11076
#
# Static dielectric constant tensor:
#      x y z
#    x 1.591460 0.000000 -0.003670 
#    y 0.000000 1.608270 0.000000 
#    z -0.003670 0.000000 1.592760 
# 
# From -- ./inp_files/380136.got.cif
#   From: 2010.05.17/outbox.cif.g08.bks.cpg/sg12_191_cif.got.tgz:380136.got - 2010.06.03 13:09:07.
