data_PCOD9179619
_publ_section_title
;
Structure prediction by ZEFSAII (Michael W. Deem and Ramdas Pophale) SiO2 
 PCOD9179619
Probable space group: C 2/M
;
_chemical_formula_sum "Si O2"
_cell_formula_units_Z 60
_cell_length_a 11.709531
_cell_length_b 29.452045
_cell_length_c 10.154571
_cell_angle_alpha 90.000000
_cell_angle_beta 80.229565
_cell_angle_gamma 90.000000
_cell_volume 3451.208716
_symmetry_space_group_name_H-M "C 2/M"
_symmetry_group_IT_number 12
_symmetry_cell_setting 'monoclinic'
loop_
_space_group_symop_operation_xyz
x,y,z
-x,y,-z
-x,-y,-z
x,-y,z
1/2+x,1/2+y,z
1/2-x,1/2+y,-z
1/2-x,1/2-y,-z
1/2+x,1/2-y,z
loop_
_atom_site_type_symbol
_atom_site_label
_atom_site_fract_x
_atom_site_fract_y
_atom_site_fract_z
Si Si1 0.211939 0.550459 0.168769
Si Si2 0.739657 0.550189 0.151237
Si Si3 0.693443 0.193681 0.381326
Si Si4 0.109723 0.141368 0.163816
Si Si5 0.553636 0.948748 0.685902
Si Si6 0.500000 0.125621 0.500000
Si Si7 0.339276 0.643541 0.148097
Si Si8 0.871366 0.201465 0.583849
O O1 0.252081 0.500000 0.206067
O O2 0.284898 0.594414 0.196535
O O3 0.078275 0.555026 0.237022
O O4 0.222754 0.550716 0.008544
O O5 0.690785 0.500000 0.189185
O O6 0.650422 0.590626 0.192058
O O7 0.854143 0.556282 0.215999
O O8 0.588137 0.158310 0.407492
O O9 0.770209 0.181885 0.239776
O O10 0.775126 0.187907 0.494128
O O11 0.645959 0.244789 0.389658
O O12 0.142513 0.174669 0.276405
O O13 0.972532 0.143700 0.166090
O O14 0.165799 0.150670 0.008801
O O15 0.570351 0.908694 0.579260
O O16 0.568270 0.000000 0.628226
O O17 0.000000 0.193240 0.500000
#
# Coordination Sequence:
#
# PCOD9179619 Si02
#       8
#     8   8   8   8   8   4   8   8
#     4   9  17  31  53  80 109 144 181 219 265 320
#     4   9  18  33  53  78 108 143 183 220 263 321
#     4  11  23  38  60  82 109 143 183 227 271 327
#     4  10  21  37  60  82 109 145 181 225 275 316
#     4  10  19  31  50  77 112 148 179 220 268 317
#     4  12  21  34  54  82 110 144 181 224 270 330
#     4  10  20  37  58  84 112 142 180 227 272 318
#     4  11  22  40  61  81 107 144 185 223 273 330
#
# _framework density 17.385214000000001
#
# number of rings (size 3 to 8) (size 9 to 14) (size 15 to 20)
#    0.000    1.867    3.333    1.400    0.000    2.667 
#    0.000    2.667    0.000    0.400    0.000    0.000 
#    0.000    0.000    0.000    0.000    0.000    0.000 
#
# Total GULP energy -167293.691863 kJ/mol
# GULP energy per Si atom -5576.456395 kJ/mol
# Density = 1.734564 g / cm^3
# Si number density = 17.385214 Si / 1000 Ang^3
#
#
#
# Elastic Constant Matrix: (Units=GPa)
#
#
# Indices 1 2 3 4 5 6 
#
# 1 31.1646 12.9755 19.1871 0.0000 0.4674 0.0000
# 2 12.9755 78.9193 40.6153 0.0000 5.3531 0.0000
# 3 19.1871 40.6153 59.9970 0.0000 -0.4411 0.0000
# 4 0.0000 0.0000 0.0000 28.1744 0.0000 5.0332
# 5 0.4674 5.3531 -0.4411 0.0000 27.3636 0.0000
# 6 0.0000 0.0000 0.0000 5.0332 0.0000 16.0049
#
#
#
# Elastic Compliance Matrix: (Units=1/GPa)
#
#
# Indices 1 2 3 4 5 6 
#
# 1 0.039977 0.000111 -0.012866 0.000000 -0.000912 0.000000
# 2 0.000111 0.019898 -0.013536 0.000000 -0.004113 0.000000
# 3 -0.012866 -0.013536 0.029970 0.000000 0.003351 0.000000
# 4 0.000000 0.000000 0.000000 0.037606 0.000000 -0.011826
# 5 -0.000912 -0.004113 0.003351 0.000000 0.037419 0.000000
# 6 0.000000 0.000000 0.000000 -0.011826 0.000000 0.066200
#
#
# Mechanical properties :
#
#
# Convention : Reuss Voigt Hill
#
# Bulk Modulus (GPa) = 26.83705 35.07077 30.95391
# Shear Modulus (GPa) = 16.88776 20.79543 18.84159
#
# Velocity S-wave (km/s) = 3.12009 3.46230 3.29564
# Velocity P-wave (km/s) = 5.33387 6.01664 5.68551
#
# Compressibility (1/GPa) = 0.03726193
#
# Stress axis : x y z
#
# Youngs Moduli (GPa) = 25.01465 50.25628 33.36693
#
# Poissons Ratio (x) = -0.00556 0.42930
# Poissons Ratio (y) = -0.00277 0.45164
# Poissons Ratio (z) = 0.32184 0.68025
#
# Static dielectric constant tensor:
#      x y z
#    x 1.559250 0.000000 0.004790 
#    y 0.000000 1.592740 0.000000 
#    z 0.004790 0.000000 1.586420 
# 
# From -- ./inp_files/54663.got.cif
#   From: 2010.05.17/outbox.cif.g08.bks.cpg/sg12_28_cif.got.tgz:54663.got - 2010.06.03 13:09:07.
