data_PCOD9179284
_publ_section_title
;
Structure prediction by ZEFSAII (Michael W. Deem and Ramdas Pophale) SiO2 
 PCOD9179284
Probable space group: C 2/M
;
_chemical_formula_sum "Si O2"
_cell_formula_units_Z 64
_cell_length_a 21.062423
_cell_length_b 7.486481
_cell_length_c 19.300245
_cell_angle_alpha 90.000000
_cell_angle_beta 94.789781
_cell_angle_gamma 90.000000
_cell_volume 3032.700813
_symmetry_space_group_name_H-M "C 2/M"
_symmetry_group_IT_number 12
_symmetry_cell_setting 'monoclinic'
loop_
_space_group_symop_operation_xyz
x,y,z
-x,y,-z
-x,-y,-z
x,-y,z
1/2+x,1/2+y,z
1/2-x,1/2+y,-z
1/2-x,1/2-y,-z
1/2+x,1/2-y,z
loop_
_atom_site_type_symbol
_atom_site_label
_atom_site_fract_x
_atom_site_fract_y
_atom_site_fract_z
Si Si1 0.801212 0.214115 0.416062
Si Si2 0.185610 0.213642 0.035768
Si Si3 0.556317 0.718546 0.952830
Si Si4 0.290758 0.718252 0.806101
Si Si5 0.901581 0.219403 0.709746
Si Si6 0.343043 0.294060 0.566268
Si Si7 0.972523 0.793740 0.203169
Si Si8 0.343740 0.211044 0.266581
O O1 0.729393 0.288667 0.411172
O O2 0.837190 0.282367 0.488296
O O3 0.835059 0.257319 0.347429
O O4 0.795068 0.000000 0.421492
O O5 0.191594 0.279432 0.115155
O O6 0.178293 0.000000 0.040177
O O7 0.250000 0.250000 0.000000
O O8 0.123969 0.281072 0.988909
O O9 0.558861 0.500000 0.950879
O O10 0.541472 0.783427 0.874023
O O11 0.500000 0.767390 0.000000
O O12 0.289839 0.500000 0.805984
O O13 0.343773 0.771753 0.755119
O O14 0.220503 0.778548 0.776693
O O15 0.887104 0.283609 0.630546
O O16 0.967941 0.281369 0.748714
O O17 0.901265 0.000000 0.706774
O O18 0.362518 0.500000 0.559241
O O19 0.908045 0.789215 0.241374
O O20 0.990481 0.000000 0.191979
O O21 0.347138 0.000000 0.254562
#
# Coordination Sequence:
#
# PCOD9179284 Si02
#       8
#     8   8   8   8   8   8   8   8
#     4  10  19  31  52  81 107 132 168 214 257 302
#     4  10  19  31  49  73 101 130 164 208 254 301
#     4   9  17  31  52  78 103 131 169 214 260 302
#     4   9  17  30  52  75  94 129 176 210 245 302
#     4   9  16  31  54  77  99 130 173 212 246 297
#     4   9  17  32  54  79 106 135 169 208 255 306
#     4  10  20  33  53  78 105 135 172 217 257 302
#     4  11  21  35  53  73 105 143 175 210 256 312
#
# _framework density 21.103300999999998
#
# number of rings (size 3 to 8) (size 9 to 14) (size 15 to 20)
#    0.000    2.375    1.250    2.250    0.000    3.500 
#    0.000    1.875    0.000    6.750    0.000    0.000 
#    0.000    0.000    0.000    0.000    0.000    0.000 
#
# Total GULP energy -178713.977368 kJ/mol
# GULP energy per Si atom -5584.811793 kJ/mol
# Density = 2.105527 g / cm^3
# Si number density = 21.103301 Si / 1000 Ang^3
#
#
#
# Elastic Constant Matrix: (Units=GPa)
#
#
# Indices 1 2 3 4 5 6 
#
# 1 144.8389 -8.3332 82.8946 0.0000 38.3900 0.0000
# 2 -8.3332 61.2414 -7.0422 0.0000 9.3382 0.0000
# 3 82.8946 -7.0422 185.3756 0.0000 41.4002 0.0000
# 4 0.0000 0.0000 0.0000 0.1185 0.0000 -5.8667
# 5 38.3900 9.3382 41.4002 0.0000 33.6483 0.0000
# 6 0.0000 0.0000 0.0000 -5.8667 0.0000 14.3219
#
#
#
# Elastic Compliance Matrix: (Units=1/GPa)
#
#
# Indices 1 2 3 4 5 6 
#
# 1 0.011357 0.002849 -0.002620 0.000000 -0.010525 0.000000
# 2 0.002849 0.018541 0.001800 0.000000 -0.010611 0.000000
# 3 -0.002620 0.001800 0.008381 0.000000 -0.007823 0.000000
# 4 0.000000 0.000000 0.000000 -0.437684 0.000000 -0.179290
# 5 -0.010525 -0.010611 -0.007823 0.000000 0.054297 0.000000
# 6 0.000000 0.000000 0.000000 -0.179290 0.000000 -0.003620
#
#
# Mechanical properties :
#
#
# Convention : Reuss Voigt Hill
#
# Bulk Modulus (GPa) = 23.61902 58.49937 41.05919
# Shear Modulus (GPa) = -14.76355 31.21351 8.22498
#
# Velocity S-wave (km/s) = -2.64784 3.85006 1.97635
# Velocity P-wave (km/s) = 1.36687 6.89526 4.97056
#
# Compressibility (1/GPa) = 0.04233877
#
# Stress axis : x y z
#
# Youngs Moduli (GPa) = 88.04999 53.93314 119.31081
#
# Poissons Ratio (x) = -0.15365 0.31257
# Poissons Ratio (y) = -0.25085 -0.21478
# Poissons Ratio (z) = 0.23068 -0.09709
#
# Static dielectric constant tensor:
#      x y z
#    x 1.697510 0.000000 0.039360 
#    y 0.000000 1.835400 0.000000 
#    z 0.039360 0.000000 1.753900 
# 
# From -- ./inp_files/281393.got.cif
#   From: 2010.05.17/outbox.cif.g08.bks.cpg/sg12_141_cif.got.tgz:281393.got - 2010.06.03 13:09:07.
