data_PCOD9179082
_publ_section_title
;
Structure prediction by ZEFSAII (Michael W. Deem and Ramdas Pophale) SiO2 
 PCOD9179082
Probable space group: C 2/M
;
_chemical_formula_sum "Si O2"
_cell_formula_units_Z 64
_cell_length_a 19.512375
_cell_length_b 7.375674
_cell_length_c 26.767343
_cell_angle_alpha 90.000000
_cell_angle_beta 129.512523
_cell_angle_gamma 90.000000
_cell_volume 2971.973282
_symmetry_space_group_name_H-M "C 2/M"
_symmetry_group_IT_number 12
_symmetry_cell_setting 'monoclinic'
loop_
_space_group_symop_operation_xyz
x,y,z
-x,y,-z
-x,-y,-z
x,-y,z
1/2+x,1/2+y,z
1/2-x,1/2+y,-z
1/2-x,1/2-y,-z
1/2+x,1/2-y,z
loop_
_atom_site_type_symbol
_atom_site_label
_atom_site_fract_x
_atom_site_fract_y
_atom_site_fract_z
Si Si1 0.945369 0.281595 0.130860
Si Si2 0.007028 0.280656 0.344159
Si Si3 0.694738 0.219194 0.779403
Si Si4 0.580761 0.787257 0.277998
Si Si5 0.540561 0.778398 0.571072
Si Si6 0.738257 0.218287 0.692714
Si Si7 0.759408 0.278428 0.087796
Si Si8 0.939412 0.786282 0.017036
O O1 0.944580 0.500000 0.132732
O O2 0.844334 0.218404 0.094784
O O3 0.977684 0.233051 0.090427
O O4 0.010398 0.213668 0.204856
O O5 0.013383 0.500000 0.350254
O O6 0.907969 0.236828 0.278678
O O7 0.012647 0.218296 0.403977
O O8 0.070618 0.214572 0.329508
O O9 0.746780 0.281311 0.754208
O O10 0.725019 0.279679 0.847648
O O11 0.700221 0.000000 0.783287
O O12 0.678681 0.770971 0.301791
O O13 0.558575 0.000000 0.271526
O O14 0.500000 0.717376 0.500000
O O15 0.642938 0.722815 0.627003
O O16 0.540055 0.000000 0.570271
O O17 0.735542 0.000000 0.692925
O O18 0.760509 0.500000 0.086479
O O19 0.661514 0.214093 0.027429
O O20 0.930173 0.000000 0.002363
O O21 0.000000 0.712443 0.000000
#
# Coordination Sequence:
#
# PCOD9179082 Si02
#       8
#     8   8   8   8   8   8   8   8
#     4  10  20  34  52  69  90 127 165 198 237 286
#     4   8  13  25  45  69  93 123 163 197 227 274
#     4   8  13  25  47  70  88 116 161 199 226 272
#     4  10  19  31  48  71  98 126 160 200 240 284
#     4   8  14  27  49  76 101 126 163 204 233 268
#     4   9  18  29  48  75 100 127 157 197 244 279
#     4   9  16  30  50  69  91 120 157 197 237 285
#     4  10  22  35  49  72  98 123 154 199 251 296
#
# _framework density 21.534514000000001
#
# number of rings (size 3 to 8) (size 9 to 14) (size 15 to 20)
#    0.000    3.000    1.250    1.875    1.750    0.750 
#    0.000    0.625    0.000    4.125    0.000    0.000 
#    0.000    0.000    0.000    0.000    0.000    0.000 
#
# Total GULP energy -178539.869095 kJ/mol
# GULP energy per Si atom -5579.370909 kJ/mol
# Density = 2.148550 g / cm^3
# Si number density = 21.534514 Si / 1000 Ang^3
#
#
#
# Elastic Constant Matrix: (Units=GPa)
#
#
# Indices 1 2 3 4 5 6 
#
# 1 183.5281 -2.4073 66.0308 0.0000 -35.7373 0.0000
# 2 -2.4073 70.9602 -3.3221 0.0000 0.5548 0.0000
# 3 66.0308 -3.3221 105.5306 0.0000 -36.4546 0.0000
# 4 0.0000 0.0000 0.0000 -3.3315 0.0000 7.4874
# 5 -35.7373 0.5548 -36.4546 0.0000 33.3435 0.0000
# 6 0.0000 0.0000 0.0000 7.4874 0.0000 -1.4276
#
#
#
# Elastic Compliance Matrix: (Units=1/GPa)
#
#
# Indices 1 2 3 4 5 6 
#
# 1 0.007454 0.000073 -0.003057 0.000000 0.004646 0.000000
# 2 0.000073 0.014117 0.000554 0.000000 0.000449 0.000000
# 3 -0.003057 0.000554 0.016504 0.000000 0.014759 0.000000
# 4 0.000000 0.000000 0.000000 0.027825 0.000000 0.145938
# 5 0.004646 0.000449 0.014759 0.000000 0.051099 0.000000
# 6 0.000000 0.000000 0.000000 0.145938 0.000000 0.064935
#
#
# Mechanical properties :
#
#
# Convention : Reuss Voigt Hill
#
# Bulk Modulus (GPa) = 30.10590 53.40242 41.75416
# Shear Modulus (GPa) = 25.26958 25.69805 25.48381
#
# Velocity S-wave (km/s) = 3.42928 3.45823 3.44378
# Velocity P-wave (km/s) = 5.44890 6.38734 5.93669
#
# Compressibility (1/GPa) = 0.03321608
#
# Stress axis : x y z
#
# Youngs Moduli (GPa) = 134.15172 70.83510 60.59032
#
# Poissons Ratio (x) = -0.00520 0.18522
# Poissons Ratio (y) = -0.00985 -0.03354
# Poissons Ratio (z) = 0.41009 -0.03921
#
# Static dielectric constant tensor:
#      x y z
#    x 1.783400 0.000000 -0.028390 
#    y 0.000000 1.844250 0.000000 
#    z -0.028390 0.000000 1.750670 
# 
# From -- ./inp_files/343074.got.cif
#   From: 2010.05.17/outbox.cif.g08.bks.cpg/sg12_172_cif.got.tgz:343074.got - 2010.06.03 13:09:07.
