data_PCOD9179081
_publ_section_title
;
Structure prediction by ZEFSAII (Michael W. Deem and Ramdas Pophale) SiO2 
 PCOD9179081
Probable space group: C 2/M
;
_chemical_formula_sum "Si O2"
_cell_formula_units_Z 56
_cell_length_a 24.596921
_cell_length_b 7.481248
_cell_length_c 14.927360
_cell_angle_alpha 90.000000
_cell_angle_beta 112.269317
_cell_angle_gamma 90.000000
_cell_volume 2541.986870
_symmetry_space_group_name_H-M "C 2/M"
_symmetry_group_IT_number 12
_symmetry_cell_setting 'monoclinic'
loop_
_space_group_symop_operation_xyz
x,y,z
-x,y,-z
-x,-y,-z
x,-y,z
1/2+x,1/2+y,z
1/2-x,1/2+y,-z
1/2-x,1/2-y,-z
1/2+x,1/2-y,z
loop_
_atom_site_type_symbol
_atom_site_label
_atom_site_fract_x
_atom_site_fract_y
_atom_site_fract_z
Si Si1 0.257250 0.213064 0.899249
Si Si2 0.387194 0.209854 0.979391
Si Si3 0.685580 0.282930 0.361675
Si Si4 0.641212 0.279372 0.723040
Si Si5 0.929129 0.216051 0.815947
Si Si6 0.453356 0.704530 0.198437
Si Si7 0.318763 0.707703 0.438370
O O1 0.322132 0.280502 0.914308
O O2 0.200921 0.280800 0.810199
O O3 0.257512 0.000000 0.885372
O O4 0.250000 0.250000 0.000000
O O5 0.428421 0.233118 0.919406
O O6 0.382092 0.000000 0.996557
O O7 0.412506 0.296604 0.084541
O O8 0.687501 0.500000 0.363420
O O9 0.631850 0.224477 0.266691
O O10 0.676098 0.217807 0.458116
O O11 0.749626 0.219905 0.370961
O O12 0.641189 0.500000 0.724371
O O13 0.585192 0.217931 0.745119
O O14 0.644881 0.219393 0.622479
O O15 0.985150 0.285100 0.795854
O O16 0.930817 0.000000 0.814199
O O17 0.466267 0.500000 0.232631
O O18 0.334969 0.500000 0.456290
#
# Coordination Sequence:
#
# PCOD9179081 Si02
#       7
#     8   8   8   8   8   8   8
#     4  10  19  31  48  71  98 126 159 198 243 292
#     4  11  22  34  51  76 101 130 170 213 254 295
#     4   9  18  33  52  77 104 127 161 208 249 294
#     4   9  17  31  51  73  98 130 164 199 244 296
#     4  10  21  35  51  72  99 135 174 207 246 297
#     4  10  20  35  52  69  98 139 174 204 245 299
#     4   9  17  32  55  78 101 129 160 201 255 304
#
# _framework density 22.030010999999998
#
# number of rings (size 3 to 8) (size 9 to 14) (size 15 to 20)
#    0.000    2.286    1.429    1.714    0.000    4.571 
#    0.000    2.143    0.000    4.286    0.000    0.000 
#    0.000    6.857    0.000    0.000    0.000    0.000 
#
# Total GULP energy -156393.766878 kJ/mol
# GULP energy per Si atom -5585.491674 kJ/mol
# Density = 2.197987 g / cm^3
# Si number density = 22.030011 Si / 1000 Ang^3
#
#
#
# Elastic Constant Matrix: (Units=GPa)
#
#
# Indices 1 2 3 4 5 6 
#
# 1 117.5844 -10.7846 36.4594 0.0000 -38.0013 0.0000
# 2 -10.7846 63.9549 -8.3644 0.0000 1.6826 0.0000
# 3 36.4594 -8.3644 50.5171 0.0000 -33.7017 0.0000
# 4 0.0000 0.0000 0.0000 7.8058 0.0000 3.8925
# 5 -38.0013 1.6826 -33.7017 0.0000 39.3046 0.0000
# 6 0.0000 0.0000 0.0000 3.8925 0.0000 10.3374
#
#
#
# Elastic Compliance Matrix: (Units=1/GPa)
#
#
# Indices 1 2 3 4 5 6 
#
# 1 0.012637 0.001622 -0.001746 0.000000 0.010652 0.000000
# 2 0.001622 0.016424 0.004968 0.000000 0.005125 0.000000
# 3 -0.001746 0.004968 0.048158 0.000000 0.039392 0.000000
# 4 0.000000 0.000000 0.000000 0.157724 0.000000 -0.059390
# 5 0.010652 0.005125 0.039392 0.000000 0.069298 0.000000
# 6 0.000000 0.000000 0.000000 -0.059390 0.000000 0.119099
#
#
# Mechanical properties :
#
#
# Convention : Reuss Voigt Hill
#
# Bulk Modulus (GPa) = 11.50644 29.63079 20.56861
# Shear Modulus (GPa) = 11.29634 25.80598 18.55116
#
# Velocity S-wave (km/s) = 2.26690 3.42629 2.90502
# Velocity P-wave (km/s) = 3.47652 5.39740 4.53972
#
# Compressibility (1/GPa) = 0.08690789
#
# Stress axis : x y z
#
# Youngs Moduli (GPa) = 79.13214 60.88476 20.76513
#
# Poissons Ratio (x) = -0.09878 0.03625
# Poissons Ratio (y) = -0.12839 -0.10315
# Poissons Ratio (z) = 0.13814 -0.30245
#
# Static dielectric constant tensor:
#      x y z
#    x 1.816660 0.000000 -0.004540 
#    y 0.000000 0.481940 0.000000 
#    z -0.004540 0.000000 1.763890 
# 
# From -- ./inp_files/237452.got.cif
#   From: 2010.05.17/outbox.cif.g08.bks.cpg/sg12_119_cif.got.tgz:237452.got - 2010.06.03 13:09:07.
