data_PCOD9179907
_publ_section_title
;
Structure prediction by ZEFSAII (Michael W. Deem and Ramdas Pophale) SiO2 
 PCOD9179907
Probable space group: C 2/M
;
_chemical_formula_sum "Si O2"
_cell_formula_units_Z 40
_cell_length_a 23.340097
_cell_length_b 12.977149
_cell_length_c 22.668096
_cell_angle_alpha 90.000000
_cell_angle_beta 162.461909
_cell_angle_gamma 90.000000
_cell_volume 2068.966473
_symmetry_space_group_name_H-M "C 2/M"
_symmetry_group_IT_number 12
_symmetry_cell_setting 'monoclinic'
loop_
_space_group_symop_operation_xyz
x,y,z
-x,y,-z
-x,-y,-z
x,-y,z
1/2+x,1/2+y,z
1/2-x,1/2+y,-z
1/2-x,1/2-y,-z
1/2+x,1/2-y,z
loop_
_atom_site_type_symbol
_atom_site_label
_atom_site_fract_x
_atom_site_fract_y
_atom_site_fract_z
Si Si1 0.770845 0.619766 0.283759
Si Si2 0.664450 0.123359 0.523703
Si Si3 0.735959 0.695073 0.123753
Si Si4 0.731390 0.880295 0.045102
Si Si5 0.486132 0.300514 0.769420
O O1 0.716581 0.500000 0.229810
O O2 0.744674 0.659713 0.324397
O O3 0.685987 0.670900 0.142012
O O4 0.000000 0.623937 0.500000
O O5 0.442184 0.148245 0.311270
O O6 0.768911 0.181045 0.572856
O O7 0.687917 0.000000 0.541431
O O8 0.743890 0.817379 0.118422
O O9 0.596063 0.653647 0.935490
O O10 0.925240 0.857669 0.199449
O O11 0.694331 0.000000 0.013549
O O12 0.566403 0.816468 0.848587
#
# Coordination Sequence:
#
# PCOD9179907 Si02
#       5
#     8   8   8   8   8
#     4   8  15  28  47  75 103 127 156 198 247 295
#     4  10  19  31  52  79 104 127 160 204 247 296
#     4   9  18  33  51  72 104 133 159 194 252 294
#     4   9  19  37  52  69 101 131 166 211 242 282
#     4   9  20  35  51  74  99 129 168 203 245 292
#
# _framework density 19.333324999999999
#
# number of rings (size 3 to 8) (size 9 to 14) (size 15 to 20)
#    1.200    1.800    0.000    2.400    0.000    4.800 
#    0.000    3.000    0.000    7.800    0.000    0.000 
#    0.000    0.000    0.000    0.000    0.000    0.000 
#
# Total GULP energy -111382.731839 kJ/mol
# GULP energy per Si atom -5569.136592 kJ/mol
# Density = 1.928932 g / cm^3
# Si number density = 19.333325 Si / 1000 Ang^3
#
#
#
# Elastic Constant Matrix: (Units=GPa)
#
#
# Indices 1 2 3 4 5 6 
#
# 1 85.2378 19.2433 4.0045 -0.0009 3.0986 -0.0013
# 2 19.2433 84.9071 -17.2641 0.0017 0.7305 -0.0002
# 3 4.0045 -17.2641 30.7355 0.0041 8.5044 0.0033
# 4 -0.0009 0.0017 0.0041 10.4829 -0.0014 -11.7163
# 5 3.0986 0.7305 8.5044 -0.0014 34.8944 -0.0011
# 6 -0.0013 -0.0002 0.0033 -11.7163 -0.0011 10.8060
#
#
#
# Elastic Compliance Matrix: (Units=1/GPa)
#
#
# Indices 1 2 3 4 5 6 
#
# 1 0.012728 -0.003625 -0.003649 -0.000028 -0.000165 -0.000027
# 2 -0.003625 0.014495 0.009232 0.000048 -0.002232 0.000049
# 3 -0.003649 0.009232 0.040920 0.000162 -0.009842 0.000162
# 4 -0.000028 0.000048 0.000162 -0.450351 -0.000071 -0.488291
# 5 -0.000165 -0.002232 -0.009842 -0.000071 0.031118 -0.000071
# 6 -0.000027 0.000049 0.000162 -0.488291 -0.000071 -0.436886
#
#
# Mechanical properties :
#
#
# Convention : Reuss Voigt Hill
#
# Bulk Modulus (GPa) = 13.87753 23.64975 18.76364
# Shear Modulus (GPa) = -6.51150 24.22976 8.85913
#
# Velocity S-wave (km/s) = -1.83721 3.54399 2.14296
# Velocity P-wave (km/s) = 1.64109 5.38569 3.98113
#
# Compressibility (1/GPa) = 0.07205895
#
# Stress axis : x y z
#
# Youngs Moduli (GPa) = 78.56868 68.98699 24.43800
#
# Poissons Ratio (x) = 0.25009 0.08917
# Poissons Ratio (y) = 0.28482 -0.22561
# Poissons Ratio (z) = 0.28668 -0.63688
#
# Static dielectric constant tensor:
#      x y z
#    x 1.707280 0.000000 -0.016920 
#    y 0.000000 1.638520 0.000000 
#    z -0.016920 0.000000 1.768760 
# 
# From -- ./inp_files/368917.got.cif
#   From: 2010.05.17/outbox.cif.g08.bks.cpg/sg12_185_cif.got.tgz:368917.got - 2010.06.03 13:09:07.
