data_PCOD9179272
_publ_section_title
;
Structure prediction by ZEFSAII (Michael W. Deem and Ramdas Pophale) SiO2 
 PCOD9179272
Probable space group: C 2/M
;
_chemical_formula_sum "Si O2"
_cell_formula_units_Z 56
_cell_length_a 18.561561
_cell_length_b 7.553551
_cell_length_c 30.469591
_cell_angle_alpha 90.000000
_cell_angle_beta 140.544157
_cell_angle_gamma 90.000000
_cell_volume 2714.791402
_symmetry_space_group_name_H-M "C 2/M"
_symmetry_group_IT_number 12
_symmetry_cell_setting 'monoclinic'
loop_
_space_group_symop_operation_xyz
x,y,z
-x,y,-z
-x,-y,-z
x,-y,z
1/2+x,1/2+y,z
1/2-x,1/2+y,-z
1/2-x,1/2-y,-z
1/2+x,1/2-y,z
loop_
_atom_site_type_symbol
_atom_site_label
_atom_site_fract_x
_atom_site_fract_y
_atom_site_fract_z
Si Si1 0.166165 0.287851 0.000209
Si Si2 0.546081 0.701139 0.714456
Si Si3 0.786532 0.289839 0.284748
Si Si4 0.050111 0.295355 0.567896
Si Si5 0.242662 0.782509 0.863334
Si Si6 0.412328 0.786948 0.865638
Si Si7 0.618158 0.288120 0.433171
O O1 0.156314 0.500000 0.000337
O O2 0.218082 0.222756 0.070496
O O3 0.250000 0.250000 0.000000
O O4 0.039954 0.220130 0.930470
O O5 0.516675 0.500000 0.713156
O O6 0.639129 0.700564 0.718722
O O7 0.618776 0.779846 0.788579
O O8 0.436963 0.779770 0.638521
O O9 0.809923 0.500000 0.293178
O O10 0.837408 0.223848 0.354811
O O11 0.656447 0.262454 0.210613
O O12 0.076882 0.500000 0.569763
O O13 0.000000 0.212789 0.500000
O O14 0.953614 0.287408 0.559982
O O15 0.335873 0.727811 0.871023
O O16 0.239273 0.000000 0.861165
O O17 0.415031 0.000000 0.868287
O O18 0.601217 0.500000 0.425889
O O19 0.750000 0.250000 0.500000
#
# Coordination Sequence:
#
# PCOD9179272 Si02
#       7
#     8   8   8   8   8   8   8
#     4  10  20  33  49  69  95 125 153 186 231 279
#     4   8  15  29  49  70  91 119 157 198 235 272
#     4   9  16  27  47  73  96 119 151 194 240 278
#     4   9  18  33  51  71  97 128 162 201 242 283
#     4   8  14  29  53  73  86 112 159 200 225 263
#     4   9  17  31  51  71  91 119 157 195 228 270
#     4  10  19  31  49  73 100 129 161 198 241 288
#
# _framework density 20.627735000000001
#
# number of rings (size 3 to 8) (size 9 to 14) (size 15 to 20)
#    0.000    3.000    0.000    2.143    0.000    3.714 
#    0.000    4.286    0.000   11.143    0.000    0.000 
#    0.000    0.000    0.000    0.000    0.000    0.000 
#
# Total GULP energy -155995.812942 kJ/mol
# GULP energy per Si atom -5571.279034 kJ/mol
# Density = 2.058079 g / cm^3
# Si number density = 20.627735 Si / 1000 Ang^3
#
#
#
# Elastic Constant Matrix: (Units=GPa)
#
#
# Indices 1 2 3 4 5 6 
#
# 1 50.1501 -6.0766 78.5920 0.0000 -3.6317 0.0002
# 2 -6.0766 58.1534 0.9054 0.0001 -2.7170 0.0004
# 3 78.5920 0.9054 278.1144 0.0000 -7.7534 0.0000
# 4 0.0000 0.0001 0.0000 12.9587 0.0000 0.8539
# 5 -3.6317 -2.7170 -7.7534 0.0000 30.9215 0.0000
# 6 0.0002 0.0004 0.0000 0.8539 0.0000 15.0960
#
#
#
# Elastic Compliance Matrix: (Units=1/GPa)
#
#
# Indices 1 2 3 4 5 6 
#
# 1 0.036828 0.004107 -0.010362 0.000000 0.002088 -0.000001
# 2 0.004107 0.017725 -0.001170 0.000000 0.001747 -0.000001
# 3 -0.010362 -0.001170 0.006537 0.000000 0.000319 0.000000
# 4 0.000000 0.000000 0.000000 0.077457 0.000000 -0.004382
# 5 0.002088 0.001747 0.000319 0.000000 0.032819 0.000000
# 6 -0.000001 -0.000001 0.000000 -0.004382 0.000000 0.066490
#
#
# Mechanical properties :
#
#
# Convention : Reuss Voigt Hill
#
# Bulk Modulus (GPa) = 21.62624 59.25102 40.43863
# Shear Modulus (GPa) = 18.64843 32.66172 25.65507
#
# Velocity S-wave (km/s) = 3.01000 3.98350 3.53046
# Velocity P-wave (km/s) = 4.75257 7.06711 6.02208
#
# Compressibility (1/GPa) = 0.04624013
#
# Stress axis : x y z
#
# Youngs Moduli (GPa) = 27.15298 56.41782 152.98339
#
# Poissons Ratio (x) = -0.23172 1.58528
# Poissons Ratio (y) = -0.11152 0.17894
# Poissons Ratio (z) = 0.28137 0.06599
#
# Static dielectric constant tensor:
#      x y z
#    x 1.676700 0.000000 -0.011710 
#    y 0.000000 1.818410 0.000000 
#    z -0.011710 0.000000 1.818480 
# 
# From -- ./inp_files/377762.got.cif
#   From: 2010.05.17/outbox.cif.g08.bks.cpg/sg12_189_cif.got.tgz:377762.got - 2010.06.03 13:09:07.
