data_PCOD9179062
_publ_section_title
;
Structure prediction by ZEFSAII (Michael W. Deem and Ramdas Pophale) SiO2 
 PCOD9179062
Probable space group: C 2/M
;
_chemical_formula_sum "Si O2"
_cell_formula_units_Z 56
_cell_length_a 20.518375
_cell_length_b 7.490278
_cell_length_c 27.184595
_cell_angle_alpha 90.000000
_cell_angle_beta 30.187413
_cell_angle_gamma 90.000000
_cell_volume 2100.801434
_symmetry_space_group_name_H-M "C 2/M"
_symmetry_group_IT_number 12
_symmetry_cell_setting 'monoclinic'
loop_
_space_group_symop_operation_xyz
x,y,z
-x,y,-z
-x,-y,-z
x,-y,z
1/2+x,1/2+y,z
1/2-x,1/2+y,-z
1/2-x,1/2-y,-z
1/2+x,1/2-y,z
loop_
_atom_site_type_symbol
_atom_site_label
_atom_site_fract_x
_atom_site_fract_y
_atom_site_fract_z
Si Si1 0.996051 0.785051 0.583922
Si Si2 0.781710 0.284860 0.220719
Si Si3 0.230702 0.789539 0.624489
Si Si4 0.129111 0.211171 0.939844
Si Si5 0.512321 0.204760 0.844100
Si Si6 0.446000 0.714170 0.344071
Si Si7 0.329932 0.787000 0.882177
O O1 0.850468 0.721448 0.667540
O O2 0.116894 0.741179 0.470746
O O3 0.031781 0.716645 0.615570
O O4 0.988214 0.000000 0.590339
O O5 0.788505 0.500000 0.220113
O O6 0.772161 0.237018 0.169879
O O7 0.916114 0.211298 0.155568
O O8 0.135200 0.702610 0.726175
O O9 0.181723 0.725635 0.602460
O O10 0.205140 0.000000 0.644629
O O11 0.196465 0.282084 0.945357
O O12 0.110479 0.000000 0.958710
O O13 0.000000 0.292852 0.000000
O O14 0.393383 0.287549 0.890939
O O15 0.479702 0.000000 0.875558
O O16 0.440953 0.500000 0.351773
O O17 0.562067 0.757506 0.230521
O O18 0.317460 0.000000 0.896433
#
# Coordination Sequence:
#
# PCOD9179062 Si02
#       7
#     8   8   8   8   8   8   8
#     4  10  19  31  48  71 103 139 176 220 263 302
#     4  10  21  37  57  79 104 138 177 218 260 306
#     4  10  20  31  47  74 105 141 180 219 258 301
#     4  10  21  37  58  84 110 134 164 209 266 321
#     4   9  19  36  55  75 104 142 181 215 254 304
#     4   9  17  30  48  72 103 135 175 221 260 301
#     4   9  17  32  55  78 102 137 174 210 255 311
#
# _framework density 26.656493000000001
#
# number of rings (size 3 to 8) (size 9 to 14) (size 15 to 20)
#    0.000    2.429    1.429    0.857    0.000    3.143 
#    0.000    3.571    0.000    0.000    0.000    0.000 
#    0.000    0.000    0.000    0.000    0.000    0.000 
#
# Total GULP energy -156600.798982 kJ/mol
# GULP energy per Si atom -5592.885678 kJ/mol
# Density = 2.659582 g / cm^3
# Si number density = 26.656493 Si / 1000 Ang^3
#
#
#
# Elastic Constant Matrix: (Units=GPa)
#
#
# Indices 1 2 3 4 5 6 
#
# 1 189.8621 11.2174 45.2726 0.0119 -25.6532 -0.0264
# 2 11.2174 93.1565 11.1566 0.0073 -6.7237 -0.0220
# 3 45.2726 11.1566 118.4780 0.0009 -27.7181 -0.0066
# 4 0.0119 0.0073 0.0009 25.6399 0.0000 10.7487
# 5 -25.6532 -6.7237 -27.7181 0.0000 55.6052 0.0024
# 6 -0.0264 -0.0220 -0.0066 10.7487 0.0024 1.7402
#
#
#
# Elastic Compliance Matrix: (Units=1/GPa)
#
#
# Indices 1 2 3 4 5 6 
#
# 1 0.005967 -0.000370 -0.001824 0.000022 0.001799 -0.000058
# 2 -0.000370 0.010921 -0.000700 0.000036 0.000801 -0.000092
# 3 -0.001824 -0.000700 0.010173 -0.000001 0.004145 0.000005
# 4 0.000022 0.000036 -0.000001 -0.024538 0.000007 0.151568
# 5 0.001799 0.000801 0.004145 0.000007 0.020977 -0.000019
# 6 -0.000058 -0.000092 0.000005 0.151568 -0.000019 -0.361550
#
#
# Mechanical properties :
#
#
# Convention : Reuss Voigt Hill
#
# Bulk Modulus (GPa) = 47.00906 59.64332 53.32619
# Shear Modulus (GPa) = -15.37652 38.85372 11.73860
#
# Velocity S-wave (km/s) = -2.40435 3.82196 2.10077
# Velocity P-wave (km/s) = 3.15682 6.47301 5.09241
#
# Compressibility (1/GPa) = 0.02127250
#
# Stress axis : x y z
#
# Youngs Moduli (GPa) = 167.59143 91.56863 98.29867
#
# Poissons Ratio (x) = 0.03390 0.17934
# Poissons Ratio (y) = 0.06204 0.06876
# Poissons Ratio (z) = 0.30576 0.06405
#
# Static dielectric constant tensor:
#      x y z
#    x 2.142870 0.000000 -0.018020 
#    y 0.000000 1.957050 -0.000010 
#    z -0.018020 -0.000010 2.131530 
# 
# From -- ./inp_files/281663.got.cif
#   From: 2010.05.17/outbox.cif.g08.bks.cpg/sg12_141_cif.got.tgz:281663.got - 2010.06.03 13:09:07.
