data_PCOD9179402
_publ_section_title
;
Structure prediction by ZEFSAII (Michael W. Deem and Ramdas Pophale) SiO2 
 PCOD9179402
Probable space group: C 2/M
;
_chemical_formula_sum "Si O2"
_cell_formula_units_Z 52
_cell_length_a 31.404445
_cell_length_b 7.565568
_cell_length_c 20.420524
_cell_angle_alpha 90.000000
_cell_angle_beta 155.232129
_cell_angle_gamma 90.000000
_cell_volume 2032.611860
_symmetry_space_group_name_H-M "C 2/M"
_symmetry_group_IT_number 12
_symmetry_cell_setting 'monoclinic'
loop_
_space_group_symop_operation_xyz
x,y,z
-x,y,-z
-x,-y,-z
x,-y,z
1/2+x,1/2+y,z
1/2-x,1/2+y,-z
1/2-x,1/2-y,-z
1/2+x,1/2-y,z
loop_
_atom_site_type_symbol
_atom_site_label
_atom_site_fract_x
_atom_site_fract_y
_atom_site_fract_z
Si Si1 0.798006 0.203543 0.799353
Si Si2 0.156880 0.294660 0.276318
Si Si3 0.872376 0.203418 0.630976
Si Si4 0.427792 0.214400 0.342069
Si Si5 0.139662 0.500000 0.007444
Si Si6 0.429451 0.212467 0.571124
Si Si7 0.291392 0.291592 0.984748
O O1 0.860974 0.207163 0.818381
O O2 0.841990 0.343025 0.911457
O O3 0.681104 0.254482 0.615892
O O4 0.796869 0.000000 0.822139
O O5 0.171424 0.500000 0.281189
O O6 0.088583 0.286642 0.246717
O O7 0.263692 0.220249 0.454374
O O8 0.933766 0.216121 0.650186
O O9 0.859439 0.000000 0.628961
O O10 0.500000 0.276512 0.500000
O O11 0.477981 0.277100 0.344695
O O12 0.313359 0.259149 0.199790
O O13 0.430254 0.000000 0.342853
O O14 0.132201 0.653489 0.938797
O O15 0.430662 0.000000 0.575674
O O16 0.313434 0.500000 0.010039
O O17 0.250000 0.250000 0.000000
#
# Coordination Sequence:
#
# PCOD9179402 Si02
#       7
#     8   8   8   8   4   8   8
#     4  10  19  31  49  76 111 143 178 229 279 335
#     4   9  15  26  41  62  98 142 186 220 265 329
#     4   9  16  24  38  62  96 143 186 222 266 323
#     4   9  18  35  57  81 109 146 186 233 286 336
#     4  12  22  36  57  80 103 141 186 223 283 331
#     4   9  17  30  47  70 105 145 185 228 279 332
#     4  11  23  42  62  81 111 149 190 235 282 339
#
# _framework density 25.582847000000001
#
# number of rings (size 3 to 8) (size 9 to 14) (size 15 to 20)
#    0.000    2.308    1.538    2.308    1.077    6.154 
#    1.385    1.154    0.000    0.000    0.000    0.000 
#    0.000    2.462    0.000    4.615    0.000    3.846 
#
# Total GULP energy -144825.483487 kJ/mol
# GULP energy per Si atom -5570.210903 kJ/mol
# Density = 2.552462 g / cm^3
# Si number density = 25.582847 Si / 1000 Ang^3
#
#
#
# Elastic Constant Matrix: (Units=GPa)
#
#
# Indices 1 2 3 4 5 6 
#
# 1 124.7017 33.7976 31.5899 0.0000 -37.3532 0.0000
# 2 33.7976 144.1730 33.0438 0.0000 -11.0903 0.0000
# 3 31.5899 33.0438 58.8960 0.0000 -7.1247 0.0000
# 4 0.0000 0.0000 0.0000 6.1812 0.0000 -8.2730
# 5 -37.3532 -11.0903 -7.1247 0.0000 43.1053 0.0000
# 6 0.0000 0.0000 0.0000 -8.2730 0.0000 -51.0910
#
#
#
# Elastic Compliance Matrix: (Units=1/GPa)
#
#
# Indices 1 2 3 4 5 6 
#
# 1 0.012459 -0.001046 -0.004921 0.000000 0.009714 0.000000
# 2 -0.001046 0.008124 -0.003932 0.000000 0.000534 0.000000
# 3 -0.004921 -0.003932 0.021619 0.000000 -0.001703 0.000000
# 4 0.000000 0.000000 0.000000 0.132964 0.000000 -0.021531
# 5 0.009714 0.000534 -0.001703 0.000000 0.031473 0.000000
# 6 0.000000 0.000000 0.000000 -0.021531 0.000000 -0.016087
#
#
# Mechanical properties :
#
#
# Convention : Reuss Voigt Hill
#
# Bulk Modulus (GPa) = 44.63549 58.29257 51.46403
# Shear Modulus (GPa) = 22.95510 14.92840 18.94175
#
# Velocity S-wave (km/s) = 2.99872 2.41826 2.72400
# Velocity P-wave (km/s) = 5.42910 5.53467 5.48214
#
# Compressibility (1/GPa) = 0.02240370
#
# Stress axis : x y z
#
# Youngs Moduli (GPa) = 80.26472 123.09845 46.25627
#
# Poissons Ratio (x) = 0.12871 0.22762
# Poissons Ratio (y) = 0.08392 0.18190
# Poissons Ratio (z) = 0.39496 0.48406
#
# Static dielectric constant tensor:
#      x y z
#    x 2.106810 0.000000 0.019020 
#    y 0.000000 1.877240 0.000000 
#    z 0.019020 0.000000 2.105280 
# 
# From -- ./inp_files/294877.got.cif
#   From: 2010.05.17/outbox.cif.g08.bks.cpg/sg12_148_cif.got.tgz:294877.got - 2010.06.03 13:09:07.
