data_PCOD9179189
_publ_section_title
;
Structure prediction by ZEFSAII (Michael W. Deem and Ramdas Pophale) SiO2 
 PCOD9179189
Probable space group: C 2/M
;
_chemical_formula_sum "Si O2"
_cell_formula_units_Z 60
_cell_length_a 21.053490
_cell_length_b 24.360830
_cell_length_c 14.886342
_cell_angle_alpha 90.000000
_cell_angle_beta 25.964717
_cell_angle_gamma 90.000000
_cell_volume 3342.699760
_symmetry_space_group_name_H-M "C 2/M"
_symmetry_group_IT_number 12
_symmetry_cell_setting 'monoclinic'
loop_
_space_group_symop_operation_xyz
x,y,z
-x,y,-z
-x,-y,-z
x,-y,z
1/2+x,1/2+y,z
1/2-x,1/2+y,-z
1/2-x,1/2-y,-z
1/2+x,1/2-y,z
loop_
_atom_site_type_symbol
_atom_site_label
_atom_site_fract_x
_atom_site_fract_y
_atom_site_fract_z
Si Si1 0.025937 0.438056 0.678591
Si Si2 0.424410 0.717575 0.245354
Si Si3 0.598034 0.821889 0.638360
Si Si4 0.588462 0.782736 0.295560
Si Si5 0.500000 0.642370 0.000000
Si Si6 0.263615 0.437298 0.236863
Si Si7 0.797946 0.062519 0.979860
Si Si8 0.394631 0.677261 0.831137
O O1 0.059687 0.500000 0.668818
O O2 0.081364 0.387223 0.668021
O O3 0.104555 0.432655 0.481556
O O4 0.855874 0.434362 0.875097
O O5 0.456287 0.782271 0.211913
O O6 0.262376 0.700692 0.422226
O O7 0.463594 0.694267 0.293180
O O8 0.521398 0.682984 0.055271
O O9 0.507394 0.807106 0.664366
O O10 0.500000 0.792645 0.500000
O O11 0.608854 0.717609 0.249733
O O12 0.749492 0.807832 0.074645
O O13 0.637114 0.602475 0.830245
O O14 0.312211 0.500000 0.188794
O O15 0.274368 0.427229 0.116877
O O16 0.853478 0.000000 0.900238
O O17 0.892176 0.112271 0.821678
#
# Coordination Sequence:
#
# PCOD9179189 Si02
#       8
#     8   8   8   8   4   8   8   8
#     4  10  19  31  49  71  96 134 172 205 250 307
#     4  10  22  33  50  71 102 138 171 208 260 298
#     4  10  20  37  49  71 104 135 169 217 252 306
#     4  10  22  34  56  75 100 139 173 215 262 306
#     4  12  19  30  48  70  97 136 170 204 250 308
#     4  10  20  30  43  68 103 137 169 201 241 307
#     4  10  19  31  49  71 100 132 167 211 255 297
#     4  10  20  37  51  76 105 132 177 214 254 313
#
# _framework density 17.949563999999999
#
# number of rings (size 3 to 8) (size 9 to 14) (size 15 to 20)
#    0.000    1.867    4.000    0.600    3.733    1.600 
#    0.000    0.667    0.000    0.400    0.000    0.467 
#    0.000    0.000    0.000    0.000    0.000    0.000 
#
# Total GULP energy -167008.382238 kJ/mol
# GULP energy per Si atom -5566.946075 kJ/mol
# Density = 1.790871 g / cm^3
# Si number density = 17.949564 Si / 1000 Ang^3
#
#
#
# Elastic Constant Matrix: (Units=GPa)
#
#
# Indices 1 2 3 4 5 6 
#
# 1 46.5339 26.3979 5.5523 -0.0034 -13.3150 0.0055
# 2 26.3979 163.9451 5.8379 -0.0038 1.2284 0.0053
# 3 5.5523 5.8379 27.2294 -0.0043 -7.6941 0.0092
# 4 -0.0034 -0.0038 -0.0043 21.6315 0.0032 0.7500
# 5 -13.3150 1.2284 -7.6941 0.0032 20.1042 -0.0051
# 6 0.0055 0.0053 0.0092 0.7500 -0.0051 23.5497
#
#
#
# Elastic Compliance Matrix: (Units=1/GPa)
#
#
# Indices 1 2 3 4 5 6 
#
# 1 0.030137 -0.005033 0.000741 0.000001 0.020551 -0.000002
# 2 -0.005033 0.007005 -0.001725 0.000001 -0.004421 -0.000001
# 3 0.000741 -0.001725 0.041612 0.000006 0.016521 -0.000013
# 4 0.000001 0.000001 0.000006 0.046280 -0.000005 -0.001474
# 5 0.020551 -0.004421 0.016521 -0.000005 0.069945 0.000005
# 6 -0.000002 -0.000001 -0.000013 -0.001474 0.000005 0.042510
#
#
# Mechanical properties :
#
#
# Convention : Reuss Voigt Hill
#
# Bulk Modulus (GPa) = 14.98812 34.80941 24.89877
# Shear Modulus (GPa) = 18.39844 26.38508 22.39176
#
# Velocity S-wave (km/s) = 3.20505 3.83816 3.53580
# Velocity P-wave (km/s) = 4.69731 6.25116 5.52909
#
# Compressibility (1/GPa) = 0.06671949
#
# Stress axis : x y z
#
# Youngs Moduli (GPa) = 33.18217 142.76492 24.03144
#
# Poissons Ratio (x) = 0.71852 -0.01780
# Poissons Ratio (y) = 0.16700 0.04145
# Poissons Ratio (z) = -0.02458 0.24625
#
# Static dielectric constant tensor:
#      x y z
#    x 1.652000 0.000000 -0.026010 
#    y 0.000000 1.695730 0.000010 
#    z -0.026010 0.000010 1.648580 
# 
# From -- ./inp_files/235439.got.cif
#   From: 2010.05.17/outbox.cif.g08.bks.cpg/sg12_118_cif.got.tgz:235439.got - 2010.06.03 13:09:07.
