data_PCOD9179958
_publ_section_title
;
Structure prediction by ZEFSAII (Michael W. Deem and Ramdas Pophale) SiO2 
 PCOD9179958
Probable space group: C 2/M
;
_chemical_formula_sum "Si O2"
_cell_formula_units_Z 48
_cell_length_a 16.881856
_cell_length_b 23.823114
_cell_length_c 17.078576
_cell_angle_alpha 90.000000
_cell_angle_beta 162.245798
_cell_angle_gamma 90.000000
_cell_volume 2094.481050
_symmetry_space_group_name_H-M "C 2/M"
_symmetry_group_IT_number 12
_symmetry_cell_setting 'monoclinic'
loop_
_space_group_symop_operation_xyz
x,y,z
-x,y,-z
-x,-y,-z
x,-y,z
1/2+x,1/2+y,z
1/2-x,1/2+y,-z
1/2-x,1/2-y,-z
1/2+x,1/2-y,z
loop_
_atom_site_type_symbol
_atom_site_label
_atom_site_fract_x
_atom_site_fract_y
_atom_site_fract_z
Si Si1 0.584783 0.125335 0.786941
Si Si2 0.540390 0.566103 0.309910
Si Si3 0.262934 0.903746 0.242386
Si Si4 0.440147 0.796063 0.103520
Si Si5 0.023320 0.854963 0.428939
Si Si6 0.715073 0.283393 0.263239
O O1 0.296528 0.099507 0.522111
O O2 0.672512 0.123074 0.780194
O O3 0.600830 0.186214 0.844575
O O4 0.789436 0.086370 0.025559
O O5 0.579715 0.500000 0.340075
O O6 0.491701 0.586787 0.352816
O O7 0.500000 0.936733 0.500000
O O8 0.222019 0.850182 0.261481
O O9 0.000000 0.936549 0.000000
O O10 0.588590 0.737490 0.224946
O O11 0.678512 0.836332 0.302465
O O12 0.183106 0.813268 0.811042
O O13 0.000000 0.858970 0.500000
O O14 0.000000 0.264889 0.500000
O O15 0.500000 0.261517 0.000000
#
# Coordination Sequence:
#
# PCOD9179958 Si02
#       6
#     8   8   8   8   8   8
#     4  10  21  38  59  81 111 149 184 225 281 341
#     4  10  21  37  59  85 111 144 184 231 283 333
#     4  10  21  38  58  81 108 146 185 227 285 330
#     4  10  19  32  52  79 111 148 188 224 268 322
#     4  10  19  31  52  81 113 149 183 220 271 329
#     4  10  19  32  51  77 109 145 185 227 266 314
#
# _framework density 22.917372
#
# number of rings (size 3 to 8) (size 9 to 14) (size 15 to 20)
#    0.000    2.000    0.000    4.500    0.000    0.333 
#    0.000    6.667    0.000   16.000    0.000    2.333 
#    0.000    0.000    0.000    0.000    0.000    0.000 
#
# Total GULP energy -133915.443282 kJ/mol
# GULP energy per Si atom -5579.810137 kJ/mol
# Density = 2.286521 g / cm^3
# Si number density = 22.917372 Si / 1000 Ang^3
#
#
#
# Elastic Constant Matrix: (Units=GPa)
#
#
# Indices 1 2 3 4 5 6 
#
# 1 117.8672 21.5897 36.3975 0.0010 0.9029 0.0056
# 2 21.5897 86.3687 -4.3738 0.0002 -1.5477 0.0044
# 3 36.3975 -4.3738 160.1287 0.0032 11.8209 0.0203
# 4 0.0010 0.0002 0.0032 11.7509 0.0010 6.8808
# 5 0.9029 -1.5477 11.8209 0.0010 38.3028 0.0039
# 6 0.0056 0.0044 0.0203 6.8808 0.0039 121.8556
#
#
#
# Elastic Compliance Matrix: (Units=1/GPa)
#
#
# Indices 1 2 3 4 5 6 
#
# 1 0.009650 -0.002522 -0.002290 0.000000 0.000377 0.000000
# 2 -0.002522 0.012259 0.000887 0.000000 0.000281 0.000000
# 3 -0.002290 0.000887 0.006941 -0.000001 -0.002052 -0.000001
# 4 0.000000 0.000000 -0.000001 0.088010 -0.000001 -0.004970
# 5 0.000377 0.000281 -0.002052 -0.000001 0.026744 0.000000
# 6 0.000000 0.000000 -0.000001 -0.004970 0.000000 0.008487
#
#
# Mechanical properties :
#
#
# Convention : Reuss Voigt Hill
#
# Bulk Modulus (GPa) = 47.61664 52.39905 50.00784
# Shear Modulus (GPa) = 29.95079 55.09860 42.52469
#
# Velocity S-wave (km/s) = 3.61903 4.90861 4.31230
# Velocity P-wave (km/s) = 6.18756 7.41889 6.83102
#
# Compressibility (1/GPa) = 0.02100106
#
# Stress axis : x y z
#
# Youngs Moduli (GPa) = 103.62329 81.57577 144.06522
#
# Poissons Ratio (x) = 0.20570 0.32995
# Poissons Ratio (y) = 0.26129 -0.12782
# Poissons Ratio (z) = 0.23733 -0.07238
#
# Static dielectric constant tensor:
#      x y z
#    x 1.917630 0.000000 -0.014680 
#    y 0.000000 1.842770 0.000000 
#    z -0.014680 0.000000 1.971180 
# 
# From -- ./inp_files/219620.got.cif
#   From: 2010.05.17/outbox.cif.g08.bks.cpg/sg12_110_cif.got.tgz:219620.got - 2010.06.03 13:09:07.
