data_PCOD9179347
_publ_section_title
;
Structure prediction by ZEFSAII (Michael W. Deem and Ramdas Pophale) SiO2 
 PCOD9179347
Probable space group: C 2/M
;
_chemical_formula_sum "Si O2"
_cell_formula_units_Z 56
_cell_length_a 24.837159
_cell_length_b 7.904209
_cell_length_c 15.680657
_cell_angle_alpha 90.000000
_cell_angle_beta 116.409903
_cell_angle_gamma 90.000000
_cell_volume 2757.119528
_symmetry_space_group_name_H-M "C 2/M"
_symmetry_group_IT_number 12
_symmetry_cell_setting 'monoclinic'
loop_
_space_group_symop_operation_xyz
x,y,z
-x,y,-z
-x,-y,-z
x,-y,z
1/2+x,1/2+y,z
1/2-x,1/2+y,-z
1/2-x,1/2-y,-z
1/2+x,1/2-y,z
loop_
_atom_site_type_symbol
_atom_site_label
_atom_site_fract_x
_atom_site_fract_y
_atom_site_fract_z
Si Si1 0.996175 0.795212 0.135691
Si Si2 0.853545 0.296364 0.320180
Si Si3 0.597073 0.792803 0.462891
Si Si4 0.305468 0.796158 0.599762
Si Si5 0.971640 0.701754 0.312010
Si Si6 0.780954 0.299488 0.772350
Si Si7 0.905336 0.202680 0.925405
O O1 0.986094 0.733072 0.223623
O O2 0.057620 0.737248 0.132231
O O3 0.996743 0.000000 0.138455
O O4 0.942265 0.739737 0.034455
O O5 0.855488 0.500000 0.322737
O O6 0.869578 0.237495 0.427522
O O7 0.907016 0.232347 0.296946
O O8 0.786019 0.249684 0.248088
O O9 0.634561 0.737142 0.406400
O O10 0.528390 0.734763 0.406859
O O11 0.597020 0.000000 0.463614
O O12 0.250000 0.750000 0.500000
O O13 0.294790 0.727646 0.687173
O O14 0.308657 0.000000 0.606722
O O15 0.969985 0.500000 0.324171
O O16 0.781809 0.500000 0.766043
O O17 0.835968 0.249116 0.871285
O O18 0.909684 0.000000 0.928239
#
# Coordination Sequence:
#
# PCOD9179347 Si02
#       7
#     8   8   8   8   8   8   8
#     4   9  19  37  59  83 108 135 171 218 269 321
#     4  10  20  35  54  74 105 151 188 214 256 320
#     4   9  17  32  53  76 103 139 180 219 258 309
#     4  10  19  31  49  74 105 137 170 212 260 309
#     4  10  20  34  55  81 106 138 184 226 263 312
#     4  11  22  34  52  82 113 139 176 226 271 307
#     4   9  19  37  60  82 106 139 175 209 263 337
#
# _framework density 20.311052
#
# number of rings (size 3 to 8) (size 9 to 14) (size 15 to 20)
#    0.000    2.286    1.429    2.571    0.000    5.143 
#    0.000    3.571    0.000    1.714    0.000    0.000 
#    0.000    0.000    0.000    0.000    0.000    0.000 
#
# Total GULP energy -156308.898214 kJ/mol
# GULP energy per Si atom -5582.460651 kJ/mol
# Density = 2.026482 g / cm^3
# Si number density = 20.311052 Si / 1000 Ang^3
#
#
#
# Elastic Constant Matrix: (Units=GPa)
#
#
# Indices 1 2 3 4 5 6 
#
# 1 124.5052 2.4207 38.0100 0.0000 38.7021 0.0000
# 2 2.4207 17.4118 -5.7795 0.0000 3.9855 0.0000
# 3 38.0100 -5.7795 52.3662 0.0000 29.6116 0.0000
# 4 0.0000 0.0000 0.0000 11.4884 0.0000 -4.5585
# 5 38.7021 3.9855 29.6116 0.0000 33.6786 0.0000
# 6 0.0000 0.0000 0.0000 -4.5585 0.0000 17.0638
#
#
#
# Elastic Compliance Matrix: (Units=1/GPa)
#
#
# Indices 1 2 3 4 5 6 
#
# 1 0.012597 0.000696 -0.001659 0.000000 -0.013099 0.000000
# 2 0.000696 0.073208 0.025707 0.000000 -0.032066 0.000000
# 3 -0.001659 0.025707 0.047294 0.000000 -0.042718 0.000000
# 4 0.000000 0.000000 0.000000 0.097365 0.000000 0.026010
# 5 -0.013099 -0.032066 -0.042718 0.000000 0.086099 0.000000
# 6 0.000000 0.000000 0.000000 0.026010 0.000000 0.065552
#
#
# Mechanical properties :
#
#
# Convention : Reuss Voigt Hill
#
# Bulk Modulus (GPa) = 5.47685 29.28730 17.38207
# Shear Modulus (GPa) = 12.70682 23.08830 17.89756
#
# Velocity S-wave (km/s) = 2.50394 3.37521 2.97168
# Velocity P-wave (km/s) = 3.32595 5.44427 4.51121
#
# Compressibility (1/GPa) = 0.18258686
#
# Stress axis : x y z
#
# Youngs Moduli (GPa) = 79.38650 13.65962 21.14445
#
# Poissons Ratio (x) = -0.00951 0.03508
# Poissons Ratio (y) = -0.05528 -0.54356
# Poissons Ratio (z) = 0.13172 -0.35115
#
# Static dielectric constant tensor:
#      x y z
#    x 1.754580 0.000000 0.019390 
#    y 0.000000 1.735610 0.000000 
#    z 0.019390 0.000000 1.716140 
# 
# From -- ./inp_files/238961.got.cif
#   From: 2010.05.17/outbox.cif.g08.bks.cpg/sg12_120_cif.got.tgz:238961.got - 2010.06.03 13:09:07.
