data_PCOD9179934
_publ_section_title
;
Structure prediction by ZEFSAII (Michael W. Deem and Ramdas Pophale) SiO2 
 PCOD9179934
Probable space group: C 2/M
;
_chemical_formula_sum "Si O2"
_cell_formula_units_Z 48
_cell_length_a 17.453685
_cell_length_b 12.888933
_cell_length_c 14.718779
_cell_angle_alpha 90.000000
_cell_angle_beta 33.889369
_cell_angle_gamma 90.000000
_cell_volume 1846.255120
_symmetry_space_group_name_H-M "C 2/M"
_symmetry_group_IT_number 12
_symmetry_cell_setting 'monoclinic'
loop_
_space_group_symop_operation_xyz
x,y,z
-x,y,-z
-x,-y,-z
x,-y,z
1/2+x,1/2+y,z
1/2-x,1/2+y,-z
1/2-x,1/2-y,-z
1/2+x,1/2-y,z
loop_
_atom_site_type_symbol
_atom_site_label
_atom_site_fract_x
_atom_site_fract_y
_atom_site_fract_z
Si Si1 0.710846 0.612579 0.464934
Si Si2 0.106236 0.886328 0.257423
Si Si3 0.029221 0.790084 0.068049
Si Si4 0.339233 0.166457 0.728408
Si Si5 0.391960 0.886063 0.875126
Si Si6 0.744070 0.844836 0.378267
O O1 0.742975 0.500000 0.391824
O O2 0.544575 0.616911 0.637808
O O3 0.743833 0.718846 0.381400
O O4 0.781870 0.618546 0.494234
O O5 0.123203 0.788664 0.306389
O O6 0.120675 0.000000 0.287278
O O7 0.230157 0.876646 0.062894
O O8 0.037583 0.706472 0.139903
O O9 0.904240 0.869240 0.203196
O O10 0.177339 0.841307 0.911106
O O11 0.000000 0.735160 0.000000
O O12 0.408958 0.122918 0.750352
O O13 0.348685 0.124722 0.616469
O O14 0.436002 0.000000 0.862530
#
# Coordination Sequence:
#
# PCOD9179934 Si02
#       6
#     8   8   8   8   8   8
#     4  10  21  37  55  73 100 137 175 215 252 298
#     4   9  18  34  55  77 100 131 171 210 253 299
#     4   9  18  34  55  77 103 135 171 211 253 298
#     4  10  19  33  54  78 106 133 165 213 259 305
#     4  10  19  31  52  80 108 137 165 203 257 309
#     4  10  21  35  53  77 102 135 173 209 257 306
#
# _framework density 25.998574999999999
#
# number of rings (size 3 to 8) (size 9 to 14) (size 15 to 20)
#    0.000    2.333    0.000    4.000    0.000    3.000 
#    0.000    5.000    0.000    6.000    0.000    7.000 
#    0.000    0.000    0.000    0.000    0.000    0.000 
#
# Total GULP energy -134234.347725 kJ/mol
# GULP energy per Si atom -5593.097822 kJ/mol
# Density = 2.593940 g / cm^3
# Si number density = 25.998575 Si / 1000 Ang^3
#
#
#
# Elastic Constant Matrix: (Units=GPa)
#
#
# Indices 1 2 3 4 5 6 
#
# 1 155.1470 -7.5817 24.2880 0.0000 14.6537 0.0000
# 2 -7.5817 100.6326 -4.7789 0.0000 1.8488 0.0000
# 3 24.2880 -4.7789 96.1650 0.0000 -5.9992 0.0000
# 4 0.0000 0.0000 0.0000 -0.1673 0.0000 -12.3947
# 5 14.6537 1.8488 -5.9992 0.0000 47.8317 0.0000
# 6 0.0000 0.0000 0.0000 -12.3947 0.0000 -10.6142
#
#
#
# Elastic Compliance Matrix: (Units=1/GPa)
#
#
# Indices 1 2 3 4 5 6 
#
# 1 0.006992 0.000481 -0.001892 0.000000 -0.002398 0.000000
# 2 0.000481 0.009999 0.000345 0.000000 -0.000491 0.000000
# 3 -0.001892 0.000345 0.011015 0.000000 0.001948 0.000000
# 4 0.000000 0.000000 0.000000 0.069898 0.000000 -0.081623
# 5 -0.002398 -0.000491 0.001948 0.000000 0.021904 0.000000
# 6 0.000000 0.000000 0.000000 -0.081623 0.000000 0.001102
#
#
# Mechanical properties :
#
#
# Convention : Reuss Voigt Hill
#
# Bulk Modulus (GPa) = 38.64878 41.75549 40.20213
# Shear Modulus (GPa) = 37.97472 30.07784 34.02628
#
# Velocity S-wave (km/s) = 3.82599 3.40502 3.62162
# Velocity P-wave (km/s) = 5.86648 5.61733 5.74326
#
# Compressibility (1/GPa) = 0.02587404
#
# Stress axis : x y z
#
# Youngs Moduli (GPa) = 143.02902 100.01238 90.78391
#
# Poissons Ratio (x) = -0.04810 0.17172
# Poissons Ratio (y) = -0.06879 -0.03130
# Poissons Ratio (z) = 0.27054 -0.03448
#
# Static dielectric constant tensor:
#      x y z
#    x 2.028730 0.000000 -0.027400 
#    y 0.000000 1.996690 0.000000 
#    z -0.027400 0.000000 2.083920 
# 
# From -- ./inp_files/225113.got.cif
#   From: 2010.05.17/outbox.cif.g08.bks.cpg/sg12_113_cif.got.tgz:225113.got - 2010.06.03 13:09:07.
