data_PCOD9179268
_publ_section_title
;
Structure prediction by ZEFSAII (Michael W. Deem and Ramdas Pophale) SiO2 
 PCOD9179268
Probable space group: C 2/M
;
_chemical_formula_sum "Si O2"
_cell_formula_units_Z 64
_cell_length_a 24.428102
_cell_length_b 7.284693
_cell_length_c 21.533395
_cell_angle_alpha 90.000000
_cell_angle_beta 43.909431
_cell_angle_gamma 90.000000
_cell_volume 2657.496741
_symmetry_space_group_name_H-M "C 2/M"
_symmetry_group_IT_number 12
_symmetry_cell_setting 'monoclinic'
loop_
_space_group_symop_operation_xyz
x,y,z
-x,y,-z
-x,-y,-z
x,-y,z
1/2+x,1/2+y,z
1/2-x,1/2+y,-z
1/2-x,1/2-y,-z
1/2+x,1/2-y,z
loop_
_atom_site_type_symbol
_atom_site_label
_atom_site_fract_x
_atom_site_fract_y
_atom_site_fract_z
Si Si1 0.405178 0.210923 0.753146
Si Si2 0.632745 0.777540 0.076955
Si Si3 0.589299 0.223122 0.909449
Si Si4 0.035835 0.276692 0.824683
Si Si5 0.230130 0.277707 0.884268
Si Si6 0.974569 0.723861 0.452189
Si Si7 0.190654 0.278393 0.463435
Si Si8 0.355450 0.790410 0.364278
O O1 0.387178 0.289336 0.837112
O O2 0.317643 0.215538 0.795065
O O3 0.469461 0.285023 0.651328
O O4 0.429660 0.000000 0.744353
O O5 0.555833 0.730427 0.098200
O O6 0.638007 0.000000 0.076313
O O7 0.706044 0.716636 0.974166
O O8 0.590605 0.280382 0.836684
O O9 0.661824 0.283930 0.892600
O O10 0.590325 0.000000 0.912506
O O11 0.500000 0.277966 0.000000
O O12 0.038213 0.500000 0.822343
O O13 0.071639 0.208536 0.731184
O O14 0.230601 0.500000 0.883982
O O15 0.978452 0.500000 0.447841
O O16 0.883299 0.776157 0.517243
O O17 0.000000 0.782828 0.500000
O O18 0.195564 0.500000 0.458903
O O19 0.279449 0.211902 0.381499
O O20 0.168488 0.209108 0.550711
O O21 0.376402 0.000000 0.361609
#
# Coordination Sequence:
#
# PCOD9179268 Si02
#       8
#     8   8   8   8   8   8   8   8
#     4  10  20  33  50  72  95 123 162 201 236 277
#     4   9  16  28  48  72  97 126 160 196 231 273
#     4   9  15  26  44  68  94 120 151 186 223 266
#     4   9  15  25  45  71  95 120 155 194 228 267
#     4  10  19  31  49  73 100 127 157 193 234 279
#     4   9  18  33  52  70  90 123 166 203 233 275
#     4   9  17  31  49  67  91 121 154 192 234 279
#     4   9  17  28  46  73  97 117 147 192 239 278
#
# _framework density 24.082813000000002
#
# number of rings (size 3 to 8) (size 9 to 14) (size 15 to 20)
#    0.000    2.750    1.250    1.125    0.000    4.000 
#    0.000    0.625    0.000    4.125    0.000    0.000 
#    0.000    0.000    0.000    0.000    0.000    0.000 
#
# Total GULP energy -178569.652082 kJ/mol
# GULP energy per Si atom -5580.301628 kJ/mol
# Density = 2.402800 g / cm^3
# Si number density = 24.082813 Si / 1000 Ang^3
#
#
#
# Elastic Constant Matrix: (Units=GPa)
#
#
# Indices 1 2 3 4 5 6 
#
# 1 103.4035 -7.5394 -14.3471 -0.0184 -8.8442 -0.0071
# 2 -7.5394 105.6478 -4.9259 -0.0362 2.9710 0.0182
# 3 -14.3471 -4.9259 56.7976 -0.0139 -7.5802 0.0078
# 4 -0.0184 -0.0362 -0.0139 -7.4788 0.0061 -8.4653
# 5 -8.8442 2.9710 -7.5802 0.0061 33.8910 -0.0083
# 6 -0.0071 0.0182 0.0078 -8.4653 -0.0083 3.6590
#
#
#
# Elastic Compliance Matrix: (Units=1/GPa)
#
#
# Indices 1 2 3 4 5 6 
#
# 1 0.010455 0.000799 0.003159 -0.000014 0.003365 -0.000016
# 2 0.000799 0.009580 0.000978 0.000001 -0.000413 -0.000046
# 3 0.003159 0.000978 0.019160 -0.000003 0.005024 -0.000036
# 4 -0.000014 0.000001 -0.000003 -0.036950 -0.000019 -0.085486
# 5 0.003365 -0.000413 0.005024 -0.000019 0.031544 0.000026
# 6 -0.000016 -0.000046 -0.000036 -0.085486 0.000026 0.075524
#
#
# Mechanical properties :
#
#
# Convention : Reuss Voigt Hill
#
# Bulk Modulus (GPa) = 20.38071 23.58045 21.98058
# Shear Modulus (GPa) = 43.17909 25.52500 34.35204
#
# Velocity S-wave (km/s) = 4.23891 3.25912 3.78089
# Velocity P-wave (km/s) = 5.69552 4.89644 5.31103
#
# Compressibility (1/GPa) = 0.04906600
#
# Stress axis : x y z
#
# Youngs Moduli (GPa) = 95.64558 104.38838 52.19275
#
# Poissons Ratio (x) = -0.08339 -0.16490
# Poissons Ratio (y) = -0.07640 -0.05102
# Poissons Ratio (z) = -0.30218 -0.10204
#
# Static dielectric constant tensor:
#      x y z
#    x 1.943160 -0.000020 0.014520 
#    y -0.000020 1.931340 0.000010 
#    z 0.014520 0.000010 1.907450 
# 
# From -- ./inp_files/320950.got.cif
#   From: 2010.05.17/outbox.cif.g08.bks.cpg/sg12_161_cif.got.tgz:320950.got - 2010.06.03 13:09:07.
