data_PCOD9179477
_publ_section_title
;
Structure prediction by ZEFSAII (Michael W. Deem and Ramdas Pophale) SiO2 
 PCOD9179477
Probable space group: C 2/M
;
_chemical_formula_sum "Si O2"
_cell_formula_units_Z 64
_cell_length_a 20.144747
_cell_length_b 7.379662
_cell_length_c 23.809652
_cell_angle_alpha 90.000000
_cell_angle_beta 53.939391
_cell_angle_gamma 90.000000
_cell_volume 2861.375338
_symmetry_space_group_name_H-M "C 2/M"
_symmetry_group_IT_number 12
_symmetry_cell_setting 'monoclinic'
loop_
_space_group_symop_operation_xyz
x,y,z
-x,y,-z
-x,-y,-z
x,-y,z
1/2+x,1/2+y,z
1/2-x,1/2+y,-z
1/2-x,1/2-y,-z
1/2+x,1/2-y,z
loop_
_atom_site_type_symbol
_atom_site_label
_atom_site_fract_x
_atom_site_fract_y
_atom_site_fract_z
Si Si1 0.018326 0.791083 0.615259
Si Si2 0.662856 0.277975 0.278176
Si Si3 0.920072 0.721996 0.004854
Si Si4 0.185570 0.782887 0.482017
Si Si5 0.455038 0.780088 0.268321
Si Si6 0.239622 0.215785 0.124189
Si Si7 0.274384 0.779271 0.325082
Si Si8 0.902921 0.716147 0.885579
O O1 0.095666 0.711124 0.543484
O O2 0.926870 0.712894 0.657991
O O3 0.040200 0.786333 0.670358
O O4 0.011295 0.000000 0.600252
O O5 0.659099 0.500000 0.278566
O O6 0.688797 0.215472 0.203241
O O7 0.730752 0.224471 0.289589
O O8 0.920361 0.500000 0.004910
O O9 0.832958 0.781838 0.074080
O O10 0.919719 0.781857 0.940060
O O11 0.000000 0.779067 0.000000
O O12 0.250000 0.750000 0.500000
O O13 0.223234 0.716871 0.404848
O O14 0.178223 0.000000 0.480929
O O15 0.368648 0.724437 0.284497
O O16 0.530963 0.716064 0.192773
O O17 0.457108 0.000000 0.269883
O O18 0.187333 0.248721 0.094060
O O19 0.245087 0.000000 0.128297
O O20 0.273993 0.000000 0.326107
O O21 0.912960 0.500000 0.882797
#
# Coordination Sequence:
#
# PCOD9179477 Si02
#       8
#     8   8   8   8   8   8   8   8
#     4  10  19  32  51  75 101 129 164 208 251 294
#     4   9  18  31  49  75 102 128 165 208 248 291
#     4   9  19  33  51  79 107 130 165 210 250 289
#     4  10  19  31  50  73  99 131 165 205 250 295
#     4  10  19  31  51  75  99 130 167 207 248 293
#     4  10  19  33  55  76 100 136 168 203 248 295
#     4   9  18  31  48  73 100 129 166 206 249 295
#     4  10  20  33  52  77 103 133 167 206 247 293
#
# _framework density 22.366866999999999
#
# number of rings (size 3 to 8) (size 9 to 14) (size 15 to 20)
#    0.000    2.375    2.500    0.375    1.750    0.500 
#    0.000    2.500    0.000    4.500    0.000    1.750 
#    0.000    0.000    0.000    0.000    0.000    0.000 
#
# Total GULP energy -178803.976327 kJ/mol
# GULP energy per Si atom -5587.624260 kJ/mol
# Density = 2.231596 g / cm^3
# Si number density = 22.366867 Si / 1000 Ang^3
#
#
#
# Elastic Constant Matrix: (Units=GPa)
#
#
# Indices 1 2 3 4 5 6 
#
# 1 150.1069 -10.2829 39.1860 -0.0009 -12.4459 -0.0032
# 2 -10.2829 80.3910 0.2518 -0.0021 -5.0187 -0.0089
# 3 39.1860 0.2518 93.0591 0.0000 -17.0918 -0.0005
# 4 -0.0009 -0.0021 0.0000 3.3121 0.0003 7.4575
# 5 -12.4459 -5.0187 -17.0918 0.0003 42.3120 -0.0004
# 6 -0.0032 -0.0089 -0.0005 7.4575 -0.0004 14.5988
#
#
#
# Elastic Compliance Matrix: (Units=1/GPa)
#
#
# Indices 1 2 3 4 5 6 
#
# 1 0.007612 0.001055 -0.002996 0.000016 0.001154 -0.000006
# 2 0.001055 0.012684 -0.000157 0.000065 0.001751 -0.000025
# 3 -0.002996 -0.000157 0.012792 0.000005 0.004267 -0.000003
# 4 0.000016 0.000065 0.000005 -2.010293 0.000039 1.026916
# 5 0.001154 0.001751 0.004267 0.000039 0.025905 -0.000018
# 6 -0.000006 -0.000025 -0.000003 1.026916 -0.000018 -0.456079
#
#
# Mechanical properties :
#
#
# Convention : Reuss Voigt Hill
#
# Bulk Modulus (GPa) = 34.61219 42.42962 38.52091
# Shear Modulus (GPa) = -2.08894 31.67138 14.79122
#
# Velocity S-wave (km/s) = -0.96746 3.76705 2.57437
# Velocity P-wave (km/s) = 3.77629 6.15889 5.10844
#
# Compressibility (1/GPa) = 0.02889155
#
# Stress axis : x y z
#
# Youngs Moduli (GPa) = 131.37059 78.83953 78.17561
#
# Poissons Ratio (x) = -0.08318 0.23423
# Poissons Ratio (y) = -0.13861 0.01227
# Poissons Ratio (z) = 0.39362 0.01237
#
# Static dielectric constant tensor:
#      x y z
#    x 1.775950 0.000000 -0.022360 
#    y 0.000000 1.864190 0.000000 
#    z -0.022360 0.000000 1.799170 
# 
# From -- ./inp_files/315303.got.cif
#   From: 2010.05.17/outbox.cif.g08.bks.cpg/sg12_158_cif.got.tgz:315303.got - 2010.06.03 13:09:07.
