data_PCOD9179367
_publ_section_title
;
Structure prediction by ZEFSAII (Michael W. Deem and Ramdas Pophale) SiO2 
 PCOD9179367
Probable space group: C 2/M
;
_chemical_formula_sum "Si O2"
_cell_formula_units_Z 64
_cell_length_a 16.228193
_cell_length_b 7.560025
_cell_length_c 19.331079
_cell_angle_alpha 90.000000
_cell_angle_beta 89.684450
_cell_angle_gamma 90.000000
_cell_volume 2371.607991
_symmetry_space_group_name_H-M "C 2/M"
_symmetry_group_IT_number 12
_symmetry_cell_setting 'monoclinic'
loop_
_space_group_symop_operation_xyz
x,y,z
-x,y,-z
-x,-y,-z
x,-y,z
1/2+x,1/2+y,z
1/2-x,1/2+y,-z
1/2-x,1/2-y,-z
1/2+x,1/2-y,z
loop_
_atom_site_type_symbol
_atom_site_label
_atom_site_fract_x
_atom_site_fract_y
_atom_site_fract_z
Si Si1 0.571045 0.208525 0.590324
Si Si2 0.028610 0.792102 0.787008
Si Si3 0.910806 0.201477 0.671813
Si Si4 0.333270 0.710090 0.540666
Si Si5 0.333800 0.212435 0.042526
Si Si6 0.730311 0.284326 0.166256
Si Si7 0.812077 0.298552 0.295852
Si Si8 0.935099 0.293832 0.917831
O O1 0.490579 0.300696 0.620263
O O2 0.594749 0.226180 0.510712
O O3 0.648756 0.279812 0.635105
O O4 0.561083 0.000000 0.605607
O O5 0.950945 0.722361 0.741438
O O6 0.006814 0.774906 0.867671
O O7 0.108646 0.698565 0.756251
O O8 0.038314 0.000000 0.771506
O O9 0.843274 0.280161 0.619168
O O10 0.888069 0.000000 0.690091
O O11 0.339279 0.500000 0.546781
O O12 0.250000 0.750000 0.500000
O O13 0.306687 0.279044 0.117951
O O14 0.344145 0.000000 0.047544
O O15 0.250000 0.250000 0.000000
O O16 0.407560 0.280155 0.993038
O O17 0.730601 0.500000 0.166996
O O18 0.742422 0.223313 0.245145
O O19 0.647544 0.228206 0.128180
O O20 0.789790 0.500000 0.313810
O O21 0.952122 0.500000 0.927243
#
# Coordination Sequence:
#
# PCOD9179367 Si02
#       8
#     8   8   8   8   8   8   8   8
#     4  10  20  35  56  80 104 132 167 205 248 300
#     4  10  20  35  54  74  99 133 171 208 248 296
#     4   9  20  38  57  75  98 133 173 208 244 293
#     4  11  23  38  55  77 106 135 166 207 251 293
#     4   8  15  28  47  70  96 129 167 205 245 294
#     4   9  17  32  53  74  98 132 171 206 247 299
#     4   9  19  35  54  76 103 133 166 207 250 295
#     4  10  19  31  49  75 104 131 165 210 255 297
#
# _framework density 26.985911999999999
#
# number of rings (size 3 to 8) (size 9 to 14) (size 15 to 20)
#    0.000    2.500    0.000    1.875    0.000    5.500 
#    0.000    5.625    0.000    3.750    0.000    0.000 
#    0.000    0.000    0.000    0.000    0.000    0.000 
#
# Total GULP energy -178937.722792 kJ/mol
# GULP energy per Si atom -5591.803837 kJ/mol
# Density = 2.692449 g / cm^3
# Si number density = 26.985912 Si / 1000 Ang^3
#
#
#
# Elastic Constant Matrix: (Units=GPa)
#
#
# Indices 1 2 3 4 5 6 
#
# 1 105.8064 0.8079 10.4713 0.0000 -4.2058 0.0000
# 2 0.8079 91.6704 -5.9495 0.0000 -2.5928 0.0000
# 3 10.4713 -5.9495 175.0842 0.0000 -1.8492 0.0000
# 4 0.0000 0.0000 0.0000 10.7718 0.0000 -5.9608
# 5 -4.2058 -2.5928 -1.8492 0.0000 66.7605 0.0000
# 6 0.0000 0.0000 0.0000 -5.9608 0.0000 15.8284
#
#
#
# Elastic Compliance Matrix: (Units=1/GPa)
#
#
# Indices 1 2 3 4 5 6 
#
# 1 0.009531 -0.000104 -0.000567 0.000000 0.000581 0.000000
# 2 -0.000104 0.010947 0.000383 0.000000 0.000429 0.000000
# 3 -0.000567 0.000383 0.005760 0.000000 0.000139 0.000000
# 4 0.000000 0.000000 0.000000 0.117274 0.000000 0.044164
# 5 0.000581 0.000429 0.000139 0.000000 0.015036 0.000000
# 6 0.000000 0.000000 0.000000 0.044164 0.000000 0.079809
#
#
# Mechanical properties :
#
#
# Convention : Reuss Voigt Hill
#
# Bulk Modulus (GPa) = 38.97187 42.58005 40.77596
# Shear Modulus (GPa) = 20.20297 43.15425 31.67861
#
# Velocity S-wave (km/s) = 2.73911 4.00326 3.42993
# Velocity P-wave (km/s) = 4.94738 6.09762 5.55237
#
# Compressibility (1/GPa) = 0.02565953
#
# Stress axis : x y z
#
# Youngs Moduli (GPa) = 104.91791 91.35306 173.61277
#
# Poissons Ratio (x) = 0.00954 0.09852
# Poissons Ratio (y) = 0.01095 -0.06645
# Poissons Ratio (z) = 0.05954 -0.03497
#
# Static dielectric constant tensor:
#      x y z
#    x 2.414080 0.000000 0.049210 
#    y 0.000000 0.375640 0.000000 
#    z 0.049210 0.000000 2.112870 
# 
# From -- ./inp_files/314046.got.cif
#   From: 2010.05.17/outbox.cif.g08.bks.cpg/sg12_158_cif.got.tgz:314046.got - 2010.06.03 13:09:07.
