data_PCOD9179175
_publ_section_title
;
Structure prediction by ZEFSAII (Michael W. Deem and Ramdas Pophale) SiO2 
 PCOD9179175
Probable space group: C 2/M
;
_chemical_formula_sum "Si O2"
_cell_formula_units_Z 48
_cell_length_a 23.767572
_cell_length_b 7.978691
_cell_length_c 30.369973
_cell_angle_alpha 90.000000
_cell_angle_beta 152.194225
_cell_angle_gamma 90.000000
_cell_volume 2686.519429
_symmetry_space_group_name_H-M "C 2/M"
_symmetry_group_IT_number 12
_symmetry_cell_setting 'monoclinic'
loop_
_space_group_symop_operation_xyz
x,y,z
-x,y,-z
-x,-y,-z
x,-y,z
1/2+x,1/2+y,z
1/2-x,1/2+y,-z
1/2-x,1/2-y,-z
1/2+x,1/2-y,z
loop_
_atom_site_type_symbol
_atom_site_label
_atom_site_fract_x
_atom_site_fract_y
_atom_site_fract_z
Si Si1 0.207742 0.797829 0.315139
Si Si2 0.062861 0.699993 0.857600
Si Si3 0.705189 0.797199 0.720378
Si Si4 0.218875 0.298814 0.048276
Si Si5 0.363636 0.202307 0.913595
Si Si6 0.953469 0.306387 0.518560
O O1 0.229743 0.740173 0.279861
O O2 0.319435 0.732237 0.422102
O O3 0.075423 0.753179 0.239695
O O4 0.218294 0.000000 0.321929
O O5 0.067283 0.500000 0.861946
O O6 0.147537 0.757948 0.876303
O O7 0.126725 0.765144 0.946784
O O8 0.779057 0.748428 0.814307
O O9 0.566637 0.732669 0.623369
O O10 0.699370 0.000000 0.714272
O O11 0.207185 0.500000 0.041148
O O12 0.186424 0.234958 0.074216
O O13 0.367978 0.000000 0.918683
O O14 0.500000 0.263071 0.000000
O O15 0.940469 0.500000 0.524114
O O16 0.000000 0.309424 0.500000
#
# Coordination Sequence:
#
# PCOD9179175 Si02
#       6
#     8   8   8   8   8   8
#     4   9  16  28  48  71  95 123 152 183 227 279
#     4  10  19  31  49  70  91 116 152 198 232 260
#     4   9  17  29  47  71  96 122 154 190 223 262
#     4   9  19  34  48  64  91 126 155 180 224 280
#     4  10  20  33  48  67  95 127 152 179 224 279
#     4   7  12  25  44  66  92 121 151 183 223 270
#
# _framework density 17.866983999999999
#
# number of rings (size 3 to 8) (size 9 to 14) (size 15 to 20)
#    0.000    3.000    0.000    3.500    0.000    3.667 
#    0.000    0.833    0.000    4.000    0.000    0.000 
#    0.000    0.000    0.000    0.000    0.000    0.000 
#
# Total GULP energy -133694.611607 kJ/mol
# GULP energy per Si atom -5570.608817 kJ/mol
# Density = 1.782632 g / cm^3
# Si number density = 17.866984 Si / 1000 Ang^3
#
#
#
# Elastic Constant Matrix: (Units=GPa)
#
#
# Indices 1 2 3 4 5 6 
#
# 1 118.1312 9.8570 94.7380 0.0000 8.8666 -0.0008
# 2 9.8570 13.7904 4.0422 0.0000 -1.0183 -0.0023
# 3 94.7380 4.0422 181.0882 0.0000 16.2851 0.0002
# 4 0.0000 0.0000 0.0000 12.7508 0.0000 -2.2845
# 5 8.8666 -1.0183 16.2851 0.0000 27.1909 -0.0002
# 6 -0.0008 -0.0023 0.0002 -2.2845 -0.0002 51.1910
#
#
#
# Elastic Compliance Matrix: (Units=1/GPa)
#
#
# Indices 1 2 3 4 5 6 
#
# 1 0.015590 -0.008880 -0.007896 0.000000 -0.000687 0.000000
# 2 -0.008880 0.078447 0.002505 0.000000 0.004333 0.000003
# 3 -0.007896 0.002505 0.009890 0.000000 -0.003255 0.000000
# 4 0.000000 0.000000 0.000000 0.079059 0.000000 0.003528
# 5 -0.000687 0.004333 -0.003255 0.000000 0.039113 0.000000
# 6 0.000000 0.000003 0.000000 0.003528 0.000000 0.019692
#
#
# Mechanical properties :
#
#
# Convention : Reuss Voigt Hill
#
# Bulk Modulus (GPa) = 13.26522 58.92043 36.09283
# Shear Modulus (GPa) = 16.92270 31.85138 24.38704
#
# Velocity S-wave (km/s) = 3.08092 4.22678 3.69849
# Velocity P-wave (km/s) = 4.48293 7.54120 6.20348
#
# Compressibility (1/GPa) = 0.07538511
#
# Stress axis : x y z
#
# Youngs Moduli (GPa) = 64.14314 12.74742 101.11361
#
# Poissons Ratio (x) = 0.11319 0.79840
# Poissons Ratio (y) = 0.56957 -0.25326
# Poissons Ratio (z) = 0.50648 -0.03193
#
# Static dielectric constant tensor:
#      x y z
#    x 1.589530 0.000000 0.006470 
#    y 0.000000 1.647320 0.000000 
#    z 0.006470 0.000000 1.640810 
# 
# From -- ./inp_files/380255.got.cif
#   From: 2010.05.17/outbox.cif.g08.bks.cpg/sg12_191_cif.got.tgz:380255.got - 2010.06.03 13:09:07.
