data_PCOD9179371
_publ_section_title
;
Structure prediction by ZEFSAII (Michael W. Deem and Ramdas Pophale) SiO2 
 PCOD9179371
Probable space group: C 2/M
;
_chemical_formula_sum "Si O2"
_cell_formula_units_Z 56
_cell_length_a 22.803305
_cell_length_b 13.707651
_cell_length_c 22.478596
_cell_angle_alpha 90.000000
_cell_angle_beta 28.357828
_cell_angle_gamma 90.000000
_cell_volume 3337.353823
_symmetry_space_group_name_H-M "C 2/M"
_symmetry_group_IT_number 12
_symmetry_cell_setting 'monoclinic'
loop_
_space_group_symop_operation_xyz
x,y,z
-x,y,-z
-x,-y,-z
x,-y,z
1/2+x,1/2+y,z
1/2-x,1/2+y,-z
1/2-x,1/2-y,-z
1/2+x,1/2-y,z
loop_
_atom_site_type_symbol
_atom_site_label
_atom_site_fract_x
_atom_site_fract_y
_atom_site_fract_z
Si Si1 0.738869 0.882996 0.021121
Si Si2 0.864840 0.882736 0.145592
Si Si3 0.578120 0.204790 0.596933
Si Si4 0.998636 0.885145 0.260382
Si Si5 0.959313 0.385697 0.242105
Si Si6 0.324079 0.118013 0.790154
Si Si7 0.162173 0.201826 0.699860
O O1 0.859929 0.851752 0.877591
O O2 0.747452 0.000000 0.014974
O O3 0.605831 0.861530 0.111518
O O4 0.736764 0.852746 0.092185
O O5 0.762924 0.856609 0.187187
O O6 0.842611 0.833521 0.228644
O O7 0.860889 0.000000 0.156916
O O8 0.000000 0.857685 0.000000
O O9 0.558771 0.314561 0.638692
O O10 0.584422 0.139517 0.651533
O O11 0.457531 0.168028 0.669843
O O12 0.701172 0.195857 0.449255
O O13 0.925300 0.863683 0.264721
O O14 0.993747 0.000000 0.278771
O O15 0.942668 0.500000 0.244885
O O16 0.888078 0.311828 0.263208
O O17 0.339747 0.000000 0.777254
#
# Coordination Sequence:
#
# PCOD9179371 Si02
#       7
#     8   8   8   8   8   8   8
#     4   8  15  29  50  75  98 125 161 198 243 294
#     4  10  21  36  54  76  99 126 163 206 252 296
#     4  10  21  32  47  75 102 132 171 199 236 298
#     4  10  19  31  49  75 106 132 158 201 251 295
#     4   9  18  33  52  74 102 132 164 204 248 294
#     4   9  18  33  51  70  98 131 162 203 246 286
#     4  11  22  32  48  75 102 132 168 202 241 295
#
# _framework density 16.779762000000002
#
# number of rings (size 3 to 8) (size 9 to 14) (size 15 to 20)
#    0.000    2.429    0.000    4.286    0.000   13.143 
#    0.000    1.429    0.000    1.286    0.000    2.000 
#    0.000    0.000    0.000    0.000    0.000    0.000 
#
# Total GULP energy -156235.011156 kJ/mol
# GULP energy per Si atom -5579.821827 kJ/mol
# Density = 1.674157 g / cm^3
# Si number density = 16.779762 Si / 1000 Ang^3
#
#
#
# Elastic Constant Matrix: (Units=GPa)
#
#
# Indices 1 2 3 4 5 6 
#
# 1 75.3090 12.5303 18.3374 0.0001 -4.6911 -0.0001
# 2 12.5303 65.7897 3.6863 0.0001 -2.9099 -0.0001
# 3 18.3374 3.6863 91.7138 0.0000 -5.4932 -0.0001
# 4 0.0001 0.0001 0.0000 21.2510 0.0000 -4.9114
# 5 -4.6911 -2.9099 -5.4932 0.0000 11.9269 0.0001
# 6 -0.0001 -0.0001 -0.0001 -4.9114 0.0001 27.4498
#
#
#
# Elastic Compliance Matrix: (Units=1/GPa)
#
#
# Indices 1 2 3 4 5 6 
#
# 1 0.014560 -0.002454 -0.002576 0.000000 0.003941 0.000000
# 2 -0.002454 0.015794 0.000030 0.000000 0.002902 0.000000
# 3 -0.002576 0.000030 0.011679 0.000000 0.004373 0.000000
# 4 0.000000 0.000000 0.000000 0.049086 0.000000 0.008783
# 5 0.003941 0.002902 0.004373 0.000000 0.088117 0.000000
# 6 0.000000 0.000000 0.000000 0.008783 0.000000 0.038002
#
#
# Mechanical properties :
#
#
# Convention : Reuss Voigt Hill
#
# Bulk Modulus (GPa) = 31.21961 33.54671 32.38316
# Shear Modulus (GPa) = 21.01572 25.34276 23.17924
#
# Velocity S-wave (km/s) = 3.54283 3.89050 3.72073
# Velocity P-wave (km/s) = 5.94823 6.34169 6.14811
#
# Compressibility (1/GPa) = 0.03203115
#
# Stress axis : x y z
#
# Youngs Moduli (GPa) = 68.68198 63.31484 85.62119
#
# Poissons Ratio (x) = 0.15540 0.22060
# Poissons Ratio (y) = 0.16857 -0.00254
# Poissons Ratio (z) = 0.17695 -0.00188
#
# Static dielectric constant tensor:
#      x y z
#    x 1.545250 0.000000 -0.024330 
#    y 0.000000 1.587920 0.000000 
#    z -0.024330 0.000000 1.570230 
# 
# From -- ./inp_files/284533.got.cif
#   From: 2010.05.17/outbox.cif.g08.bks.cpg/sg12_143_cif.got.tgz:284533.got - 2010.06.03 13:09:07.
