data_PCOD9179033
_publ_section_title
;
Structure prediction by ZEFSAII (Michael W. Deem and Ramdas Pophale) SiO2 
 PCOD9179033
Probable space group: C 2/M
;
_chemical_formula_sum "Si O2"
_cell_formula_units_Z 56
_cell_length_a 15.860316
_cell_length_b 9.328734
_cell_length_c 25.566229
_cell_angle_alpha 90.000000
_cell_angle_beta 140.740483
_cell_angle_gamma 90.000000
_cell_volume 2393.817235
_symmetry_space_group_name_H-M "C 2/M"
_symmetry_group_IT_number 12
_symmetry_cell_setting 'monoclinic'
loop_
_space_group_symop_operation_xyz
x,y,z
-x,y,-z
-x,-y,-z
x,-y,z
1/2+x,1/2+y,z
1/2-x,1/2+y,-z
1/2-x,1/2-y,-z
1/2+x,1/2-y,z
loop_
_atom_site_type_symbol
_atom_site_label
_atom_site_fract_x
_atom_site_fract_y
_atom_site_fract_z
Si Si1 0.476355 0.667599 0.268913
Si Si2 0.069286 0.665495 0.412976
Si Si3 0.234829 0.337277 0.688643
Si Si4 0.820710 0.665249 0.826676
Si Si5 0.847165 0.835543 0.448199
Si Si6 0.103074 0.334961 0.987035
Si Si7 0.132476 0.335194 0.875121
O O1 0.514365 0.500000 0.287655
O O2 0.556369 0.759310 0.350416
O O3 0.321964 0.674853 0.214371
O O4 0.466043 0.738546 0.206920
O O5 0.113639 0.500000 0.432376
O O6 0.148075 0.759625 0.493344
O O7 0.918087 0.662770 0.363602
O O8 0.275647 0.500000 0.700182
O O9 0.315529 0.263505 0.773515
O O10 0.233079 0.252413 0.633631
O O11 0.837273 0.500000 0.817881
O O12 0.948379 0.699330 0.923469
O O13 0.000000 0.836525 0.500000
O O14 0.803994 0.000000 0.430181
O O15 0.133504 0.500000 0.017938
O O16 0.106724 0.331963 0.924880
O O17 0.218601 0.228284 0.059769
O O18 0.124537 0.500000 0.853374
#
# Coordination Sequence:
#
# PCOD9179033 Si02
#       7
#     8   8   8   8   8   8   8
#     4  10  19  31  48  70  97 126 156 192 235 282
#     4   9  16  26  40  61  91 123 156 194 234 274
#     4   9  16  25  39  62  92 123 154 192 236 276
#     4   9  18  32  49  69  94 125 159 194 233 278
#     4   9  15  23  37  58  87 124 161 192 227 274
#     4   9  19  36  54  70  91 122 159 195 232 278
#     4  10  20  34  52  72  94 121 155 195 236 279
#
# _framework density 23.393598999999998
#
# number of rings (size 3 to 8) (size 9 to 14) (size 15 to 20)
#    0.000    2.714    0.000    2.143    0.000    7.429 
#    0.000    2.857    0.000    0.000    0.000    1.000 
#    0.000    0.000    0.000    0.000    0.000    0.000 
#
# Total GULP energy -156734.010841 kJ/mol
# GULP energy per Si atom -5597.643244 kJ/mol
# Density = 2.334035 g / cm^3
# Si number density = 23.393599 Si / 1000 Ang^3
#
#
#
# Elastic Constant Matrix: (Units=GPa)
#
#
# Indices 1 2 3 4 5 6 
#
# 1 93.5793 18.5231 7.1467 0.0000 -4.6454 0.0000
# 2 18.5231 169.1629 86.0113 0.0000 -35.6596 0.0000
# 3 7.1467 86.0113 126.8324 0.0000 -21.7637 0.0000
# 4 0.0000 0.0000 0.0000 42.0377 0.0000 -13.0470
# 5 -4.6454 -35.6596 -21.7637 0.0000 46.4063 0.0000
# 6 0.0000 0.0000 0.0000 -13.0470 0.0000 12.1843
#
#
#
# Elastic Compliance Matrix: (Units=1/GPa)
#
#
# Indices 1 2 3 4 5 6 
#
# 1 0.010932 -0.001304 0.000309 0.000000 0.000237 0.000000
# 2 -0.001304 0.010096 -0.005943 0.000000 0.004841 0.000000
# 3 0.000309 -0.005943 0.012092 0.000000 0.001135 0.000000
# 4 0.000000 0.000000 0.000000 0.035629 0.000000 0.038152
# 5 0.000237 0.004841 0.001135 0.000000 0.025825 0.000000
# 6 0.000000 0.000000 0.000000 0.038152 0.000000 0.122926
#
#
# Mechanical properties :
#
#
# Convention : Reuss Voigt Hill
#
# Bulk Modulus (GPa) = 51.96162 68.10410 60.03286
# Shear Modulus (GPa) = 21.02686 38.65189 29.83937
#
# Velocity S-wave (km/s) = 3.00130 4.06919 3.57534
# Velocity P-wave (km/s) = 5.85410 7.15913 6.53926
#
# Compressibility (1/GPa) = 0.01924497
#
# Stress axis : x y z
#
# Youngs Moduli (GPa) = 91.47078 99.04686 82.70063
#
# Poissons Ratio (x) = 0.12919 -0.02557
# Poissons Ratio (y) = 0.11931 0.49146
# Poissons Ratio (z) = -0.02828 0.58860
#
# Static dielectric constant tensor:
#      x y z
#    x 1.981220 0.000000 0.025990 
#    y 0.000000 1.785310 0.000000 
#    z 0.025990 0.000000 1.823830 
# 
# From -- ./inp_files/280336.got.cif
#   From: 2010.05.17/outbox.cif.g08.bks.cpg/sg12_141_cif.got.tgz:280336.got - 2010.06.03 13:09:07.
