data_PCOD9179563
_publ_section_title
;
Structure prediction by ZEFSAII (Michael W. Deem and Ramdas Pophale) SiO2 
 PCOD9179563
Probable space group: C 2/M
;
_chemical_formula_sum "Si O2"
_cell_formula_units_Z 48
_cell_length_a 20.922746
_cell_length_b 14.425679
_cell_length_c 9.880515
_cell_angle_alpha 90.000000
_cell_angle_beta 141.862502
_cell_angle_gamma 90.000000
_cell_volume 1841.650399
_symmetry_space_group_name_H-M "C 2/M"
_symmetry_group_IT_number 12
_symmetry_cell_setting 'monoclinic'
loop_
_space_group_symop_operation_xyz
x,y,z
-x,y,-z
-x,-y,-z
x,-y,z
1/2+x,1/2+y,z
1/2-x,1/2+y,-z
1/2-x,1/2-y,-z
1/2+x,1/2-y,z
loop_
_atom_site_type_symbol
_atom_site_label
_atom_site_fract_x
_atom_site_fract_y
_atom_site_fract_z
Si Si1 0.388475 0.100526 0.420129
Si Si2 0.278094 0.395987 0.612917
Si Si3 0.086901 0.798824 0.956366
Si Si4 0.715499 0.393632 0.930580
Si Si5 0.389194 0.895201 0.893218
Si Si6 0.926452 0.813077 0.497943
O O1 0.303332 0.099348 0.397639
O O2 0.434821 0.202149 0.508923
O O3 0.442578 0.000000 0.526231
O O4 0.331594 0.102726 0.179726
O O5 0.316206 0.500000 0.650430
O O6 0.205361 0.368947 0.365842
O O7 0.369305 0.335497 0.828885
O O8 0.158794 0.833843 0.952737
O O9 0.974643 0.837305 0.722759
O O10 0.093036 0.688583 0.975838
O O11 0.678570 0.500000 0.870797
O O12 0.684812 0.348875 0.735897
O O13 0.368507 0.000000 0.910188
O O14 0.500000 0.899892 0.000000
O O15 0.000000 0.850570 0.500000
#
# Coordination Sequence:
#
# PCOD9179563 Si02
#       6
#     8   8   8   8   8   8
#     4   9  17  32  52  73 101 134 168 206 248 295
#     4   9  18  33  54  75  97 132 171 207 247 293
#     4  10  19  31  50  76 101 130 166 206 247 292
#     4   9  19  35  54  73  96 132 173 210 246 291
#     4  10  20  34  53  77 103 131 165 204 249 300
#     4  10  20  30  47  76 104 132 165 206 251 296
#
# _framework density 26.063578
#
# number of rings (size 3 to 8) (size 9 to 14) (size 15 to 20)
#    0.000    2.500    0.000    3.500    0.000    6.000 
#    0.000    2.500    0.000    6.000    0.000    4.667 
#    0.000    0.000    0.000    0.000    0.000    0.000 
#
# Total GULP energy -134057.686746 kJ/mol
# GULP energy per Si atom -5585.736948 kJ/mol
# Density = 2.600426 g / cm^3
# Si number density = 26.063578 Si / 1000 Ang^3
#
#
#
# Elastic Constant Matrix: (Units=GPa)
#
#
# Indices 1 2 3 4 5 6 
#
# 1 63.2951 15.3768 7.1393 0.0000 -18.5178 0.0000
# 2 15.3768 138.2996 65.2872 0.0000 -21.8111 0.0000
# 3 7.1393 65.2872 209.4357 0.0000 -35.2725 0.0000
# 4 0.0000 0.0000 0.0000 21.0235 0.0000 -0.9401
# 5 -18.5178 -21.8111 -35.2725 0.0000 19.4032 0.0000
# 6 0.0000 0.0000 0.0000 -0.9401 0.0000 17.0356
#
#
#
# Elastic Compliance Matrix: (Units=1/GPa)
#
#
# Indices 1 2 3 4 5 6 
#
# 1 0.024524 0.000171 0.004446 0.000000 0.031680 0.000000
# 2 0.000171 0.009154 -0.001584 0.000000 0.007573 0.000000
# 3 0.004446 -0.001584 0.007973 0.000000 0.016956 0.000000
# 4 0.000000 0.000000 0.000000 0.047683 0.000000 0.002632
# 5 0.031680 0.007573 0.016956 0.000000 0.121109 0.000000
# 6 0.000000 0.000000 0.000000 0.002632 0.000000 0.058846
#
#
# Mechanical properties :
#
#
# Convention : Reuss Voigt Hill
#
# Bulk Modulus (GPa) = 20.95704 65.18191 43.06948
# Shear Modulus (GPa) = 17.91284 33.04092 25.47688
#
# Velocity S-wave (km/s) = 2.62444 3.56435 3.12988
# Velocity P-wave (km/s) = 4.15232 6.48094 5.44262
#
# Compressibility (1/GPa) = 0.04771666
#
# Stress axis : x y z
#
# Youngs Moduli (GPa) = 40.77567 109.24444 125.42950
#
# Poissons Ratio (x) = -0.01863 -0.55769
# Poissons Ratio (y) = -0.00695 0.19866
# Poissons Ratio (z) = -0.18130 0.17303
#
# Static dielectric constant tensor:
#      x y z
#    x 2.114590 0.000000 0.065550 
#    y 0.000000 1.991070 0.000000 
#    z 0.065550 0.000000 2.102000 
# 
# From -- ./inp_files/189550.got.cif
#   From: 2010.05.17/outbox.cif.g08.bks.cpg/sg12_95_cif.got.tgz:189550.got - 2010.06.03 13:09:07.
