data_PCOD9179066
_publ_section_title
;
Structure prediction by ZEFSAII (Michael W. Deem and Ramdas Pophale) SiO2 
 PCOD9179066
Probable space group: C 2/M
;
_chemical_formula_sum "Si O2"
_cell_formula_units_Z 48
_cell_length_a 7.715410
_cell_length_b 24.968265
_cell_length_c 11.478923
_cell_angle_alpha 90.000000
_cell_angle_beta 76.829839
_cell_angle_gamma 90.000000
_cell_volume 2153.141931
_symmetry_space_group_name_H-M "C 2/M"
_symmetry_group_IT_number 12
_symmetry_cell_setting 'monoclinic'
loop_
_space_group_symop_operation_xyz
x,y,z
-x,y,-z
-x,-y,-z
x,-y,z
1/2+x,1/2+y,z
1/2-x,1/2+y,-z
1/2-x,1/2-y,-z
1/2+x,1/2-y,z
loop_
_atom_site_type_symbol
_atom_site_label
_atom_site_fract_x
_atom_site_fract_y
_atom_site_fract_z
Si Si1 0.751915 0.313173 0.026177
Si Si2 0.367359 0.659682 0.197711
Si Si3 0.219175 0.562008 0.626016
Si Si4 0.602486 0.169738 0.749802
Si Si5 0.367791 0.439079 0.353707
Si Si6 0.032933 0.232386 0.358209
O O1 0.562186 0.330434 0.110373
O O2 0.885680 0.324458 0.112155
O O3 0.750000 0.250000 0.000000
O O4 0.758252 0.337801 0.896513
O O5 0.340391 0.602129 0.256332
O O6 0.384156 0.699459 0.307102
O O7 0.158692 0.500000 0.650162
O O8 0.107047 0.608669 0.704780
O O9 0.423243 0.564519 0.642227
O O10 0.245905 0.573207 0.484642
O O11 0.467802 0.209985 0.705332
O O12 0.791820 0.196091 0.680692
O O13 0.332390 0.500000 0.325608
O O14 0.000000 0.238672 0.500000
#
# Coordination Sequence:
#
# PCOD9179066 Si02
#       6
#     8   8   8   8   8   8
#     4  10  19  32  45  66 103 148 172 207 258 319
#     4  10  19  31  48  71 106 139 174 212 264 317
#     4   9  17  31  53  78 106 141 175 218 274 323
#     4  11  21  35  54  78 111 142 181 216 267 326
#     4   9  16  29  49  74 105 136 170 219 276 320
#     4  11  21  33  51  80 111 137 172 225 273 319
#
# _framework density 22.293002999999999
#
# number of rings (size 3 to 8) (size 9 to 14) (size 15 to 20)
#    0.000    2.000    5.000    2.500    0.000    0.000 
#    0.000    2.500    0.000    0.500    0.000    2.333 
#    0.000    5.333    0.000    0.000    0.000    0.000 
#
# Total GULP energy -134091.139978 kJ/mol
# GULP energy per Si atom -5587.130832 kJ/mol
# Density = 2.224226 g / cm^3
# Si number density = 22.293003 Si / 1000 Ang^3
#
#
#
# Elastic Constant Matrix: (Units=GPa)
#
#
# Indices 1 2 3 4 5 6 
#
# 1 83.7172 13.8060 32.6694 0.0000 23.6550 0.0000
# 2 13.8060 165.3798 108.8850 0.0000 1.7003 0.0000
# 3 32.6694 108.8850 232.9773 0.0000 17.8748 0.0000
# 4 0.0000 0.0000 0.0000 45.4051 0.0000 11.3235
# 5 23.6550 1.7003 17.8748 0.0000 28.2928 0.0000
# 6 0.0000 0.0000 0.0000 11.3235 0.0000 5.1306
#
#
#
# Elastic Compliance Matrix: (Units=1/GPa)
#
#
# Indices 1 2 3 4 5 6 
#
# 1 0.016026 -0.000535 -0.001021 0.000000 -0.012722 0.000000
# 2 -0.000535 0.008879 -0.004276 0.000000 0.002615 0.000000
# 3 -0.001021 -0.004276 0.006672 0.000000 -0.003104 0.000000
# 4 0.000000 0.000000 0.000000 0.048987 0.000000 -0.108115
# 5 -0.012722 0.002615 -0.003104 0.000000 0.047785 0.000000
# 6 0.000000 0.000000 0.000000 -0.108115 0.000000 0.433521
#
#
# Mechanical properties :
#
#
# Convention : Reuss Voigt Hill
#
# Bulk Modulus (GPa) = 50.21444 88.08834 69.15139
# Shear Modulus (GPa) = 8.61814 37.54665 23.08240
#
# Velocity S-wave (km/s) = 1.96831 4.10840 3.22127
# Velocity P-wave (km/s) = 5.26681 7.88067 6.70240
#
# Compressibility (1/GPa) = 0.01991459
#
# Stress axis : x y z
#
# Youngs Moduli (GPa) = 62.39713 112.61977 149.88251
#
# Poissons Ratio (x) = 0.06021 0.15309
# Poissons Ratio (y) = 0.03336 0.64083
# Poissons Ratio (z) = 0.06373 0.48151
#
# Static dielectric constant tensor:
#      x y z
#    x 1.975830 0.000000 0.000840 
#    y 0.000000 1.789310 0.000000 
#    z 0.000840 0.000000 1.795360 
# 
# From -- ./inp_files/134473.got.cif
#   From: 2010.05.17/outbox.cif.g08.bks.cpg/sg12_68_cif.got.tgz:134473.got - 2010.06.03 13:09:07.
