data_PCOD9179289
_publ_section_title
;
Structure prediction by ZEFSAII (Michael W. Deem and Ramdas Pophale) SiO2 
 PCOD9179289
Probable space group: C 2/M
;
_chemical_formula_sum "Si O2"
_cell_formula_units_Z 64
_cell_length_a 14.702830
_cell_length_b 16.572793
_cell_length_c 13.826689
_cell_angle_alpha 90.000000
_cell_angle_beta 51.269869
_cell_angle_gamma 90.000000
_cell_volume 2628.245597
_symmetry_space_group_name_H-M "C 2/M"
_symmetry_group_IT_number 12
_symmetry_cell_setting 'monoclinic'
loop_
_space_group_symop_operation_xyz
x,y,z
-x,y,-z
-x,-y,-z
x,-y,z
1/2+x,1/2+y,z
1/2-x,1/2+y,-z
1/2-x,1/2-y,-z
1/2+x,1/2-y,z
loop_
_atom_site_type_symbol
_atom_site_label
_atom_site_fract_x
_atom_site_fract_y
_atom_site_fract_z
Si Si1 0.112878 0.246579 0.604587
Si Si2 0.754145 0.357607 0.766897
Si Si3 0.384926 0.409057 0.511593
Si Si4 0.461649 0.091500 0.900590
Si Si5 0.488638 0.595161 0.119403
Si Si6 0.999804 0.409835 0.360407
Si Si7 0.777381 0.155879 0.987860
Si Si8 0.822087 0.311672 0.245295
O O1 0.250000 0.250000 0.500000
O O2 0.079947 0.159038 0.589224
O O3 0.102096 0.263299 0.724557
O O4 0.065612 0.324867 0.579577
O O5 0.649305 0.393308 0.773088
O O6 0.878259 0.397433 0.665097
O O7 0.735392 0.374720 0.893167
O O8 0.747298 0.260006 0.761831
O O9 0.500000 0.414707 0.500000
O O10 0.357365 0.500000 0.494660
O O11 0.272835 0.372269 0.643985
O O12 0.480308 0.092933 0.769868
O O13 0.327130 0.117368 0.003325
O O14 0.571651 0.139479 0.871704
O O15 0.473063 0.000000 0.920300
O O16 0.514414 0.500000 0.102005
O O17 0.500000 0.627352 0.000000
O O18 0.587470 0.635506 0.120547
O O19 0.952162 0.500000 0.412231
O O20 0.750000 0.250000 0.000000
#
# Coordination Sequence:
#
# PCOD9179289 Si02
#       8
#     8   8   8   8   8   8   8   8
#     4   9  19  33  52  76 100 128 166 212 255 301
#     4  10  19  31  51  75 102 135 169 209 255 308
#     4  10  20  35  55  75  99 136 175 207 246 303
#     4   9  17  30  50  73  95 128 173 213 250 300
#     4   9  17  30  48  70  96 128 167 208 252 306
#     4   9  17  31  52  77 102 130 168 212 257 306
#     4  10  19  31  49  73 101 134 171 210 255 304
#     4  10  19  33  53  75 102 132 167 213 260 304
#
# _framework density 24.350843999999999
#
# number of rings (size 3 to 8) (size 9 to 14) (size 15 to 20)
#    0.000    2.500    0.000    2.625    0.000    6.000 
#    0.000    1.250    0.000   13.125    0.000    0.000 
#    0.000    0.000    0.000    0.000    0.000    0.000 
#
# Total GULP energy -178501.611613 kJ/mol
# GULP energy per Si atom -5578.175363 kJ/mol
# Density = 2.429542 g / cm^3
# Si number density = 24.350844 Si / 1000 Ang^3
#
#
#
# Elastic Constant Matrix: (Units=GPa)
#
#
# Indices 1 2 3 4 5 6 
#
# 1 139.5404 71.8707 36.0906 0.0000 -17.7567 0.0000
# 2 71.8707 154.5331 34.3924 0.0000 -23.5838 0.0000
# 3 36.0906 34.3924 46.7503 0.0000 -14.3178 0.0000
# 4 0.0000 0.0000 0.0000 24.2518 0.0000 -18.5247
# 5 -17.7567 -23.5838 -14.3178 0.0000 34.3398 0.0000
# 6 0.0000 0.0000 0.0000 -18.5247 0.0000 24.8410
#
#
#
# Elastic Compliance Matrix: (Units=1/GPa)
#
#
# Indices 1 2 3 4 5 6 
#
# 1 0.010457 -0.003589 -0.005195 0.000000 0.000777 0.000000
# 2 -0.003589 0.009326 -0.003092 0.000000 0.003260 0.000000
# 3 -0.005195 -0.003092 0.030038 0.000000 0.007715 0.000000
# 4 0.000000 0.000000 0.000000 0.095810 0.000000 0.071448
# 5 0.000777 0.003260 0.007715 0.000000 0.034978 0.000000
# 6 0.000000 0.000000 0.000000 0.071448 0.000000 0.093537
#
#
# Mechanical properties :
#
#
# Convention : Reuss Voigt Hill
#
# Bulk Modulus (GPa) = 38.35828 69.50346 53.93087
# Shear Modulus (GPa) = 16.30863 29.91784 23.11324
#
# Velocity S-wave (km/s) = 2.59073 3.50897 3.08421
# Velocity P-wave (km/s) = 4.97350 6.70981 5.90582
#
# Compressibility (1/GPa) = 0.02606999
#
# Stress axis : x y z
#
# Youngs Moduli (GPa) = 95.62770 107.22946 33.29149
#
# Poissons Ratio (x) = 0.38483 0.17294
# Poissons Ratio (y) = 0.34319 0.10293
# Poissons Ratio (z) = 0.49677 0.33152
#
# Static dielectric constant tensor:
#      x y z
#    x 1.918810 0.000000 -0.016330 
#    y 0.000000 2.169420 0.000000 
#    z -0.016330 0.000000 1.763430 
# 
# From -- ./inp_files/270287.got.cif
#   From: 2010.05.17/outbox.cif.g08.bks.cpg/sg12_136_cif.got.tgz:270287.got - 2010.06.03 13:09:07.
