data_PCOD9179436
_publ_section_title
;
Structure prediction by ZEFSAII (Michael W. Deem and Ramdas Pophale) SiO2 
 PCOD9179436
Probable space group: C 2/M
;
_chemical_formula_sum "Si O2"
_cell_formula_units_Z 44
_cell_length_a 8.323474
_cell_length_b 17.730624
_cell_length_c 14.489022
_cell_angle_alpha 90.000000
_cell_angle_beta 85.652281
_cell_angle_gamma 90.000000
_cell_volume 2132.142202
_symmetry_space_group_name_H-M "C 2/M"
_symmetry_group_IT_number 12
_symmetry_cell_setting 'monoclinic'
loop_
_space_group_symop_operation_xyz
x,y,z
-x,y,-z
-x,-y,-z
x,-y,z
1/2+x,1/2+y,z
1/2-x,1/2+y,-z
1/2-x,1/2-y,-z
1/2+x,1/2-y,z
loop_
_atom_site_type_symbol
_atom_site_label
_atom_site_fract_x
_atom_site_fract_y
_atom_site_fract_z
Si Si1 0.143416 0.201734 0.433544
Si Si2 0.947237 0.323294 0.316524
Si Si3 0.019429 0.916490 0.109090
Si Si4 0.835384 0.614443 0.831469
Si Si5 0.242615 0.713803 0.857014
Si Si6 0.000000 0.363425 0.000000
O O1 0.250000 0.250000 0.500000
O O2 0.285251 0.153427 0.379192
O O3 0.000000 0.164562 0.500000
O O4 0.053595 0.261063 0.367648
O O5 0.867312 0.287937 0.228873
O O6 0.064758 0.386712 0.267985
O O7 0.842659 0.917868 0.161242
O O8 0.122108 0.850744 0.150815
O O9 0.094328 0.000000 0.113936
O O10 0.000000 0.900555 0.000000
O O11 0.810508 0.702971 0.855979
O O12 0.932261 0.588172 0.917579
O O13 0.134687 0.689616 0.948230
#
# Coordination Sequence:
#
# PCOD9179436 Si02
#       6
#     8   8   8   8   8   4
#     4   9  18  32  50  77 124 153 167 214 310 369
#     4  10  19  31  49  83 109 151 180 234 277 346
#     4  11  24  40  53  75 116 165 207 243 291 336
#     4  11  21  33  55  80 113 148 203 244 285 331
#     4  11  21  33  55  80 113 148 202 243 286 332
#     4  10  20  30  45  78 101 144 192 242 278 322
#
# _framework density 20.636520999999998
#
# number of rings (size 3 to 8) (size 9 to 14) (size 15 to 20)
#    0.000    1.636    3.636    2.727    2.545    0.000 
#    0.000    4.545    0.000    0.000    0.000    0.000 
#    0.000   61.091    0.000    0.000    0.000    0.000 
#
# Total GULP energy -122642.454535 kJ/mol
# GULP energy per Si atom -5574.657024 kJ/mol
# Density = 2.058955 g / cm^3
# Si number density = 20.636521 Si / 1000 Ang^3
#
#
#
# Elastic Constant Matrix: (Units=GPa)
#
#
# Indices 1 2 3 4 5 6 
#
# 1 115.8946 27.7074 47.9839 0.0000 -18.2931 0.0000
# 2 27.7074 82.3521 3.1519 0.0000 10.2628 0.0000
# 3 47.9839 3.1519 108.3126 0.0000 -24.4620 0.0000
# 4 0.0000 0.0000 0.0000 -5.1286 0.0000 -7.6556
# 5 -18.2931 10.2628 -24.4620 0.0000 70.7461 0.0000
# 6 0.0000 0.0000 0.0000 -7.6556 0.0000 -0.7155
#
#
#
# Elastic Compliance Matrix: (Units=1/GPa)
#
#
# Indices 1 2 3 4 5 6 
#
# 1 0.011857 -0.004065 -0.004674 0.000000 0.002039 0.000000
# 2 -0.004065 0.013829 0.000768 0.000000 -0.002792 0.000000
# 3 -0.004674 0.000768 0.011913 0.000000 0.002799 0.000000
# 4 0.000000 0.000000 0.000000 0.013023 0.000000 -0.139349
# 5 0.002039 -0.002792 0.002799 0.000000 0.016035 0.000000
# 6 0.000000 0.000000 0.000000 -0.139349 0.000000 0.093352
#
#
# Mechanical properties :
#
#
# Convention : Reuss Voigt Hill
#
# Bulk Modulus (GPa) = 46.17324 51.58286 48.87805
# Shear Modulus (GPa) = 27.29680 28.16148 27.72914
#
# Velocity S-wave (km/s) = 3.64090 3.69811 3.66962
# Velocity P-wave (km/s) = 6.33229 6.57913 6.45689
#
# Compressibility (1/GPa) = 0.02165757
#
# Stress axis : x y z
#
# Youngs Moduli (GPa) = 84.33528 72.31144 83.94136
#
# Poissons Ratio (x) = 0.29393 0.39235
# Poissons Ratio (y) = 0.34280 -0.06445
# Poissons Ratio (z) = 0.39419 -0.05552
#
# Static dielectric constant tensor:
#      x y z
#    x 1.817320 0.000000 -0.054860 
#    y 0.000000 1.698030 0.000000 
#    z -0.054860 0.000000 1.832230 
# 
# From -- ./inp_files/196440.got.cif
#   From: 2010.05.17/outbox.cif.g08.bks.cpg/sg12_99_cif.got.tgz:196440.got - 2010.06.03 13:09:07.
