data_PCOD9179835
_publ_section_title
;
Structure prediction by ZEFSAII (Michael W. Deem and Ramdas Pophale) SiO2 
 PCOD9179835
Probable space group: C 2/M
;
_chemical_formula_sum "Si O2"
_cell_formula_units_Z 40
_cell_length_a 13.150445
_cell_length_b 22.815778
_cell_length_c 14.831292
_cell_angle_alpha 90.000000
_cell_angle_beta 150.507050
_cell_angle_gamma 90.000000
_cell_volume 2190.781555
_symmetry_space_group_name_H-M "C 2/M"
_symmetry_group_IT_number 12
_symmetry_cell_setting 'monoclinic'
loop_
_space_group_symop_operation_xyz
x,y,z
-x,y,-z
-x,-y,-z
x,-y,z
1/2+x,1/2+y,z
1/2-x,1/2+y,-z
1/2-x,1/2-y,-z
1/2+x,1/2-y,z
loop_
_atom_site_type_symbol
_atom_site_label
_atom_site_fract_x
_atom_site_fract_y
_atom_site_fract_z
Si Si1 0.440611 0.264170 0.712184
Si Si2 0.746030 0.566441 0.974481
Si Si3 0.627124 0.814297 0.007944
Si Si4 0.683463 0.612550 0.306825
Si Si5 0.618373 0.069830 0.715455
O O1 0.250000 0.250000 0.500000
O O2 0.503115 0.211713 0.826862
O O3 0.379349 0.320461 0.725146
O O4 0.649215 0.282487 0.820010
O O5 0.800391 0.500000 0.991484
O O6 0.832789 0.616885 0.977389
O O7 0.824646 0.578673 0.136897
O O8 0.499461 0.574046 0.792306
O O9 0.500000 0.803475 0.000000
O O10 0.720435 0.597189 0.230874
O O11 0.897839 0.597683 0.521487
O O12 0.611031 0.000000 0.692706
#
# Coordination Sequence:
#
# PCOD9179835 Si02
#       5
#     8   8   8   8   8
#     4  10  22  39  58  80 110 146 181 222 274 325
#     4  10  20  35  54  75 106 144 179 220 269 317
#     4  10  23  39  56  82 110 139 183 229 266 320
#     4  10  19  31  52  79 108 140 176 219 267 322
#     4  10  19  31  51  81 112 139 174 219 268 324
#
# _framework density 18.258324000000002
#
# number of rings (size 3 to 8) (size 9 to 14) (size 15 to 20)
#    0.000    2.000    0.000    4.200    0.000   10.800 
#    0.000    0.000    0.000    0.000    0.000   11.200 
#    0.000    0.000    0.000    0.000    0.000    0.000 
#
# Total GULP energy -111693.802556 kJ/mol
# GULP energy per Si atom -5584.690128 kJ/mol
# Density = 1.821677 g / cm^3
# Si number density = 18.258324 Si / 1000 Ang^3
#
#
#
# Elastic Constant Matrix: (Units=GPa)
#
#
# Indices 1 2 3 4 5 6 
#
# 1 94.1075 42.1833 41.1514 0.0000 19.4801 0.0000
# 2 42.1833 87.2857 27.8998 0.0000 10.2372 0.0000
# 3 41.1514 27.8998 99.9580 -0.0001 10.4501 0.0001
# 4 0.0000 0.0000 -0.0001 15.5770 0.0000 -2.9286
# 5 19.4801 10.2372 10.4501 0.0000 15.9604 0.0000
# 6 0.0000 0.0000 0.0001 -2.9286 0.0000 12.3651
#
#
#
# Elastic Compliance Matrix: (Units=1/GPa)
#
#
# Indices 1 2 3 4 5 6 
#
# 1 0.018327 -0.005608 -0.004312 0.000000 -0.015948 0.000000
# 2 -0.005608 0.014892 -0.001680 0.000000 -0.001607 0.000000
# 3 -0.004312 -0.001680 0.012437 0.000000 -0.001802 0.000000
# 4 0.000000 0.000000 0.000000 0.067189 0.000000 0.015914
# 5 -0.015948 -0.001607 -0.001802 0.000000 0.084331 0.000000
# 6 0.000000 0.000000 0.000000 0.015914 0.000000 0.084642
#
#
# Mechanical properties :
#
#
# Convention : Reuss Voigt Hill
#
# Bulk Modulus (GPa) = 44.53279 55.98002 50.25641
# Shear Modulus (GPa) = 15.99981 20.12162 18.06072
#
# Velocity S-wave (km/s) = 2.96345 3.32332 3.14853
# Velocity P-wave (km/s) = 6.01272 6.74185 6.38769
#
# Compressibility (1/GPa) = 0.02245536
#
# Stress axis : x y z
#
# Youngs Moduli (GPa) = 54.56476 67.14844 80.40641
#
# Poissons Ratio (x) = 0.37658 0.34674
# Poissons Ratio (y) = 0.30601 0.13507
# Poissons Ratio (z) = 0.23530 0.11280
#
# Static dielectric constant tensor:
#      x y z
#    x 1.600530 0.000000 0.000600 
#    y 0.000000 1.635770 0.000000 
#    z 0.000600 0.000000 1.622400 
# 
# From -- ./inp_files/208540.got.cif
#   From: 2010.05.17/outbox.cif.g08.bks.cpg/sg12_105_cif.got.tgz:208540.got - 2010.06.03 13:09:07.
