data_PCOD9179501
_publ_section_title
;
Structure prediction by ZEFSAII (Michael W. Deem and Ramdas Pophale) SiO2 
 PCOD9179501
Probable space group: C 2/M
;
_chemical_formula_sum "Si O2"
_cell_formula_units_Z 56
_cell_length_a 28.183374
_cell_length_b 14.032794
_cell_length_c 9.583001
_cell_angle_alpha 90.000000
_cell_angle_beta 120.469387
_cell_angle_gamma 90.000000
_cell_volume 3266.597729
_symmetry_space_group_name_H-M "C 2/M"
_symmetry_group_IT_number 12
_symmetry_cell_setting 'monoclinic'
loop_
_space_group_symop_operation_xyz
x,y,z
-x,y,-z
-x,-y,-z
x,-y,z
1/2+x,1/2+y,z
1/2-x,1/2+y,-z
1/2-x,1/2-y,-z
1/2+x,1/2-y,z
loop_
_atom_site_type_symbol
_atom_site_label
_atom_site_fract_x
_atom_site_fract_y
_atom_site_fract_z
Si Si1 0.456748 0.609339 0.704706
Si Si2 0.613667 0.284762 0.191452
Si Si3 0.084125 0.108643 0.874386
Si Si4 0.746178 0.733445 0.828696
Si Si5 0.317058 0.888759 0.737738
Si Si6 0.726177 0.611922 0.358619
Si Si7 0.859359 0.108298 0.339173
O O1 0.452398 0.500000 0.751320
O O2 0.437998 0.681644 0.795881
O O3 0.519270 0.622489 0.749256
O O4 0.412614 0.619868 0.515697
O O5 0.630591 0.175039 0.225343
O O6 0.667783 0.344533 0.319739
O O7 0.603516 0.317517 0.018472
O O8 0.119464 0.115703 0.787545
O O9 0.090637 0.000000 0.938771
O O10 0.791494 0.659106 0.838095
O O11 0.755775 0.828264 0.750770
O O12 0.687610 0.685411 0.706752
O O13 0.750000 0.750000 0.000000
O O14 0.271032 0.876279 0.547821
O O15 0.328173 0.000000 0.770741
O O16 0.720345 0.500000 0.320011
O O17 0.837757 0.000000 0.330483
#
# Coordination Sequence:
#
# PCOD9179501 Si02
#       7
#     8   8   8   8   8   8   8
#     4  10  19  31  50  74  98 127 162 199 242 293
#     4  11  19  31  51  73  97 125 160 200 246 290
#     4  10  20  32  47  72 102 128 158 199 246 294
#     4  11  21  32  50  77 105 131 164 202 246 296
#     4  10  21  36  52  71  99 133 169 205 241 290
#     4  10  20  34  51  73 101 133 167 202 242 295
#     4  10  19  32  49  69  99 135 164 193 236 292
#
# _framework density 17.143219999999999
#
# number of rings (size 3 to 8) (size 9 to 14) (size 15 to 20)
#    0.000    1.714    0.000    7.714    0.000    7.429 
#    0.000    0.000    0.000    1.714    0.000    0.000 
#    0.000    6.857    0.000    0.000    0.000    0.000 
#
# Total GULP energy -156386.740055 kJ/mol
# GULP energy per Si atom -5585.240716 kJ/mol
# Density = 1.710420 g / cm^3
# Si number density = 17.143220 Si / 1000 Ang^3
#
#
#
# Elastic Constant Matrix: (Units=GPa)
#
#
# Indices 1 2 3 4 5 6 
#
# 1 35.2760 9.1542 -12.5838 0.0000 3.4280 0.0000
# 2 9.1542 90.1644 13.4409 0.0000 -0.1523 0.0000
# 3 -12.5838 13.4409 45.8350 0.0000 -5.4326 0.0000
# 4 0.0000 0.0000 0.0000 19.8669 0.0000 1.9807
# 5 3.4280 -0.1523 -5.4326 0.0000 28.8245 0.0000
# 6 0.0000 0.0000 0.0000 1.9807 0.0000 14.9606
#
#
#
# Elastic Compliance Matrix: (Units=1/GPa)
#
#
# Indices 1 2 3 4 5 6 
#
# 1 0.033554 -0.004964 0.010425 0.000000 -0.002052 0.000000
# 2 -0.004964 0.012342 -0.005017 0.000000 -0.000290 0.000000
# 3 0.010425 -0.005017 0.026594 0.000000 0.003746 0.000000
# 4 0.000000 0.000000 0.000000 0.051008 0.000000 -0.006753
# 5 -0.002052 -0.000290 0.003746 0.000000 0.035641 0.000000
# 6 0.000000 0.000000 0.000000 -0.006753 0.000000 0.067736
#
#
# Mechanical properties :
#
#
# Convention : Reuss Voigt Hill
#
# Bulk Modulus (GPa) = 13.62793 21.25536 17.44165
# Shear Modulus (GPa) = 19.96419 23.48135 21.72277
#
# Velocity S-wave (km/s) = 3.41626 3.70498 3.56355
# Velocity P-wave (km/s) = 4.85055 5.54330 5.20845
#
# Compressibility (1/GPa) = 0.07337873
#
# Stress axis : x y z
#
# Youngs Moduli (GPa) = 29.80254 81.02292 37.60177
#
# Poissons Ratio (x) = 0.40221 -0.39199
# Poissons Ratio (y) = 0.14795 0.18863
# Poissons Ratio (z) = -0.31068 0.40646
#
# Static dielectric constant tensor:
#      x y z
#    x 1.579190 0.000000 -0.003400 
#    y 0.000000 1.573450 0.000000 
#    z -0.003400 0.000000 1.597980 
# 
# From -- ./inp_files/103998.got.cif
#   From: 2010.05.17/outbox.cif.g08.bks.cpg/sg12_52_cif.got.tgz:103998.got - 2010.06.03 13:09:07.
