data_PCOD9179198
_publ_section_title
;
Structure prediction by ZEFSAII (Michael W. Deem and Ramdas Pophale) SiO2 
 PCOD9179198
Probable space group: C 2/M
;
_chemical_formula_sum "Si O2"
_cell_formula_units_Z 64
_cell_length_a 15.006296
_cell_length_b 7.511719
_cell_length_c 27.510286
_cell_angle_alpha 90.000000
_cell_angle_beta 102.414250
_cell_angle_gamma 90.000000
_cell_volume 3028.538131
_symmetry_space_group_name_H-M "C 2/M"
_symmetry_group_IT_number 12
_symmetry_cell_setting 'monoclinic'
loop_
_space_group_symop_operation_xyz
x,y,z
-x,y,-z
-x,-y,-z
x,-y,z
1/2+x,1/2+y,z
1/2-x,1/2+y,-z
1/2-x,1/2-y,-z
1/2+x,1/2-y,z
loop_
_atom_site_type_symbol
_atom_site_label
_atom_site_fract_x
_atom_site_fract_y
_atom_site_fract_z
Si Si1 0.680816 0.707984 0.595534
Si Si2 0.452862 0.286956 0.134247
Si Si3 0.427346 0.281780 0.324763
Si Si4 0.836137 0.287110 0.863045
Si Si5 0.776720 0.786865 0.058195
Si Si6 0.099194 0.784987 0.489541
Si Si7 0.381699 0.284940 0.618632
Si Si8 0.839900 0.782462 0.214550
O O1 0.656293 0.500000 0.588459
O O2 0.615914 0.781836 0.629588
O O3 0.668538 0.780977 0.539388
O O4 0.783689 0.725193 0.624961
O O5 0.446860 0.500000 0.134182
O O6 0.558266 0.248677 0.135650
O O7 0.377629 0.222118 0.086110
O O8 0.412716 0.226917 0.181658
O O9 0.423912 0.500000 0.324557
O O10 0.532986 0.228849 0.338941
O O11 0.372430 0.221912 0.271155
O O12 0.828529 0.500000 0.862922
O O13 0.797366 0.221677 0.910669
O O14 0.760951 0.224857 0.814664
O O15 0.778717 0.000000 0.062980
O O16 0.750000 0.750000 0.000000
O O17 0.108662 0.718103 0.435916
O O18 0.000000 0.745076 0.500000
O O19 0.106478 0.000000 0.486308
O O20 0.382323 0.500000 0.617631
O O21 0.839711 0.000000 0.215376
#
# Coordination Sequence:
#
# PCOD9179198 Si02
#       8
#     8   8   8   8   8   8   8   8
#     4  10  19  31  49  71  94 122 157 195 236 284
#     4   9  18  33  52  73  98 129 164 200 239 283
#     4   9  17  31  51  71  92 125 163 194 233 289
#     4   9  18  33  52  73  98 129 164 200 239 283
#     4   9  19  34  50  72 103 135 164 197 237 281
#     4   9  15  28  49  68  89 122 161 193 224 280
#     4  10  19  31  49  71  94 122 157 195 236 284
#     4   8  16  32  51  70  95 126 161 200 239 283
#
# _framework density 21.132308999999999
#
# number of rings (size 3 to 8) (size 9 to 14) (size 15 to 20)
#    0.000    2.875    1.250    1.875    0.000    2.500 
#    0.000    5.000    0.000    2.250    0.000    0.000 
#    0.000    0.000    0.000    0.000    0.000    0.000 
#
# Total GULP energy -178470.662813 kJ/mol
# GULP energy per Si atom -5577.208213 kJ/mol
# Density = 2.108421 g / cm^3
# Si number density = 21.132309 Si / 1000 Ang^3
#
#
#
# Elastic Constant Matrix: (Units=GPa)
#
#
# Indices 1 2 3 4 5 6 
#
# 1 126.2328 -3.6961 36.6106 0.0000 18.7739 0.0000
# 2 -3.6961 52.4595 6.3814 0.0000 0.2734 0.0000
# 3 36.6106 6.3814 111.5115 0.0000 25.7038 0.0000
# 4 0.0000 0.0000 0.0000 1.5451 0.0000 3.1258
# 5 18.7739 0.2734 25.7038 0.0000 18.9880 0.0000
# 6 0.0000 0.0000 0.0000 3.1258 0.0000 21.6035
#
#
#
# Elastic Compliance Matrix: (Units=1/GPa)
#
#
# Indices 1 2 3 4 5 6 
#
# 1 0.009471 0.000882 -0.001451 0.000000 -0.007412 0.000000
# 2 0.000882 0.019319 -0.001643 0.000000 0.001073 0.000000
# 3 -0.001451 -0.001643 0.013376 0.000000 -0.016647 0.000000
# 4 0.000000 0.000000 0.000000 0.915013 0.000000 -0.132392
# 5 -0.007412 0.001073 -0.016647 0.000000 0.082513 0.000000
# 6 0.000000 0.000000 0.000000 -0.132392 0.000000 0.065445
#
#
# Mechanical properties :
#
#
# Convention : Reuss Voigt Hill
#
# Bulk Modulus (GPa) = 26.49556 40.97730 33.73643
# Shear Modulus (GPa) = 4.45577 25.15453 14.80515
#
# Velocity S-wave (km/s) = 1.45365 3.45387 2.64974
# Velocity P-wave (km/s) = 3.92207 5.94462 5.03593
#
# Compressibility (1/GPa) = 0.03774217
#
# Stress axis : x y z
#
# Youngs Moduli (GPa) = 105.58524 51.76330 74.76351
#
# Poissons Ratio (x) = -0.04568 0.10851
# Poissons Ratio (y) = -0.09318 0.12280
# Poissons Ratio (z) = 0.15325 0.08502
#
# Static dielectric constant tensor:
#      x y z
#    x 1.753460 0.000000 0.013790 
#    y 0.000000 1.834310 0.000000 
#    z 0.013790 0.000000 1.759660 
# 
# From -- ./inp_files/359881.got.cif
#   From: 2010.05.17/outbox.cif.g08.bks.cpg/sg12_180_cif.got.tgz:359881.got - 2010.06.03 13:09:07.
