data_PCOD9179338
_publ_section_title
;
Structure prediction by ZEFSAII (Michael W. Deem and Ramdas Pophale) SiO2 
 PCOD9179338
Probable space group: C 2/M
;
_chemical_formula_sum "Si O2"
_cell_formula_units_Z 48
_cell_length_a 22.977008
_cell_length_b 9.142305
_cell_length_c 14.176298
_cell_angle_alpha 90.000000
_cell_angle_beta 102.525259
_cell_angle_gamma 90.000000
_cell_volume 2907.040207
_symmetry_space_group_name_H-M "C 2/M"
_symmetry_group_IT_number 12
_symmetry_cell_setting 'monoclinic'
loop_
_space_group_symop_operation_xyz
x,y,z
-x,y,-z
-x,-y,-z
x,-y,z
1/2+x,1/2+y,z
1/2-x,1/2+y,-z
1/2-x,1/2-y,-z
1/2+x,1/2-y,z
loop_
_atom_site_type_symbol
_atom_site_label
_atom_site_fract_x
_atom_site_fract_y
_atom_site_fract_z
Si Si1 0.478705 0.326544 0.213087
Si Si2 0.067464 0.668492 0.981985
Si Si3 0.047142 0.324771 0.598095
Si Si4 0.611533 0.673684 0.177802
Si Si5 0.298105 0.174122 0.649088
Si Si6 0.823383 0.326035 0.440782
O O1 0.468373 0.500000 0.209491
O O2 0.437874 0.249764 0.119536
O O3 0.467017 0.257819 0.310608
O O4 0.547537 0.301896 0.206401
O O5 0.085989 0.500000 0.977894
O O6 0.106360 0.752719 0.073232
O O7 0.000000 0.668994 0.000000
O O8 0.042617 0.500000 0.612187
O O9 0.113477 0.292376 0.584161
O O10 0.000000 0.286000 0.500000
O O11 0.620319 0.500000 0.172480
O O12 0.662253 0.746683 0.258927
O O13 0.231105 0.236112 0.622132
O O14 0.324507 0.204060 0.553529
O O15 0.298503 0.000000 0.663805
O O16 0.811692 0.500000 0.426092
#
# Coordination Sequence:
#
# PCOD9179338 Si02
#       6
#     8   8   8   8   8   8
#     4  10  20  32  48  73 104 134 163 201 248 293
#     4   9  17  30  49  72  98 129 165 203 243 290
#     4  10  20  34  52  73 100 134 168 201 240 291
#     4  10  19  31  49  74 103 131 162 203 249 293
#     4  10  19  32  52  74  97 128 167 208 246 290
#     4   9  19  34  50  71 100 132 165 203 247 290
#
# _framework density 16.51164
#
# number of rings (size 3 to 8) (size 9 to 14) (size 15 to 20)
#    0.000    2.333    0.000    3.000    0.000    7.000 
#    0.000    0.000    0.000    1.000    0.000    0.000 
#    0.000    0.000    0.000    0.000    0.000    0.000 
#
# Total GULP energy -133922.280876 kJ/mol
# GULP energy per Si atom -5580.095036 kJ/mol
# Density = 1.647406 g / cm^3
# Si number density = 16.511640 Si / 1000 Ang^3
#
#
#
# Elastic Constant Matrix: (Units=GPa)
#
#
# Indices 1 2 3 4 5 6 
#
# 1 64.7419 62.6593 72.1924 0.0000 5.2105 0.0000
# 2 62.6593 97.9110 100.7406 0.0000 11.9956 0.0000
# 3 72.1924 100.7406 181.2125 0.0000 17.6851 0.0000
# 4 0.0000 0.0000 0.0000 33.2813 0.0000 0.2993
# 5 5.2105 11.9956 17.6851 0.0000 28.0314 0.0000
# 6 0.0000 0.0000 0.0000 0.2993 0.0000 21.5857
#
#
#
# Elastic Compliance Matrix: (Units=1/GPa)
#
#
# Indices 1 2 3 4 5 6 
#
# 1 0.042498 -0.023095 -0.004566 0.000000 0.004865 0.000000
# 2 -0.023095 0.036515 -0.010648 0.000000 -0.004615 0.000000
# 3 -0.004566 -0.010648 0.013565 0.000000 -0.003153 0.000000
# 4 0.000000 0.000000 0.000000 0.030051 0.000000 -0.000417
# 5 0.004865 -0.004615 -0.003153 0.000000 0.038734 0.000000
# 6 0.000000 0.000000 0.000000 -0.000417 0.000000 0.046333
#
#
# Mechanical properties :
#
#
# Convention : Reuss Voigt Hill
#
# Bulk Modulus (GPa) = 62.66217 90.56111 76.61164
# Shear Modulus (GPa) = 17.26312 23.79790 20.53051
#
# Velocity S-wave (km/s) = 3.23695 3.80054 3.53001
# Velocity P-wave (km/s) = 7.21132 8.61537 7.94443
#
# Compressibility (1/GPa) = 0.01595859
#
# Stress axis : x y z
#
# Youngs Moduli (GPa) = 23.53028 27.38608 73.71926
#
# Poissons Ratio (x) = 0.63248 0.33663
# Poissons Ratio (y) = 0.54343 0.78500
# Poissons Ratio (z) = 0.10745 0.29162
#
# Static dielectric constant tensor:
#      x y z
#    x 1.531870 0.000000 -0.000840 
#    y 0.000000 1.549270 0.000000 
#    z -0.000840 0.000000 1.530410 
# 
# From -- ./inp_files/172174.got.cif
#   From: 2010.05.17/outbox.cif.g08.bks.cpg/sg12_87_cif.got.tgz:172174.got - 2010.06.03 13:09:07.
