data_PCOD9179121
_publ_section_title
;
Structure prediction by ZEFSAII (Michael W. Deem and Ramdas Pophale) SiO2 
 PCOD9179121
Probable space group: C 2/M
;
_chemical_formula_sum "Si O2"
_cell_formula_units_Z 64
_cell_length_a 25.738163
_cell_length_b 8.929747
_cell_length_c 24.099976
_cell_angle_alpha 90.000000
_cell_angle_beta 46.231147
_cell_angle_gamma 90.000000
_cell_volume 3999.931350
_symmetry_space_group_name_H-M "C 2/M"
_symmetry_group_IT_number 12
_symmetry_cell_setting 'monoclinic'
loop_
_space_group_symop_operation_xyz
x,y,z
-x,y,-z
-x,-y,-z
x,-y,z
1/2+x,1/2+y,z
1/2-x,1/2+y,-z
1/2-x,1/2-y,-z
1/2+x,1/2-y,z
loop_
_atom_site_type_symbol
_atom_site_label
_atom_site_fract_x
_atom_site_fract_y
_atom_site_fract_z
Si Si1 0.302569 0.679753 0.692684
Si Si2 0.053961 0.822071 0.833223
Si Si3 0.377802 0.819982 0.325158
Si Si4 0.441587 0.172822 0.993019
Si Si5 0.031437 0.179982 0.417059
Si Si6 0.169297 0.822143 0.847055
Si Si7 0.273662 0.820079 0.593436
Si Si8 0.581792 0.179397 0.581124
O O1 0.296876 0.500000 0.692198
O O2 0.384424 0.718821 0.648081
O O3 0.244062 0.741564 0.778855
O O4 0.285332 0.753539 0.646016
O O5 0.076519 0.741620 0.760119
O O6 0.117271 0.796037 0.831992
O O7 0.981225 0.756540 0.913575
O O8 0.048284 0.000000 0.829467
O O9 0.298403 0.750054 0.378546
O O10 0.411702 0.777659 0.359340
O O11 0.372657 0.000000 0.326018
O O12 0.426404 0.000000 0.990799
O O13 0.500000 0.174448 0.000000
O O14 0.372466 0.255440 0.069276
O O15 0.000000 0.230324 0.500000
O O16 0.983379 0.247147 0.403898
O O17 0.025498 0.000000 0.419764
O O18 0.178527 0.000000 0.845778
O O19 0.343366 0.782408 0.505070
O O20 0.266358 0.000000 0.602046
O O21 0.574193 0.000000 0.583884
#
# Coordination Sequence:
#
# PCOD9179121 Si02
#       8
#     8   8   8   8   8   8   8   8
#     4  11  21  33  52  76 103 135 173 214 259 308
#     4  10  19  31  48  73 104 137 172 207 251 303
#     4  11  22  35  51  74 104 138 176 214 255 307
#     4   9  17  29  47  71 101 137 171 203 250 303
#     4  10  21  37  55  76  99 131 174 219 265 308
#     4  10  19  31  48  73 105 135 171 211 252 303
#     4  11  21  34  51  74 102 135 174 213 260 309
#     4  10  23  38  53  74 100 135 177 219 262 307
#
# _framework density 16.000274999999998
#
# number of rings (size 3 to 8) (size 9 to 14) (size 15 to 20)
#    0.000    1.750    2.500    2.625    0.000    5.250 
#    0.000    0.000    0.000    0.000    0.000    0.875 
#    0.000    0.000    0.000    0.000    0.000    0.000 
#
# Total GULP energy -178660.685357 kJ/mol
# GULP energy per Si atom -5583.146417 kJ/mol
# Density = 1.596386 g / cm^3
# Si number density = 16.000275 Si / 1000 Ang^3
#
#
#
# Elastic Constant Matrix: (Units=GPa)
#
#
# Indices 1 2 3 4 5 6 
#
# 1 108.2115 47.8550 60.8947 0.0000 -4.4461 0.0000
# 2 47.8550 65.8638 56.8583 0.0011 -9.1139 0.0026
# 3 60.8947 56.8583 115.0675 -0.0003 -24.4949 0.0002
# 4 0.0000 0.0011 -0.0003 28.2752 0.0001 -2.3802
# 5 -4.4461 -9.1139 -24.4949 0.0001 14.8779 0.0001
# 6 0.0000 0.0026 0.0002 -2.3802 0.0001 25.2804
#
#
#
# Elastic Compliance Matrix: (Units=1/GPa)
#
#
# Indices 1 2 3 4 5 6 
#
# 1 0.016060 -0.006595 -0.007819 0.000000 -0.012114 0.000001
# 2 -0.006595 0.029850 -0.011988 -0.000002 -0.003423 -0.000003
# 3 -0.007819 -0.011988 0.025698 0.000001 0.032629 0.000001
# 4 0.000000 -0.000002 0.000001 0.035649 0.000000 0.003356
# 5 -0.012114 -0.003423 0.032629 0.000000 0.115217 0.000000
# 6 0.000001 -0.000003 0.000001 0.003356 0.000000 0.039872
#
#
# Mechanical properties :
#
#
# Convention : Reuss Voigt Hill
#
# Bulk Modulus (GPa) = 53.18177 68.92876 61.05527
# Shear Modulus (GPa) = 15.55598 21.92235 18.73917
#
# Velocity S-wave (km/s) = 3.12145 3.70553 3.42596
# Velocity P-wave (km/s) = 6.80452 7.84100 7.34107
#
# Compressibility (1/GPa) = 0.01880343
#
# Stress axis : x y z
#
# Youngs Moduli (GPa) = 62.26614 33.50047 38.91353
#
# Poissons Ratio (x) = 0.22094 0.30426
# Poissons Ratio (y) = 0.41066 0.46651
# Poissons Ratio (z) = 0.48686 0.40161
#
# Static dielectric constant tensor:
#      x y z
#    x 1.502050 0.000000 -0.005970 
#    y 0.000000 1.534260 0.000000 
#    z -0.005970 0.000000 1.531220 
# 
# From -- ./inp_files/324186.got.cif
#   From: 2010.05.17/outbox.cif.g08.bks.cpg/sg12_163_cif.got.tgz:324186.got - 2010.06.03 13:09:07.
