data_PCOD9179638
_publ_section_title
;
Structure prediction by ZEFSAII (Michael W. Deem and Ramdas Pophale) SiO2 
 PCOD9179638
Probable space group: C 2/M
;
_chemical_formula_sum "Si O2"
_cell_formula_units_Z 64
_cell_length_a 25.738816
_cell_length_b 8.862992
_cell_length_c 14.932437
_cell_angle_alpha 90.000000
_cell_angle_beta 76.144599
_cell_angle_gamma 90.000000
_cell_volume 3307.314825
_symmetry_space_group_name_H-M "C 2/M"
_symmetry_group_IT_number 12
_symmetry_cell_setting 'monoclinic'
loop_
_space_group_symop_operation_xyz
x,y,z
-x,y,-z
-x,-y,-z
x,-y,z
1/2+x,1/2+y,z
1/2-x,1/2+y,-z
1/2-x,1/2-y,-z
1/2+x,1/2-y,z
loop_
_atom_site_type_symbol
_atom_site_label
_atom_site_fract_x
_atom_site_fract_y
_atom_site_fract_z
Si Si1 0.802817 0.679378 0.526911
Si Si2 0.897915 0.171705 0.379342
Si Si3 0.170189 0.831246 0.774949
Si Si4 0.990593 0.676454 0.238212
Si Si5 0.080562 0.676229 0.912966
Si Si6 0.420185 0.680206 0.905010
Si Si7 0.221186 0.823109 0.277775
Si Si8 0.702735 0.318540 0.080023
O O1 0.750000 0.750000 0.500000
O O2 0.857445 0.738318 0.459586
O O3 0.803112 0.730660 0.630099
O O4 0.701624 0.000000 0.479018
O O5 0.865567 0.163217 0.299037
O O6 0.953708 0.250995 0.330552
O O7 0.906045 0.000000 0.407823
O O8 0.132284 0.777581 0.870121
O O9 0.215688 0.708974 0.741549
O O10 0.192153 0.000000 0.781694
O O11 0.999586 0.500000 0.251776
O O12 0.956634 0.688762 0.159306
O O13 0.045551 0.761909 0.193454
O O14 0.094175 0.500000 0.917415
O O15 0.058029 0.738860 0.014847
O O16 0.425453 0.500000 0.910156
O O17 0.357528 0.720780 0.924211
O O18 0.207098 0.774569 0.182818
O O19 0.209042 0.000000 0.293440
O O20 0.708067 0.500000 0.073542
O O21 0.750000 0.250000 0.000000
#
# Coordination Sequence:
#
# PCOD9179638 Si02
#       8
#     8   8   8   8   8   8   8   8
#     4  12  23  36  57  87 121 155 191 235 289 347
#     4  10  20  35  55  82 116 151 185 226 282 342
#     4  10  19  31  50  78 112 147 186 228 278 340
#     4  10  21  36  55  81 113 149 189 233 288 348
#     4  10  20  33  51  78 112 147 187 233 286 343
#     4  11  22  37  56  79 109 145 192 242 289 342
#     4  11  22  37  57  81 114 154 196 239 290 344
#     4  10  24  42  60  84 114 153 197 243 290 341
#
# _framework density 19.351044999999999
#
# number of rings (size 3 to 8) (size 9 to 14) (size 15 to 20)
#    0.000    1.500    1.250    4.500    0.000    8.000 
#    0.000    0.000    0.000    0.750    0.000    5.250 
#    0.000    0.000    0.000    0.000    0.000    0.000 
#
# Total GULP energy -178681.119444 kJ/mol
# GULP energy per Si atom -5583.784983 kJ/mol
# Density = 1.930700 g / cm^3
# Si number density = 19.351045 Si / 1000 Ang^3
#
#
#
# Elastic Constant Matrix: (Units=GPa)
#
#
# Indices 1 2 3 4 5 6 
#
# 1 55.6847 29.0326 39.2929 0.0000 -18.2194 0.0000
# 2 29.0326 101.5001 53.8212 0.0000 -7.4229 0.0000
# 3 39.2929 53.8212 132.2184 0.0000 -28.5355 0.0000
# 4 0.0000 0.0000 0.0000 33.6601 0.0000 -8.7493
# 5 -18.2194 -7.4229 -28.5355 0.0000 30.7539 0.0000
# 6 0.0000 0.0000 0.0000 -8.7493 0.0000 18.1822
#
#
#
# Elastic Compliance Matrix: (Units=1/GPa)
#
#
# Indices 1 2 3 4 5 6 
#
# 1 0.026729 -0.004981 -0.003448 0.000000 0.011433 0.000000
# 2 -0.004981 0.013606 -0.004985 0.000000 -0.004292 0.000000
# 3 -0.003448 -0.004985 0.012400 0.000000 0.008259 0.000000
# 4 0.000000 0.000000 0.000000 0.033956 0.000000 0.016340
# 5 0.011433 -0.004292 0.008259 0.000000 0.045917 0.000000
# 6 0.000000 0.000000 0.000000 0.016340 0.000000 0.062862
#
#
# Mechanical properties :
#
#
# Convention : Reuss Voigt Hill
#
# Bulk Modulus (GPa) = 38.59909 59.29962 48.94935
# Shear Modulus (GPa) = 21.65128 27.66968 24.66048
#
# Velocity S-wave (km/s) = 3.34858 3.78548 3.57371
# Velocity P-wave (km/s) = 5.91107 7.05812 6.50991
#
# Compressibility (1/GPa) = 0.02590735
#
# Stress axis : x y z
#
# Youngs Moduli (GPa) = 37.41209 73.49619 80.64798
#
# Poissons Ratio (x) = 0.36607 0.27811
# Poissons Ratio (y) = 0.18634 0.40200
# Poissons Ratio (z) = 0.12901 0.36635
#
# Static dielectric constant tensor:
#      x y z
#    x 1.695380 0.000000 0.000500 
#    y 0.000000 1.659160 0.000000 
#    z 0.000500 0.000000 1.704000 
# 
# From -- ./inp_files/243791.got.cif
#   From: 2010.05.17/outbox.cif.g08.bks.cpg/sg12_122_cif.got.tgz:243791.got - 2010.06.03 13:09:07.
