data_PCOD9179706
_publ_section_title
;
Structure prediction by ZEFSAII (Michael W. Deem and Ramdas Pophale) SiO2 
 PCOD9179706
Probable space group: C 2/M
;
_chemical_formula_sum "Si O2"
_cell_formula_units_Z 56
_cell_length_a 25.666535
_cell_length_b 7.626198
_cell_length_c 26.871361
_cell_angle_alpha 90.000000
_cell_angle_beta 34.138952
_cell_angle_gamma 90.000000
_cell_volume 2951.780429
_symmetry_space_group_name_H-M "C 2/M"
_symmetry_group_IT_number 12
_symmetry_cell_setting 'monoclinic'
loop_
_space_group_symop_operation_xyz
x,y,z
-x,y,-z
-x,-y,-z
x,-y,z
1/2+x,1/2+y,z
1/2-x,1/2+y,-z
1/2-x,1/2-y,-z
1/2+x,1/2-y,z
loop_
_atom_site_type_symbol
_atom_site_label
_atom_site_fract_x
_atom_site_fract_y
_atom_site_fract_z
Si Si1 0.798158 0.793614 0.083124
Si Si2 0.902866 0.295403 0.097013
Si Si3 0.600841 0.289512 0.609226
Si Si4 0.401917 0.287906 0.800320
Si Si5 0.139048 0.293175 0.761949
Si Si6 0.242442 0.288510 0.586161
Si Si7 0.433124 0.712762 0.888337
O O1 0.829496 0.714072 0.110606
O O2 0.691754 0.765707 0.152905
O O3 0.816133 0.000000 0.073140
O O4 0.862939 0.725895 0.986823
O O5 0.922967 0.500000 0.092161
O O6 0.867345 0.218233 0.177231
O O7 0.000000 0.217821 0.000000
O O8 0.595592 0.500000 0.608597
O O9 0.496444 0.224233 0.699331
O O10 0.662513 0.222693 0.514278
O O11 0.660693 0.251849 0.611413
O O12 0.404471 0.500000 0.798979
O O13 0.403281 0.228822 0.856877
O O14 0.160706 0.500000 0.748986
O O15 0.211759 0.219551 0.664268
O O16 0.036658 0.272976 0.819437
O O17 0.248769 0.500000 0.583981
O O18 0.433225 0.500000 0.888196
#
# Coordination Sequence:
#
# PCOD9179706 Si02
#       7
#     8   8   8   8   8   8   8
#     4  11  23  35  50  73 100 132 170 211 247 287
#     4  10  20  35  53  72  97 132 170 206 246 293
#     4   9  17  30  49  73 102 132 161 196 244 297
#     4  10  20  34  51  71 101 138 167 196 242 302
#     4  10  19  31  51  76 102 131 163 203 246 290
#     4   9  17  29  48  76 103 127 160 202 245 290
#     4  10  20  33  49  73 103 133 163 199 247 296
#
# _framework density 18.971601
#
# number of rings (size 3 to 8) (size 9 to 14) (size 15 to 20)
#    0.000    2.143    2.857    0.857    0.000    2.571 
#    0.000    0.000    0.000    0.857    0.000    6.000 
#    0.000    0.000    0.000    0.000    0.000    0.000 
#
# Total GULP energy -156249.995870 kJ/mol
# GULP energy per Si atom -5580.356995 kJ/mol
# Density = 1.892842 g / cm^3
# Si number density = 18.971601 Si / 1000 Ang^3
#
#
#
# Elastic Constant Matrix: (Units=GPa)
#
#
# Indices 1 2 3 4 5 6 
#
# 1 94.8170 -11.6241 62.9340 -0.0002 22.7934 -0.0108
# 2 -11.6241 34.9520 6.5155 -0.0082 4.0495 -0.0058
# 3 62.9340 6.5155 163.8260 -0.0111 36.6236 -0.0011
# 4 -0.0002 -0.0082 -0.0111 -0.2235 0.0014 -8.0693
# 5 22.7934 4.0495 36.6236 0.0014 26.4117 0.0030
# 6 -0.0108 -0.0058 -0.0011 -8.0693 0.0030 16.0022
#
#
#
# Elastic Compliance Matrix: (Units=1/GPa)
#
#
# Indices 1 2 3 4 5 6 
#
# 1 0.016783 0.007515 -0.004711 -0.000035 -0.009104 -0.000002
# 2 0.007515 0.032499 -0.002341 -0.000093 -0.008221 -0.000029
# 3 -0.004711 -0.002341 0.010171 -0.000022 -0.009678 -0.000013
# 4 -0.000035 -0.000093 -0.000022 -0.232962 0.000100 -0.117474
# 5 -0.009104 -0.008221 -0.009678 0.000100 0.060399 0.000029
# 6 -0.000002 -0.000029 -0.000013 -0.117474 0.000029 0.003253
#
#
# Mechanical properties :
#
#
# Convention : Reuss Voigt Hill
#
# Bulk Modulus (GPa) = 16.56269 45.47178 31.01723
# Shear Modulus (GPa) = -55.15395 24.15605 -15.49895
#
# Velocity S-wave (km/s) = -5.39768 3.57217 -2.86134
# Velocity P-wave (km/s) = 5.48611 6.40580 2.33846
#
# Compressibility (1/GPa) = 0.06037667
#
# Stress axis : x y z
#
# Youngs Moduli (GPa) = 59.58319 30.77047 98.32352
#
# Poissons Ratio (x) = -0.23123 0.46321
# Poissons Ratio (y) = -0.44774 0.23021
# Poissons Ratio (z) = 0.28070 0.07205
#
# Static dielectric constant tensor:
#      x y z
#    x 1.607850 -0.000010 0.030020 
#    y -0.000010 1.706610 0.000010 
#    z 0.030020 0.000010 1.705160 
# 
# From -- ./inp_files/243008.got.cif
#   From: 2010.05.17/outbox.cif.g08.bks.cpg/sg12_122_cif.got.tgz:243008.got - 2010.06.03 13:09:07.
