data_PCOD9179345
_publ_section_title
;
Structure prediction by ZEFSAII (Michael W. Deem and Ramdas Pophale) SiO2 
 PCOD9179345
Probable space group: C 2/M
;
_chemical_formula_sum "Si O2"
_cell_formula_units_Z 48
_cell_length_a 21.468723
_cell_length_b 15.054089
_cell_length_c 5.708495
_cell_angle_alpha 90.000000
_cell_angle_beta 74.326463
_cell_angle_gamma 90.000000
_cell_volume 1776.339190
_symmetry_space_group_name_H-M "C 2/M"
_symmetry_group_IT_number 12
_symmetry_cell_setting 'monoclinic'
loop_
_space_group_symop_operation_xyz
x,y,z
-x,y,-z
-x,-y,-z
x,-y,z
1/2+x,1/2+y,z
1/2-x,1/2+y,-z
1/2-x,1/2-y,-z
1/2+x,1/2-y,z
loop_
_atom_site_type_symbol
_atom_site_label
_atom_site_fract_x
_atom_site_fract_y
_atom_site_fract_z
Si Si1 0.705670 0.000000 0.902155
Si Si2 0.794042 0.500000 0.595866
Si Si3 0.480056 0.600355 0.270476
Si Si4 0.160922 0.148606 0.505320
Si Si5 0.097677 0.656250 0.024432
Si Si6 0.806651 0.815312 0.026747
Si Si7 0.099670 0.654955 0.523020
O O1 0.739619 0.000000 0.118857
O O2 0.657298 0.085320 0.955169
O O3 0.741495 0.000000 0.616734
O O4 0.843577 0.582520 0.540549
O O5 0.500000 0.643436 0.500000
O O6 0.508707 0.500000 0.242183
O O7 0.403067 0.596080 0.358418
O O8 0.500000 0.641590 0.000000
O O9 0.182895 0.125831 0.217697
O O10 0.135774 0.250257 0.498096
O O11 0.205118 0.149210 0.695828
O O12 0.130006 0.753773 0.002919
O O13 0.064978 0.644364 0.309251
O O14 0.064260 0.645407 0.807550
O O15 0.750000 0.750000 0.000000
#
# Coordination Sequence:
#
# PCOD9179345 Si02
#       7
#     4   4   8   8   8   8   8
#     4   8  12  20  34  50  76 111 146 200 230 255
#     4   8  12  20  34  58  86 113 152 188 230 281
#     4  10  21  38  61  86 109 140 188 248 310 363
#     4  10  19  33  53  77 105 138 182 227 282 333
#     4   8  14  23  37  56  84 117 161 201 236 279
#     4  10  19  31  49  74 104 144 179 212 261 335
#     4   8  14  23  39  64  88 121 159 199 247 297
#
# _framework density 27.021868000000001
#
# number of rings (size 3 to 8) (size 9 to 14) (size 15 to 20)
#    0.000    3.000    0.000    1.500    0.000    0.000 
#    0.000    0.000    3.667    0.000    4.333    1.167 
#    0.000    0.000    0.000    0.000    0.000    0.000 
#
# Total GULP energy -134036.665645 kJ/mol
# GULP energy per Si atom -5584.861069 kJ/mol
# Density = 2.696036 g / cm^3
# Si number density = 27.021868 Si / 1000 Ang^3
#
#
#
# Elastic Constant Matrix: (Units=GPa)
#
#
# Indices 1 2 3 4 5 6 
#
# 1 81.4524 7.2904 68.8741 0.0000 16.2179 0.0000
# 2 7.2904 103.4617 25.7928 0.0000 2.1265 0.0000
# 3 68.8741 25.7928 417.8378 0.0000 28.3023 0.0000
# 4 0.0000 0.0000 0.0000 38.6478 0.0000 3.7478
# 5 16.2179 2.1265 28.3023 0.0000 58.5572 0.0000
# 6 0.0000 0.0000 0.0000 3.7478 0.0000 5.5496
#
#
#
# Elastic Compliance Matrix: (Units=1/GPa)
#
#
# Indices 1 2 3 4 5 6 
#
# 1 0.014780 -0.000430 -0.002206 0.000000 -0.003012 0.000000
# 2 -0.000430 0.009829 -0.000537 0.000000 0.000022 0.000000
# 3 -0.002206 -0.000537 0.002840 0.000000 -0.000742 0.000000
# 4 0.000000 0.000000 0.000000 0.027688 0.000000 -0.018698
# 5 -0.003012 0.000022 -0.000742 0.000000 0.018270 0.000000
# 6 0.000000 0.000000 0.000000 -0.018698 0.000000 0.192820
#
#
# Mechanical properties :
#
#
# Convention : Reuss Voigt Hill
#
# Bulk Modulus (GPa) = 47.38395 89.62961 68.50678
# Shear Modulus (GPa) = 17.88222 53.93723 35.90972
#
# Velocity S-wave (km/s) = 2.57528 4.47257 3.64938
# Velocity P-wave (km/s) = 5.13967 7.74036 6.56998
#
# Compressibility (1/GPa) = 0.02110419
#
# Stress axis : x y z
#
# Youngs Moduli (GPa) = 67.65705 101.73753 352.07270
#
# Poissons Ratio (x) = 0.04372 0.77660
# Poissons Ratio (y) = 0.02907 0.18920
# Poissons Ratio (z) = 0.14924 0.05467
#
# Static dielectric constant tensor:
#      x y z
#    x 1.969350 0.000000 -0.107500 
#    y 0.000000 2.095890 0.000000 
#    z -0.107500 0.000000 1.806000 
# 
# From -- ./inp_files/20994.got.cif
#   From: 2010.05.17/outbox.cif.g08.bks.cpg/sg12_11_cif.got.tgz:20994.got - 2010.06.03 13:09:07.
