data_PCOD9179425
_publ_section_title
;
Structure prediction by ZEFSAII (Michael W. Deem and Ramdas Pophale) SiO2 
 PCOD9179425
Probable space group: C 2/M
;
_chemical_formula_sum "Si O2"
_cell_formula_units_Z 64
_cell_length_a 25.903156
_cell_length_b 7.863928
_cell_length_c 15.294500
_cell_angle_alpha 90.000000
_cell_angle_beta 75.652157
_cell_angle_gamma 90.000000
_cell_volume 3018.323069
_symmetry_space_group_name_H-M "C 2/M"
_symmetry_group_IT_number 12
_symmetry_cell_setting 'monoclinic'
loop_
_space_group_symop_operation_xyz
x,y,z
-x,y,-z
-x,-y,-z
x,-y,z
1/2+x,1/2+y,z
1/2-x,1/2+y,-z
1/2-x,1/2-y,-z
1/2+x,1/2-y,z
loop_
_atom_site_type_symbol
_atom_site_label
_atom_site_fract_x
_atom_site_fract_y
_atom_site_fract_z
Si Si1 0.123572 0.791100 0.071798
Si Si2 0.695793 0.294125 0.879887
Si Si3 0.685159 0.300180 0.214890
Si Si4 0.991178 0.196300 0.858792
Si Si5 0.624616 0.801731 0.400982
Si Si6 0.588856 0.301348 0.592878
Si Si7 0.107290 0.791759 0.781157
Si Si8 0.474954 0.198557 0.668678
O O1 0.144584 0.733682 0.157665
O O2 0.063300 0.731128 0.078477
O O3 0.122078 0.000000 0.073233
O O4 0.166166 0.740408 0.981071
O O5 0.698162 0.500000 0.879105
O O6 0.755230 0.228547 0.843456
O O7 0.657498 0.238364 0.816809
O O8 0.675556 0.500000 0.227825
O O9 0.673190 0.220643 0.313950
O O10 0.980874 0.205817 0.758441
O O11 0.050503 0.269115 0.844382
O O12 0.994211 0.000000 0.885950
O O13 0.627772 0.721640 0.495057
O O14 0.572865 0.732777 0.370432
O O15 0.615403 0.000000 0.419573
O O16 0.577047 0.500000 0.607645
O O17 0.609457 0.239797 0.678626
O O18 0.532208 0.213147 0.598257
O O19 0.106032 0.000000 0.784194
O O20 0.464537 0.000000 0.692409
#
# Coordination Sequence:
#
# PCOD9179425 Si02
#       8
#     8   8   8   8   8   8   8   8
#     4   9  18  32  56  84 110 138 177 223 273 322
#     4  10  20  37  57  79 107 144 183 225 269 316
#     4  11  22  37  55  80 110 142 181 225 269 322
#     4   9  16  31  53  80 111 144 178 218 268 319
#     4  11  22  35  53  80 109 141 179 222 271 322
#     4  10  20  34  54  80 109 144 180 218 264 319
#     4   8  17  33  55  80 109 142 182 221 261 315
#     4  10  19  31  49  78 113 144 176 215 266 323
#
# _framework density 21.203824999999998
#
# number of rings (size 3 to 8) (size 9 to 14) (size 15 to 20)
#    0.000    2.250    1.250    3.000    0.000    3.500 
#    0.000    7.500    0.000    0.000    0.000    4.375 
#    0.000    0.000    0.000    0.000    0.000    0.000 
#
# Total GULP energy -178657.497027 kJ/mol
# GULP energy per Si atom -5583.046782 kJ/mol
# Density = 2.115556 g / cm^3
# Si number density = 21.203825 Si / 1000 Ang^3
#
#
#
# Elastic Constant Matrix: (Units=GPa)
#
#
# Indices 1 2 3 4 5 6 
#
# 1 195.4306 -11.3134 45.7958 0.0000 -65.8684 0.0000
# 2 -11.3134 33.8778 -2.5667 0.0000 8.4296 0.0000
# 3 45.7958 -2.5667 103.8066 0.0000 -31.0198 0.0000
# 4 0.0000 0.0000 0.0000 1.6065 0.0000 -11.5366
# 5 -65.8684 8.4296 -31.0198 0.0000 54.9624 0.0000
# 6 0.0000 0.0000 0.0000 -11.5366 0.0000 16.1885
#
#
#
# Elastic Compliance Matrix: (Units=1/GPa)
#
#
# Indices 1 2 3 4 5 6 
#
# 1 0.008653 0.000380 -0.000874 0.000000 0.009818 0.000000
# 2 0.000380 0.030758 -0.000819 0.000000 -0.004724 0.000000
# 3 -0.000874 -0.000819 0.011696 0.000000 0.005679 0.000000
# 4 0.000000 0.000000 0.000000 -0.151171 0.000000 -0.107732
# 5 0.009818 -0.004724 0.005679 0.000000 0.033890 0.000000
# 6 0.000000 0.000000 0.000000 -0.107732 0.000000 -0.015002
#
#
# Mechanical properties :
#
#
# Convention : Reuss Voigt Hill
#
# Bulk Modulus (GPa) = 20.62632 44.10516 32.36574
# Shear Modulus (GPa) = -80.13992 34.63143 -22.75424
#
# Velocity S-wave (km/s) = -6.15444 4.04575 -3.27940
# Velocity P-wave (km/s) = 6.38389 6.53222 0.97873
#
# Compressibility (1/GPa) = 0.04848174
#
# Stress axis : x y z
#
# Youngs Moduli (GPa) = 115.56816 32.51167 85.50191
#
# Poissons Ratio (x) = -0.01237 0.07473
# Poissons Ratio (y) = -0.04396 0.07001
# Poissons Ratio (z) = 0.10101 0.02662
#
# Static dielectric constant tensor:
#      x y z
#    x 1.748570 0.000000 -0.007130 
#    y 0.000000 1.791360 0.000000 
#    z -0.007130 0.000000 1.779080 
# 
# From -- ./inp_files/243880.got.cif
#   From: 2010.05.17/outbox.cif.g08.bks.cpg/sg12_122_cif.got.tgz:243880.got - 2010.06.03 13:09:07.
