data_PCOD9179177
_publ_section_title
;
Structure prediction by ZEFSAII (Michael W. Deem and Ramdas Pophale) SiO2 
 PCOD9179177
Probable space group: C 2/M
;
_chemical_formula_sum "Si O2"
_cell_formula_units_Z 64
_cell_length_a 32.472728
_cell_length_b 7.639557
_cell_length_c 15.091778
_cell_angle_alpha 90.000000
_cell_angle_beta 117.694237
_cell_angle_gamma 90.000000
_cell_volume 3315.024028
_symmetry_space_group_name_H-M "C 2/M"
_symmetry_group_IT_number 12
_symmetry_cell_setting 'monoclinic'
loop_
_space_group_symop_operation_xyz
x,y,z
-x,y,-z
-x,-y,-z
x,-y,z
1/2+x,1/2+y,z
1/2-x,1/2+y,-z
1/2-x,1/2-y,-z
1/2+x,1/2-y,z
loop_
_atom_site_type_symbol
_atom_site_label
_atom_site_fract_x
_atom_site_fract_y
_atom_site_fract_z
Si Si1 0.119855 0.201944 0.602125
Si Si2 0.539319 0.207370 0.390795
Si Si3 0.067458 0.211937 0.918095
Si Si4 0.695979 0.289284 0.346619
Si Si5 0.380145 0.701944 0.862415
Si Si6 0.567458 0.711937 0.716822
Si Si7 0.804021 0.789284 0.454661
Si Si8 0.460681 0.792630 0.812156
O O1 0.074910 0.205696 0.493434
O O2 0.103155 0.279489 0.678734
O O3 0.161841 0.280950 0.586916
O O4 0.132611 0.000000 0.632888
O O5 0.485429 0.238313 0.359968
O O6 0.546027 0.269732 0.296028
O O7 0.548046 0.000000 0.401808
O O8 0.076239 0.272091 0.826239
O O9 0.014571 0.261687 0.889110
O O10 0.069153 0.000000 0.920064
O O11 0.103154 0.279489 0.027576
O O12 0.690500 0.500000 0.343481
O O13 0.661842 0.219050 0.236766
O O14 0.750000 0.249999 0.384098
O O15 0.684244 0.223854 0.434244
O O16 0.367389 0.500000 0.867666
O O17 0.425089 0.705696 0.843612
O O18 0.569154 0.500000 0.718243
O O19 0.809500 0.000000 0.462482
O O20 0.451954 0.000000 0.805715
#
# Coordination Sequence:
#
# PCOD9179177 Si02
#       8
#     8   8   8   8   8   8   8   8
#     4  10  19  31  49  70  91 120 157 192 227 269
#     4  10  20  31  44  67  98 127 154 187 228 272
#     4   9  18  32  48  66  91 124 159 192 225 264
#     4   9  18  32  49  69  92 116 144 182 228 276
#     4  10  19  31  49  70  91 120 157 192 227 269
#     4   9  18  32  48  66  91 124 159 192 225 264
#     4   9  18  32  49  69  92 116 144 182 228 276
#     4  10  20  31  44  67  98 127 154 187 228 272
#
# _framework density 19.306045000000001
#
# number of rings (size 3 to 8) (size 9 to 14) (size 15 to 20)
#    0.000    2.500    0.000    2.250    0.000    7.500 
#    0.000    2.500    0.000    0.750    0.000    0.000 
#    0.000    0.000    0.000    0.000    0.000    0.000 
#
# Total GULP energy -178586.802753 kJ/mol
# GULP energy per Si atom -5580.837586 kJ/mol
# Density = 1.926210 g / cm^3
# Si number density = 19.306045 Si / 1000 Ang^3
#
#
#
# Elastic Constant Matrix: (Units=GPa)
#
#
# Indices 1 2 3 4 5 6 
#
# 1 106.7257 -7.9453 55.4157 0.0000 -13.7154 0.0000
# 2 -7.9453 41.6991 -6.1205 0.0000 -1.5806 0.0000
# 3 55.4157 -6.1205 114.0027 0.0000 7.4107 0.0000
# 4 0.0000 0.0000 0.0000 2.4468 0.0000 8.5710
# 5 -13.7154 -1.5806 7.4107 0.0000 15.2770 0.0000
# 6 0.0000 0.0000 0.0000 8.5710 0.0000 12.3433
#
#
#
# Elastic Compliance Matrix: (Units=1/GPa)
#
#
# Indices 1 2 3 4 5 6 
#
# 1 0.017082 0.002630 -0.009476 0.000000 0.020205 0.000000
# 2 0.002630 0.024632 -0.000284 0.000000 0.005047 0.000000
# 3 -0.009476 -0.000284 0.014371 0.000000 -0.015508 0.000000
# 4 0.000000 0.000000 0.000000 -0.285326 0.000000 0.198126
# 5 0.020205 0.005047 -0.015508 0.000000 0.091642 0.000000
# 6 0.000000 0.000000 0.000000 0.198126 0.000000 -0.056560
#
#
# Mechanical properties :
#
#
# Convention : Reuss Voigt Hill
#
# Bulk Modulus (GPa) = 23.90907 38.34748 31.12827
# Shear Modulus (GPa) = -30.12826 20.75192 -4.68817
#
# Velocity S-wave (km/s) = -3.95468 3.28211 -1.56000
# Velocity P-wave (km/s) = 2.90543 5.85398 3.59357
#
# Compressibility (1/GPa) = 0.04182514
#
# Stress axis : x y z
#
# Youngs Moduli (GPa) = 58.54023 40.59749 69.58651
#
# Poissons Ratio (x) = -0.10677 0.65938
# Poissons Ratio (y) = -0.15395 0.01976
# Poissons Ratio (z) = 0.55471 0.01153
#
# Static dielectric constant tensor:
#      x y z
#    x 1.659120 0.000000 -0.029090 
#    y 0.000000 1.740990 0.000000 
#    z -0.029090 0.000000 1.692710 
# 
# From -- ./inp_files/104530.got.cif
#   From: 2010.05.17/outbox.cif.g08.bks.cpg/sg12_53_cif.got.tgz:104530.got - 2010.06.03 13:09:07.
