data_PCOD9179882
_publ_section_title
;
Structure prediction by ZEFSAII (Michael W. Deem and Ramdas Pophale) SiO2 
 PCOD9179882
Probable space group: C 2/M
;
_chemical_formula_sum "Si O2"
_cell_formula_units_Z 58
_cell_length_a 19.036156
_cell_length_b 7.837815
_cell_length_c 22.073197
_cell_angle_alpha 90.000000
_cell_angle_beta 42.862098
_cell_angle_gamma 90.000000
_cell_volume 2240.263997
_symmetry_space_group_name_H-M "C 2/M"
_symmetry_group_IT_number 12
_symmetry_cell_setting 'monoclinic'
loop_
_space_group_symop_operation_xyz
x,y,z
-x,y,-z
-x,-y,-z
x,-y,z
1/2+x,1/2+y,z
1/2-x,1/2+y,-z
1/2-x,1/2-y,-z
1/2+x,1/2-y,z
loop_
_atom_site_type_symbol
_atom_site_label
_atom_site_fract_x
_atom_site_fract_y
_atom_site_fract_z
Si Si1 0.416264 0.803205 0.506571
Si Si2 0.445624 0.300958 0.215762
Si Si3 0.128852 0.807691 0.965309
Si Si4 0.793688 0.693726 0.407586
Si Si5 0.220832 0.198546 0.771154
Si Si6 0.500000 0.000000 0.000000
Si Si7 0.156174 0.207374 0.128798
Si Si8 0.068096 0.196320 0.316000
O O1 0.306760 0.714001 0.571641
O O2 0.331356 0.712989 0.704641
O O3 0.474251 0.795708 0.405286
O O4 0.397629 0.000000 0.534555
O O5 0.455055 0.500000 0.194405
O O6 0.388099 0.291949 0.317090
O O7 0.364253 0.224134 0.219920
O O8 0.562600 0.235178 0.144652
O O9 0.175292 0.796992 0.867604
O O10 0.049933 0.651842 0.012617
O O11 0.229083 0.783305 0.945111
O O12 0.086737 0.000000 0.000288
O O13 0.826470 0.500000 0.390376
O O14 0.750000 0.750000 0.500000
O O15 0.238608 0.000000 0.744022
O O16 0.109284 0.253544 0.224781
O O17 0.165070 0.000000 0.121421
O O18 0.000000 0.228754 0.500000
O O19 0.036482 0.000000 0.331699
#
# Coordination Sequence:
#
# PCOD9179882 Si02
#       8
#     8   8   8   8   8   2   8   8
#     4  11  23  37  52  72 104 148 191 246 306 362
#     4  10  20  36  59  84 115 157 194 244 301 350
#     4  10  21  38  64  97 126 158 197 237 285 347
#     4  12  25  39  54  77 111 152 205 254 305 364
#     4   9  19  35  56  87 119 152 195 242 289 350
#     4  12  22  40  68  98 128 160 192 234 290 342
#     4   9  18  35  57  85 115 149 191 237 288 339
#     4  10  19  31  52  77 107 143 190 246 297 342
#
# _framework density 25.889806
#
# number of rings (size 3 to 8) (size 9 to 14) (size 15 to 20)
#    0.000    1.793    0.690    3.931    0.966    7.172 
#    0.000    0.000    0.000    0.828    0.000    0.000 
#    0.000    0.000    0.000    0.000    0.000    0.000 
#
# Total GULP energy -162132.209627 kJ/mol
# GULP energy per Si atom -5590.765849 kJ/mol
# Density = 2.583088 g / cm^3
# Si number density = 25.889806 Si / 1000 Ang^3
#
#
#
# Elastic Constant Matrix: (Units=GPa)
#
#
# Indices 1 2 3 4 5 6 
#
# 1 149.7810 24.3543 34.5635 0.0000 -35.8676 -0.0001
# 2 24.3543 79.5749 23.5493 0.0007 -15.3797 -0.0002
# 3 34.5635 23.5493 146.0457 0.0002 -9.1314 0.0000
# 4 0.0000 0.0007 0.0002 5.0743 -0.0001 -14.9170
# 5 -35.8676 -15.3797 -9.1314 -0.0001 45.7692 0.0000
# 6 -0.0001 -0.0002 0.0000 -14.9170 0.0000 26.0805
#
#
#
# Elastic Compliance Matrix: (Units=1/GPa)
#
#
# Indices 1 2 3 4 5 6 
#
# 1 0.008660 -0.001019 -0.001501 0.000000 0.006145 0.000000
# 2 -0.001019 0.014106 -0.001810 0.000002 0.003581 0.000001
# 3 -0.001501 -0.001810 0.007476 0.000000 -0.000293 0.000000
# 4 0.000000 0.000002 0.000000 -0.289216 0.000000 -0.165420
# 5 0.006145 0.003581 -0.000293 0.000000 0.027809 0.000000
# 6 0.000000 0.000001 0.000000 -0.165420 0.000000 -0.056271
#
#
# Mechanical properties :
#
#
# Convention : Reuss Voigt Hill
#
# Bulk Modulus (GPa) = 46.33189 60.03734 53.18461
# Shear Modulus (GPa) = -18.41053 34.91377 8.25162
#
# Velocity S-wave (km/s) = -2.66956 3.67625 1.78721
# Velocity P-wave (km/s) = 2.90389 6.42337 4.98459
#
# Compressibility (1/GPa) = 0.02158341
#
# Stress axis : x y z
#
# Youngs Moduli (GPa) = 115.47539 70.89120 133.76333
#
# Poissons Ratio (x) = 0.07221 0.20078
# Poissons Ratio (y) = 0.11762 0.24206
# Poissons Ratio (z) = 0.17333 0.12829
#
# Static dielectric constant tensor:
#      x y z
#    x 2.137680 0.000000 0.086210 
#    y 0.000000 2.039270 0.000000 
#    z 0.086210 0.000000 2.174900 
# 
# From -- ./inp_files/382025.got.cif
#   From: 2010.05.17/outbox.cif.g08.bks.cpg/sg12_192_cif.got.tgz:382025.got - 2010.06.03 13:09:07.
