data_PCOD9179805
_publ_section_title
;
Structure prediction by ZEFSAII (Michael W. Deem and Ramdas Pophale) SiO2 
 PCOD9179805
Probable space group: C 2/M
;
_chemical_formula_sum "Si O2"
_cell_formula_units_Z 64
_cell_length_a 23.878690
_cell_length_b 9.098521
_cell_length_c 15.254615
_cell_angle_alpha 90.000000
_cell_angle_beta 84.308133
_cell_angle_gamma 90.000000
_cell_volume 3297.889002
_symmetry_space_group_name_H-M "C 2/M"
_symmetry_group_IT_number 12
_symmetry_cell_setting 'monoclinic'
loop_
_space_group_symop_operation_xyz
x,y,z
-x,y,-z
-x,-y,-z
x,-y,z
1/2+x,1/2+y,z
1/2-x,1/2+y,-z
1/2-x,1/2-y,-z
1/2+x,1/2-y,z
loop_
_atom_site_type_symbol
_atom_site_label
_atom_site_fract_x
_atom_site_fract_y
_atom_site_fract_z
Si Si1 0.713749 0.169003 0.130544
Si Si2 0.836489 0.830207 0.019440
Si Si3 0.581650 0.670798 0.549132
Si Si4 0.902020 0.822837 0.179385
Si Si5 0.705272 0.326696 0.315111
Si Si6 0.408883 0.173582 0.626623
Si Si7 0.505426 0.669778 0.274736
Si Si8 0.331677 0.825003 0.345032
O O1 0.776738 0.174778 0.080419
O O2 0.711312 0.274669 0.213892
O O3 0.702321 0.000000 0.157465
O O4 0.671444 0.225406 0.062123
O O5 0.883982 0.790049 0.082990
O O6 0.844882 0.000000 0.990298
O O7 0.589902 0.500000 0.525951
O O8 0.564536 0.756610 0.464946
O O9 0.536918 0.678185 0.635236
O O10 0.637735 0.743386 0.580172
O O11 0.965730 0.787643 0.199166
O O12 0.860295 0.739747 0.252397
O O13 0.894942 0.000000 0.193573
O O14 0.693025 0.500000 0.321813
O O15 0.654257 0.234482 0.361799
O O16 0.765168 0.298855 0.351451
O O17 0.442017 0.231844 0.706794
O O18 0.410745 0.000000 0.622574
O O19 0.523096 0.500000 0.261977
O O20 0.341860 0.000000 0.347885
#
# Coordination Sequence:
#
# PCOD9179805 Si02
#       8
#     8   8   8   8   8   8   8   8
#     4  10  19  31  51  79 112 144 178 219 260 309
#     4   9  17  30  51  80 113 144 177 212 258 316
#     4  10  21  38  60  81 106 139 175 219 269 320
#     4   9  17  32  55  81 110 144 176 215 264 318
#     4  11  23  38  55  75 108 148 182 217 264 324
#     4  12  25  38  55  78 105 140 182 225 269 314
#     4   9  19  36  58  81 106 138 178 220 266 315
#     4  10  20  33  53  81 109 138 175 220 269 315
#
# _framework density 19.406355000000001
#
# number of rings (size 3 to 8) (size 9 to 14) (size 15 to 20)
#    0.000    2.000    1.250    3.750    0.000    7.000 
#    0.000    0.000    0.000    0.750    0.000    5.250 
#    0.000    0.000    0.000    0.000    0.000    0.000 
#
# Total GULP energy -178704.210221 kJ/mol
# GULP energy per Si atom -5584.506569 kJ/mol
# Density = 1.936218 g / cm^3
# Si number density = 19.406355 Si / 1000 Ang^3
#
#
#
# Elastic Constant Matrix: (Units=GPa)
#
#
# Indices 1 2 3 4 5 6 
#
# 1 59.5420 46.1017 15.5349 0.0000 27.3198 0.0000
# 2 46.1017 85.6595 13.4509 0.0000 20.4676 0.0000
# 3 15.5349 13.4509 35.5639 0.0000 28.5478 0.0000
# 4 0.0000 0.0000 0.0000 27.1945 0.0000 6.3514
# 5 27.3198 20.4676 28.5478 0.0000 32.6293 0.0000
# 6 0.0000 0.0000 0.0000 6.3514 0.0000 23.6231
#
#
#
# Elastic Compliance Matrix: (Units=1/GPa)
#
#
# Indices 1 2 3 4 5 6 
#
# 1 0.047778 -0.017134 0.030550 0.000000 -0.055984 0.000000
# 2 -0.017134 0.020240 -0.005023 0.000000 0.006044 0.000000
# 3 0.030550 -0.005023 0.116486 0.000000 -0.124343 0.000000
# 4 0.000000 0.000000 0.000000 0.039236 0.000000 -0.010549
# 5 -0.055984 0.006044 -0.124343 0.000000 0.182520 0.000000
# 6 0.000000 0.000000 0.000000 -0.010549 0.000000 0.045168
#
#
# Mechanical properties :
#
#
# Convention : Reuss Voigt Hill
#
# Bulk Modulus (GPa) = 4.96795 36.77115 20.86955
# Shear Modulus (GPa) = 9.96533 23.73456 16.84994
#
# Velocity S-wave (km/s) = 2.26853 3.50098 2.94984
# Velocity P-wave (km/s) = 3.07037 5.94404 4.73069
#
# Compressibility (1/GPa) = 0.20129032
#
# Stress axis : x y z
#
# Youngs Moduli (GPa) = 20.92995 49.40649 8.58472
#
# Poissons Ratio (x) = 0.84655 -0.26226
# Poissons Ratio (y) = 0.35862 0.04312
# Poissons Ratio (z) = -0.63941 0.24815
#
# Static dielectric constant tensor:
#      x y z
#    x 1.700400 0.000000 0.003450 
#    y 0.000000 1.648020 0.000000 
#    z 0.003450 0.000000 1.694520 
# 
# From -- ./inp_files/238702.got.cif
#   From: 2010.05.17/outbox.cif.g08.bks.cpg/sg12_120_cif.got.tgz:238702.got - 2010.06.03 13:09:07.
