data_PCOD9179542
_publ_section_title
;
Structure prediction by ZEFSAII (Michael W. Deem and Ramdas Pophale) SiO2 
 PCOD9179542
Probable space group: C 2/M
;
_chemical_formula_sum "Si O2"
_cell_formula_units_Z 64
_cell_length_a 19.379689
_cell_length_b 9.117912
_cell_length_c 21.732781
_cell_angle_alpha 90.000000
_cell_angle_beta 119.491961
_cell_angle_gamma 90.000000
_cell_volume 3342.633402
_symmetry_space_group_name_H-M "C 2/M"
_symmetry_group_IT_number 12
_symmetry_cell_setting 'monoclinic'
loop_
_space_group_symop_operation_xyz
x,y,z
-x,y,-z
-x,-y,-z
x,-y,z
1/2+x,1/2+y,z
1/2-x,1/2+y,-z
1/2-x,1/2-y,-z
1/2+x,1/2-y,z
loop_
_atom_site_type_symbol
_atom_site_label
_atom_site_fract_x
_atom_site_fract_y
_atom_site_fract_z
Si Si1 0.087559 0.670481 0.932627
Si Si2 0.369203 0.825123 0.727578
Si Si3 0.372792 0.667986 0.536750
Si Si4 0.803840 0.829656 0.931245
Si Si5 0.753972 0.332344 0.405481
Si Si6 0.493722 0.324144 0.688895
Si Si7 0.074227 0.169660 0.126573
Si Si8 0.632773 0.171874 0.811007
O O1 0.077029 0.500000 0.943616
O O2 0.093649 0.683129 0.861633
O O3 0.012679 0.764450 0.921325
O O4 0.166218 0.732836 0.999121
O O5 0.286015 0.768824 0.663510
O O6 0.436876 0.754307 0.713766
O O7 0.384388 0.763489 0.801926
O O8 0.374925 0.000000 0.728104
O O9 0.377826 0.500000 0.517104
O O10 0.308859 0.669291 0.565030
O O11 0.335741 0.770652 0.468592
O O12 0.455146 0.710983 0.605497
O O13 0.873375 0.824865 0.911444
O O14 0.723124 0.781018 0.862566
O O15 0.791663 0.000000 0.945120
O O16 0.760508 0.500000 0.387360
O O17 0.488803 0.500000 0.694390
O O18 0.581267 0.265542 0.741044
O O19 0.067880 0.000000 0.143605
O O20 0.632110 0.000000 0.792803
#
# Coordination Sequence:
#
# PCOD9179542 Si02
#       8
#     8   8   8   8   8   8   8   8
#     4  11  22  36  57  82 105 134 173 220 266 313
#     4  11  20  31  49  73 103 137 173 216 263 309
#     4   8  15  26  40  65 100 134 169 208 252 302
#     4  10  23  40  56  76 105 141 177 216 261 314
#     4   9  16  26  42  67  99 135 172 209 255 307
#     4  10  19  31  50  75 103 138 176 213 257 310
#     4  11  22  37  56  77 104 139 179 218 260 313
#     4  10  21  37  55  78 107 139 176 216 263 311
#
# _framework density 19.146581000000001
#
# number of rings (size 3 to 8) (size 9 to 14) (size 15 to 20)
#    0.000    2.000    1.250    4.125    0.000    7.000 
#    0.000    0.000    0.000    0.000    0.000    0.875 
#    0.000    7.000    0.000    0.000    0.000    0.000 
#
# Total GULP energy -178646.221339 kJ/mol
# GULP energy per Si atom -5582.694417 kJ/mol
# Density = 1.910300 g / cm^3
# Si number density = 19.146581 Si / 1000 Ang^3
#
#
#
# Elastic Constant Matrix: (Units=GPa)
#
#
# Indices 1 2 3 4 5 6 
#
# 1 27.5193 15.7995 18.4032 0.0000 20.2685 0.0000
# 2 15.7995 109.5895 68.1932 0.0000 19.0614 0.0000
# 3 18.4032 68.1932 138.9414 0.0000 39.4144 0.0000
# 4 0.0000 0.0000 0.0000 35.3344 0.0000 9.3346
# 5 20.2685 19.0614 39.4144 0.0000 25.6308 0.0000
# 6 0.0000 0.0000 0.0000 9.3346 0.0000 13.1245
#
#
#
# Elastic Compliance Matrix: (Units=1/GPa)
#
#
# Indices 1 2 3 4 5 6 
#
# 1 0.114211 -0.010597 0.023873 0.000000 -0.119146 0.000000
# 2 -0.010597 0.014121 -0.008736 0.000000 0.011313 0.000000
# 3 0.023873 -0.008736 0.020993 0.000000 -0.044664 0.000000
# 4 0.000000 0.000000 0.000000 0.034849 0.000000 -0.024786
# 5 -0.119146 0.011313 -0.044664 0.000000 0.193504 0.000000
# 6 0.000000 0.000000 0.000000 -0.024786 0.000000 0.093822
#
#
# Mechanical properties :
#
#
# Convention : Reuss Voigt Hill
#
# Bulk Modulus (GPa) = 6.31297 53.42687 29.86992
# Shear Modulus (GPa) = 9.70451 26.39490 18.04970
#
# Velocity S-wave (km/s) = 2.25378 3.71694 3.07369
# Velocity P-wave (km/s) = 3.17444 6.81069 5.31331
#
# Compressibility (1/GPa) = 0.15840410
#
# Stress axis : x y z
#
# Youngs Moduli (GPa) = 8.75570 70.81462 47.63440
#
# Poissons Ratio (x) = 0.75043 -1.13716
# Poissons Ratio (y) = 0.09279 0.41615
# Poissons Ratio (z) = -0.20902 0.61866
#
# Static dielectric constant tensor:
#      x y z
#    x 1.668680 0.000000 0.022830 
#    y 0.000000 1.646370 0.000000 
#    z 0.022830 0.000000 1.679200 
# 
# From -- ./inp_files/346186.got.cif
#   From: 2010.05.17/outbox.cif.g08.bks.cpg/sg12_174_cif.got.tgz:346186.got - 2010.06.03 13:09:07.
