data_PCOD9179825
_publ_section_title
;
Structure prediction by ZEFSAII (Michael W. Deem and Ramdas Pophale) SiO2 
 PCOD9179825
Probable space group: C 2/M
;
_chemical_formula_sum "Si O2"
_cell_formula_units_Z 40
_cell_length_a 23.260709
_cell_length_b 13.039314
_cell_length_c 23.554054
_cell_angle_alpha 90.000000
_cell_angle_beta 17.687801
_cell_angle_gamma 90.000000
_cell_volume 2170.572652
_symmetry_space_group_name_H-M "C 2/M"
_symmetry_group_IT_number 12
_symmetry_cell_setting 'monoclinic'
loop_
_space_group_symop_operation_xyz
x,y,z
-x,y,-z
-x,-y,-z
x,-y,z
1/2+x,1/2+y,z
1/2-x,1/2+y,-z
1/2-x,1/2-y,-z
1/2+x,1/2-y,z
loop_
_atom_site_type_symbol
_atom_site_label
_atom_site_fract_x
_atom_site_fract_y
_atom_site_fract_z
Si Si1 0.456063 0.777053 0.283242
Si Si2 0.578258 0.270849 0.985243
Si Si3 0.330954 0.117936 0.289118
Si Si4 0.420564 0.382592 0.638909
Si Si5 0.200390 0.879041 0.982495
O O1 0.250000 0.750000 0.500000
O O2 0.428572 0.855489 0.256728
O O3 0.595481 0.828018 0.197625
O O4 0.559800 0.677702 0.158969
O O5 0.759640 0.199249 0.802486
O O6 0.630905 0.350761 0.984735
O O7 0.500000 0.315218 0.000000
O O8 0.419545 0.194873 0.160220
O O9 0.105044 0.132956 0.504586
O O10 0.363044 0.000000 0.242426
O O11 0.500000 0.374357 0.500000
O O12 0.351361 0.500000 0.711574
O O13 0.205621 0.000000 0.986439
#
# Coordination Sequence:
#
# PCOD9179825 Si02
#       5
#     8   8   8   8   8
#     4  10  21  40  63  84 112 148 186 237 288 337
#     4  11  21  35  55  77 113 154 186 229 275 330
#     4  10  20  33  54  84 111 141 183 228 284 340
#     4  10  19  31  51  80 112 145 183 227 277 332
#     4  10  23  40  59  86 114 147 191 234 281 339
#
# _framework density 18.428317
#
# number of rings (size 3 to 8) (size 9 to 14) (size 15 to 20)
#    0.000    1.800    2.000    2.400    0.000    2.800 
#    0.000    5.000    0.000    0.600    0.000    0.000 
#    0.000    0.000    0.000    0.000    0.000    0.000 
#
# Total GULP energy -111684.141453 kJ/mol
# GULP energy per Si atom -5584.207073 kJ/mol
# Density = 1.838637 g / cm^3
# Si number density = 18.428317 Si / 1000 Ang^3
#
#
#
# Elastic Constant Matrix: (Units=GPa)
#
#
# Indices 1 2 3 4 5 6 
#
# 1 112.8107 40.4859 17.9106 -0.0011 -16.8061 0.0001
# 2 40.4859 100.9863 39.8124 -0.0007 -10.1023 0.0007
# 3 17.9106 39.8124 88.9608 -0.0068 -13.8030 0.0008
# 4 -0.0011 -0.0007 -0.0068 14.8140 0.0016 -4.9590
# 5 -16.8061 -10.1023 -13.8030 0.0016 22.7141 -0.0002
# 6 0.0001 0.0007 0.0008 -4.9590 -0.0002 13.3586
#
#
#
# Elastic Compliance Matrix: (Units=1/GPa)
#
#
# Indices 1 2 3 4 5 6 
#
# 1 0.011252 -0.004068 0.000625 0.000000 0.006896 0.000000
# 2 -0.004068 0.013603 -0.005297 -0.000002 -0.000178 -0.000001
# 3 0.000625 -0.005297 0.014565 0.000006 0.006958 0.000002
# 4 0.000000 -0.000002 0.000006 0.077083 -0.000002 0.028615
# 5 0.006896 -0.000178 0.006958 -0.000002 0.053277 -0.000001
# 6 0.000000 -0.000001 0.000002 0.028615 -0.000001 0.085481
#
#
# Mechanical properties :
#
#
# Convention : Reuss Voigt Hill
#
# Bulk Modulus (GPa) = 45.57431 55.46396 50.51914
# Shear Modulus (GPa) = 17.85373 23.81392 20.83383
#
# Velocity S-wave (km/s) = 3.11596 3.59868 3.36599
# Velocity P-wave (km/s) = 6.14247 6.88693 6.52533
#
# Compressibility (1/GPa) = 0.02194219
#
# Stress axis : x y z
#
# Youngs Moduli (GPa) = 88.87014 73.51127 68.65783
#
# Poissons Ratio (x) = 0.29902 -0.04291
# Poissons Ratio (y) = 0.36149 0.36365
# Poissons Ratio (z) = -0.05554 0.38936
#
# Static dielectric constant tensor:
#      x y z
#    x 1.674920 0.000000 -0.008100 
#    y 0.000000 1.584300 0.000000 
#    z -0.008100 0.000000 1.620890 
# 
# From -- ./inp_files/322044.got.cif
#   From: 2010.05.17/outbox.cif.g08.bks.cpg/sg12_162_cif.got.tgz:322044.got - 2010.06.03 13:09:07.
