data_PCOD9179520
_publ_section_title
;
Structure prediction by ZEFSAII (Michael W. Deem and Ramdas Pophale) SiO2 
 PCOD9179520
Probable space group: C 2/M
;
_chemical_formula_sum "Si O2"
_cell_formula_units_Z 48
_cell_length_a 18.987177
_cell_length_b 8.704818
_cell_length_c 24.897939
_cell_angle_alpha 90.000000
_cell_angle_beta 137.962929
_cell_angle_gamma 90.000000
_cell_volume 2755.537082
_symmetry_space_group_name_H-M "C 2/M"
_symmetry_group_IT_number 12
_symmetry_cell_setting 'monoclinic'
loop_
_space_group_symop_operation_xyz
x,y,z
-x,y,-z
-x,-y,-z
x,-y,z
1/2+x,1/2+y,z
1/2-x,1/2+y,-z
1/2-x,1/2-y,-z
1/2+x,1/2-y,z
loop_
_atom_site_type_symbol
_atom_site_label
_atom_site_fract_x
_atom_site_fract_y
_atom_site_fract_z
Si Si1 0.991360 0.323026 0.163970
Si Si2 0.694138 0.682876 0.416054
Si Si3 0.220673 0.315971 0.758403
Si Si4 0.742224 0.177014 0.332366
Si Si5 0.536805 0.813093 0.736376
Si Si6 0.448988 0.813185 0.914665
O O1 0.955931 0.500000 0.140258
O O2 0.116773 0.321667 0.247765
O O3 0.941052 0.257210 0.189831
O O4 0.985405 0.256726 0.100591
O O5 0.691988 0.500000 0.416988
O O6 0.750000 0.750000 0.500000
O O7 0.752436 0.736940 0.394547
O O8 0.575495 0.747466 0.344937
O O9 0.227490 0.500000 0.760449
O O10 0.203993 0.253519 0.688672
O O11 0.331153 0.249196 0.841947
O O12 0.127520 0.271640 0.746067
O O13 0.773995 0.000000 0.355835
O O14 0.528391 0.000000 0.733448
O O15 0.444886 0.000000 0.909498
O O16 0.500000 0.769178 0.000000
#
# Coordination Sequence:
#
# PCOD9179520 Si02
#       6
#     8   8   8   8   8   8
#     4   7  12  26  47  66  88 124 164 199 240 292
#     4  11  21  34  54  78 103 131 166 205 245 293
#     4  10  19  31  50  75 101 130 167 211 254 297
#     4   9  17  32  52  72  98 131 166 203 246 299
#     4   9  18  33  51  72 100 133 168 207 252 298
#     4   9  17  30  49  71  96 131 174 215 254 299
#
# _framework density 17.419471999999999
#
# number of rings (size 3 to 8) (size 9 to 14) (size 15 to 20)
#    0.000    2.833    0.000    4.500    0.000    1.667 
#    0.000    1.667    0.000    5.000    0.000    0.000 
#    0.000    0.000    0.000    0.000    0.000    0.000 
#
# Total GULP energy -133664.242294 kJ/mol
# GULP energy per Si atom -5569.343429 kJ/mol
# Density = 1.737982 g / cm^3
# Si number density = 17.419472 Si / 1000 Ang^3
#
#
#
# Elastic Constant Matrix: (Units=GPa)
#
#
# Indices 1 2 3 4 5 6 
#
# 1 172.2143 43.8071 71.8530 0.0000 -40.6850 0.0000
# 2 43.8071 49.0132 30.7332 0.0000 -13.6639 0.0000
# 3 71.8530 30.7332 103.9634 0.0000 -40.4335 0.0000
# 4 0.0000 0.0000 0.0000 21.4987 0.0000 -2.3499
# 5 -40.6850 -13.6639 -40.4335 0.0000 29.9698 0.0000
# 6 0.0000 0.0000 0.0000 -2.3499 0.0000 22.7265
#
#
#
# Elastic Compliance Matrix: (Units=1/GPa)
#
#
# Indices 1 2 3 4 5 6 
#
# 1 0.009998 -0.005295 -0.002114 0.000000 0.008306 0.000000
# 2 -0.005295 0.027979 -0.005146 0.000000 -0.001374 0.000000
# 3 -0.002114 -0.005146 0.022244 0.000000 0.024794 0.000000
# 4 0.000000 0.000000 0.000000 0.047046 0.000000 0.004865
# 5 0.008306 -0.001374 0.024794 0.000000 0.077467 0.000000
# 6 0.000000 0.000000 0.000000 0.004865 0.000000 0.044504
#
#
# Mechanical properties :
#
#
# Convention : Reuss Voigt Hill
#
# Bulk Modulus (GPa) = 28.48147 68.66417 48.57282
# Shear Modulus (GPa) = 18.79328 26.75883 22.77605
#
# Velocity S-wave (km/s) = 3.28817 3.92362 3.61987
# Velocity P-wave (km/s) = 5.54995 7.74790 6.73914
#
# Compressibility (1/GPa) = 0.03511054
#
# Stress axis : x y z
#
# Youngs Moduli (GPa) = 100.01960 35.74164 44.95518
#
# Poissons Ratio (x) = 0.18924 0.09505
# Poissons Ratio (y) = 0.52957 0.23135
# Poissons Ratio (z) = 0.21148 0.18393
#
# Static dielectric constant tensor:
#      x y z
#    x 1.616910 0.000000 -0.037850 
#    y 0.000000 1.588930 0.000000 
#    z -0.037850 0.000000 1.578890 
# 
# From -- ./inp_files/342054.got.cif
#   From: 2010.05.17/outbox.cif.g08.bks.cpg/sg12_172_cif.got.tgz:342054.got - 2010.06.03 13:09:07.
