data_PCOD9179731
_publ_section_title
;
Structure prediction by ZEFSAII (Michael W. Deem and Ramdas Pophale) SiO2 
 PCOD9179731
Probable space group: C 2/M
;
_chemical_formula_sum "Si O2"
_cell_formula_units_Z 56
_cell_length_a 24.539538
_cell_length_b 7.488622
_cell_length_c 14.781440
_cell_angle_alpha 90.000000
_cell_angle_beta 114.959970
_cell_angle_gamma 90.000000
_cell_volume 2462.646678
_symmetry_space_group_name_H-M "C 2/M"
_symmetry_group_IT_number 12
_symmetry_cell_setting 'monoclinic'
loop_
_space_group_symop_operation_xyz
x,y,z
-x,y,-z
-x,-y,-z
x,-y,z
1/2+x,1/2+y,z
1/2-x,1/2+y,-z
1/2-x,1/2-y,-z
1/2+x,1/2-y,z
loop_
_atom_site_type_symbol
_atom_site_label
_atom_site_fract_x
_atom_site_fract_y
_atom_site_fract_z
Si Si1 0.276760 0.219453 0.288807
Si Si2 0.854560 0.202283 0.794276
Si Si3 0.403483 0.216996 0.437447
Si Si4 0.483511 0.294935 0.841001
Si Si5 0.503956 0.783388 0.649245
Si Si6 0.611167 0.793896 0.986807
Si Si7 0.304922 0.212660 0.105943
O O1 0.210711 0.281961 0.272069
O O2 0.334415 0.273401 0.387931
O O3 0.290915 0.280635 0.196081
O O4 0.274080 0.000000 0.286156
O O5 0.917307 0.287774 0.807035
O O6 0.854262 0.000000 0.757402
O O7 0.860748 0.197437 0.907540
O O8 0.438135 0.270264 0.369541
O O9 0.445523 0.271865 0.550061
O O10 0.404030 0.000000 0.438027
O O11 0.479518 0.500000 0.868832
O O12 0.499991 0.286357 0.747171
O O13 0.539428 0.214346 0.933786
O O14 0.505092 0.000000 0.655423
O O15 0.637342 0.723062 0.910142
O O16 0.629732 0.000000 0.008498
O O17 0.312636 0.000000 0.123129
O O18 0.250000 0.250000 0.000000
#
# Coordination Sequence:
#
# PCOD9179731 Si02
#       7
#     8   8   8   8   8   8   8
#     4   9  16  30  52  75 102 136 171 205 250 308
#     4  10  21  36  52  71 102 144 181 212 253 311
#     4   8  15  30  56  84 104 128 165 211 264 316
#     4  11  23  36  51  73 103 141 180 214 257 313
#     4   9  17  33  57  82 105 128 165 217 264 309
#     4  11  22  35  54  79 103 133 176 223 263 303
#     4  10  19  31  51  77 104 132 165 206 253 304
#
# _framework density 22.739763
#
# number of rings (size 3 to 8) (size 9 to 14) (size 15 to 20)
#    0.000    2.286    1.429    3.000    0.000    5.714 
#    0.000    2.143    0.000    1.714    0.000    0.000 
#    0.000    0.000    0.000    0.000    0.000    0.000 
#
# Total GULP energy -156386.601586 kJ/mol
# GULP energy per Si atom -5585.235771 kJ/mol
# Density = 2.268801 g / cm^3
# Si number density = 22.739763 Si / 1000 Ang^3
#
#
#
# Elastic Constant Matrix: (Units=GPa)
#
#
# Indices 1 2 3 4 5 6 
#
# 1 124.9200 -1.3922 25.5451 0.0000 47.2184 0.0000
# 2 -1.3922 63.9922 -9.0312 0.0000 0.7586 0.0000
# 3 25.5451 -9.0312 50.4931 0.0000 28.6258 0.0000
# 4 0.0000 0.0000 0.0000 1.9423 0.0000 -24.4589
# 5 47.2184 0.7586 28.6258 0.0000 43.3396 0.0000
# 6 0.0000 0.0000 0.0000 -24.4589 0.0000 -28.6354
#
#
#
# Elastic Compliance Matrix: (Units=1/GPa)
#
#
# Indices 1 2 3 4 5 6 
#
# 1 0.013847 0.000889 0.002742 0.000000 -0.016913 0.000000
# 2 0.000889 0.016423 0.005115 0.000000 -0.004634 0.000000
# 3 0.002742 0.005115 0.033693 0.000000 -0.025332 0.000000
# 4 0.000000 0.000000 0.000000 0.043795 0.000000 -0.037407
# 5 -0.016913 -0.004634 -0.025332 0.000000 0.058313 0.000000
# 6 0.000000 0.000000 0.000000 -0.037407 0.000000 -0.002971
#
#
# Mechanical properties :
#
#
# Convention : Reuss Voigt Hill
#
# Bulk Modulus (GPa) = 12.27660 29.96095 21.11878
# Shear Modulus (GPa) = 28.94165 18.28154 23.61160
#
# Velocity S-wave (km/s) = 3.57141 2.83847 3.22582
# Velocity P-wave (km/s) = 4.73467 4.89354 4.81476
#
# Compressibility (1/GPa) = 0.08145576
#
# Stress axis : x y z
#
# Youngs Moduli (GPa) = 72.21573 60.88991 29.67939
#
# Poissons Ratio (x) = -0.05412 -0.08138
# Poissons Ratio (y) = -0.06418 -0.15181
# Poissons Ratio (z) = -0.19802 -0.31146
#
# Static dielectric constant tensor:
#      x y z
#    x 1.887410 0.000000 0.017810 
#    y 0.000000 1.926970 0.000000 
#    z 0.017810 0.000000 1.790500 
# 
# From -- ./inp_files/237816.got.cif
#   From: 2010.05.17/outbox.cif.g08.bks.cpg/sg12_119_cif.got.tgz:237816.got - 2010.06.03 13:09:07.
