data_PCOD9179839
_publ_section_title
;
Structure prediction by ZEFSAII (Michael W. Deem and Ramdas Pophale) SiO2 
 PCOD9179839
Probable space group: C 2/M
;
_chemical_formula_sum "Si O2"
_cell_formula_units_Z 56
_cell_length_a 19.633140
_cell_length_b 9.288125
_cell_length_c 19.197369
_cell_angle_alpha 90.000000
_cell_angle_beta 119.655359
_cell_angle_gamma 90.000000
_cell_volume 3042.201242
_symmetry_space_group_name_H-M "C 2/M"
_symmetry_group_IT_number 12
_symmetry_cell_setting 'monoclinic'
loop_
_space_group_symop_operation_xyz
x,y,z
-x,y,-z
-x,-y,-z
x,-y,z
1/2+x,1/2+y,z
1/2-x,1/2+y,-z
1/2-x,1/2-y,-z
1/2+x,1/2-y,z
loop_
_atom_site_type_symbol
_atom_site_label
_atom_site_fract_x
_atom_site_fract_y
_atom_site_fract_z
Si Si1 0.992832 0.170306 0.660552
Si Si2 0.583604 0.165882 0.501711
Si Si3 0.815506 0.334669 0.074751
Si Si4 0.010641 0.328952 0.814531
Si Si5 0.341275 0.670073 0.336241
Si Si6 0.231862 0.833779 0.178042
Si Si7 0.074833 0.669288 0.085240
O O1 0.990828 0.241883 0.735286
O O2 0.079981 0.188375 0.671161
O O3 0.933446 0.250164 0.578194
O O4 0.977126 0.000000 0.655488
O O5 0.500000 0.164466 0.500000
O O6 0.641633 0.250123 0.582485
O O7 0.606787 0.000000 0.502253
O O8 0.814482 0.500000 0.050089
O O9 0.904172 0.280427 0.113953
O O10 0.791937 0.330514 0.143856
O O11 0.750000 0.250000 0.000000
O O12 0.017583 0.500000 0.801284
O O13 0.949991 0.313650 0.846747
O O14 0.329531 0.500000 0.340329
O O15 0.269691 0.741928 0.259096
O O16 0.151039 0.764211 0.111274
O O17 0.220671 0.000000 0.192793
O O18 0.091655 0.500000 0.080567
O O19 0.000000 0.707779 0.000000
#
# Coordination Sequence:
#
# PCOD9179839 Si02
#       7
#     8   8   8   8   8   8   8
#     4  10  19  31  51  81 113 145 182 227 273 323
#     4   9  17  29  49  77 112 149 181 221 270 324
#     4  10  21  35  54  79 106 138 178 226 279 328
#     4  10  20  36  56  78 108 145 184 227 274 331
#     4  10  19  32  52  80 113 147 184 225 271 326
#     4  11  22  36  56  81 111 144 182 231 279 329
#     4  10  22  40  60  79 106 147 190 230 277 334
#
# _framework density 18.407724000000002
#
# number of rings (size 3 to 8) (size 9 to 14) (size 15 to 20)
#    0.000    2.000    1.429    2.571    0.000    6.571 
#    0.000    0.000    0.000    0.857    0.000    0.000 
#    0.000    0.000    0.000    0.000    0.000    0.000 
#
# Total GULP energy -156334.486203 kJ/mol
# GULP energy per Si atom -5583.374507 kJ/mol
# Density = 1.836583 g / cm^3
# Si number density = 18.407724 Si / 1000 Ang^3
#
#
#
# Elastic Constant Matrix: (Units=GPa)
#
#
# Indices 1 2 3 4 5 6 
#
# 1 28.2367 9.8616 -13.3675 0.0000 2.4593 0.0000
# 2 9.8616 93.1400 47.0334 0.0000 3.3123 0.0000
# 3 -13.3675 47.0334 92.7930 0.0000 2.2556 0.0000
# 4 0.0000 0.0000 0.0000 38.0662 0.0000 2.4676
# 5 2.4593 3.3123 2.2556 0.0000 23.0961 0.0000
# 6 0.0000 0.0000 0.0000 2.4676 0.0000 20.5890
#
#
#
# Elastic Compliance Matrix: (Units=1/GPa)
#
#
# Indices 1 2 3 4 5 6 
#
# 1 0.045261 -0.010726 0.012066 0.000000 -0.004460 0.000000
# 2 -0.010726 0.017015 -0.010162 0.000000 -0.000305 0.000000
# 3 0.012066 -0.010162 0.017703 0.000000 -0.001556 0.000000
# 4 0.000000 0.000000 0.000000 0.026476 0.000000 -0.003173
# 5 -0.004460 -0.000305 -0.001556 0.000000 0.043968 0.000000
# 6 0.000000 0.000000 0.000000 -0.003173 0.000000 0.048950
#
#
# Mechanical properties :
#
#
# Convention : Reuss Voigt Hill
#
# Bulk Modulus (GPa) = 16.04268 33.46941 24.75604
# Shear Modulus (GPa) = 21.02637 27.72641 24.37639
#
# Velocity S-wave (km/s) = 3.38340 3.88524 3.64297
# Velocity P-wave (km/s) = 4.89870 6.19262 5.58327
#
# Compressibility (1/GPa) = 0.06233374
#
# Stress axis : x y z
#
# Youngs Moduli (GPa) = 22.09386 58.77310 56.48657
#
# Poissons Ratio (x) = 0.63043 -0.68154
# Poissons Ratio (y) = 0.23699 0.57401
# Poissons Ratio (z) = -0.26657 0.59725
#
# Static dielectric constant tensor:
#      x y z
#    x 1.624680 0.000000 -0.004510 
#    y 0.000000 1.620000 0.000000 
#    z -0.004510 0.000000 1.617320 
# 
# From -- ./inp_files/281026.got.cif
#   From: 2010.05.17/outbox.cif.g08.bks.cpg/sg12_141_cif.got.tgz:281026.got - 2010.06.03 13:09:07.
