data_PCOD9179022
_publ_section_title
;
Structure prediction by ZEFSAII (Michael W. Deem and Ramdas Pophale) SiO2 
 PCOD9179022
Probable space group: C 2/M
;
_chemical_formula_sum "Si O2"
_cell_formula_units_Z 64
_cell_length_a 19.271714
_cell_length_b 7.580046
_cell_length_c 21.157293
_cell_angle_alpha 90.000000
_cell_angle_beta 84.608916
_cell_angle_gamma 90.000000
_cell_volume 3076.996220
_symmetry_space_group_name_H-M "C 2/M"
_symmetry_group_IT_number 12
_symmetry_cell_setting 'monoclinic'
loop_
_space_group_symop_operation_xyz
x,y,z
-x,y,-z
-x,-y,-z
x,-y,z
1/2+x,1/2+y,z
1/2-x,1/2+y,-z
1/2-x,1/2-y,-z
1/2+x,1/2-y,z
loop_
_atom_site_type_symbol
_atom_site_label
_atom_site_fract_x
_atom_site_fract_y
_atom_site_fract_z
Si Si1 0.283095 0.714271 0.386884
Si Si2 0.171141 0.786933 0.868730
Si Si3 0.374277 0.206467 0.592490
Si Si4 0.410158 0.204149 0.455980
Si Si5 0.505252 0.699683 0.332280
Si Si6 0.297106 0.788545 0.934252
Si Si7 0.077937 0.289027 0.999293
Si Si8 0.381405 0.716040 0.262377
O O1 0.284276 0.500000 0.389914
O O2 0.203612 0.777408 0.393437
O O3 0.329797 0.784435 0.440441
O O4 0.323902 0.765761 0.319534
O O5 0.249028 0.723042 0.880835
O O6 0.119842 0.741183 0.930749
O O7 0.141284 0.723518 0.804737
O O8 0.174390 0.000000 0.865205
O O9 0.412644 0.278426 0.526543
O O10 0.422927 0.220220 0.649390
O O11 0.366006 0.000000 0.578684
O O12 0.454544 0.297765 0.398026
O O13 0.433936 0.000000 0.452581
O O14 0.521230 0.500000 0.313089
O O15 0.456676 0.779023 0.281504
O O16 0.302805 0.000000 0.926808
O O17 0.250000 0.750000 0.000000
O O18 0.373337 0.720086 0.947466
O O19 0.072647 0.500000 0.008829
O O20 0.000000 0.216944 0.000000
O O21 0.384234 0.500000 0.261998
#
# Coordination Sequence:
#
# PCOD9179022 Si02
#       8
#     8   8   8   8   8   8   8   8
#     4   9  18  33  50  68  93 123 154 191 237 284
#     4   9  16  29  50  69  86 117 160 193 218 261
#     4  10  20  32  47  70  97 121 150 196 246 286
#     4  10  19  31  48  70  95 121 153 195 240 285
#     4  10  20  33  49  67  91 125 160 194 237 288
#     4   8  14  25  43  65  87 114 146 177 211 254
#     4   9  17  29  44  68 102 126 142 178 230 273
#     4   8  16  32  50  66  86 117 157 195 226 265
#
# _framework density 20.799503999999999
#
# number of rings (size 3 to 8) (size 9 to 14) (size 15 to 20)
#    0.000    2.875    0.000    2.250    0.000    3.250 
#    0.000    4.375    0.000    3.000    0.000    0.000 
#    0.000    0.000    0.000    0.000    0.000    0.000 
#
# Total GULP energy -178378.881774 kJ/mol
# GULP energy per Si atom -5574.340055 kJ/mol
# Density = 2.075216 g / cm^3
# Si number density = 20.799504 Si / 1000 Ang^3
#
#
#
# Elastic Constant Matrix: (Units=GPa)
#
#
# Indices 1 2 3 4 5 6 
#
# 1 136.9077 -1.2402 48.9343 0.0000 44.6132 0.0000
# 2 -1.2402 46.0267 -5.0494 0.0000 0.0076 0.0000
# 3 48.9343 -5.0494 84.8053 0.0000 42.5232 0.0000
# 4 0.0000 0.0000 0.0000 11.5403 0.0000 1.5072
# 5 44.6132 0.0076 42.5232 0.0000 35.3048 0.0000
# 6 0.0000 0.0000 0.0000 1.5072 0.0000 0.6254
#
#
#
# Elastic Compliance Matrix: (Units=1/GPa)
#
#
# Indices 1 2 3 4 5 6 
#
# 1 0.012538 0.000546 0.001874 0.000000 -0.018101 0.000000
# 2 0.000546 0.022116 0.003409 0.000000 -0.004801 0.000000
# 3 0.001874 0.003409 0.030554 0.000000 -0.039170 0.000000
# 4 0.000000 0.000000 0.000000 0.126459 0.000000 -0.304778
# 5 -0.018101 -0.004801 -0.039170 0.000000 0.098378 0.000000
# 6 0.000000 0.000000 0.000000 -0.304778 0.000000 2.333598
#
#
# Mechanical properties :
#
#
# Convention : Reuss Voigt Hill
#
# Bulk Modulus (GPa) = 13.00953 39.22548 26.11750
# Shear Modulus (GPa) = 1.89566 24.50042 13.19804
#
# Velocity S-wave (km/s) = 0.95571 3.43583 2.52173
# Velocity P-wave (km/s) = 2.73608 5.88555 4.58943
#
# Compressibility (1/GPa) = 0.07686675
#
# Stress axis : x y z
#
# Youngs Moduli (GPa) = 79.75967 45.21614 32.72901
#
# Poissons Ratio (x) = -0.02471 -0.06134
# Poissons Ratio (y) = -0.04358 -0.11157
# Poissons Ratio (z) = -0.14949 -0.15414
#
# Static dielectric constant tensor:
#      x y z
#    x 1.784570 0.000000 0.042950 
#    y 0.000000 1.762390 0.000000 
#    z 0.042950 0.000000 1.724180 
# 
# From -- ./inp_files/341983.got.cif
#   From: 2010.05.17/outbox.cif.g08.bks.cpg/sg12_171_cif.got.tgz:341983.got - 2010.06.03 13:09:07.
