data_PCOD9179883
_publ_section_title
;
Structure prediction by ZEFSAII (Michael W. Deem and Ramdas Pophale) SiO2 
 PCOD9179883
Probable space group: C 2/M
;
_chemical_formula_sum "Si O2"
_cell_formula_units_Z 56
_cell_length_a 19.679748
_cell_length_b 7.658495
_cell_length_c 20.634931
_cell_angle_alpha 90.000000
_cell_angle_beta 57.609711
_cell_angle_gamma 90.000000
_cell_volume 2626.176102
_symmetry_space_group_name_H-M "C 2/M"
_symmetry_group_IT_number 12
_symmetry_cell_setting 'monoclinic'
loop_
_space_group_symop_operation_xyz
x,y,z
-x,y,-z
-x,-y,-z
x,-y,z
1/2+x,1/2+y,z
1/2-x,1/2+y,-z
1/2-x,1/2-y,-z
1/2+x,1/2-y,z
loop_
_atom_site_type_symbol
_atom_site_label
_atom_site_fract_x
_atom_site_fract_y
_atom_site_fract_z
Si Si1 0.450940 0.787120 0.229293
Si Si2 0.554165 0.796207 0.915217
Si Si3 0.234792 0.197608 0.826924
Si Si4 0.503203 0.787170 0.573007
Si Si5 0.319633 0.792811 0.514607
Si Si6 0.909332 0.714734 0.744556
Si Si7 0.771815 0.702940 0.313849
O O1 0.458742 0.724722 0.150843
O O2 0.521857 0.729029 0.240268
O O3 0.359523 0.741394 0.296303
O O4 0.454139 0.000000 0.228442
O O5 0.648896 0.784882 0.883087
O O6 0.532278 0.000000 0.921229
O O7 0.500000 0.718248 0.000000
O O8 0.319336 0.274564 0.807812
O O9 0.244679 0.196606 0.743729
O O10 0.227731 0.000000 0.854619
O O11 0.500000 0.729261 0.500000
O O12 0.591980 0.735116 0.552131
O O13 0.437000 0.728394 0.658454
O O14 0.498061 0.000000 0.574701
O O15 0.250000 0.750000 0.500000
O O16 0.294383 0.721606 0.597394
O O17 0.323765 0.000000 0.519444
O O18 0.907108 0.500000 0.745570
O O19 0.778980 0.500000 0.291313
#
# Coordination Sequence:
#
# PCOD9179883 Si02
#       7
#     8   8   8   8   8   8   8
#     4   8  15  29  50  72  93 126 170 205 236 289
#     4   9  18  34  55  76 100 132 166 199 239 293
#     4  10  19  31  52  78 100 124 157 202 250 294
#     4   9  17  29  46  68  94 128 171 213 251 297
#     4  11  21  32  49  72  98 129 169 219 265 301
#     4   9  16  28  47  71  97 126 165 207 246 295
#     4  10  19  33  52  71  96 132 172 210 248 298
#
# _framework density 21.323779999999999
#
# number of rings (size 3 to 8) (size 9 to 14) (size 15 to 20)
#    0.000    2.571    0.000    3.857    0.000    4.857 
#    0.000    0.714    0.000   23.143    0.000    0.000 
#    0.000    0.000    0.000    0.000    0.000    0.000 
#
# Total GULP energy -156251.148597 kJ/mol
# GULP energy per Si atom -5580.398164 kJ/mol
# Density = 2.127525 g / cm^3
# Si number density = 21.323780 Si / 1000 Ang^3
#
#
#
# Elastic Constant Matrix: (Units=GPa)
#
#
# Indices 1 2 3 4 5 6 
#
# 1 105.0687 -2.7998 18.2009 -0.0005 -14.0593 -0.0012
# 2 -2.7998 39.6608 -2.2940 -0.0011 2.1721 -0.0043
# 3 18.2009 -2.2940 95.2396 -0.0001 -18.1797 -0.0002
# 4 -0.0005 -0.0011 -0.0001 9.5767 0.0002 -3.1196
# 5 -14.0593 2.1721 -18.1797 0.0002 21.3625 -0.0001
# 6 -0.0012 -0.0043 -0.0002 -3.1196 -0.0001 12.5887
#
#
#
# Elastic Compliance Matrix: (Units=1/GPa)
#
#
# Indices 1 2 3 4 5 6 
#
# 1 0.010495 0.000355 -0.000819 0.000001 0.006174 0.000001
# 2 0.000355 0.025369 0.000114 0.000006 -0.002249 0.000010
# 3 -0.000819 0.000114 0.012601 0.000000 0.010173 0.000000
# 4 0.000001 0.000006 0.000000 0.113590 -0.000001 0.028148
# 5 0.006174 -0.002249 0.010173 -0.000001 0.059761 0.000000
# 6 0.000001 0.000010 0.000000 0.028148 0.000000 0.086412
#
#
# Mechanical properties :
#
#
# Convention : Reuss Voigt Hill
#
# Bulk Modulus (GPa) = 20.93532 29.57592 25.25562
# Shear Modulus (GPa) = 15.39186 23.82971 19.61079
#
# Velocity S-wave (km/s) = 2.68958 3.34656 3.03589
# Velocity P-wave (km/s) = 4.41410 5.36960 4.91512
#
# Compressibility (1/GPa) = 0.04776616
#
# Stress axis : x y z
#
# Youngs Moduli (GPa) = 95.28299 39.41870 79.35940
#
# Poissons Ratio (x) = -0.01401 0.06496
# Poissons Ratio (y) = -0.03386 -0.00904
# Poissons Ratio (z) = 0.07799 -0.00449
#
# Static dielectric constant tensor:
#      x y z
#    x 1.788950 0.000000 -0.011010 
#    y 0.000000 1.812030 0.000000 
#    z -0.011010 0.000000 1.745420 
# 
# From -- ./inp_files/313781.got.cif
#   From: 2010.05.17/outbox.cif.g08.bks.cpg/sg12_157_cif.got.tgz:313781.got - 2010.06.03 13:09:07.
