data_PCOD9179766
_publ_section_title
;
Structure prediction by ZEFSAII (Michael W. Deem and Ramdas Pophale) SiO2 
 PCOD9179766
Probable space group: C 2/M
;
_chemical_formula_sum "Si O2"
_cell_formula_units_Z 56
_cell_length_a 13.526142
_cell_length_b 25.523195
_cell_length_c 13.392150
_cell_angle_alpha 90.000000
_cell_angle_beta 33.885716
_cell_angle_gamma 90.000000
_cell_volume 2577.709007
_symmetry_space_group_name_H-M "C 2/M"
_symmetry_group_IT_number 12
_symmetry_cell_setting 'monoclinic'
loop_
_space_group_symop_operation_xyz
x,y,z
-x,y,-z
-x,-y,-z
x,-y,z
1/2+x,1/2+y,z
1/2-x,1/2+y,-z
1/2-x,1/2-y,-z
1/2+x,1/2-y,z
loop_
_atom_site_type_symbol
_atom_site_label
_atom_site_fract_x
_atom_site_fract_y
_atom_site_fract_z
Si Si1 0.041814 0.154883 0.634959
Si Si2 0.828652 0.881254 0.279001
Si Si3 0.430180 0.058954 0.361752
Si Si4 0.796992 0.694758 0.009391
Si Si5 0.645142 0.135563 0.761215
Si Si6 0.780035 0.888939 0.100015
Si Si7 0.861428 0.940725 0.707838
O O1 0.973318 0.094108 0.691513
O O2 0.134128 0.161882 0.665581
O O3 0.176752 0.162383 0.431768
O O4 0.861815 0.186860 0.778835
O O5 0.687484 0.919302 0.448673
O O6 0.767210 0.863395 0.221047
O O7 0.020220 0.905876 0.092214
O O8 0.399051 0.094831 0.291169
O O9 0.636045 0.065442 0.216177
O O10 0.380369 0.000000 0.379743
O O11 0.768770 0.653169 0.943490
O O12 0.986419 0.677936 0.896993
O O13 0.750000 0.750000 0.000000
O O14 0.701075 0.096967 0.805477
O O15 0.000000 0.944860 0.500000
O O16 0.810827 0.000000 0.779906
#
# Coordination Sequence:
#
# PCOD9179766 Si02
#       7
#     8   8   8   8   8   8   8
#     4   9  19  35  54  80 111 142 181 224 267 329
#     4   9  18  33  51  70 103 142 172 209 259 311
#     4  10  19  31  51  78 106 139 176 213 260 321
#     4  10  21  38  58  79 103 137 184 236 286 333
#     4   9  19  36  56  79 111 142 178 228 275 327
#     4   9  19  35  51  73 104 137 176 224 270 318
#     4   9  17  33  58  85 117 154 185 222 279 341
#
# _framework density 21.724716999999998
#
# number of rings (size 3 to 8) (size 9 to 14) (size 15 to 20)
#    0.000    2.714    0.000    0.857    0.000    6.286 
#    0.000   14.286    0.000    8.571    0.000    0.000 
#    0.000    0.000    0.000    0.000    0.000    0.000 
#
# Total GULP energy -156009.534468 kJ/mol
# GULP energy per Si atom -5571.769088 kJ/mol
# Density = 2.167527 g / cm^3
# Si number density = 21.724717 Si / 1000 Ang^3
#
#
#
# Elastic Constant Matrix: (Units=GPa)
#
#
# Indices 1 2 3 4 5 6 
#
# 1 76.7695 -4.9323 15.5019 0.0000 3.0974 0.0004
# 2 -4.9323 64.6444 38.6402 0.0000 -14.5046 0.0001
# 3 15.5019 38.6402 95.5912 0.0000 -23.7046 0.0003
# 4 0.0000 0.0000 0.0000 13.8674 0.0001 0.5661
# 5 3.0974 -14.5046 -23.7046 0.0001 37.4241 -0.0004
# 6 0.0004 0.0001 0.0003 0.5661 -0.0004 16.5084
#
#
#
# Elastic Compliance Matrix: (Units=1/GPa)
#
#
# Indices 1 2 3 4 5 6 
#
# 1 0.014163 0.002969 -0.004155 0.000000 -0.002653 0.000000
# 2 0.002969 0.021345 -0.008445 0.000000 0.002678 0.000000
# 3 -0.004155 -0.008445 0.016398 0.000000 0.007457 0.000000
# 4 0.000000 0.000000 0.000000 0.072213 0.000000 -0.002476
# 5 -0.002653 0.002678 0.007457 0.000000 0.032702 0.000001
# 6 0.000000 0.000000 0.000000 -0.002476 0.000001 0.060660
#
#
# Mechanical properties :
#
#
# Convention : Reuss Voigt Hill
#
# Bulk Modulus (GPa) = 30.63487 37.26939 33.95213
# Shear Modulus (GPa) = 20.19193 26.07967 23.13580
#
# Velocity S-wave (km/s) = 3.05199 3.46853 3.26690
# Velocity P-wave (km/s) = 5.15282 5.76484 5.46740
#
# Compressibility (1/GPa) = 0.03264254
#
# Stress axis : x y z
#
# Youngs Moduli (GPa) = 70.60782 46.85009 60.98286
#
# Poissons Ratio (x) = -0.13908 0.25337
# Poissons Ratio (y) = -0.20961 0.51503
# Poissons Ratio (z) = 0.29335 0.39567
#
# Static dielectric constant tensor:
#      x y z
#    x 1.875860 0.000000 -0.034720 
#    y 0.000000 1.771790 0.000000 
#    z -0.034720 0.000000 1.837680 
# 
# From -- ./inp_files/218676.got.cif
#   From: 2010.05.17/outbox.cif.g08.bks.cpg/sg12_110_cif.got.tgz:218676.got - 2010.06.03 13:09:07.
