data_PCOD9179390
_publ_section_title
;
Structure prediction by ZEFSAII (Michael W. Deem and Ramdas Pophale) SiO2 
 PCOD9179390
Probable space group: C 2/M
;
_chemical_formula_sum "Si O2"
_cell_formula_units_Z 64
_cell_length_a 12.256173
_cell_length_b 14.409950
_cell_length_c 31.478485
_cell_angle_alpha 90.000000
_cell_angle_beta 149.020021
_cell_angle_gamma 90.000000
_cell_volume 2861.658791
_symmetry_space_group_name_H-M "C 2/M"
_symmetry_group_IT_number 12
_symmetry_cell_setting 'monoclinic'
loop_
_space_group_symop_operation_xyz
x,y,z
-x,y,-z
-x,-y,-z
x,-y,z
1/2+x,1/2+y,z
1/2-x,1/2+y,-z
1/2-x,1/2-y,-z
1/2+x,1/2-y,z
loop_
_atom_site_type_symbol
_atom_site_label
_atom_site_fract_x
_atom_site_fract_y
_atom_site_fract_z
Si Si1 0.609886 0.386863 0.601143
Si Si2 0.115691 0.103656 0.775779
Si Si3 0.198572 0.886191 0.258923
Si Si4 0.490608 0.345413 0.894851
Si Si5 0.316897 0.114580 0.758480
Si Si6 0.467083 0.151626 0.039920
Si Si7 0.181880 0.612869 0.417695
Si Si8 0.287164 0.604274 0.908871
O O1 0.610767 0.500000 0.601702
O O2 0.714108 0.357803 0.679850
O O3 0.745430 0.358056 0.605261
O O4 0.367442 0.357203 0.511811
O O5 0.176684 0.147038 0.751210
O O6 0.334675 0.097072 0.874906
O O7 0.945557 0.147825 0.750176
O O8 0.035852 0.000000 0.739582
O O9 0.107658 0.847828 0.184505
O O10 0.442384 0.859893 0.346820
O O11 0.182757 0.000000 0.251174
O O12 0.512964 0.247103 0.926418
O O13 0.332206 0.398094 0.873867
O O14 0.730352 0.384113 0.970894
O O15 0.560826 0.147828 0.843287
O O16 0.324910 0.000000 0.762285
O O17 0.500000 0.156977 0.000000
O O18 0.184352 0.500000 0.418654
O O19 0.276422 0.500000 0.922837
O O20 0.500000 0.646019 0.000000
#
# Coordination Sequence:
#
# PCOD9179390 Si02
#       8
#     8   8   8   8   8   8   8   8
#     4   8  13  24  44  72 108 141 167 207 264 316
#     4  10  21  36  53  74 105 141 178 218 260 319
#     4  10  19  33  53  79 108 137 174 218 263 314
#     4  11  22  35  54  73 100 135 173 221 261 310
#     4   9  17  30  48  73 106 140 174 212 260 314
#     4  11  23  39  52  73 103 138 180 218 264 317
#     4   8  14  25  45  75 109 138 167 212 263 311
#     4  10  19  31  49  76 105 133 170 217 263 304
#
# _framework density 22.364650999999999
#
# number of rings (size 3 to 8) (size 9 to 14) (size 15 to 20)
#    0.000    2.375    1.250    3.000    0.000    5.250 
#    0.000    0.625    0.000    3.750    0.000    0.875 
#    3.750    0.000    0.000    0.000    0.000    0.000 
#
# Total GULP energy -178700.213785 kJ/mol
# GULP energy per Si atom -5584.381681 kJ/mol
# Density = 2.231375 g / cm^3
# Si number density = 22.364651 Si / 1000 Ang^3
#
#
#
# Elastic Constant Matrix: (Units=GPa)
#
#
# Indices 1 2 3 4 5 6 
#
# 1 177.0754 9.9756 99.1680 0.0000 6.5654 0.0000
# 2 9.9756 51.6524 4.0376 0.0000 2.6235 0.0000
# 3 99.1680 4.0376 158.5450 0.0002 5.5595 -0.0003
# 4 0.0000 0.0000 0.0002 1.0495 0.0001 6.7018
# 5 6.5654 2.6235 5.5595 0.0001 40.7493 0.0000
# 6 0.0000 0.0000 -0.0003 6.7018 0.0000 -4.4040
#
#
#
# Elastic Compliance Matrix: (Units=1/GPa)
#
#
# Indices 1 2 3 4 5 6 
#
# 1 0.008788 -0.001242 -0.005445 0.000000 -0.000593 0.000000
# 2 -0.001242 0.019632 0.000315 0.000000 -0.001107 0.000000
# 3 -0.005445 0.000315 0.009721 0.000000 -0.000469 0.000000
# 4 0.000000 0.000000 0.000000 0.088904 0.000000 0.135291
# 5 -0.000593 -0.001107 -0.000469 0.000000 0.024771 0.000000
# 6 0.000000 0.000000 0.000000 0.135291 0.000000 -0.021186
#
#
# Mechanical properties :
#
#
# Convention : Reuss Voigt Hill
#
# Bulk Modulus (GPa) = 39.37042 68.18170 53.77606
# Shear Modulus (GPa) = 32.92956 25.75172 29.34064
#
# Velocity S-wave (km/s) = 3.84134 3.39698 3.62597
# Velocity P-wave (km/s) = 6.10873 6.77780 6.45194
#
# Compressibility (1/GPa) = 0.02539978
#
# Stress axis : x y z
#
# Youngs Moduli (GPa) = 113.78598 50.93849 102.86642
#
# Poissons Ratio (x) = 0.06324 0.56007
# Poissons Ratio (y) = 0.14128 -0.03245
# Poissons Ratio (z) = 0.61952 -0.01607
#
# Static dielectric constant tensor:
#      x y z
#    x 1.817570 0.000000 0.004770 
#    y 0.000000 1.874140 0.000000 
#    z 0.004770 0.000000 1.793580 
# 
# From -- ./inp_files/374512.got.cif
#   From: 2010.05.17/outbox.cif.g08.bks.cpg/sg12_188_cif.got.tgz:374512.got - 2010.06.03 13:09:07.
