data_PCOD9179311
_publ_section_title
;
Structure prediction by ZEFSAII (Michael W. Deem and Ramdas Pophale) SiO2 
 PCOD9179311
Probable space group: C 2/M
;
_chemical_formula_sum "Si O2"
_cell_formula_units_Z 48
_cell_length_a 14.386273
_cell_length_b 7.611043
_cell_length_c 24.897476
_cell_angle_alpha 90.000000
_cell_angle_beta 53.250227
_cell_angle_gamma 90.000000
_cell_volume 2184.334722
_symmetry_space_group_name_H-M "C 2/M"
_symmetry_group_IT_number 12
_symmetry_cell_setting 'monoclinic'
loop_
_space_group_symop_operation_xyz
x,y,z
-x,y,-z
-x,-y,-z
x,-y,z
1/2+x,1/2+y,z
1/2-x,1/2+y,-z
1/2-x,1/2-y,-z
1/2+x,1/2-y,z
loop_
_atom_site_type_symbol
_atom_site_label
_atom_site_fract_x
_atom_site_fract_y
_atom_site_fract_z
Si Si1 0.034832 0.716124 0.756793
Si Si2 0.358030 0.210864 0.391772
Si Si3 0.409217 0.711043 0.983121
Si Si4 0.216909 0.703375 0.123672
Si Si5 0.901234 0.210848 0.494744
Si Si6 0.110992 0.296474 0.842233
O O1 0.033102 0.500000 0.756788
O O2 0.082017 0.776011 0.683154
O O3 0.113669 0.768776 0.780332
O O4 0.904603 0.778992 0.814726
O O5 0.226676 0.278660 0.445372
O O6 0.423318 0.251180 0.424623
O O7 0.351693 0.000000 0.389482
O O8 0.403000 0.500000 0.980172
O O9 0.476755 0.782066 0.908292
O O10 0.500000 0.750596 0.000000
O O11 0.286811 0.780617 0.048302
O O12 0.196286 0.500000 0.117244
O O13 0.306218 0.706264 0.143089
O O14 0.000000 0.279306 0.500000
O O15 0.897429 0.000000 0.501748
O O16 0.143810 0.500000 0.831940
#
# Coordination Sequence:
#
# PCOD9179311 Si02
#       6
#     8   8   8   8   8   8
#     4   9  19  34  50  70  99 133 162 194 243 293
#     4   9  18  34  53  73 100 131 163 196 231 284
#     4   8  15  29  48  67  91 126 164 202 245 291
#     4   9  18  34  51  66  92 131 168 200 242 295
#     4   9  18  33  54  78 102 128 157 194 241 284
#     4  10  19  31  49  73  98 124 161 208 249 285
#
# _framework density 21.974654000000001
#
# number of rings (size 3 to 8) (size 9 to 14) (size 15 to 20)
#    0.000    3.000    0.000    1.500    0.000    5.333 
#    0.000    5.833    0.000    0.000    0.000    0.000 
#    0.000    0.000    0.000    0.000    0.000    0.000 
#
# Total GULP energy -133924.282255 kJ/mol
# GULP energy per Si atom -5580.178427 kJ/mol
# Density = 2.192464 g / cm^3
# Si number density = 21.974654 Si / 1000 Ang^3
#
#
#
# Elastic Constant Matrix: (Units=GPa)
#
#
# Indices 1 2 3 4 5 6 
#
# 1 90.0696 -5.7729 56.9099 0.0000 23.2433 0.0001
# 2 -5.7729 39.7579 3.6280 0.0000 -2.9105 0.0003
# 3 56.9099 3.6280 128.9349 0.0000 34.0555 0.0000
# 4 0.0000 0.0000 0.0000 16.4088 0.0000 9.1898
# 5 23.2433 -2.9105 34.0555 0.0000 27.5451 0.0000
# 6 0.0001 0.0003 0.0000 9.1898 0.0000 -2.5661
#
#
#
# Elastic Compliance Matrix: (Units=1/GPa)
#
#
# Indices 1 2 3 4 5 6 
#
# 1 0.016532 0.002409 -0.005564 0.000000 -0.006816 0.000000
# 2 0.002409 0.026092 -0.002953 -0.000001 0.004375 0.000001
# 3 -0.005564 -0.002953 0.013568 0.000000 -0.012391 0.000000
# 4 0.000000 -0.000001 0.000000 0.020276 0.000000 0.072612
# 5 -0.006816 0.004375 -0.012391 0.000000 0.057838 0.000000
# 6 0.000000 0.000001 0.000000 0.072612 0.000000 -0.129652
#
#
# Mechanical properties :
#
#
# Convention : Reuss Voigt Hill
#
# Bulk Modulus (GPa) = 22.74033 40.92139 31.83086
# Shear Modulus (GPa) = 158.59026 21.87738 90.23382
#
# Velocity S-wave (km/s) = 8.50449 3.15869 6.41497
# Velocity P-wave (km/s) = 10.33470 5.65382 8.32981
#
# Compressibility (1/GPa) = 0.04397473
#
# Stress axis : x y z
#
# Youngs Moduli (GPa) = 60.49011 38.32621 73.70341
#
# Poissons Ratio (x) = -0.09234 0.41011
# Poissons Ratio (y) = -0.14573 0.21766
# Poissons Ratio (z) = 0.33659 0.11318
#
# Static dielectric constant tensor:
#      x y z
#    x 1.822480 0.000000 -0.010420 
#    y 0.000000 1.796640 0.000000 
#    z -0.010420 0.000000 1.808280 
# 
# From -- ./inp_files/339204.got.cif
#   From: 2010.05.17/outbox.cif.g08.bks.cpg/sg12_170_cif.got.tgz:339204.got - 2010.06.03 13:09:07.
