data_PCOD9179116
_publ_section_title
;
Structure prediction by ZEFSAII (Michael W. Deem and Ramdas Pophale) SiO2 
 PCOD9179116
Probable space group: C 2/M
;
_chemical_formula_sum "Si O2"
_cell_formula_units_Z 56
_cell_length_a 30.702728
_cell_length_b 15.042544
_cell_length_c 7.727636
_cell_angle_alpha 90.000000
_cell_angle_beta 112.543605
_cell_angle_gamma 90.000000
_cell_volume 3296.273244
_symmetry_space_group_name_H-M "C 2/M"
_symmetry_group_IT_number 12
_symmetry_cell_setting 'monoclinic'
loop_
_space_group_symop_operation_xyz
x,y,z
-x,y,-z
-x,-y,-z
x,-y,z
1/2+x,1/2+y,z
1/2-x,1/2+y,-z
1/2-x,1/2-y,-z
1/2+x,1/2-y,z
loop_
_atom_site_type_symbol
_atom_site_label
_atom_site_fract_x
_atom_site_fract_y
_atom_site_fract_z
Si Si1 0.959098 0.601185 0.178905
Si Si2 0.764040 0.598650 0.396071
Si Si3 0.641724 0.106423 0.837733
Si Si4 0.850807 0.289193 0.507325
Si Si5 0.314789 0.599111 0.432350
Si Si6 0.756314 0.354972 0.983326
Si Si7 0.559494 0.102582 0.258081
O O1 0.961921 0.500000 0.249025
O O2 0.909229 0.636939 0.170000
O O3 0.012350 0.636674 0.285554
O O4 0.952278 0.597516 0.962263
O O5 0.785510 0.500000 0.454075
O O6 0.801637 0.673457 0.508032
O O7 0.718916 0.604579 0.450488
O O8 0.752218 0.606588 0.172936
O O9 0.649358 0.164744 0.680034
O O10 0.639509 0.000000 0.804762
O O11 0.691320 0.122758 0.011065
O O12 0.849274 0.183347 0.494569
O O13 0.896636 0.332343 0.660630
O O14 0.335886 0.500000 0.460306
O O15 0.282099 0.611386 0.212072
O O16 0.750000 0.250000 0.000000
O O17 0.570050 0.000000 0.330316
#
# Coordination Sequence:
#
# PCOD9179116 Si02
#       7
#     8   8   8   8   8   8   8
#     4   8  17  31  48  75 105 133 162 194 251 320
#     4  10  21  35  51  74 103 136 175 211 252 308
#     4  10  19  31  48  73 102 131 164 202 251 308
#     4  11  20  32  49  73  99 130 172 210 248 299
#     4  11  23  37  52  72 103 143 178 215 257 294
#     4  11  20  34  53  74 107 139 173 213 253 297
#     4   9  17  31  50  74 105 133 161 203 249 305
#
# _framework density 16.988883000000001
#
# number of rings (size 3 to 8) (size 9 to 14) (size 15 to 20)
#    0.000    2.000    2.857    4.714    2.000    0.571 
#    0.000    2.143    0.000    0.000    0.000    4.000 
#    0.000    0.000    0.000    0.000    0.000    0.000 
#
# Total GULP energy -155881.984967 kJ/mol
# GULP energy per Si atom -5567.213749 kJ/mol
# Density = 1.695022 g / cm^3
# Si number density = 16.988883 Si / 1000 Ang^3
#
#
#
# Elastic Constant Matrix: (Units=GPa)
#
#
# Indices 1 2 3 4 5 6 
#
# 1 63.6609 25.1072 9.2375 0.0000 -0.4414 0.0000
# 2 25.1072 117.8936 11.5498 0.0000 7.3672 0.0000
# 3 9.2375 11.5498 38.5255 0.0000 3.0281 0.0000
# 4 0.0000 0.0000 0.0000 21.0202 0.0000 3.3431
# 5 -0.4414 7.3672 3.0281 0.0000 17.9236 0.0000
# 6 0.0000 0.0000 0.0000 3.3431 0.0000 14.8219
#
#
#
# Elastic Compliance Matrix: (Units=1/GPa)
#
#
# Indices 1 2 3 4 5 6 
#
# 1 0.017623 -0.003580 -0.003347 0.000000 0.002471 0.000000
# 2 -0.003580 0.009650 -0.001739 0.000000 -0.003761 0.000000
# 3 -0.003347 -0.001739 0.027597 0.000000 -0.004030 0.000000
# 4 0.000000 0.000000 0.000000 0.049343 0.000000 -0.011129
# 5 0.002471 -0.003761 -0.004030 0.000000 0.058080 0.000000
# 6 0.000000 0.000000 0.000000 -0.011129 0.000000 0.069978
#
#
# Mechanical properties :
#
#
# Convention : Reuss Voigt Hill
#
# Bulk Modulus (GPa) = 26.63857 34.65211 30.64534
# Shear Modulus (GPa) = 19.07559 22.36549 20.72054
#
# Velocity S-wave (km/s) = 3.35450 3.63227 3.49614
# Velocity P-wave (km/s) = 5.54234 6.16704 5.86302
#
# Compressibility (1/GPa) = 0.03753956
#
# Stress axis : x y z
#
# Youngs Moduli (GPa) = 56.74498 103.62757 36.23524
#
# Poissons Ratio (x) = 0.37094 0.12126
# Poissons Ratio (y) = 0.20312 0.06302
# Poissons Ratio (z) = 0.18990 0.18022
#
# Static dielectric constant tensor:
#      x y z
#    x 1.649680 0.000000 0.017570 
#    y 0.000000 1.574660 0.000000 
#    z 0.017570 0.000000 1.651580 
# 
# From -- ./inp_files/111297.got.cif
#   From: 2010.05.17/outbox.cif.g08.bks.cpg/sg12_56_cif.got.tgz:111297.got - 2010.06.03 13:09:07.
