data_PCOD9179093
_publ_section_title
;
Structure prediction by ZEFSAII (Michael W. Deem and Ramdas Pophale) SiO2 
 PCOD9179093
Probable space group: C 2/M
;
_chemical_formula_sum "Si O2"
_cell_formula_units_Z 40
_cell_length_a 28.395155
_cell_length_b 7.505049
_cell_length_c 27.097794
_cell_angle_alpha 90.000000
_cell_angle_beta 160.739563
_cell_angle_gamma 90.000000
_cell_volume 1904.867667
_symmetry_space_group_name_H-M "C 2/M"
_symmetry_group_IT_number 12
_symmetry_cell_setting 'monoclinic'
loop_
_space_group_symop_operation_xyz
x,y,z
-x,y,-z
-x,-y,-z
x,-y,z
1/2+x,1/2+y,z
1/2-x,1/2+y,-z
1/2-x,1/2-y,-z
1/2+x,1/2-y,z
loop_
_atom_site_type_symbol
_atom_site_label
_atom_site_fract_x
_atom_site_fract_y
_atom_site_fract_z
Si Si1 0.412754 0.715404 0.768388
Si Si2 0.416234 0.718108 0.966508
Si Si3 0.925145 0.789180 0.565790
Si Si4 0.403994 0.205504 0.361601
Si Si5 0.419660 0.287015 0.667868
O O1 0.419000 0.500000 0.773755
O O2 0.245394 0.761984 0.607985
O O3 0.468554 0.779575 0.769893
O O4 0.503138 0.778949 0.904376
O O5 0.416867 0.500000 0.969140
O O6 0.253364 0.781644 0.802009
O O7 0.500000 0.769574 0.000000
O O8 0.971266 0.718982 0.665692
O O9 0.008543 0.708293 0.602557
O O10 0.951971 0.000000 0.591017
O O11 0.500000 0.287557 0.500000
O O12 0.378367 0.000000 0.351339
O O13 0.440722 0.500000 0.687986
O O14 0.250000 0.250000 0.500000
#
# Coordination Sequence:
#
# PCOD9179093 Si02
#       5
#     8   8   8   8   8
#     4   9  16  30  52  73  95 125 162 200 235 273
#     4   9  17  30  50  74  94 116 155 204 243 276
#     4  10  19  31  48  72 101 128 157 193 235 283
#     4  10  20  34  52  72  94 123 160 198 237 283
#     4   8  15  27  45  69  95 125 158 192 230 274
#
# _framework density 20.998833999999999
#
# number of rings (size 3 to 8) (size 9 to 14) (size 15 to 20)
#    0.000    2.800    0.000    1.800    0.000    4.400 
#    0.000    2.000    0.000    2.400    0.000    0.000 
#    0.000    0.000    0.000    0.000    0.000    0.000 
#
# Total GULP energy -111526.483170 kJ/mol
# GULP energy per Si atom -5576.324159 kJ/mol
# Density = 2.095104 g / cm^3
# Si number density = 20.998834 Si / 1000 Ang^3
#
#
#
# Elastic Constant Matrix: (Units=GPa)
#
#
# Indices 1 2 3 4 5 6 
#
# 1 191.3924 -6.7743 92.2356 0.0000 -30.5597 0.0001
# 2 -6.7743 59.2676 -0.4508 -0.0003 -5.7612 -0.0004
# 3 92.2356 -0.4508 122.0787 0.0001 -22.6500 0.0008
# 4 0.0000 -0.0003 0.0001 -1.5931 0.0001 -24.5976
# 5 -30.5597 -5.7612 -22.6500 0.0001 37.5641 0.0003
# 6 0.0001 -0.0004 0.0008 -24.5976 0.0003 -145.5504
#
#
#
# Elastic Compliance Matrix: (Units=1/GPa)
#
#
# Indices 1 2 3 4 5 6 
#
# 1 0.008699 0.001313 -0.005874 0.000000 0.003736 0.000000
# 2 0.001313 0.017368 -0.000265 0.000002 0.003572 0.000000
# 3 -0.005874 -0.000265 0.013213 0.000000 0.003147 0.000000
# 4 0.000000 0.000002 0.000000 0.390035 0.000000 -0.065915
# 5 0.003736 0.003572 0.003147 0.000000 0.032106 0.000000
# 6 0.000000 0.000000 0.000000 -0.065915 0.000000 0.004269
#
#
# Mechanical properties :
#
#
# Convention : Reuss Voigt Hill
#
# Bulk Modulus (GPa) = 33.75380 60.30663 47.03021
# Shear Modulus (GPa) = 10.30464 -2.73399 3.78533
#
# Velocity S-wave (km/s) = 2.21763 -1.14228 1.34408
# Velocity P-wave (km/s) = 4.76091 5.20016 4.98537
#
# Compressibility (1/GPa) = 0.02962630
#
# Stress axis : x y z
#
# Youngs Moduli (GPa) = 114.95827 57.57763 75.68503
#
# Poissons Ratio (x) = -0.07559 0.44460
# Poissons Ratio (y) = -0.15091 0.02006
# Poissons Ratio (z) = 0.67530 0.01526
#
# Static dielectric constant tensor:
#      x y z
#    x 1.766340 0.000000 -0.041070 
#    y 0.000000 1.785140 0.000000 
#    z -0.041070 0.000000 1.722110 
# 
# From -- ./inp_files/93657.got.cif
#   From: 2010.05.17/outbox.cif.g08.bks.cpg/sg12_47_cif.got.tgz:93657.got - 2010.06.03 13:09:07.
