data_PCOD9179319
_publ_section_title
;
Structure prediction by ZEFSAII (Michael W. Deem and Ramdas Pophale) SiO2 
 PCOD9179319
Probable space group: C 2/M
;
_chemical_formula_sum "Si O2"
_cell_formula_units_Z 56
_cell_length_a 18.856142
_cell_length_b 9.166538
_cell_length_c 25.327678
_cell_angle_alpha 90.000000
_cell_angle_beta 143.699334
_cell_angle_gamma 90.000000
_cell_volume 2591.742236
_symmetry_space_group_name_H-M "C 2/M"
_symmetry_group_IT_number 12
_symmetry_cell_setting 'monoclinic'
loop_
_space_group_symop_operation_xyz
x,y,z
-x,y,-z
-x,-y,-z
x,-y,z
1/2+x,1/2+y,z
1/2-x,1/2+y,-z
1/2-x,1/2-y,-z
1/2+x,1/2-y,z
loop_
_atom_site_type_symbol
_atom_site_label
_atom_site_fract_x
_atom_site_fract_y
_atom_site_fract_z
Si Si1 0.099559 0.334092 0.948698
Si Si2 0.278789 0.330572 0.156580
Si Si3 0.842853 0.328790 0.515839
Si Si4 0.960997 0.175101 0.185958
Si Si5 0.769141 0.170773 0.668763
Si Si6 0.909387 0.836055 0.895560
Si Si7 0.558972 0.330829 0.594529
O O1 0.095124 0.500000 0.927726
O O2 0.118897 0.231308 0.910308
O O3 0.973304 0.279128 0.896382
O O4 0.191417 0.326905 0.052589
O O5 0.459393 0.500000 0.184822
O O6 0.405441 0.281354 0.208801
O O7 0.217084 0.224055 0.160748
O O8 0.856494 0.500000 0.538050
O O9 0.750000 0.250000 0.500000
O O10 0.785622 0.321186 0.422871
O O11 0.971301 0.250259 0.583261
O O12 0.095532 0.225479 0.256461
O O13 0.782762 0.000000 0.176593
O O14 0.686829 0.256068 0.660758
O O15 0.769643 0.000000 0.683466
O O16 0.904284 0.000000 0.870394
O O17 0.000000 0.843270 0.000000
O O18 0.500000 0.324664 0.500000
O O19 0.570065 0.500000 0.615884
#
# Coordination Sequence:
#
# PCOD9179319 Si02
#       7
#     8   8   8   8   8   8   8
#     4  10  19  31  49  73  99 130 171 214 255 303
#     4   9  18  32  50  72  99 132 170 213 259 304
#     4  10  19  33  55  81 106 133 168 208 250 297
#     4  10  20  34  51  72 101 134 167 208 256 302
#     4   9  19  35  53  74 102 135 168 204 250 301
#     4   9  17  30  49  70  92 122 163 211 258 303
#     4   9  17  31  53  78 102 130 164 200 240 292
#
# _framework density 21.607085999999999
#
# number of rings (size 3 to 8) (size 9 to 14) (size 15 to 20)
#    0.000    2.571    0.000    2.143    0.000    5.714 
#    0.000    1.429    0.000    5.143    0.000    0.000 
#    0.000    0.000    0.000    0.000    0.000    0.000 
#
# Total GULP energy -156310.182282 kJ/mol
# GULP energy per Si atom -5582.506510 kJ/mol
# Density = 2.155791 g / cm^3
# Si number density = 21.607086 Si / 1000 Ang^3
#
#
#
# Elastic Constant Matrix: (Units=GPa)
#
#
# Indices 1 2 3 4 5 6 
#
# 1 136.3326 59.8371 29.3788 0.0000 39.4164 0.0000
# 2 59.8371 72.5176 13.3180 0.0000 25.1125 0.0000
# 3 29.3788 13.3180 51.0394 0.0000 16.4838 0.0000
# 4 0.0000 0.0000 0.0000 6.5974 0.0000 7.9261
# 5 39.4164 25.1125 16.4838 0.0000 44.8782 0.0000
# 6 0.0000 0.0000 0.0000 7.9261 0.0000 31.7341
#
#
#
# Elastic Compliance Matrix: (Units=1/GPa)
#
#
# Indices 1 2 3 4 5 6 
#
# 1 0.013525 -0.008480 -0.003708 0.000000 -0.005771 0.000000
# 2 -0.008480 0.022531 0.000758 0.000000 -0.005438 0.000000
# 3 -0.003708 0.000758 0.023389 0.000000 -0.005758 0.000000
# 4 0.000000 0.000000 0.000000 0.216555 0.000000 -0.054088
# 5 -0.005771 -0.005438 -0.005758 0.000000 0.032510 0.000000
# 6 0.000000 0.000000 0.000000 -0.054088 0.000000 0.045021
#
#
# Mechanical properties :
#
#
# Convention : Reuss Voigt Hill
#
# Bulk Modulus (GPa) = 27.33373 51.66193 39.49783
# Shear Modulus (GPa) = 12.86721 27.13234 19.99977
#
# Velocity S-wave (km/s) = 2.44295 3.54745 3.04569
# Velocity P-wave (km/s) = 4.54260 6.38285 5.53968
#
# Compressibility (1/GPa) = 0.03658483
#
# Stress axis : x y z
#
# Youngs Moduli (GPa) = 73.93883 44.38343 42.75514
#
# Poissons Ratio (x) = 0.37638 0.15855
# Poissons Ratio (y) = 0.62701 -0.03243
# Poissons Ratio (z) = 0.27418 -0.03366
#
# Static dielectric constant tensor:
#      x y z
#    x 1.795290 0.000000 -0.001870 
#    y 0.000000 1.721360 0.000000 
#    z -0.001870 0.000000 1.851780 
# 
# From -- ./inp_files/363190.got.cif
#   From: 2010.05.17/outbox.cif.g08.bks.cpg/sg12_182_cif.got.tgz:363190.got - 2010.06.03 13:09:07.
