data_PCOD9179720
_publ_section_title
;
Structure prediction by ZEFSAII (Michael W. Deem and Ramdas Pophale) SiO2 
 PCOD9179720
Probable space group: C 2/M
;
_chemical_formula_sum "Si O2"
_cell_formula_units_Z 64
_cell_length_a 21.117961
_cell_length_b 7.649582
_cell_length_c 25.214398
_cell_angle_alpha 90.000000
_cell_angle_beta 128.200973
_cell_angle_gamma 90.000000
_cell_volume 3200.928364
_symmetry_space_group_name_H-M "C 2/M"
_symmetry_group_IT_number 12
_symmetry_cell_setting 'monoclinic'
loop_
_space_group_symop_operation_xyz
x,y,z
-x,y,-z
-x,-y,-z
x,-y,z
1/2+x,1/2+y,z
1/2-x,1/2+y,-z
1/2-x,1/2-y,-z
1/2+x,1/2-y,z
loop_
_atom_site_type_symbol
_atom_site_label
_atom_site_fract_x
_atom_site_fract_y
_atom_site_fract_z
Si Si1 0.708197 0.788918 0.205267
Si Si2 0.990634 0.291908 0.658792
Si Si3 0.409829 0.207819 0.946372
Si Si4 0.353793 0.208825 0.204481
Si Si5 0.240998 0.214008 0.655858
Si Si6 0.057179 0.788597 0.577275
Si Si7 0.734542 0.291929 0.053131
Si Si8 0.190280 0.710447 0.420776
O O1 0.638582 0.721610 0.129938
O O2 0.792921 0.741182 0.221751
O O3 0.708915 0.729904 0.266390
O O4 0.703808 0.000000 0.203170
O O5 0.986125 0.500000 0.665899
O O6 0.058574 0.220645 0.734280
O O7 0.023054 0.265671 0.616294
O O8 0.900256 0.221493 0.617085
O O9 0.350286 0.231026 0.965709
O O10 0.417858 0.000000 0.942150
O O11 0.500000 0.279312 0.000000
O O12 0.306408 0.278123 0.128354
O O13 0.361782 0.000000 0.201899
O O14 0.148706 0.270171 0.615916
O O15 0.275145 0.274036 0.617428
O O16 0.241302 0.000000 0.655596
O O17 0.000000 0.727685 0.500000
O O18 0.057765 0.000000 0.576678
O O19 0.734113 0.500000 0.058384
O O20 0.750000 0.250000 0.000000
O O21 0.186166 0.500000 0.415534
O O22 0.250000 0.750000 0.500000
#
# Coordination Sequence:
#
# PCOD9179720 Si02
#       8
#     8   8   8   8   8   8   8   8
#     4   9  16  30  53  77 100 132 170 208 252 299
#     4  10  20  34  52  76 103 132 166 207 258 307
#     4   9  18  33  53  81 110 137 174 216 259 311
#     4   9  18  33  52  77 105 135 168 208 259 306
#     4   9  17  31  50  73  97 128 168 205 244 294
#     4  10  19  31  51  76  99 127 166 209 248 295
#     4  10  20  35  55  79 109 144 178 216 263 313
#     4  10  21  37  53  71 100 135 170 207 254 307
#
# _framework density 19.994198999999998
#
# number of rings (size 3 to 8) (size 9 to 14) (size 15 to 20)
#    0.000    2.500    1.250    1.125    0.000    2.500 
#    2.250    1.250    0.000    0.000    0.000    0.000 
#    0.000    0.000    0.000    0.000    0.000    0.000 
#
# Total GULP energy -178547.080170 kJ/mol
# GULP energy per Si atom -5579.596255 kJ/mol
# Density = 1.994869 g / cm^3
# Si number density = 19.994199 Si / 1000 Ang^3
#
#
#
# Elastic Constant Matrix: (Units=GPa)
#
#
# Indices 1 2 3 4 5 6 
#
# 1 166.6697 -3.2027 119.5157 0.0000 9.0924 0.0000
# 2 -3.2027 35.7839 1.3120 0.0000 7.3908 0.0000
# 3 119.5157 1.3120 185.0657 0.0000 8.3086 0.0000
# 4 0.0000 0.0000 0.0000 8.3064 0.0000 -4.1838
# 5 9.0924 7.3908 8.3086 0.0000 41.0223 0.0000
# 6 0.0000 0.0000 0.0000 -4.1838 0.0000 20.2823
#
#
#
# Elastic Compliance Matrix: (Units=1/GPa)
#
#
# Indices 1 2 3 4 5 6 
#
# 1 0.011300 0.001549 -0.007249 0.000000 -0.001315 0.000000
# 2 0.001549 0.029238 -0.000964 0.000000 -0.005416 0.000000
# 3 -0.007249 -0.000964 0.010104 0.000000 -0.000266 0.000000
# 4 0.000000 0.000000 0.000000 0.134348 0.000000 0.027713
# 5 -0.001315 -0.005416 -0.000266 0.000000 0.025698 0.000000
# 6 0.000000 0.000000 0.000000 0.027713 0.000000 0.055020
#
#
# Mechanical properties :
#
#
# Convention : Reuss Voigt Hill
#
# Bulk Modulus (GPa) = 26.80110 69.19660 47.99885
# Shear Modulus (GPa) = 17.15411 31.91515 24.53463
#
# Velocity S-wave (km/s) = 2.93226 3.99961 3.50678
# Velocity P-wave (km/s) = 4.98977 7.48416 6.36044
#
# Compressibility (1/GPa) = 0.03731190
#
# Stress axis : x y z
#
# Youngs Moduli (GPa) = 88.49735 34.20202 98.97169
#
# Poissons Ratio (x) = -0.05297 0.71748
# Poissons Ratio (y) = -0.13707 0.09545
# Poissons Ratio (z) = 0.64155 0.03298
#
# Static dielectric constant tensor:
#      x y z
#    x 1.885290 0.000000 -0.046900 
#    y 0.000000 1.778520 0.000000 
#    z -0.046900 0.000000 1.750480 
# 
# From -- ./inp_files/346153.got.cif
#   From: 2010.05.17/outbox.cif.g08.bks.cpg/sg12_174_cif.got.tgz:346153.got - 2010.06.03 13:09:07.
