data_PCOD9179313
_publ_section_title
;
Structure prediction by ZEFSAII (Michael W. Deem and Ramdas Pophale) SiO2 
 PCOD9179313
Probable space group: C 2/M
;
_chemical_formula_sum "Si O2"
_cell_formula_units_Z 64
_cell_length_a 25.700539
_cell_length_b 7.898987
_cell_length_c 17.477882
_cell_angle_alpha 90.000000
_cell_angle_beta 76.591919
_cell_angle_gamma 90.000000
_cell_volume 3451.442396
_symmetry_space_group_name_H-M "C 2/M"
_symmetry_group_IT_number 12
_symmetry_cell_setting 'monoclinic'
loop_
_space_group_symop_operation_xyz
x,y,z
-x,y,-z
-x,-y,-z
x,-y,z
1/2+x,1/2+y,z
1/2-x,1/2+y,-z
1/2-x,1/2-y,-z
1/2+x,1/2-y,z
loop_
_atom_site_type_symbol
_atom_site_label
_atom_site_fract_x
_atom_site_fract_y
_atom_site_fract_z
Si Si1 0.187492 0.296447 0.015795
Si Si2 0.085904 0.301984 0.494532
Si Si3 0.689822 0.297087 0.539558
Si Si4 0.918773 0.292371 0.675876
Si Si5 0.799942 0.300471 0.153281
Si Si6 0.139863 0.799959 0.715783
Si Si7 0.823204 0.702572 0.813689
Si Si8 0.964900 0.704649 0.330125
O O1 0.180624 0.500000 0.019578
O O2 0.173498 0.234162 0.935159
O O3 0.250000 0.250000 0.000000
O O4 0.164464 0.231513 0.104356
O O5 0.071063 0.500000 0.496009
O O6 0.148134 0.282995 0.494502
O O7 0.076707 0.231150 0.413298
O O8 0.054921 0.231647 0.579254
O O9 0.683342 0.500000 0.539019
O O10 0.750000 0.250000 0.500000
O O11 0.672417 0.236232 0.630089
O O12 0.916695 0.500000 0.673331
O O13 0.865466 0.232434 0.737078
O O14 0.973494 0.246390 0.700526
O O15 0.792976 0.500000 0.145482
O O16 0.836464 0.270889 0.214247
O O17 0.739369 0.232401 0.183384
O O18 0.078028 0.763650 0.717497
O O19 0.147664 0.000000 0.716643
O O20 0.829888 0.500000 0.813327
O O21 0.037887 0.500000 0.667665
#
# Coordination Sequence:
#
# PCOD9179313 Si02
#       8
#     8   8   8   8   8   8   8   8
#     4   8  15  28  46  68  96 127 155 189 234 285
#     4   9  17  30  48  70  95 125 161 196 232 276
#     4  10  21  34  47  65  94 128 159 194 238 283
#     4   9  17  29  50  75  97 124 159 198 237 282
#     4  10  19  31  49  73  98 125 161 198 235 286
#     4  10  21  35  50  69  93 125 163 200 239 283
#     4   9  17  30  48  73 103 129 154 190 241 290
#     4   9  17  32  51  70  94 126 164 201 235 274
#
# _framework density 18.542973
#
# number of rings (size 3 to 8) (size 9 to 14) (size 15 to 20)
#    0.000    2.750    0.000    1.500    1.750    3.500 
#    0.000    1.250    0.000    3.750    0.000    5.250 
#    0.000    0.000    0.000    0.000    0.000    0.000 
#
# Total GULP energy -178268.967082 kJ/mol
# GULP energy per Si atom -5570.905221 kJ/mol
# Density = 1.850077 g / cm^3
# Si number density = 18.542973 Si / 1000 Ang^3
#
#
#
# Elastic Constant Matrix: (Units=GPa)
#
#
# Indices 1 2 3 4 5 6 
#
# 1 74.9811 -8.7611 48.8521 0.0000 9.6907 0.0000
# 2 -8.7611 14.8752 -0.2895 0.0000 -3.4474 0.0000
# 3 48.8521 -0.2895 90.7482 0.0000 23.5256 0.0000
# 4 0.0000 0.0000 0.0000 11.7235 0.0000 0.5401
# 5 9.6907 -3.4474 23.5256 0.0000 22.2541 0.0000
# 6 0.0000 0.0000 0.0000 0.5401 0.0000 16.8259
#
#
#
# Elastic Compliance Matrix: (Units=1/GPa)
#
#
# Indices 1 2 3 4 5 6 
#
# 1 0.023737 0.015455 -0.014698 0.000000 0.007595 0.000000
# 2 0.015455 0.080633 -0.013163 0.000000 0.019676 0.000000
# 3 -0.014698 -0.013163 0.024463 0.000000 -0.021500 0.000000
# 4 0.000000 0.000000 0.000000 0.085425 0.000000 -0.002742
# 5 0.007595 0.019676 -0.021500 0.000000 0.067404 0.000000
# 6 0.000000 0.000000 0.000000 -0.002742 0.000000 0.059520
#
#
# Mechanical properties :
#
#
# Convention : Reuss Voigt Hill
#
# Bulk Modulus (GPa) = 9.61355 28.91193 19.26274
# Shear Modulus (GPa) = 12.47911 19.54756 16.01334
#
# Velocity S-wave (km/s) = 2.59701 3.25033 2.94186
# Velocity P-wave (km/s) = 3.76674 5.45086 4.68509
#
# Compressibility (1/GPa) = 0.10401985
#
# Stress axis : x y z
#
# Youngs Moduli (GPa) = 42.12841 12.40193 40.87725
#
# Poissons Ratio (x) = -0.19167 0.60081
# Poissons Ratio (y) = -0.65109 0.53808
# Poissons Ratio (z) = 0.61920 0.16325
#
# Static dielectric constant tensor:
#      x y z
#    x 1.609790 0.000000 0.000390 
#    y 0.000000 1.682790 0.000000 
#    z 0.000390 0.000000 1.692240 
# 
# From -- ./inp_files/243908.got.cif
#   From: 2010.05.17/outbox.cif.g08.bks.cpg/sg12_122_cif.got.tgz:243908.got - 2010.06.03 13:09:07.
