data_PCOD9179928
_publ_section_title
;
Structure prediction by ZEFSAII (Michael W. Deem and Ramdas Pophale) SiO2 
 PCOD9179928
Probable space group: C 2/M
;
_chemical_formula_sum "Si O2"
_cell_formula_units_Z 48
_cell_length_a 15.709460
_cell_length_b 20.984464
_cell_length_c 11.512512
_cell_angle_alpha 90.000000
_cell_angle_beta 142.109168
_cell_angle_gamma 90.000000
_cell_volume 2330.826805
_symmetry_space_group_name_H-M "C 2/M"
_symmetry_group_IT_number 12
_symmetry_cell_setting 'monoclinic'
loop_
_space_group_symop_operation_xyz
x,y,z
-x,y,-z
-x,-y,-z
x,-y,z
1/2+x,1/2+y,z
1/2-x,1/2+y,-z
1/2-x,1/2-y,-z
1/2+x,1/2-y,z
loop_
_atom_site_type_symbol
_atom_site_label
_atom_site_fract_x
_atom_site_fract_y
_atom_site_fract_z
Si Si1 0.638148 0.699426 0.228161
Si Si2 0.467560 0.243329 0.240583
Si Si3 0.142460 0.571685 0.081854
Si Si4 0.770146 0.204813 0.204884
Si Si5 0.058262 0.600230 0.728954
Si Si6 0.273819 0.070193 0.312570
O O1 0.591837 0.725792 0.302825
O O2 0.750759 0.745605 0.288761
O O3 0.687482 0.626734 0.277160
O O4 0.500000 0.702915 0.000000
O O5 0.408272 0.287928 0.278023
O O6 0.487458 0.173854 0.315919
O O7 0.348590 0.227240 0.015621
O O8 0.195629 0.500000 0.163351
O O9 0.238532 0.632792 0.209763
O O10 0.104403 0.577343 0.904821
O O11 0.000000 0.580146 0.000000
O O12 0.182368 0.590352 0.771128
O O13 0.920885 0.566316 0.536373
O O14 0.208691 0.000000 0.242690
#
# Coordination Sequence:
#
# PCOD9179928 Si02
#       6
#     8   8   8   8   8   8
#     4  10  20  34  53  81 107 143 185 222 270 327
#     4   9  17  30  53  73  99 137 179 221 263 310
#     4  10  19  31  52  80 106 137 181 231 275 313
#     4   9  16  31  49  73 103 134 173 223 265 309
#     4  10  19  36  55  79 105 143 186 225 270 322
#     4  11  22  35  53  79 115 149 177 221 276 332
#
# _framework density 20.59355
#
# number of rings (size 3 to 8) (size 9 to 14) (size 15 to 20)
#    0.000    2.167    1.667    4.500    2.333    1.000 
#    0.000    0.833    0.000    0.000    0.000    0.000 
#    0.000    6.667    0.000    0.000    0.000    0.000 
#
# Total GULP energy -134008.967051 kJ/mol
# GULP energy per Si atom -5583.706960 kJ/mol
# Density = 2.054668 g / cm^3
# Si number density = 20.593550 Si / 1000 Ang^3
#
#
#
# Elastic Constant Matrix: (Units=GPa)
#
#
# Indices 1 2 3 4 5 6 
#
# 1 108.5813 89.4719 -2.4492 0.0000 13.3347 0.0000
# 2 89.4719 215.1350 -2.5065 0.0000 5.8028 0.0000
# 3 -2.4492 -2.5065 20.6721 0.0000 -4.1597 0.0000
# 4 0.0000 0.0000 0.0000 -3.6945 0.0000 34.9760
# 5 13.3347 5.8028 -4.1597 0.0000 13.4121 0.0000
# 6 0.0000 0.0000 0.0000 34.9760 0.0000 -19.7367
#
#
#
# Elastic Compliance Matrix: (Units=1/GPa)
#
#
# Indices 1 2 3 4 5 6 
#
# 1 0.016084 -0.006337 -0.001631 0.000000 -0.013755 0.000000
# 2 -0.006337 0.007201 0.000814 0.000000 0.003438 0.000000
# 3 -0.001631 0.000814 0.051766 0.000000 0.017324 0.000000
# 4 0.000000 0.000000 0.000000 0.017156 0.000000 0.030403
# 5 -0.013755 0.003438 0.017324 0.000000 0.092121 0.000000
# 6 0.000000 0.000000 0.000000 0.030403 0.000000 0.003211
#
#
# Mechanical properties :
#
#
# Convention : Reuss Voigt Hill
#
# Bulk Modulus (GPa) = 16.46284 57.04676 36.75480
# Shear Modulus (GPa) = 22.51301 15.32101 18.91701
#
# Velocity S-wave (km/s) = 3.30995 2.73054 3.03411
# Velocity P-wave (km/s) = 4.75597 6.14024 5.49189
#
# Compressibility (1/GPa) = 0.06074286
#
# Stress axis : x y z
#
# Youngs Moduli (GPa) = 62.17361 138.87867 19.31778
#
# Poissons Ratio (x) = 0.88009 0.03150
# Poissons Ratio (y) = 0.39400 -0.01572
# Poissons Ratio (z) = 0.10138 -0.11304
#
# Static dielectric constant tensor:
#      x y z
#    x 1.723170 0.000000 0.003850 
#    y 0.000000 1.753880 0.000000 
#    z 0.003850 0.000000 1.780810 
# 
# From -- ./inp_files/147252.got.cif
#   From: 2010.05.17/outbox.cif.g08.bks.cpg/sg12_74_cif.got.tgz:147252.got - 2010.06.03 13:09:07.
