data_PCOD9179120
_publ_section_title
;
Structure prediction by ZEFSAII (Michael W. Deem and Ramdas Pophale) SiO2 
 PCOD9179120
Probable space group: C 2/M
;
_chemical_formula_sum "Si O2"
_cell_formula_units_Z 64
_cell_length_a 29.409530
_cell_length_b 8.850615
_cell_length_c 17.116202
_cell_angle_alpha 90.000000
_cell_angle_beta 115.757998
_cell_angle_gamma 90.000000
_cell_volume 4012.536572
_symmetry_space_group_name_H-M "C 2/M"
_symmetry_group_IT_number 12
_symmetry_cell_setting 'monoclinic'
loop_
_space_group_symop_operation_xyz
x,y,z
-x,y,-z
-x,-y,-z
x,-y,z
1/2+x,1/2+y,z
1/2-x,1/2+y,-z
1/2-x,1/2-y,-z
1/2+x,1/2-y,z
loop_
_atom_site_type_symbol
_atom_site_label
_atom_site_fract_x
_atom_site_fract_y
_atom_site_fract_z
Si Si1 0.831998 0.672417 0.346858
Si Si2 0.905830 0.820239 0.281040
Si Si3 0.725913 0.177586 0.262795
Si Si4 0.118491 0.326140 0.446301
Si Si5 0.820544 0.180330 0.099756
Si Si6 0.295258 0.679510 0.586198
Si Si7 0.279744 0.319922 0.903027
Si Si8 0.013999 0.180870 0.420800
O O1 0.816464 0.500000 0.316507
O O2 0.877226 0.725948 0.325834
O O3 0.785458 0.784519 0.302039
O O4 0.850645 0.676291 0.449455
O O5 0.874911 0.789668 0.178614
O O6 0.965006 0.787058 0.330959
O O7 0.900403 0.000000 0.294115
O O8 0.708090 0.259809 0.328069
O O9 0.704319 0.242092 0.165575
O O10 0.717500 0.000000 0.262838
O O11 0.115385 0.500000 0.417533
O O12 0.151566 0.229031 0.411279
O O13 0.063491 0.261874 0.425496
O O14 0.776561 0.265625 0.114440
O O15 0.810706 0.000000 0.099744
O O16 0.813949 0.219898 0.003878
O O17 0.289210 0.500000 0.580687
O O18 0.250000 0.750000 0.500000
O O19 0.279874 0.500000 0.893495
O O20 0.000000 0.224558 0.500000
O O21 0.022986 0.000000 0.428523
#
# Coordination Sequence:
#
# PCOD9179120 Si02
#       8
#     8   8   8   8   8   8   8   8
#     4  11  21  31  48  73 103 137 175 216 254 298
#     4  10  19  32  50  73 103 140 180 215 256 307
#     4  12  23  35  52  74 103 139 176 212 256 309
#     4  11  23  37  52  73 105 139 176 217 256 298
#     4   9  18  31  48  72 103 139 174 213 259 308
#     4  12  24  38  56  77 103 135 173 213 256 305
#     4  10  19  31  48  73 104 135 173 216 258 309
#     4  10  20  33  51  75 103 138 179 216 254 302
#
# _framework density 15.950010000000001
#
# number of rings (size 3 to 8) (size 9 to 14) (size 15 to 20)
#    0.000    1.375    3.750    3.375    0.000    2.250 
#    0.000    0.000    0.000    0.000    0.000    0.875 
#    0.000    7.000    0.000    0.000    0.000    0.000 
#
# Total GULP energy -178650.328168 kJ/mol
# GULP energy per Si atom -5582.822755 kJ/mol
# Density = 1.591371 g / cm^3
# Si number density = 15.950010 Si / 1000 Ang^3
#
#
#
# Elastic Constant Matrix: (Units=GPa)
#
#
# Indices 1 2 3 4 5 6 
#
# 1 68.0267 39.9206 40.0252 0.0000 -8.4171 0.0000
# 2 39.9206 93.1569 54.2190 0.0000 -10.4085 0.0000
# 3 40.0252 54.2190 113.3341 0.0000 -8.1658 0.0000
# 4 0.0000 0.0000 0.0000 23.6579 0.0000 -2.2947
# 5 -8.4171 -10.4085 -8.1658 0.0000 25.7748 0.0000
# 6 0.0000 0.0000 0.0000 -2.2947 0.0000 23.3301
#
#
#
# Elastic Compliance Matrix: (Units=1/GPa)
#
#
# Indices 1 2 3 4 5 6 
#
# 1 0.021292 -0.006284 -0.004293 0.000000 0.003055 0.000000
# 2 -0.006284 0.017113 -0.005749 0.000000 0.003037 0.000000
# 3 -0.004293 -0.005749 0.013121 0.000000 0.000434 0.000000
# 4 0.000000 0.000000 0.000000 0.042676 0.000000 0.004197
# 5 0.003055 0.003037 0.000434 0.000000 0.041159 0.000000
# 6 0.000000 0.000000 0.000000 0.004197 0.000000 0.043276
#
#
# Mechanical properties :
#
#
# Convention : Reuss Voigt Hill
#
# Bulk Modulus (GPa) = 52.98294 60.31636 56.64965
# Shear Modulus (GPa) = 22.98009 23.90941 23.44475
#
# Velocity S-wave (km/s) = 3.79985 3.87592 3.83807
# Velocity P-wave (km/s) = 7.24859 7.61106 7.43204
#
# Compressibility (1/GPa) = 0.01887400
#
# Stress axis : x y z
#
# Youngs Moduli (GPa) = 46.96636 58.43626 76.21443
#
# Poissons Ratio (x) = 0.36723 0.32718
# Poissons Ratio (y) = 0.29515 0.43812
# Poissons Ratio (z) = 0.20162 0.33592
#
# Static dielectric constant tensor:
#      x y z
#    x 1.506140 0.000000 0.009650 
#    y 0.000000 1.542510 0.000000 
#    z 0.009650 0.000000 1.554730 
# 
# From -- ./inp_files/244069.got.cif
#   From: 2010.05.17/outbox.cif.g08.bks.cpg/sg12_123_cif.got.tgz:244069.got - 2010.06.03 13:09:07.
