data_PCOD9179433
_publ_section_title
;
Structure prediction by ZEFSAII (Michael W. Deem and Ramdas Pophale) SiO2 
 PCOD9179433
Probable space group: C 2/M
;
_chemical_formula_sum "Si O2"
_cell_formula_units_Z 60
_cell_length_a 5.308560
_cell_length_b 18.732000
_cell_length_c 31.688655
_cell_angle_alpha 90.000000
_cell_angle_beta 102.887349
_cell_angle_gamma 90.000000
_cell_volume 3071.742937
_symmetry_space_group_name_H-M "C 2/M"
_symmetry_group_IT_number 12
_symmetry_cell_setting 'monoclinic'
loop_
_space_group_symop_operation_xyz
x,y,z
-x,y,-z
-x,-y,-z
x,-y,z
1/2+x,1/2+y,z
1/2-x,1/2+y,-z
1/2-x,1/2-y,-z
1/2+x,1/2-y,z
loop_
_atom_site_type_symbol
_atom_site_label
_atom_site_fract_x
_atom_site_fract_y
_atom_site_fract_z
Si Si1 0.278202 0.586020 0.726579
Si Si2 0.336036 0.077749 0.951423
Si Si3 0.708927 0.413404 0.672833
Si Si4 0.370722 0.300107 0.403834
Si Si5 0.000000 0.798071 0.500000
Si Si6 0.502631 0.587474 0.824348
Si Si7 0.871187 0.221912 0.049519
Si Si8 0.430650 0.913964 0.128000
O O1 0.278251 0.500000 0.729528
O O2 0.481144 0.603809 0.697436
O O3 0.377569 0.611809 0.775712
O O4 0.986351 0.605526 0.703697
O O5 0.124746 0.137399 0.951087
O O6 0.524920 0.097639 0.920084
O O7 0.221787 0.000000 0.937963
O O8 0.500000 0.075228 0.000000
O O9 0.704917 0.500000 0.664595
O O10 0.671317 0.363938 0.630645
O O11 0.613270 0.249422 0.399218
O O12 0.436706 0.333300 0.452615
O O13 0.750000 0.750000 0.500000
O O14 0.507340 0.500000 0.824470
O O15 0.798886 0.610557 0.841049
O O16 0.320327 0.611704 0.856240
O O17 0.642379 0.246027 0.071114
O O18 0.750000 0.250000 0.000000
O O19 0.423027 0.000000 0.132220
#
# Coordination Sequence:
#
# PCOD9179433 Si02
#       8
#     8   8   8   8   4   8   8   8
#     4   9  17  29  49  74 104 138 168 209 267 315
#     4  10  20  36  56  83 113 137 165 213 266 301
#     4  10  19  31  49  80 110 133 169 222 272 315
#     4  10  19  33  52  75 106 141 189 221 267 313
#     4   8  16  30  49  70  97 142 184 230 254 306
#     4   9  16  30  48  70 101 133 167 204 249 309
#     4  10  20  38  56  75 101 133 172 199 234 290
#     4   9  18  30  46  72 103 132 163 205 252 299
#
# _framework density 19.532883999999999
#
# number of rings (size 3 to 8) (size 9 to 14) (size 15 to 20)
#    0.000    2.533    1.333    1.600    0.000    4.267 
#    0.000    3.667    0.000    0.000    0.000   27.067 
#    0.000    0.000    0.000    0.000    0.000    0.000 
#
# Total GULP energy -167247.143298 kJ/mol
# GULP energy per Si atom -5574.904777 kJ/mol
# Density = 1.948843 g / cm^3
# Si number density = 19.532884 Si / 1000 Ang^3
#
#
#
# Elastic Constant Matrix: (Units=GPa)
#
#
# Indices 1 2 3 4 5 6 
#
# 1 104.2870 14.7009 2.1037 0.0000 3.3565 0.0000
# 2 14.7009 58.0192 16.1219 0.0000 -4.9546 0.0000
# 3 2.1037 16.1219 110.4039 0.0000 2.9810 0.0000
# 4 0.0000 0.0000 0.0000 3.3485 0.0000 -3.1934
# 5 3.3565 -4.9546 2.9810 0.0000 21.7929 0.0000
# 6 0.0000 0.0000 0.0000 -3.1934 0.0000 12.3688
#
#
#
# Elastic Compliance Matrix: (Units=1/GPa)
#
#
# Indices 1 2 3 4 5 6 
#
# 1 0.010052 -0.002815 0.000280 0.000000 -0.002226 0.000000
# 2 -0.002815 0.019195 -0.002890 0.000000 0.005193 0.000000
# 3 0.000280 -0.002890 0.009528 0.000000 -0.002003 0.000000
# 4 0.000000 0.000000 0.000000 0.396191 0.000000 0.102289
# 5 -0.002226 0.005193 -0.002003 0.000000 0.047684 0.000000
# 6 0.000000 0.000000 0.000000 0.102289 0.000000 0.107257
#
#
# Mechanical properties :
#
#
# Convention : Reuss Voigt Hill
#
# Bulk Modulus (GPa) = 35.80901 37.61811 36.71356
# Shear Modulus (GPa) = 8.19584 23.48763 15.84173
#
# Velocity S-wave (km/s) = 2.05062 3.47142 2.85095
# Velocity P-wave (km/s) = 4.89685 5.94713 5.44736
#
# Compressibility (1/GPa) = 0.02792594
#
# Stress axis : x y z
#
# Youngs Moduli (GPa) = 99.48555 52.09623 104.94973
#
# Poissons Ratio (x) = 0.14664 -0.02934
# Poissons Ratio (y) = 0.28002 0.30326
# Poissons Ratio (z) = -0.02782 0.15054
#
# Static dielectric constant tensor:
#      x y z
#    x 1.724320 0.000000 -0.009980 
#    y 0.000000 1.711350 0.000000 
#    z -0.009980 0.000000 1.718180 
# 
# From -- ./inp_files/355070.got.cif
#   From: 2010.05.17/outbox.cif.g08.bks.cpg/sg12_178_cif.got.tgz:355070.got - 2010.06.03 13:09:07.
