data_PCOD9179596
_publ_section_title
;
Structure prediction by ZEFSAII (Michael W. Deem and Ramdas Pophale) SiO2 
 PCOD9179596
Probable space group: C 2/M
;
_chemical_formula_sum "Si O2"
_cell_formula_units_Z 48
_cell_length_a 5.076992
_cell_length_b 29.570612
_cell_length_c 18.026232
_cell_angle_alpha 90.000000
_cell_angle_beta 61.944454
_cell_angle_gamma 90.000000
_cell_volume 2388.265180
_symmetry_space_group_name_H-M "C 2/M"
_symmetry_group_IT_number 12
_symmetry_cell_setting 'monoclinic'
loop_
_space_group_symop_operation_xyz
x,y,z
-x,y,-z
-x,-y,-z
x,-y,z
1/2+x,1/2+y,z
1/2-x,1/2+y,-z
1/2-x,1/2-y,-z
1/2+x,1/2-y,z
loop_
_atom_site_type_symbol
_atom_site_label
_atom_site_fract_x
_atom_site_fract_y
_atom_site_fract_z
Si Si1 0.000452 0.587278 0.233221
Si Si2 0.331576 0.945784 0.949784
Si Si3 0.658123 0.778528 0.901247
Si Si4 0.003462 0.148111 0.234430
Si Si5 0.088637 0.082670 0.411171
Si Si6 0.584285 0.854495 0.412137
O O1 0.783269 0.628913 0.242732
O O2 0.810334 0.560583 0.321196
O O3 0.045118 0.563880 0.148229
O O4 0.309814 0.607081 0.224343
O O5 0.321628 0.000000 0.958300
O O6 0.500000 0.927896 0.000000
O O7 0.000000 0.927023 0.000000
O O8 0.387302 0.762857 0.884748
O O9 0.857778 0.818736 0.843654
O O10 0.500000 0.790116 0.000000
O O11 0.777617 0.170213 0.324059
O O12 0.289682 0.124888 0.413828
O O13 0.000000 0.058307 0.500000
O O14 0.794301 0.102843 0.410406
O O15 0.500000 0.830361 0.500000
#
# Coordination Sequence:
#
# PCOD9179596 Si02
#       6
#     8   8   8   8   8   8
#     4  10  19  31  50  76  98 121 161 205 238 272
#     4  10  21  36  51  69  99 136 164 191 239 294
#     4  10  21  36  50  65  91 127 159 190 240 296
#     4  10  19  31  51  75  95 120 159 204 238 271
#     4   8  14  25  42  66  95 122 149 187 235 282
#     4   8  14  25  42  66  94 120 147 184 233 283
#
# _framework density 20.098268999999998
#
# number of rings (size 3 to 8) (size 9 to 14) (size 15 to 20)
#    0.000    2.667    0.000    2.000    0.000    2.000 
#    0.000    0.000    0.000    1.500    0.000    0.000 
#    0.000   17.333    0.000    0.000    0.000    2.667 
#
# Total GULP energy -133607.840862 kJ/mol
# GULP energy per Si atom -5566.993369 kJ/mol
# Density = 2.005252 g / cm^3
# Si number density = 20.098269 Si / 1000 Ang^3
#
#
#
# Elastic Constant Matrix: (Units=GPa)
#
#
# Indices 1 2 3 4 5 6 
#
# 1 109.4322 6.5752 39.4823 0.0000 2.9453 0.0000
# 2 6.5752 9.9661 13.8583 0.0000 -2.6789 0.0000
# 3 39.4823 13.8583 154.4305 0.0000 -4.6038 0.0000
# 4 0.0000 0.0000 0.0000 24.9867 0.0000 31.9774
# 5 2.9453 -2.6789 -4.6038 0.0000 33.2656 0.0000
# 6 0.0000 0.0000 0.0000 31.9774 0.0000 2.3059
#
#
#
# Elastic Compliance Matrix: (Units=1/GPa)
#
#
# Indices 1 2 3 4 5 6 
#
# 1 0.010252 -0.003966 -0.002311 0.000000 -0.001547 0.000000
# 2 -0.003966 0.118254 -0.009342 0.000000 0.008581 0.000000
# 3 -0.002311 -0.009342 0.007921 0.000000 0.000549 0.000000
# 4 0.000000 0.000000 0.000000 -0.002390 0.000000 0.033139
# 5 -0.001547 0.008581 0.000549 0.000000 0.030965 0.000000
# 6 0.000000 0.000000 0.000000 0.033139 0.000000 -0.025895
#
#
# Mechanical properties :
#
#
# Convention : Reuss Voigt Hill
#
# Bulk Modulus (GPa) = 9.50670 43.74005 26.62337
# Shear Modulus (GPa) = 24.34164 26.37251 25.35707
#
# Velocity S-wave (km/s) = 3.48391 3.62633 3.55583
# Velocity P-wave (km/s) = 4.57426 6.27248 5.48944
#
# Compressibility (1/GPa) = 0.10518899
#
# Stress axis : x y z
#
# Youngs Moduli (GPa) = 97.54308 8.45634 126.24644
#
# Poissons Ratio (x) = 0.03354 0.29179
# Poissons Ratio (y) = 0.38683 1.17942
# Poissons Ratio (z) = 0.22545 0.07900
#
# Static dielectric constant tensor:
#      x y z
#    x 1.677920 0.000000 -0.020220 
#    y 0.000000 1.661280 0.000000 
#    z -0.020220 0.000000 1.809950 
# 
# From -- ./inp_files/192320.got.cif
#   From: 2010.05.17/outbox.cif.g08.bks.cpg/sg12_97_cif.got.tgz:192320.got - 2010.06.03 13:09:07.
