data_PCOD9179308
_publ_section_title
;
Structure prediction by ZEFSAII (Michael W. Deem and Ramdas Pophale) SiO2 
 PCOD9179308
Probable space group: C 2/M
;
_chemical_formula_sum "Si O2"
_cell_formula_units_Z 40
_cell_length_a 18.668041
_cell_length_b 9.057048
_cell_length_c 18.495179
_cell_angle_alpha 90.000000
_cell_angle_beta 35.432184
_cell_angle_gamma 90.000000
_cell_volume 1812.910796
_symmetry_space_group_name_H-M "C 2/M"
_symmetry_group_IT_number 12
_symmetry_cell_setting 'monoclinic'
loop_
_space_group_symop_operation_xyz
x,y,z
-x,y,-z
-x,-y,-z
x,-y,z
1/2+x,1/2+y,z
1/2-x,1/2+y,-z
1/2-x,1/2-y,-z
1/2+x,1/2-y,z
loop_
_atom_site_type_symbol
_atom_site_label
_atom_site_fract_x
_atom_site_fract_y
_atom_site_fract_z
Si Si1 0.944219 0.172964 0.435221
Si Si2 0.387872 0.832922 0.341297
Si Si3 0.419842 0.325863 0.171059
Si Si4 0.805865 0.173311 0.703667
Si Si5 0.863912 0.335102 0.940211
O O1 0.874522 0.183644 0.569092
O O2 0.874877 0.261955 0.430023
O O3 0.086537 0.222727 0.329958
O O4 0.950458 0.000000 0.410341
O O5 0.360699 0.723348 0.297156
O O6 0.535288 0.847227 0.206678
O O7 0.336415 0.000000 0.375135
O O8 0.432764 0.500000 0.154358
O O9 0.321372 0.262098 0.195397
O O10 0.554382 0.248275 0.065826
O O11 0.779245 0.000000 0.736953
O O12 0.829622 0.500000 0.992559
O O13 0.750000 0.250000 0.000000
#
# Coordination Sequence:
#
# PCOD9179308 Si02
#       5
#     8   8   8   8   8
#     4   9  18  32  51  70  96 133 166 197 239 288
#     4   9  19  32  48  72  99 125 159 203 242 282
#     4  10  19  31  49  73  97 128 164 199 240 285
#     4   9  18  33  49  70  99 131 165 200 238 284
#     4   9  18  32  51  74  97 124 155 198 246 289
#
# _framework density 22.063966000000001
#
# number of rings (size 3 to 8) (size 9 to 14) (size 15 to 20)
#    1.200    1.600    0.000    3.600    0.000    2.400 
#    0.000    2.000    0.000    1.200    0.000    8.400 
#    0.000    0.000    0.000    0.000    0.000    0.000 
#
# Total GULP energy -111447.696014 kJ/mol
# GULP energy per Si atom -5572.384801 kJ/mol
# Density = 2.201375 g / cm^3
# Si number density = 22.063966 Si / 1000 Ang^3
#
#
#
# Elastic Constant Matrix: (Units=GPa)
#
#
# Indices 1 2 3 4 5 6 
#
# 1 104.9013 45.8214 37.8928 0.0000 -36.4164 0.0000
# 2 45.8214 125.3094 26.4486 0.0000 -33.1754 0.0000
# 3 37.8928 26.4486 55.7544 0.0000 -31.8484 0.0000
# 4 0.0000 0.0000 0.0000 21.9736 0.0000 -9.9492
# 5 -36.4164 -33.1754 -31.8484 0.0000 65.4412 0.0000
# 6 0.0000 0.0000 0.0000 -9.9492 0.0000 20.1204
#
#
#
# Elastic Compliance Matrix: (Units=1/GPa)
#
#
# Indices 1 2 3 4 5 6 
#
# 1 0.014311 -0.003001 -0.006403 0.000000 0.003326 0.000000
# 2 -0.003001 0.010076 -0.001075 0.000000 0.002915 0.000000
# 3 -0.006403 -0.001075 0.028325 0.000000 0.009677 0.000000
# 4 0.000000 0.000000 0.000000 0.058638 0.000000 0.028995
# 5 0.003326 0.002915 0.009677 0.000000 0.023319 0.000000
# 6 0.000000 0.000000 0.000000 0.028995 0.000000 0.064039
#
#
# Mechanical properties :
#
#
# Convention : Reuss Voigt Hill
#
# Bulk Modulus (GPa) = 31.49145 56.25452 43.87298
# Shear Modulus (GPa) = 21.71543 33.22719 27.47131
#
# Velocity S-wave (km/s) = 3.14061 3.88486 3.53239
# Velocity P-wave (km/s) = 5.23975 6.75828 6.04687
#
# Compressibility (1/GPa) = 0.03175465
#
# Stress axis : x y z
#
# Youngs Moduli (GPa) = 69.87535 99.24285 35.30431
#
# Poissons Ratio (x) = 0.29784 0.22604
# Poissons Ratio (y) = 0.20970 0.03796
# Poissons Ratio (z) = 0.44739 0.10671
#
# Static dielectric constant tensor:
#      x y z
#    x 1.829130 0.000000 -0.012470 
#    y 0.000000 1.785990 0.000000 
#    z -0.012470 0.000000 1.898410 
# 
# From -- ./inp_files/313530.got.cif
#   From: 2010.05.17/outbox.cif.g08.bks.cpg/sg12_157_cif.got.tgz:313530.got - 2010.06.03 13:09:07.
