data_PCOD9179979
_publ_section_title
;
Structure prediction by ZEFSAII (Michael W. Deem and Ramdas Pophale) SiO2 
 PCOD9179979
Probable space group: C 2/M
;
_chemical_formula_sum "Si O2"
_cell_formula_units_Z 64
_cell_length_a 24.926857
_cell_length_b 7.784841
_cell_length_c 22.323754
_cell_angle_alpha 90.000000
_cell_angle_beta 47.602493
_cell_angle_gamma 90.000000
_cell_volume 3199.086529
_symmetry_space_group_name_H-M "C 2/M"
_symmetry_group_IT_number 12
_symmetry_cell_setting 'monoclinic'
loop_
_space_group_symop_operation_xyz
x,y,z
-x,y,-z
-x,-y,-z
x,-y,z
1/2+x,1/2+y,z
1/2-x,1/2+y,-z
1/2-x,1/2-y,-z
1/2+x,1/2-y,z
loop_
_atom_site_type_symbol
_atom_site_label
_atom_site_fract_x
_atom_site_fract_y
_atom_site_fract_z
Si Si1 0.859164 0.302038 0.976764
Si Si2 0.586288 0.697910 0.937131
Si Si3 0.444550 0.706252 0.724723
Si Si4 0.860129 0.303724 0.230724
Si Si5 0.279999 0.201655 0.724225
Si Si6 0.058063 0.294754 0.408970
Si Si7 0.999107 0.296342 0.195338
Si Si8 0.780382 0.796024 0.859560
O O1 0.850109 0.500000 0.964072
O O2 0.924425 0.222609 0.888285
O O3 0.890585 0.293757 0.020440
O O4 0.778931 0.223707 0.048977
O O5 0.614630 0.500000 0.916266
O O6 0.609983 0.791113 0.859225
O O7 0.500000 0.688393 0.000000
O O8 0.442725 0.500000 0.727464
O O9 0.463765 0.762351 0.643313
O O10 0.497290 0.771666 0.736598
O O11 0.362540 0.771997 0.801145
O O12 0.850324 0.500000 0.257129
O O13 0.780077 0.226988 0.281742
O O14 0.924969 0.224988 0.222040
O O15 0.359370 0.273722 0.647700
O O16 0.258380 0.273831 0.806138
O O17 0.287943 0.000000 0.728618
O O18 0.061828 0.500000 0.415596
O O19 0.000000 0.224585 0.500000
O O20 0.999936 0.500000 0.179644
O O21 0.782914 0.000000 0.868726
#
# Coordination Sequence:
#
# PCOD9179979 Si02
#       8
#     8   8   8   8   8   8   8   8
#     4  10  19  32  49  68  97 141 189 226 262 310
#     4  11  21  30  44  70 101 133 180 237 278 303
#     4  10  21  36  54  79 109 138 172 218 267 312
#     4  11  21  33  50  72 103 144 184 220 263 313
#     4  10  19  31  52  83 110 133 168 215 265 309
#     4   9  19  38  64  89 111 135 163 201 255 322
#     4  10  22  36  50  70 100 147 194 221 255 310
#     4   9  18  32  50  72 101 139 178 220 269 313
#
# _framework density 20.005711000000002
#
# number of rings (size 3 to 8) (size 9 to 14) (size 15 to 20)
#    0.000    2.000    2.500    1.500    0.000    3.750 
#    0.000    0.000    0.000    0.750    0.000    0.000 
#    0.000    0.000    0.000    0.000    0.000    0.000 
#
# Total GULP energy -178459.223416 kJ/mol
# GULP energy per Si atom -5576.850732 kJ/mol
# Density = 1.996018 g / cm^3
# Si number density = 20.005711 Si / 1000 Ang^3
#
#
#
# Elastic Constant Matrix: (Units=GPa)
#
#
# Indices 1 2 3 4 5 6 
#
# 1 104.5854 -13.9368 61.5168 -0.0034 7.1912 0.0441
# 2 -13.9368 30.0417 -3.5810 -0.0051 -8.1417 0.0359
# 3 61.5168 -3.5810 107.6501 0.0013 -7.9838 -0.0176
# 4 -0.0034 -0.0051 0.0013 13.6575 0.0003 2.0571
# 5 7.1912 -8.1417 -7.9838 0.0003 16.0709 -0.0087
# 6 0.0441 0.0359 -0.0176 2.0571 -0.0087 21.0946
#
#
#
# Elastic Compliance Matrix: (Units=1/GPa)
#
#
# Indices 1 2 3 4 5 6 
#
# 1 0.016860 0.003662 -0.010315 0.000015 -0.010814 -0.000056
# 2 0.003662 0.040234 0.000660 0.000026 0.019073 -0.000070
# 3 -0.010315 0.000660 0.016169 -0.000010 0.012983 0.000040
# 4 0.000015 0.000026 -0.000010 0.074311 -0.000004 -0.007247
# 5 -0.010814 0.019073 0.012983 -0.000004 0.083176 0.000036
# 6 -0.000056 -0.000070 0.000040 -0.007247 0.000036 0.048112
#
#
# Mechanical properties :
#
#
# Convention : Reuss Voigt Hill
#
# Bulk Modulus (GPa) = 16.31947 36.69723 26.50835
# Shear Modulus (GPa) = 16.06303 23.38313 19.72308
#
# Velocity S-wave (km/s) = 2.83666 3.42251 3.14327
# Velocity P-wave (km/s) = 4.34787 5.83107 5.14321
#
# Compressibility (1/GPa) = 0.06127651
#
# Stress axis : x y z
#
# Youngs Moduli (GPa) = 59.31055 24.85491 61.84752
#
# Poissons Ratio (x) = -0.09101 0.63797
# Poissons Ratio (y) = -0.21717 -0.04085
# Poissons Ratio (z) = 0.61180 -0.01642
#
# Static dielectric constant tensor:
#      x y z
#    x 1.752520 0.000000 -0.057750 
#    y 0.000000 1.751780 0.000000 
#    z -0.057750 0.000000 1.712970 
# 
# From -- ./inp_files/324207.got.cif
#   From: 2010.05.17/outbox.cif.g08.bks.cpg/sg12_163_cif.got.tgz:324207.got - 2010.06.03 13:09:07.
