data_PCOD9179784
_publ_section_title
;
Structure prediction by ZEFSAII (Michael W. Deem and Ramdas Pophale) SiO2 
 PCOD9179784
Probable space group: C 2/M
;
_chemical_formula_sum "Si O2"
_cell_formula_units_Z 56
_cell_length_a 24.091708
_cell_length_b 21.372760
_cell_length_c 16.777615
_cell_angle_alpha 90.000000
_cell_angle_beta 159.774941
_cell_angle_gamma 90.000000
_cell_volume 2986.542103
_symmetry_space_group_name_H-M "C 2/M"
_symmetry_group_IT_number 12
_symmetry_cell_setting 'monoclinic'
loop_
_space_group_symop_operation_xyz
x,y,z
-x,y,-z
-x,-y,-z
x,-y,z
1/2+x,1/2+y,z
1/2-x,1/2+y,-z
1/2-x,1/2-y,-z
1/2+x,1/2-y,z
loop_
_atom_site_type_symbol
_atom_site_label
_atom_site_fract_x
_atom_site_fract_y
_atom_site_fract_z
Si Si1 0.230887 0.614341 0.791757
Si Si2 0.708044 0.249000 0.164870
Si Si3 0.300016 0.169040 0.997120
Si Si4 0.008238 0.214792 0.336617
Si Si5 0.967203 0.572498 0.322073
Si Si6 0.564706 0.570888 0.177311
Si Si7 0.118374 0.803054 0.309699
O O1 0.223241 0.689669 0.788754
O O2 0.148406 0.584490 0.757426
O O3 0.133979 0.599675 0.580090
O O4 0.406161 0.585457 0.016292
O O5 0.699060 0.190876 0.092712
O O6 0.828618 0.231607 0.397498
O O7 0.527921 0.273483 0.939256
O O8 0.117963 0.172713 0.784446
O O9 0.408936 0.221564 0.187690
O O10 0.387205 0.105800 0.139274
O O11 0.049902 0.186432 0.306775
O O12 0.989614 0.500000 0.338302
O O13 0.625228 0.500000 0.272555
O O14 0.672928 0.631515 0.344072
O O15 0.500000 0.574321 0.000000
O O16 0.250000 0.750000 0.500000
#
# Coordination Sequence:
#
# PCOD9179784 Si02
#       7
#     8   8   8   8   8   8   8
#     4  10  19  32  50  78 104 138 174 209 268 321
#     4  10  20  33  56  76 106 136 170 228 264 308
#     4  10  19  31  51  79 104 137 177 209 259 312
#     4  10  19  34  52  77 104 136 173 222 264 301
#     4  11  20  30  49  76 112 143 168 210 256 318
#     4  10  21  36  54  76 107 142 174 216 271 325
#     4  10  23  34  53  80 106 140 178 220 269 320
#
# _framework density 18.750782999999998
#
# number of rings (size 3 to 8) (size 9 to 14) (size 15 to 20)
#    0.000    1.857    1.429    5.571    6.000    0.000 
#    0.000    0.000    0.000    2.571    0.000    1.000 
#    0.000    0.000    0.000    0.000    0.000    0.000 
#
# Total GULP energy -156215.490609 kJ/mol
# GULP energy per Si atom -5579.124665 kJ/mol
# Density = 1.870811 g / cm^3
# Si number density = 18.750783 Si / 1000 Ang^3
#
#
#
# Elastic Constant Matrix: (Units=GPa)
#
#
# Indices 1 2 3 4 5 6 
#
# 1 41.6165 17.8426 9.2451 0.0000 -11.5385 0.0000
# 2 17.8426 100.9457 35.5808 0.0000 -15.7049 0.0000
# 3 9.2451 35.5808 102.5235 0.0000 -19.2528 0.0000
# 4 0.0000 0.0000 0.0000 24.5701 0.0000 -9.3301
# 5 -11.5385 -15.7049 -19.2528 0.0000 25.0682 0.0000
# 6 0.0000 0.0000 0.0000 -9.3301 0.0000 19.4758
#
#
#
# Elastic Compliance Matrix: (Units=1/GPa)
#
#
# Indices 1 2 3 4 5 6 
#
# 1 0.028571 -0.003541 0.000824 0.000000 0.011565 0.000000
# 2 -0.003541 0.012231 -0.003263 0.000000 0.003526 0.000000
# 3 0.000824 -0.003263 0.012269 0.000000 0.007758 0.000000
# 4 0.000000 0.000000 0.000000 0.049750 0.000000 0.023834
# 5 0.011565 0.003526 0.007758 0.000000 0.053382 0.000000
# 6 0.000000 0.000000 0.000000 0.023834 0.000000 0.062764
#
#
# Mechanical properties :
#
#
# Convention : Reuss Voigt Hill
#
# Bulk Modulus (GPa) = 24.32477 41.15809 32.74143
# Shear Modulus (GPa) = 20.43904 25.98396 23.21150
#
# Velocity S-wave (km/s) = 3.30515 3.72661 3.52219
# Velocity P-wave (km/s) = 5.25035 6.36510 5.83441
#
# Compressibility (1/GPa) = 0.04111036
#
# Stress axis : x y z
#
# Youngs Moduli (GPa) = 35.00101 81.75880 81.50715
#
# Poissons Ratio (x) = 0.28953 -0.06720
# Poissons Ratio (y) = 0.12395 0.26598
# Poissons Ratio (z) = -0.02886 0.26680
#
# Static dielectric constant tensor:
#      x y z
#    x 1.666950 0.000000 0.078990 
#    y 0.000000 1.664590 0.000000 
#    z 0.078990 0.000000 1.620320 
# 
# From -- ./inp_files/184624.got.cif
#   From: 2010.05.17/outbox.cif.g08.bks.cpg/sg12_93_cif.got.tgz:184624.got - 2010.06.03 13:09:07.
