data_PCOD9179976
_publ_section_title
;
Structure prediction by ZEFSAII (Michael W. Deem and Ramdas Pophale) SiO2 
 PCOD9179976
Probable space group: C 2/M
;
_chemical_formula_sum "Si O2"
_cell_formula_units_Z 58
_cell_length_a 21.033979
_cell_length_b 7.527826
_cell_length_c 16.965585
_cell_angle_alpha 90.000000
_cell_angle_beta 86.963377
_cell_angle_gamma 90.000000
_cell_volume 2682.561063
_symmetry_space_group_name_H-M "C 2/M"
_symmetry_group_IT_number 12
_symmetry_cell_setting 'monoclinic'
loop_
_space_group_symop_operation_xyz
x,y,z
-x,y,-z
-x,-y,-z
x,-y,z
1/2+x,1/2+y,z
1/2-x,1/2+y,-z
1/2-x,1/2-y,-z
1/2+x,1/2-y,z
loop_
_atom_site_type_symbol
_atom_site_label
_atom_site_fract_x
_atom_site_fract_y
_atom_site_fract_z
Si Si1 0.156273 0.787361 0.479131
Si Si2 0.934411 0.217934 0.961892
Si Si3 0.000000 0.500000 0.500000
Si Si4 0.693151 0.287392 0.943470
Si Si5 0.763383 0.703402 0.787705
Si Si6 0.533578 0.716039 0.383963
Si Si7 0.778560 0.291860 0.376053
Si Si8 0.410666 0.292732 0.785821
O O1 0.097108 0.735275 0.429931
O O2 0.162486 0.731851 0.569325
O O3 0.218514 0.717732 0.429271
O O4 0.157786 0.000000 0.478755
O O5 0.873142 0.278770 0.016174
O O6 0.932982 0.000000 0.960266
O O7 0.926941 0.280064 0.871563
O O8 0.000000 0.269746 0.000000
O O9 0.985698 0.342164 0.433427
O O10 0.684807 0.500000 0.935946
O O11 0.719514 0.215935 0.858920
O O12 0.750000 0.250000 0.000000
O O13 0.776220 0.500000 0.808835
O O14 0.724569 0.709033 0.709267
O O15 0.834456 0.781630 0.775355
O O16 0.522430 0.500000 0.389692
O O17 0.550070 0.770479 0.293148
O O18 0.768007 0.500000 0.364266
O O19 0.426528 0.500000 0.788417
#
# Coordination Sequence:
#
# PCOD9179976 Si02
#       8
#     8   8   2   8   8   8   8   8
#     4   9  18  33  53  79 114 148 189 248 303 359
#     4   9  18  35  61  89 118 161 210 251 310 384
#     4  12  26  40  64  86 118 168 206 272 318 372
#     4  10  20  34  55  87 121 154 198 254 308 370
#     4  11  21  31  51  87 123 153 195 250 310 366
#     4  10  22  40  61  90 119 156 214 264 315 374
#     4  10  19  31  52  82 115 150 190 234 296 371
#     4  10  19  35  61  89 116 151 204 261 304 370
#
# _framework density 21.621130000000001
#
# number of rings (size 3 to 8) (size 9 to 14) (size 15 to 20)
#    0.000    2.069    2.759    1.034    1.931    1.103 
#    0.000    1.379    0.000    6.621    0.000    0.000 
#    0.000    0.000    0.000    0.000    0.000    0.138 
#
# Total GULP energy -161485.085394 kJ/mol
# GULP energy per Si atom -5568.451220 kJ/mol
# Density = 2.157192 g / cm^3
# Si number density = 21.621130 Si / 1000 Ang^3
#
#
#
# Elastic Constant Matrix: (Units=GPa)
#
#
# Indices 1 2 3 4 5 6 
#
# 1 82.8084 3.4465 46.1456 0.0000 -1.0594 0.0000
# 2 3.4465 51.7092 5.3975 0.0000 -3.1993 0.0000
# 3 46.1456 5.3975 191.4198 0.0000 -9.8781 0.0000
# 4 0.0000 0.0000 0.0000 7.9649 0.0000 3.9085
# 5 -1.0594 -3.1993 -9.8781 0.0000 32.0406 0.0000
# 6 0.0000 0.0000 0.0000 3.9085 0.0000 3.2796
#
#
#
# Elastic Compliance Matrix: (Units=1/GPa)
#
#
# Indices 1 2 3 4 5 6 
#
# 1 0.013980 -0.000618 -0.003386 0.000000 -0.000643 0.000000
# 2 -0.000618 0.019526 -0.000307 0.000000 0.001835 0.000000
# 3 -0.003386 -0.000307 0.006139 0.000000 0.001750 0.000000
# 4 0.000000 0.000000 0.000000 0.302407 0.000000 -0.360402
# 5 -0.000643 0.001835 0.001750 0.000000 0.031912 0.000000
# 6 0.000000 0.000000 0.000000 -0.360402 0.000000 0.734437
#
#
# Mechanical properties :
#
#
# Convention : Reuss Voigt Hill
#
# Bulk Modulus (GPa) = 32.23385 48.43518 40.33451
# Shear Modulus (GPa) = 4.43512 26.72020 15.57766
#
# Velocity S-wave (km/s) = 1.43379 3.51926 2.68709
# Velocity P-wave (km/s) = 4.20498 6.24212 5.32193
#
# Compressibility (1/GPa) = 0.03102329
#
# Stress axis : x y z
#
# Youngs Moduli (GPa) = 71.52837 51.21465 162.88334
#
# Poissons Ratio (x) = 0.03166 0.55153
# Poissons Ratio (y) = 0.04422 0.04998
# Poissons Ratio (z) = 0.24220 0.01572
#
# Static dielectric constant tensor:
#      x y z
#    x 1.863500 0.000000 -0.040960 
#    y 0.000000 1.827780 0.000000 
#    z -0.040960 0.000000 1.813280 
# 
# From -- ./inp_files/237671.got.cif
#   From: 2010.05.17/outbox.cif.g08.bks.cpg/sg12_119_cif.got.tgz:237671.got - 2010.06.03 13:09:07.
