data_PCOD9179684
_publ_section_title
;
Structure prediction by ZEFSAII (Michael W. Deem and Ramdas Pophale) SiO2 
 PCOD9179684
Probable space group: C 2/M
;
_chemical_formula_sum "Si O2"
_cell_formula_units_Z 64
_cell_length_a 30.770933
_cell_length_b 8.858071
_cell_length_c 15.366618
_cell_angle_alpha 90.000000
_cell_angle_beta 78.704309
_cell_angle_gamma 90.000000
_cell_volume 4107.362398
_symmetry_space_group_name_H-M "C 2/M"
_symmetry_group_IT_number 12
_symmetry_cell_setting 'monoclinic'
loop_
_space_group_symop_operation_xyz
x,y,z
-x,y,-z
-x,-y,-z
x,-y,z
1/2+x,1/2+y,z
1/2-x,1/2+y,-z
1/2-x,1/2-y,-z
1/2+x,1/2-y,z
loop_
_atom_site_type_symbol
_atom_site_label
_atom_site_fract_x
_atom_site_fract_y
_atom_site_fract_z
Si Si1 0.803762 0.180414 0.069409
Si Si2 0.969119 0.180839 0.394972
Si Si3 0.555993 0.181555 0.117769
Si Si4 0.561723 0.181180 0.422234
Si Si5 0.396130 0.819310 0.082699
Si Si6 0.539227 0.680278 0.802286
Si Si7 0.374536 0.181127 0.757000
Si Si8 0.789699 0.180075 0.872125
O O1 0.847182 0.250927 0.095071
O O2 0.757906 0.244702 0.125020
O O3 0.804561 0.000000 0.076324
O O4 0.803360 0.220392 0.966390
O O5 0.937635 0.248171 0.482036
O O6 0.955214 0.216344 0.302137
O O7 0.017317 0.253051 0.394789
O O8 0.972251 0.000000 0.403338
O O9 0.509036 0.260332 0.150111
O O10 0.590145 0.222753 0.181310
O O11 0.549589 0.000000 0.123364
O O12 0.577673 0.220662 0.016642
O O13 0.602922 0.218250 0.343956
O O14 0.557633 0.000000 0.428963
O O15 0.423782 0.755959 0.152423
O O16 0.393561 0.000000 0.087802
O O17 0.540836 0.500000 0.811754
O O18 0.328345 0.260674 0.794915
O O19 0.368568 0.000000 0.764199
O O20 0.785692 0.000000 0.868828
#
# Coordination Sequence:
#
# PCOD9179684 Si02
#       8
#     8   8   8   8   8   8   8   8
#     4  10  20  34  51  72 100 131 166 208 249 291
#     4  10  20  33  48  69  98 130 164 207 252 294
#     4  10  20  34  49  69 100 136 172 207 243 288
#     4  10  19  31  51  73  96 128 165 205 249 297
#     4  11  22  35  52  71  97 134 174 211 247 290
#     4  11  23  35  49  70  99 135 173 210 249 293
#     4  10  19  32  50  74 103 133 165 203 248 297
#     4  10  20  32  51  75 100 131 166 203 248 297
#
# _framework density 15.581777000000001
#
# number of rings (size 3 to 8) (size 9 to 14) (size 15 to 20)
#    0.000    1.750    2.500    3.375    0.000    6.500 
#    0.000    0.000    0.000    0.000    0.000    0.875 
#    0.000    0.000    0.000    0.000    0.000    0.000 
#
# Total GULP energy -178674.441770 kJ/mol
# GULP energy per Si atom -5583.576305 kJ/mol
# Density = 1.554631 g / cm^3
# Si number density = 15.581777 Si / 1000 Ang^3
#
#
#
# Elastic Constant Matrix: (Units=GPa)
#
#
# Indices 1 2 3 4 5 6 
#
# 1 127.1762 53.9188 81.5280 0.0000 -8.8272 0.0000
# 2 53.9188 52.1036 52.4403 0.0000 -5.9712 0.0000
# 3 81.5280 52.4403 112.8153 0.0000 -12.0904 0.0000
# 4 0.0000 0.0000 0.0000 25.5624 0.0000 -2.3036
# 5 -8.8272 -5.9712 -12.0904 0.0000 22.3948 0.0000
# 6 0.0000 0.0000 0.0000 -2.3036 0.0000 30.2433
#
#
#
# Elastic Compliance Matrix: (Units=1/GPa)
#
#
# Indices 1 2 3 4 5 6 
#
# 1 0.016949 -0.009795 -0.007705 0.000000 -0.000091 0.000000
# 2 -0.009795 0.041733 -0.012251 0.000000 0.000653 0.000000
# 3 -0.007705 -0.012251 0.020646 0.000000 0.004843 0.000000
# 4 0.000000 0.000000 0.000000 0.039390 0.000000 0.003000
# 5 -0.000091 0.000653 0.004843 0.000000 0.047406 0.000000
# 6 0.000000 0.000000 0.000000 0.003000 0.000000 0.033294
#
#
# Mechanical properties :
#
#
# Convention : Reuss Voigt Hill
#
# Bulk Modulus (GPa) = 50.43710 74.20769 62.32240
# Shear Modulus (GPa) = 18.83037 22.58732 20.70884
#
# Velocity S-wave (km/s) = 3.48010 3.81149 3.64956
# Velocity P-wave (km/s) = 6.97049 8.19134 7.60545
#
# Compressibility (1/GPa) = 0.01982667
#
# Stress axis : x y z
#
# Youngs Moduli (GPa) = 58.99990 23.96173 48.43582
#
# Poissons Ratio (x) = 0.23470 0.37322
# Poissons Ratio (y) = 0.57790 0.59336
# Poissons Ratio (z) = 0.45462 0.29354
#
# Static dielectric constant tensor:
#      x y z
#    x 1.486040 0.000000 -0.004340 
#    y 0.000000 1.519130 0.000000 
#    z -0.004340 0.000000 1.520600 
# 
# From -- ./inp_files/243926.got.cif
#   From: 2010.05.17/outbox.cif.g08.bks.cpg/sg12_122_cif.got.tgz:243926.got - 2010.06.03 13:09:07.
