data_PCOD9179969
_publ_section_title
;
Structure prediction by ZEFSAII (Michael W. Deem and Ramdas Pophale) SiO2 
 PCOD9179969
Probable space group: C 2/M
;
_chemical_formula_sum "Si O2"
_cell_formula_units_Z 56
_cell_length_a 19.688421
_cell_length_b 9.230680
_cell_length_c 31.261127
_cell_angle_alpha 90.000000
_cell_angle_beta 31.671146
_cell_angle_gamma 90.000000
_cell_volume 2982.937709
_symmetry_space_group_name_H-M "C 2/M"
_symmetry_group_IT_number 12
_symmetry_cell_setting 'monoclinic'
loop_
_space_group_symop_operation_xyz
x,y,z
-x,y,-z
-x,-y,-z
x,-y,z
1/2+x,1/2+y,z
1/2-x,1/2+y,-z
1/2-x,1/2-y,-z
1/2+x,1/2-y,z
loop_
_atom_site_type_symbol
_atom_site_label
_atom_site_fract_x
_atom_site_fract_y
_atom_site_fract_z
Si Si1 0.988230 0.329081 0.934439
Si Si2 0.759879 0.830317 0.098819
Si Si3 0.075420 0.329394 0.361005
Si Si4 0.461972 0.830091 0.849811
Si Si5 0.292608 0.672043 0.788191
Si Si6 0.109995 0.166943 0.478322
Si Si7 0.707297 0.330383 0.681115
O O1 0.963171 0.500000 0.955386
O O2 0.951689 0.292404 0.905185
O O3 0.141046 0.304931 0.857698
O O4 0.898823 0.237673 0.013802
O O5 0.670700 0.813801 0.104733
O O6 0.693065 0.745116 0.173369
O O7 0.770456 0.000000 0.103588
O O8 0.054175 0.500000 0.365148
O O9 0.120488 0.248429 0.294176
O O10 0.191860 0.315280 0.333336
O O11 0.951918 0.254459 0.449263
O O12 0.572751 0.736360 0.768265
O O13 0.500627 0.000000 0.827191
O O14 0.316182 0.500000 0.776632
O O15 0.231929 0.245025 0.391424
O O16 0.000000 0.167550 0.500000
O O17 0.136391 0.000000 0.475117
O O18 0.696329 0.500000 0.677149
#
# Coordination Sequence:
#
# PCOD9179969 Si02
#       7
#     8   8   8   8   8   8   8
#     4  10  21  38  59  80 105 141 187 231 274 326
#     4  11  24  38  55  80 111 145 183 229 278 325
#     4  10  19  32  52  81 113 141 179 228 274 318
#     4  10  21  38  57  79 110 147 184 225 273 329
#     4  11  22  37  58  80 109 147 185 225 273 330
#     4   9  17  29  49  77 111 147 180 218 267 323
#     4  10  19  31  52  82 112 142 179 227 274 317
#
# _framework density 18.773440000000001
#
# number of rings (size 3 to 8) (size 9 to 14) (size 15 to 20)
#    0.000    1.857    1.429    3.000    0.000    7.429 
#    0.000    0.000    0.000    0.857    0.000    0.000 
#    0.000    0.000    0.000    0.000    0.000    0.000 
#
# Total GULP energy -156424.473589 kJ/mol
# GULP energy per Si atom -5586.588342 kJ/mol
# Density = 1.873071 g / cm^3
# Si number density = 18.773440 Si / 1000 Ang^3
#
#
#
# Elastic Constant Matrix: (Units=GPa)
#
#
# Indices 1 2 3 4 5 6 
#
# 1 35.6706 17.3234 -2.8051 0.0009 14.0709 -0.0025
# 2 17.3234 86.4693 52.8462 0.0027 7.3874 -0.0009
# 3 -2.8051 52.8462 89.8343 0.0006 15.0831 -0.0009
# 4 0.0009 0.0027 0.0006 32.9767 -0.0001 10.8064
# 5 14.0709 7.3874 15.0831 -0.0001 19.9876 0.0005
# 6 -0.0025 -0.0009 -0.0009 10.8064 0.0005 17.5278
#
#
#
# Elastic Compliance Matrix: (Units=1/GPa)
#
#
# Indices 1 2 3 4 5 6 
#
# 1 0.062206 -0.022754 0.024354 -0.000005 -0.053760 0.000013
# 2 -0.022754 0.026421 -0.019813 0.000000 0.021204 -0.000003
# 3 0.024354 -0.019813 0.028852 -0.000002 -0.031594 0.000006
# 4 -0.000005 0.000000 -0.000002 0.038002 0.000005 -0.023430
# 5 -0.053760 0.021204 -0.031594 0.000005 0.103882 -0.000014
# 6 0.000013 -0.000003 0.000006 -0.023430 -0.000014 0.071497
#
#
# Mechanical properties :
#
#
# Convention : Reuss Voigt Hill
#
# Bulk Modulus (GPa) = 12.33752 38.52258 25.43005
# Shear Modulus (GPa) = 12.68059 23.73908 18.20984
#
# Velocity S-wave (km/s) = 2.60177 3.55984 3.11783
# Velocity P-wave (km/s) = 3.95116 6.12053 5.15134
#
# Compressibility (1/GPa) = 0.08105357
#
# Stress axis : x y z
#
# Youngs Moduli (GPa) = 16.07549 37.84939 34.65977
#
# Poissons Ratio (x) = 0.86121 -0.84410
# Poissons Ratio (y) = 0.36578 0.68671
# Poissons Ratio (z) = -0.39150 0.74991
#
# Static dielectric constant tensor:
#      x y z
#    x 1.651470 0.000000 0.003480 
#    y 0.000000 1.628350 0.000000 
#    z 0.003480 0.000000 1.610670 
# 
# From -- ./inp_files/281742.got.cif
#   From: 2010.05.17/outbox.cif.g08.bks.cpg/sg12_141_cif.got.tgz:281742.got - 2010.06.03 13:09:07.
