data_PCOD9179381
_publ_section_title
;
Structure prediction by ZEFSAII (Michael W. Deem and Ramdas Pophale) SiO2 
 PCOD9179381
Probable space group: C 2/M
;
_chemical_formula_sum "Si O2"
_cell_formula_units_Z 50
_cell_length_a 31.281737
_cell_length_b 7.814426
_cell_length_c 12.717305
_cell_angle_alpha 90.000000
_cell_angle_beta 58.579701
_cell_angle_gamma 90.000000
_cell_volume 2652.885137
_symmetry_space_group_name_H-M "C 2/M"
_symmetry_group_IT_number 12
_symmetry_cell_setting 'monoclinic'
loop_
_space_group_symop_operation_xyz
x,y,z
-x,y,-z
-x,-y,-z
x,-y,z
1/2+x,1/2+y,z
1/2-x,1/2+y,-z
1/2-x,1/2-y,-z
1/2+x,1/2-y,z
loop_
_atom_site_type_symbol
_atom_site_label
_atom_site_fract_x
_atom_site_fract_y
_atom_site_fract_z
Si Si1 0.307606 0.199924 0.427861
Si Si2 0.471234 0.702803 0.225832
Si Si3 0.000000 0.500000 0.500000
Si Si4 0.085138 0.302052 0.097918
Si Si5 0.390710 0.208677 0.160915
Si Si6 0.114189 0.796157 0.505925
Si Si7 0.428710 0.302241 0.661184
O O1 0.250000 0.250000 0.500000
O O2 0.343876 0.274166 0.290418
O O3 0.335754 0.234263 0.501663
O O4 0.308685 0.000000 0.408094
O O5 0.479161 0.500000 0.232303
O O6 0.525169 0.787988 0.157186
O O7 0.440461 0.731717 0.158321
O O8 0.433753 0.769927 0.365739
O O9 0.029731 0.653883 0.396723
O O10 0.099272 0.500000 0.091313
O O11 0.096375 0.208829 0.192634
O O12 0.109457 0.233816 0.959337
O O13 0.391865 0.000000 0.159479
O O14 0.106307 0.758385 0.393896
O O15 0.113703 0.000000 0.518595
O O16 0.446508 0.500000 0.624000
#
# Coordination Sequence:
#
# PCOD9179381 Si02
#       7
#     8   8   2   8   8   8   8
#     4  10  20  36  61  86 109 137 179 234 297 356
#     4  10  19  31  49  75 107 146 188 231 275 326
#     4  12  22  36  56  78 114 164 202 236 280 324
#     4  11  21  34  51  74 110 154 195 229 274 336
#     4   9  20  36  52  75 108 145 183 230 285 343
#     4   9  20  36  54  78 113 145 184 239 283 330
#     4  11  23  37  54  81 114 155 202 243 279 329
#
# _framework density 18.847404000000001
#
# number of rings (size 3 to 8) (size 9 to 14) (size 15 to 20)
#    0.000    1.920    0.800    3.120    1.120    5.760 
#    0.000    0.000    0.000    0.960    0.000    0.000 
#    0.000    0.000    0.000    0.000    0.000    0.000 
#
# Total GULP energy -139253.121284 kJ/mol
# GULP energy per Si atom -5570.124851 kJ/mol
# Density = 1.880451 g / cm^3
# Si number density = 18.847404 Si / 1000 Ang^3
#
#
#
# Elastic Constant Matrix: (Units=GPa)
#
#
# Indices 1 2 3 4 5 6 
#
# 1 60.9686 8.2677 57.8748 0.0000 10.5712 0.0000
# 2 8.2677 63.3487 14.6631 0.0000 5.2424 0.0000
# 3 57.8748 14.6631 123.3883 0.0000 30.6333 0.0000
# 4 0.0000 0.0000 0.0000 20.8158 0.0000 2.8144
# 5 10.5712 5.2424 30.6333 0.0000 22.1832 0.0000
# 6 0.0000 0.0000 0.0000 2.8144 0.0000 19.5986
#
#
#
# Elastic Compliance Matrix: (Units=1/GPa)
#
#
# Indices 1 2 3 4 5 6 
#
# 1 0.030506 -0.000897 -0.016199 0.000000 0.008045 0.000000
# 2 -0.000897 0.016305 -0.001014 0.000000 -0.002026 0.000000
# 3 -0.016199 -0.001014 0.021071 0.000000 -0.021138 0.000000
# 4 0.000000 0.000000 0.000000 0.048992 0.000000 -0.007035
# 5 0.008045 -0.002026 -0.021138 0.000000 0.070915 0.000000
# 6 0.000000 0.000000 0.000000 -0.007035 0.000000 0.052034
#
#
# Mechanical properties :
#
#
# Convention : Reuss Voigt Hill
#
# Bulk Modulus (GPa) = 31.58454 45.47964 38.53209
# Shear Modulus (GPa) = 17.44606 23.64619 20.54612
#
# Velocity S-wave (km/s) = 3.04575 3.54589 3.30529
# Velocity P-wave (km/s) = 5.40029 6.39901 5.92075
#
# Compressibility (1/GPa) = 0.03166106
#
# Stress axis : x y z
#
# Youngs Moduli (GPa) = 32.78037 61.33067 47.45822
#
# Poissons Ratio (x) = 0.05504 0.76879
# Poissons Ratio (y) = 0.02942 0.04811
# Poissons Ratio (z) = 0.53102 0.06218
#
# Static dielectric constant tensor:
#      x y z
#    x 1.903280 0.000000 -0.238700 
#    y 0.000000 1.678520 0.000000 
#    z -0.238700 0.000000 1.963050 
# 
# From -- ./inp_files/179788.got.cif
#   From: 2010.05.17/outbox.cif.g08.bks.cpg/sg12_90_cif.got.tgz:179788.got - 2010.06.03 13:09:07.
