data_PCOD9179967
_publ_section_title
;
Structure prediction by ZEFSAII (Michael W. Deem and Ramdas Pophale) SiO2 
 PCOD9179967
Probable space group: C 2/M
;
_chemical_formula_sum "Si O2"
_cell_formula_units_Z 48
_cell_length_a 11.812677
_cell_length_b 19.517650
_cell_length_c 15.555487
_cell_angle_alpha 90.000000
_cell_angle_beta 38.308665
_cell_angle_gamma 90.000000
_cell_volume 2223.204936
_symmetry_space_group_name_H-M "C 2/M"
_symmetry_group_IT_number 12
_symmetry_cell_setting 'monoclinic'
loop_
_space_group_symop_operation_xyz
x,y,z
-x,y,-z
-x,-y,-z
x,-y,z
1/2+x,1/2+y,z
1/2-x,1/2+y,-z
1/2-x,1/2-y,-z
1/2+x,1/2-y,z
loop_
_atom_site_type_symbol
_atom_site_label
_atom_site_fract_x
_atom_site_fract_y
_atom_site_fract_z
Si Si1 0.969399 0.629724 0.700663
Si Si2 0.054713 0.790125 0.645808
Si Si3 0.815798 0.163072 0.261810
Si Si4 0.166077 0.687855 0.838189
Si Si5 0.188200 0.882244 0.417118
Si Si6 0.868831 0.076859 0.994504
O O1 0.143928 0.624447 0.321071
O O2 0.154258 0.588362 0.613517
O O3 0.029023 0.709104 0.669310
O O4 0.815695 0.613020 0.863908
O O5 0.851407 0.817760 0.781931
O O6 0.196947 0.816870 0.631370
O O7 0.105194 0.818484 0.521843
O O8 0.845487 0.233657 0.190305
O O9 0.999949 0.119213 0.145103
O O10 0.200124 0.641657 0.733660
O O11 0.000000 0.672215 0.000000
O O12 0.000000 0.919181 0.500000
O O13 0.829246 0.000000 0.987753
O O14 0.000000 0.072387 0.000000
#
# Coordination Sequence:
#
# PCOD9179967 Si02
#       6
#     8   8   8   8   8   8
#     4  10  19  32  54  77 111 147 181 215 268 332
#     4  10  20  32  50  80 119 144 173 220 269 333
#     4  10  19  31  52  82 112 139 177 221 275 319
#     4  10  20  31  48  76 114 147 179 209 263 329
#     4  10  21  35  49  79 119 151 177 209 268 335
#     4   9  19  35  53  79 110 143 184 231 274 315
#
# _framework density 21.590451999999999
#
# number of rings (size 3 to 8) (size 9 to 14) (size 15 to 20)
#    0.000    2.167    1.667    3.000    2.333    2.000 
#    0.000    0.000    0.000    1.500    0.000   12.833 
#    0.000    0.000    0.000    0.000    0.000    0.000 
#
# Total GULP energy -133683.604820 kJ/mol
# GULP energy per Si atom -5570.150201 kJ/mol
# Density = 2.154131 g / cm^3
# Si number density = 21.590452 Si / 1000 Ang^3
#
#
#
# Elastic Constant Matrix: (Units=GPa)
#
#
# Indices 1 2 3 4 5 6 
#
# 1 146.4960 18.8552 60.6270 -0.0040 -18.1237 0.0017
# 2 18.8552 49.4140 19.6449 -0.0025 6.8356 0.0017
# 3 60.6270 19.6449 134.1972 -0.0003 -18.6312 0.0017
# 4 -0.0040 -0.0025 -0.0003 -10.1683 0.0029 -0.7662
# 5 -18.1237 6.8356 -18.6312 0.0029 43.4504 -0.0013
# 6 0.0017 0.0017 0.0017 -0.7662 -0.0013 0.5051
#
#
#
# Elastic Compliance Matrix: (Units=1/GPa)
#
#
# Indices 1 2 3 4 5 6 
#
# 1 0.008817 -0.002439 -0.003256 -0.000002 0.002665 -0.000006
# 2 -0.002439 0.023248 -0.003137 -0.000001 -0.006020 -0.000077
# 3 -0.003256 -0.003137 0.009848 0.000003 0.003358 0.000002
# 4 -0.000002 -0.000001 0.000003 -0.088259 0.000002 -0.133862
# 5 0.002665 -0.006020 0.003358 0.000002 0.026513 0.000072
# 6 -0.000006 -0.000077 0.000002 -0.133862 0.000072 1.776586
#
#
# Mechanical properties :
#
#
# Convention : Reuss Voigt Hill
#
# Bulk Modulus (GPa) = 41.23905 58.70680 49.97293
# Shear Modulus (GPa) = 2.80505 22.15613 12.48059
#
# Velocity S-wave (km/s) = 1.14106 3.20691 2.40690
# Velocity P-wave (km/s) = 4.56926 6.40020 5.56060
#
# Compressibility (1/GPa) = 0.02424886
#
# Stress axis : x y z
#
# Youngs Moduli (GPa) = 113.41225 43.01520 101.53928
#
# Poissons Ratio (x) = 0.10489 0.33066
# Poissons Ratio (y) = 0.27656 0.31855
# Poissons Ratio (z) = 0.36933 0.13495
#
# Static dielectric constant tensor:
#      x y z
#    x 1.883150 0.000000 -0.031160 
#    y 0.000000 1.774750 0.000000 
#    z -0.031160 0.000000 1.809440 
# 
# From -- ./inp_files/272051.got.cif
#   From: 2010.05.17/outbox.cif.g08.bks.cpg/sg12_137_cif.got.tgz:272051.got - 2010.06.03 13:09:07.
