data_PCOD9179541
_publ_section_title
;
Structure prediction by ZEFSAII (Michael W. Deem and Ramdas Pophale) SiO2 
 PCOD9179541
Probable space group: C 2/M
;
_chemical_formula_sum "Si O2"
_cell_formula_units_Z 64
_cell_length_a 28.663906
_cell_length_b 8.743130
_cell_length_c 14.685427
_cell_angle_alpha 90.000000
_cell_angle_beta 104.799082
_cell_angle_gamma 90.000000
_cell_volume 3558.261585
_symmetry_space_group_name_H-M "C 2/M"
_symmetry_group_IT_number 12
_symmetry_cell_setting 'monoclinic'
loop_
_space_group_symop_operation_xyz
x,y,z
-x,y,-z
-x,-y,-z
x,-y,z
1/2+x,1/2+y,z
1/2-x,1/2+y,-z
1/2-x,1/2-y,-z
1/2+x,1/2-y,z
loop_
_atom_site_type_symbol
_atom_site_label
_atom_site_fract_x
_atom_site_fract_y
_atom_site_fract_z
Si Si1 0.932912 0.184770 0.790176
Si Si2 0.803632 0.816267 0.025890
Si Si3 0.134359 0.184217 0.399111
Si Si4 0.956152 0.184359 0.126694
Si Si5 0.661999 0.182802 0.608649
Si Si6 0.885134 0.681915 0.942005
Si Si7 0.236376 0.816052 0.394769
Si Si8 0.125575 0.182769 0.774408
O O1 0.913116 0.227676 0.680573
O O2 0.899056 0.256455 0.850087
O O3 0.988316 0.228836 0.835057
O O4 0.930029 0.000000 0.795887
O O5 0.836435 0.753881 0.959651
O O6 0.802318 0.000000 0.020260
O O7 0.750000 0.750000 0.000000
O O8 0.832664 0.772618 0.132564
O O9 0.141896 0.255412 0.502363
O O10 0.180469 0.227792 0.358125
O O11 0.134991 0.000000 0.410321
O O12 0.924807 0.219545 0.200993
O O13 0.953585 0.000000 0.110946
O O14 0.928606 0.264003 0.030002
O O15 0.718705 0.233039 0.645298
O O16 0.633420 0.241694 0.681318
O O17 0.660633 0.000000 0.605231
O O18 0.881229 0.500000 0.940634
O O19 0.250000 0.750000 0.500000
O O20 0.237472 0.000000 0.397200
O O21 0.127885 0.000000 0.764688
#
# Coordination Sequence:
#
# PCOD9179541 Si02
#       8
#     8   8   8   8   8   8   8   8
#     4  10  20  35  56  79 103 136 177 223 275 322
#     4  10  21  38  58  82 113 145 178 219 263 309
#     4   9  18  33  52  74 101 133 171 216 264 316
#     4   9  19  37  57  76 101 135 178 225 269 318
#     4  10  19  31  50  75 103 137 174 213 259 313
#     4  11  22  35  54  81 110 141 176 214 263 323
#     4   8  15  28  45  67  94 124 159 198 243 295
#     4   9  19  35  54  75 101 137 178 216 257 311
#
# _framework density 17.986311000000001
#
# number of rings (size 3 to 8) (size 9 to 14) (size 15 to 20)
#    0.000    2.500    0.000    3.000    0.000    6.500 
#    0.000    1.875    0.000    3.750    0.000    0.000 
#    0.000    0.000    0.000    0.000    0.000    0.000 
#
# Total GULP energy -178393.272590 kJ/mol
# GULP energy per Si atom -5574.789768 kJ/mol
# Density = 1.794537 g / cm^3
# Si number density = 17.986311 Si / 1000 Ang^3
#
#
#
# Elastic Constant Matrix: (Units=GPa)
#
#
# Indices 1 2 3 4 5 6 
#
# 1 112.0345 36.9683 61.4987 0.0000 4.5490 0.0000
# 2 36.9683 28.1999 32.8864 0.0000 -1.4277 0.0000
# 3 61.4987 32.8864 90.5323 0.0000 -15.8991 0.0000
# 4 0.0000 0.0000 0.0000 12.2139 0.0000 -1.7250
# 5 4.5490 -1.4277 -15.8991 0.0000 24.7474 0.0000
# 6 0.0000 0.0000 0.0000 -1.7250 0.0000 24.2885
#
#
#
# Elastic Compliance Matrix: (Units=1/GPa)
#
#
# Indices 1 2 3 4 5 6 
#
# 1 0.019684 -0.014820 -0.009889 0.000000 -0.010827 0.000000
# 2 -0.014820 0.076123 -0.018413 0.000000 -0.004714 0.000000
# 3 -0.009889 -0.018413 0.027712 0.000000 0.018559 0.000000
# 4 0.000000 0.000000 0.000000 0.082703 0.000000 0.005874
# 5 -0.010827 -0.004714 0.018559 0.000000 0.054050 0.000000
# 6 0.000000 0.000000 0.000000 0.005874 0.000000 0.041589
#
#
# Mechanical properties :
#
#
# Convention : Reuss Voigt Hill
#
# Bulk Modulus (GPa) = 26.82786 54.83039 40.82912
# Shear Modulus (GPa) = 12.48344 18.87752 15.68048
#
# Velocity S-wave (km/s) = 2.63735 3.24319 2.95583
# Velocity P-wave (km/s) = 4.92161 6.67646 5.86503
#
# Compressibility (1/GPa) = 0.03727468
#
# Stress axis : x y z
#
# Youngs Moduli (GPa) = 50.80225 13.13656 36.08599
#
# Poissons Ratio (x) = 0.19468 0.35687
# Poissons Ratio (y) = 0.75289 0.66445
# Poissons Ratio (z) = 0.50241 0.24188
#
# Static dielectric constant tensor:
#      x y z
#    x 1.638310 0.000000 0.008930 
#    y 0.000000 1.607140 0.000000 
#    z 0.008930 0.000000 1.593360 
# 
# From -- ./inp_files/244038.got.cif
#   From: 2010.05.17/outbox.cif.g08.bks.cpg/sg12_123_cif.got.tgz:244038.got - 2010.06.03 13:09:07.
