data_PCOD9179792
_publ_section_title
;
Structure prediction by ZEFSAII (Michael W. Deem and Ramdas Pophale) SiO2 
 PCOD9179792
Probable space group: C 2/M
;
_chemical_formula_sum "Si O2"
_cell_formula_units_Z 48
_cell_length_a 16.466723
_cell_length_b 8.773629
_cell_length_c 31.410256
_cell_angle_alpha 90.000000
_cell_angle_beta 27.680531
_cell_angle_gamma 90.000000
_cell_volume 2108.055912
_symmetry_space_group_name_H-M "C 2/M"
_symmetry_group_IT_number 12
_symmetry_cell_setting 'monoclinic'
loop_
_space_group_symop_operation_xyz
x,y,z
-x,y,-z
-x,-y,-z
x,-y,z
1/2+x,1/2+y,z
1/2-x,1/2+y,-z
1/2-x,1/2-y,-z
1/2+x,1/2-y,z
loop_
_atom_site_type_symbol
_atom_site_label
_atom_site_fract_x
_atom_site_fract_y
_atom_site_fract_z
Si Si1 0.483906 0.680156 0.612207
Si Si2 0.912279 0.180144 0.950225
Si Si3 0.676384 0.825045 0.447634
Si Si4 0.339332 0.317154 0.287992
Si Si5 0.280827 0.315911 0.784391
Si Si6 0.765634 0.181174 0.890237
O O1 0.506838 0.500000 0.602048
O O2 0.632753 0.747365 0.512481
O O3 0.303043 0.725441 0.672325
O O4 0.443305 0.733976 0.679232
O O5 0.098465 0.250849 0.851550
O O6 0.916998 0.000000 0.942310
O O7 0.750000 0.250000 0.000000
O O8 0.870052 0.226645 0.018580
O O9 0.500000 0.819609 0.500000
O O10 0.817864 0.770485 0.347689
O O11 0.716788 0.000000 0.438655
O O12 0.299236 0.500000 0.304242
O O13 0.538856 0.297330 0.182162
O O14 0.277535 0.500000 0.784208
O O15 0.280621 0.273585 0.834030
O O16 0.723779 0.000000 0.911932
#
# Coordination Sequence:
#
# PCOD9179792 Si02
#       6
#     8   8   8   8   8   8
#     4  10  19  31  51  79 108 139 178 224 270 315
#     4  12  25  40  60  85 110 138 178 224 269 320
#     4   8  15  29  49  74 104 138 179 223 265 313
#     4   9  18  33  54  78 103 139 184 223 264 318
#     4  10  22  39  57  80 112 147 180 218 269 325
#     4  10  21  39  60  80 109 147 181 218 269 324
#
# _framework density 22.769794999999998
#
# number of rings (size 3 to 8) (size 9 to 14) (size 15 to 20)
#    0.000    2.167    0.000    4.500    0.000   10.333 
#    0.000    0.833    0.000    0.000    0.000    0.000 
#    0.000    0.000    0.000    0.000    0.000    0.000 
#
# Total GULP energy -134141.314239 kJ/mol
# GULP energy per Si atom -5589.221427 kJ/mol
# Density = 2.271797 g / cm^3
# Si number density = 22.769795 Si / 1000 Ang^3
#
#
#
# Elastic Constant Matrix: (Units=GPa)
#
#
# Indices 1 2 3 4 5 6 
#
# 1 77.1477 6.7682 10.7683 0.0006 18.5780 0.0027
# 2 6.7682 8.5901 23.0358 0.0007 15.6441 0.0019
# 3 10.7683 23.0358 141.1270 0.0005 23.9375 0.0000
# 4 0.0006 0.0007 0.0005 31.4335 0.0001 8.1556
# 5 18.5780 15.6441 23.9375 0.0001 46.0105 0.0008
# 6 0.0027 0.0019 0.0000 8.1556 0.0008 11.7404
#
#
#
# Elastic Compliance Matrix: (Units=1/GPa)
#
#
# Indices 1 2 3 4 5 6 
#
# 1 0.014374 -0.003009 0.000225 0.000001 -0.004898 -0.000003
# 2 -0.003009 0.647339 -0.074918 0.000012 -0.179911 -0.000097
# 3 0.000225 -0.074918 0.016443 -0.000002 0.016827 0.000012
# 4 0.000001 0.000012 -0.000002 0.038808 -0.000003 -0.026958
# 5 -0.004898 -0.179911 0.016827 -0.000003 0.076129 0.000026
# 6 -0.000003 -0.000097 0.000012 -0.026958 0.000026 0.103903
#
#
# Mechanical properties :
#
#
# Convention : Reuss Voigt Hill
#
# Bulk Modulus (GPa) = 1.91295 34.22327 18.06811
# Shear Modulus (GPa) = 4.07613 30.25636 17.16625
#
# Velocity S-wave (km/s) = 1.33942 3.64922 2.74871
# Velocity P-wave (km/s) = 1.79833 5.72874 4.24573
#
# Compressibility (1/GPa) = 0.52275201
#
# Stress axis : x y z
#
# Youngs Moduli (GPa) = 69.56908 1.54478 60.81562
#
# Poissons Ratio (x) = 0.00465 -0.01370
# Poissons Ratio (y) = 0.20936 4.55620
# Poissons Ratio (z) = -0.01567 0.11573
#
# Static dielectric constant tensor:
#      x y z
#    x 1.948400 0.000000 0.024150 
#    y 0.000000 1.761700 0.000000 
#    z 0.024150 0.000000 1.875470 
# 
# From -- ./inp_files/274630.got.cif
#   From: 2010.05.17/outbox.cif.g08.bks.cpg/sg12_138_cif.got.tgz:274630.got - 2010.06.03 13:09:07.
