data_PCOD9179621
_publ_section_title
;
Structure prediction by ZEFSAII (Michael W. Deem and Ramdas Pophale) SiO2 
 PCOD9179621
Probable space group: C 2/M
;
_chemical_formula_sum "Si O2"
_cell_formula_units_Z 64
_cell_length_a 24.495846
_cell_length_b 7.728106
_cell_length_c 17.847805
_cell_angle_alpha 90.000000
_cell_angle_beta 109.693109
_cell_angle_gamma 90.000000
_cell_volume 3181.088571
_symmetry_space_group_name_H-M "C 2/M"
_symmetry_group_IT_number 12
_symmetry_cell_setting 'monoclinic'
loop_
_space_group_symop_operation_xyz
x,y,z
-x,y,-z
-x,-y,-z
x,-y,z
1/2+x,1/2+y,z
1/2-x,1/2+y,-z
1/2-x,1/2-y,-z
1/2+x,1/2-y,z
loop_
_atom_site_type_symbol
_atom_site_label
_atom_site_fract_x
_atom_site_fract_y
_atom_site_fract_z
Si Si1 0.930329 0.290188 0.838405
Si Si2 0.764724 0.792321 0.921015
Si Si3 0.176218 0.711783 0.310223
Si Si4 0.949713 0.299557 0.163727
Si Si5 0.681987 0.205485 0.476847
Si Si6 0.894818 0.204955 0.982519
Si Si7 0.308833 0.702237 0.354974
Si Si8 0.152457 0.296645 0.783736
O O1 0.931088 0.500000 0.837622
O O2 0.870567 0.231759 0.772154
O O3 0.931899 0.234991 0.925338
O O4 0.986350 0.224246 0.819220
O O5 0.829652 0.728397 0.935375
O O6 0.712639 0.723438 0.845338
O O7 0.766741 0.000000 0.912600
O O8 0.750000 0.750000 0.000000
O O9 0.177977 0.500000 0.311299
O O10 0.157046 0.765684 0.385447
O O11 0.242232 0.771775 0.325546
O O12 0.958895 0.500000 0.189607
O O13 0.904269 0.221464 0.201881
O O14 0.919445 0.291909 0.068303
O O15 0.664783 0.276305 0.549861
O O16 0.655167 0.218082 0.695943
O O17 0.675131 0.000000 0.477383
O O18 0.892244 0.000000 0.996941
O O19 0.304699 0.500000 0.337085
O O20 0.250000 0.750000 0.500000
O O21 0.152677 0.500000 0.804007
#
# Coordination Sequence:
#
# PCOD9179621 Si02
#       8
#     8   8   8   8   8   8   8   8
#     4  10  20  35  54  73  95 129 171 210 246 292
#     4  10  20  33  50  71  98 129 163 202 250 299
#     4   8  16  31  51  76 102 126 158 201 244 289
#     4  10  21  36  53  70  93 132 175 210 248 292
#     4   9  16  29  50  76 106 134 159 195 246 297
#     4  11  22  34  50  74 100 129 165 208 256 300
#     4  10  19  31  50  78 105 131 162 197 247 303
#     4  10  20  34  50  71  99 129 166 209 248 292
#
# _framework density 20.1189
#
# number of rings (size 3 to 8) (size 9 to 14) (size 15 to 20)
#    0.000    2.250    1.250    3.000    0.000    3.500 
#    0.000    3.125    0.000    0.750    0.000    5.250 
#    0.000    0.000    0.000    0.000    0.000    0.000 
#
# Total GULP energy -178526.682112 kJ/mol
# GULP energy per Si atom -5578.958816 kJ/mol
# Density = 2.007311 g / cm^3
# Si number density = 20.118900 Si / 1000 Ang^3
#
#
#
# Elastic Constant Matrix: (Units=GPa)
#
#
# Indices 1 2 3 4 5 6 
#
# 1 81.7871 -0.0023 24.0735 0.0000 -17.3435 0.0000
# 2 -0.0023 29.9506 -16.9883 0.0000 4.2940 0.0000
# 3 24.0735 -16.9883 92.1798 0.0000 -23.1845 0.0000
# 4 0.0000 0.0000 0.0000 20.0473 0.0000 -4.3948
# 5 -17.3435 4.2940 -23.1845 0.0000 19.2265 0.0000
# 6 0.0000 0.0000 0.0000 -4.3948 0.0000 11.4194
#
#
#
# Elastic Compliance Matrix: (Units=1/GPa)
#
#
# Indices 1 2 3 4 5 6 
#
# 1 0.015326 -0.002544 -0.001222 0.000000 0.012920 0.000000
# 2 -0.002544 0.037708 0.007060 0.000000 -0.002204 0.000000
# 3 -0.001222 0.007060 0.016929 0.000000 0.017735 0.000000
# 4 0.000000 0.000000 0.000000 0.054478 0.000000 0.020966
# 5 0.012920 -0.002204 0.017735 0.000000 0.085545 0.000000
# 6 0.000000 0.000000 0.000000 0.020966 0.000000 0.095639
#
#
# Mechanical properties :
#
#
# Convention : Reuss Voigt Hill
#
# Bulk Modulus (GPa) = 13.06321 24.23147 18.64734
# Shear Modulus (GPa) = 15.40566 23.26096 19.33331
#
# Velocity S-wave (km/s) = 2.77019 3.40395 3.10329
# Velocity P-wave (km/s) = 4.09133 5.24589 4.70417
#
# Compressibility (1/GPa) = 0.07655087
#
# Stress axis : x y z
#
# Youngs Moduli (GPa) = 65.24765 26.51928 59.06947
#
# Poissons Ratio (x) = 0.06747 0.07218
# Poissons Ratio (y) = 0.16600 -0.41701
# Poissons Ratio (z) = 0.07973 -0.18722
#
# Static dielectric constant tensor:
#      x y z
#    x 1.730910 0.000000 0.004050 
#    y 0.000000 1.760360 0.000000 
#    z 0.004050 0.000000 1.675480 
# 
# From -- ./inp_files/244036.got.cif
#   From: 2010.05.17/outbox.cif.g08.bks.cpg/sg12_123_cif.got.tgz:244036.got - 2010.06.03 13:09:07.
