data_PCOD9179611
_publ_section_title
;
Structure prediction by ZEFSAII (Michael W. Deem and Ramdas Pophale) SiO2 
 PCOD9179611
Probable space group: C 2/M
;
_chemical_formula_sum "Si O2"
_cell_formula_units_Z 48
_cell_length_a 9.726190
_cell_length_b 13.534880
_cell_length_c 23.440226
_cell_angle_alpha 90.000000
_cell_angle_beta 144.303168
_cell_angle_gamma 90.000000
_cell_volume 1800.516338
_symmetry_space_group_name_H-M "C 2/M"
_symmetry_group_IT_number 12
_symmetry_cell_setting 'monoclinic'
loop_
_space_group_symop_operation_xyz
x,y,z
-x,y,-z
-x,-y,-z
x,-y,z
1/2+x,1/2+y,z
1/2-x,1/2+y,-z
1/2-x,1/2-y,-z
1/2+x,1/2-y,z
loop_
_atom_site_type_symbol
_atom_site_label
_atom_site_fract_x
_atom_site_fract_y
_atom_site_fract_z
Si Si1 0.056747 0.865735 0.944488
Si Si2 0.030816 0.604828 0.786637
Si Si3 0.947232 0.668119 0.628273
Si Si4 0.537416 0.135728 0.076581
Si Si5 0.031817 0.168727 0.215094
Si Si6 0.743258 0.613053 0.444159
O O1 0.814150 0.904395 0.887561
O O2 0.028144 0.750863 0.948741
O O3 0.021729 0.875610 0.864831
O O4 0.324116 0.900379 0.044069
O O5 0.921667 0.500000 0.767864
O O6 0.962962 0.621361 0.696488
O O7 0.971934 0.711972 0.792440
O O8 0.765764 0.625615 0.520871
O O9 0.899008 0.786174 0.619811
O O10 0.198714 0.645713 0.682833
O O11 0.816278 0.132173 0.182090
O O12 0.500000 0.098373 0.000000
O O13 0.660894 0.500000 0.404254
O O14 0.000000 0.622216 0.500000
#
# Coordination Sequence:
#
# PCOD9179611 Si02
#       6
#     8   8   8   8   8   8
#     4   8  15  27  46  70  99 136 175 207 247 296
#     4  10  19  31  50  77 108 138 170 212 259 306
#     4  10  20  35  54  77 103 134 172 212 261 313
#     4   8  13  25  47  70  93 130 179 212 243 291
#     4   9  17  29  49  74  99 132 174 214 256 303
#     4  10  21  37  56  76 101 134 171 212 259 316
#
# _framework density 26.659020000000002
#
# number of rings (size 3 to 8) (size 9 to 14) (size 15 to 20)
#    0.000    2.833    0.000    1.500    0.000    0.667 
#    0.000    0.000    0.000   69.000    0.000   16.333 
#    0.000    0.000    0.000    0.000    0.000    0.000 
#
# Total GULP energy -133887.437840 kJ/mol
# GULP energy per Si atom -5578.643243 kJ/mol
# Density = 2.659834 g / cm^3
# Si number density = 26.659020 Si / 1000 Ang^3
#
#
#
# Elastic Constant Matrix: (Units=GPa)
#
#
# Indices 1 2 3 4 5 6 
#
# 1 113.1177 3.0199 29.9846 0.0000 2.0695 0.0000
# 2 3.0199 159.6990 14.8190 0.0000 -1.9730 0.0000
# 3 29.9846 14.8190 72.1851 0.0003 -0.8167 -0.0002
# 4 0.0000 0.0000 0.0003 -96.0237 -0.0001 40.0670
# 5 2.0695 -1.9730 -0.8167 -0.0001 35.9528 0.0000
# 6 0.0000 0.0000 -0.0002 40.0670 0.0000 -97.3764
#
#
#
# Elastic Compliance Matrix: (Units=1/GPa)
#
#
# Indices 1 2 3 4 5 6 
#
# 1 0.009956 0.000192 -0.004182 0.000000 -0.000658 0.000000
# 2 0.000192 0.006391 -0.001388 0.000000 0.000308 0.000000
# 3 -0.004182 -0.001388 0.015881 0.000000 0.000525 0.000000
# 4 0.000000 0.000000 0.000000 -0.012573 0.000000 -0.005173
# 5 -0.000658 0.000308 0.000525 0.000000 0.027881 0.000000
# 6 0.000000 0.000000 0.000000 -0.005173 0.000000 -0.012398
#
#
# Mechanical properties :
#
#
# Convention : Reuss Voigt Hill
#
# Bulk Modulus (GPa) = 46.57521 48.96097 47.76809
# Shear Modulus (GPa) = 94.24602 -11.67755 41.28423
#
# Velocity S-wave (km/s) = 5.95224 -2.09520 3.93950
# Velocity P-wave (km/s) = 8.04658 3.54293 6.21691
#
# Compressibility (1/GPa) = 0.02147065
#
# Stress axis : x y z
#
# Youngs Moduli (GPa) = 100.44307 156.47570 62.96653
#
# Poissons Ratio (x) = -0.03000 0.26335
# Poissons Ratio (y) = -0.01926 0.08740
# Poissons Ratio (z) = 0.42009 0.21721
#
# Static dielectric constant tensor:
#      x y z
#    x 2.133950 0.000000 -0.020090 
#    y 0.000000 2.213990 0.000000 
#    z -0.020090 0.000000 2.119590 
# 
# From -- ./inp_files/374145.got.cif
#   From: 2010.05.17/outbox.cif.g08.bks.cpg/sg12_188_cif.got.tgz:374145.got - 2010.06.03 13:09:07.
