data_PCOD9179581
_publ_section_title
;
Structure prediction by ZEFSAII (Michael W. Deem and Ramdas Pophale) SiO2 
 PCOD9179581
Probable space group: C 2/M
;
_chemical_formula_sum "Si O2"
_cell_formula_units_Z 64
_cell_length_a 23.860094
_cell_length_b 8.999071
_cell_length_c 21.791843
_cell_angle_alpha 90.000000
_cell_angle_beta 128.895479
_cell_angle_gamma 90.000000
_cell_volume 3641.721624
_symmetry_space_group_name_H-M "C 2/M"
_symmetry_group_IT_number 12
_symmetry_cell_setting 'monoclinic'
loop_
_space_group_symop_operation_xyz
x,y,z
-x,y,-z
-x,-y,-z
x,-y,z
1/2+x,1/2+y,z
1/2-x,1/2+y,-z
1/2-x,1/2-y,-z
1/2+x,1/2-y,z
loop_
_atom_site_type_symbol
_atom_site_label
_atom_site_fract_x
_atom_site_fract_y
_atom_site_fract_z
Si Si1 0.387930 0.329534 0.330180
Si Si2 0.674201 0.324625 0.252876
Si Si3 0.161707 0.674893 0.585002
Si Si4 0.071558 0.324368 0.762212
Si Si5 0.229414 0.677860 0.921503
Si Si6 0.418208 0.176819 0.706840
Si Si7 0.672964 0.322204 0.463419
Si Si8 0.222904 0.328255 0.166423
O O1 0.407468 0.500000 0.355853
O O2 0.385518 0.235337 0.390875
O O3 0.433443 0.261728 0.305683
O O4 0.305528 0.326204 0.248077
O O5 0.659605 0.500000 0.240817
O O6 0.754071 0.306149 0.337715
O O7 0.617389 0.240818 0.256395
O O8 0.678162 0.255650 0.187872
O O9 0.149267 0.500000 0.566427
O O10 0.150497 0.766316 0.515274
O O11 0.074213 0.500000 0.749420
O O12 0.146321 0.286731 0.847144
O O13 0.003253 0.297466 0.758234
O O14 0.237111 0.500000 0.928884
O O15 0.275828 0.745617 0.897664
O O16 0.250000 0.750000 0.000000
O O17 0.381083 0.260489 0.624659
O O18 0.404444 0.000000 0.693131
O O19 0.678016 0.500000 0.464674
O O20 0.750000 0.250000 0.500000
O O21 0.201404 0.500000 0.145469
#
# Coordination Sequence:
#
# PCOD9179581 Si02
#       8
#     8   8   8   8   8   8   8   8
#     4   9  17  30  51  76 102 134 173 219 265 311
#     4  10  19  31  50  76 105 138 177 219 264 310
#     4  10  19  32  51  74 102 135 175 223 271 315
#     4   9  20  37  55  77 107 142 176 212 259 318
#     4  10  19  34  57  85 113 139 172 211 258 311
#     4  11  22  36  54  75 104 142 180 219 265 316
#     4  12  23  35  51  74 104 137 178 226 271 315
#     4   9  17  30  50  78 108 137 173 214 259 307
#
# _framework density 17.574104999999999
#
# number of rings (size 3 to 8) (size 9 to 14) (size 15 to 20)
#    0.000    2.000    1.250    3.375    0.000    5.500 
#    0.000    0.625    0.000    4.500    0.000    5.250 
#    0.000    0.000    0.000    0.000    0.000    0.000 
#
# Total GULP energy -178645.751664 kJ/mol
# GULP energy per Si atom -5582.679739 kJ/mol
# Density = 1.753411 g / cm^3
# Si number density = 17.574105 Si / 1000 Ang^3
#
#
#
# Elastic Constant Matrix: (Units=GPa)
#
#
# Indices 1 2 3 4 5 6 
#
# 1 110.7825 77.3475 52.7738 0.0000 -31.4656 0.0000
# 2 77.3475 129.9428 57.5845 0.0000 -23.7769 0.0000
# 3 52.7738 57.5845 75.9643 0.0000 -33.5380 0.0000
# 4 0.0000 0.0000 0.0000 26.6990 0.0000 -11.1020
# 5 -31.4656 -23.7769 -33.5380 0.0000 31.4717 0.0000
# 6 0.0000 0.0000 0.0000 -11.1020 0.0000 31.1118
#
#
#
# Elastic Compliance Matrix: (Units=1/GPa)
#
#
# Indices 1 2 3 4 5 6 
#
# 1 0.018790 -0.008323 -0.002317 0.000000 0.010030 0.000000
# 2 -0.008323 0.015297 -0.008282 0.000000 -0.005590 0.000000
# 3 -0.002317 -0.008282 0.032608 0.000000 0.026176 0.000000
# 4 0.000000 0.000000 0.000000 0.043981 0.000000 0.015694
# 5 0.010030 -0.005590 0.026176 0.000000 0.065474 0.000000
# 6 0.000000 0.000000 0.000000 0.015694 0.000000 0.037742
#
#
# Mechanical properties :
#
#
# Convention : Reuss Voigt Hill
#
# Bulk Modulus (GPa) = 34.65865 76.90014 55.77939
# Shear Modulus (GPa) = 19.13135 26.45541 22.79338
#
# Velocity S-wave (km/s) = 3.30299 3.88411 3.60528
# Velocity P-wave (km/s) = 5.85752 7.99798 7.00993
#
# Compressibility (1/GPa) = 0.02885283
#
# Stress axis : x y z
#
# Youngs Moduli (GPa) = 53.22037 65.37236 30.66734
#
# Poissons Ratio (x) = 0.54407 0.07104
# Poissons Ratio (y) = 0.44294 0.25398
# Poissons Ratio (z) = 0.12329 0.54140
#
# Static dielectric constant tensor:
#      x y z
#    x 1.599810 0.000000 0.010160 
#    y 0.000000 1.586460 0.000000 
#    z 0.010160 0.000000 1.576830 
# 
# From -- ./inp_files/320095.got.cif
#   From: 2010.05.17/outbox.cif.g08.bks.cpg/sg12_161_cif.got.tgz:320095.got - 2010.06.03 13:09:07.
