data_PCOD9179174
_publ_section_title
;
Structure prediction by ZEFSAII (Michael W. Deem and Ramdas Pophale) SiO2 
 PCOD9179174
Probable space group: C 2/M
;
_chemical_formula_sum "Si O2"
_cell_formula_units_Z 56
_cell_length_a 33.879228
_cell_length_b 9.106181
_cell_length_c 19.014614
_cell_angle_alpha 90.000000
_cell_angle_beta 142.927773
_cell_angle_gamma 90.000000
_cell_volume 3536.273850
_symmetry_space_group_name_H-M "C 2/M"
_symmetry_group_IT_number 12
_symmetry_cell_setting 'monoclinic'
loop_
_space_group_symop_operation_xyz
x,y,z
-x,y,-z
-x,-y,-z
x,-y,z
1/2+x,1/2+y,z
1/2-x,1/2+y,-z
1/2-x,1/2-y,-z
1/2+x,1/2-y,z
loop_
_atom_site_type_symbol
_atom_site_label
_atom_site_fract_x
_atom_site_fract_y
_atom_site_fract_z
Si Si1 0.270764 0.175036 0.919894
Si Si2 0.495573 0.323250 0.411501
Si Si3 0.245756 0.173659 0.251027
Si Si4 0.649227 0.676063 0.846137
Si Si5 0.790591 0.824957 0.649961
Si Si6 0.108658 0.674871 0.481584
Si Si7 0.655343 0.326449 0.415102
O O1 0.271696 0.237102 0.842844
O O2 0.201275 0.212918 0.858524
O O3 0.276979 0.000000 0.928381
O O4 0.325638 0.245466 0.047960
O O5 0.500000 0.283853 0.500000
O O6 0.503063 0.500000 0.416982
O O7 0.423913 0.283748 0.280362
O O8 0.552261 0.246572 0.447835
O O9 0.199786 0.202084 0.253698
O O10 0.320088 0.207366 0.382333
O O11 0.243089 0.000000 0.231525
O O12 0.651892 0.500000 0.859826
O O13 0.728361 0.726996 0.539926
O O14 0.846711 0.797596 0.671848
O O15 0.773056 0.000000 0.618700
O O16 0.101960 0.500000 0.469343
O O17 0.109492 0.740170 0.403858
O O18 0.648191 0.500000 0.416460
#
# Coordination Sequence:
#
# PCOD9179174 Si02
#       7
#     8   8   8   8   8   8   8
#     4  10  19  31  49  70  90 116 153 192 226 266
#     4  10  20  34  51  70  93 121 154 190 226 269
#     4   9  17  29  44  65  95 125 151 184 228 272
#     4   9  19  34  49  66  91 121 150 185 229 270
#     4   8  15  26  40  62  91 121 152 187 228 273
#     4  10  20  31  44  66  96 127 157 189 228 274
#     4   9  15  25  42  62  88 122 156 188 224 270
#
# _framework density 15.835877999999999
#
# number of rings (size 3 to 8) (size 9 to 14) (size 15 to 20)
#    0.000    2.714    0.000    3.000    0.000    6.000 
#    0.000    0.000    0.000    0.000    0.000    1.000 
#    0.000    8.000    0.000    0.000    0.000    0.000 
#
# Total GULP energy -155958.101398 kJ/mol
# GULP energy per Si atom -5569.932193 kJ/mol
# Density = 1.579983 g / cm^3
# Si number density = 15.835878 Si / 1000 Ang^3
#
#
#
# Elastic Constant Matrix: (Units=GPa)
#
#
# Indices 1 2 3 4 5 6 
#
# 1 152.6911 56.4451 67.2567 0.0000 -22.8427 0.0000
# 2 56.4451 37.9672 40.6707 0.0000 -10.7590 0.0000
# 3 67.2567 40.6707 74.8446 0.0000 -15.8487 0.0000
# 4 0.0000 0.0000 0.0000 17.8389 0.0000 -1.1924
# 5 -22.8427 -10.7590 -15.8487 0.0000 23.4642 0.0000
# 6 0.0000 0.0000 0.0000 -1.1924 0.0000 28.3723
#
#
#
# Elastic Compliance Matrix: (Units=1/GPa)
#
#
# Indices 1 2 3 4 5 6 
#
# 1 0.015258 -0.018519 -0.002685 0.000000 0.004549 0.000000
# 2 -0.018519 0.086426 -0.030046 0.000000 0.001306 0.000000
# 3 -0.002685 -0.030046 0.033408 0.000000 0.006175 0.000000
# 4 0.000000 0.000000 0.000000 0.056215 0.000000 0.002363
# 5 0.004549 0.001306 0.006175 0.000000 0.051816 0.000000
# 6 0.000000 0.000000 0.000000 0.002363 0.000000 0.035345
#
#
# Mechanical properties :
#
#
# Convention : Reuss Voigt Hill
#
# Bulk Modulus (GPa) = 30.68157 66.02753 48.35455
# Shear Modulus (GPa) = 12.76057 20.67710 16.71884
#
# Velocity S-wave (km/s) = 2.84174 3.61738 3.25277
# Velocity P-wave (km/s) = 5.49401 7.69628 6.68644
#
# Compressibility (1/GPa) = 0.03259286
#
# Stress axis : x y z
#
# Youngs Moduli (GPa) = 65.53852 11.57061 29.93301
#
# Poissons Ratio (x) = 0.21428 0.08036
# Poissons Ratio (y) = 1.21372 0.89936
# Poissons Ratio (z) = 0.17595 0.34765
#
# Static dielectric constant tensor:
#      x y z
#    x 1.554260 0.000000 -0.014720 
#    y 0.000000 1.524790 0.000000 
#    z -0.014720 0.000000 1.504880 
# 
# From -- ./inp_files/287347.got.cif
#   From: 2010.05.17/outbox.cif.g08.bks.cpg/sg12_144_cif.got.tgz:287347.got - 2010.06.03 13:09:07.
