data_PCOD9179166
_publ_section_title
;
Structure prediction by ZEFSAII (Michael W. Deem and Ramdas Pophale) SiO2 
 PCOD9179166
Probable space group: C 2/M
;
_chemical_formula_sum "Si O2"
_cell_formula_units_Z 64
_cell_length_a 20.916189
_cell_length_b 7.422385
_cell_length_c 22.918412
_cell_angle_alpha 90.000000
_cell_angle_beta 116.770806
_cell_angle_gamma 90.000000
_cell_volume 3176.671078
_symmetry_space_group_name_H-M "C 2/M"
_symmetry_group_IT_number 12
_symmetry_cell_setting 'monoclinic'
loop_
_space_group_symop_operation_xyz
x,y,z
-x,y,-z
-x,-y,-z
x,-y,z
1/2+x,1/2+y,z
1/2-x,1/2+y,-z
1/2-x,1/2-y,-z
1/2+x,1/2-y,z
loop_
_atom_site_type_symbol
_atom_site_label
_atom_site_fract_x
_atom_site_fract_y
_atom_site_fract_z
Si Si1 0.047117 0.282019 0.574251
Si Si2 0.794789 0.292767 0.927556
Si Si3 0.711166 0.280685 0.785756
Si Si4 0.146175 0.279452 0.932466
Si Si5 0.712025 0.290608 0.654685
Si Si6 0.295611 0.216038 0.576929
Si Si7 0.561991 0.788522 0.790634
Si Si8 0.458648 0.779219 0.651026
O O1 0.049029 0.500000 0.574758
O O2 0.128329 0.218780 0.604773
O O3 0.000000 0.223464 0.500000
O O4 0.008867 0.223777 0.618006
O O5 0.815613 0.500000 0.926306
O O6 0.772952 0.215705 0.855762
O O7 0.718707 0.285613 0.930528
O O8 0.849626 0.218201 0.998536
O O9 0.711894 0.500000 0.786563
O O10 0.720110 0.215128 0.723358
O O11 0.633754 0.228609 0.780395
O O12 0.148520 0.500000 0.933318
O O13 0.082923 0.218550 0.863395
O O14 0.732969 0.500000 0.668198
O O15 0.756570 0.212989 0.619050
O O16 0.250000 0.250000 0.500000
O O17 0.377419 0.280450 0.607827
O O18 0.298969 0.000000 0.583340
O O19 0.495837 0.716063 0.726136
O O20 0.548181 0.000000 0.792866
O O21 0.458899 0.000000 0.651482
#
# Coordination Sequence:
#
# PCOD9179166 Si02
#       8
#     8   8   8   8   8   8   8   8
#     4  10  19  31  49  69  87 111 144 180 221 268
#     4   8  13  21  33  52  82 115 140 166 206 253
#     4   9  16  26  40  61  89 117 142 172 215 261
#     4   8  13  20  33  55  81 109 141 174 207 245
#     4  10  20  32  47  68  91 116 145 180 221 264
#     4  10  21  37  52  66  87 115 149 185 221 264
#     4   9  15  25  42  63  85 111 145 182 216 251
#     4   9  17  30  47  66  87 114 146 181 220 261
#
# _framework density 20.146877
#
# number of rings (size 3 to 8) (size 9 to 14) (size 15 to 20)
#    0.000    2.875    1.250    0.750    0.000    1.750 
#    0.000    1.250    0.000    0.000    0.000    0.875 
#    0.000    7.000    0.000    0.000    0.000  120.000 
#
# Total GULP energy -178331.741663 kJ/mol
# GULP energy per Si atom -5572.866927 kJ/mol
# Density = 2.010102 g / cm^3
# Si number density = 20.146877 Si / 1000 Ang^3
#
#
#
# Elastic Constant Matrix: (Units=GPa)
#
#
# Indices 1 2 3 4 5 6 
#
# 1 37.5003 -9.3960 -3.8055 -0.0001 9.1847 0.0000
# 2 -9.3960 65.4375 -7.3530 -0.0003 1.3626 -0.0002
# 3 -3.8055 -7.3530 144.2472 -0.0001 10.4751 0.0000
# 4 -0.0001 -0.0003 -0.0001 -163.0386 0.0000 -53.3129
# 5 9.1847 1.3626 10.4751 0.0000 22.3435 0.0000
# 6 0.0000 -0.0002 0.0000 -53.3129 0.0000 -8.7341
#
#
#
# Elastic Compliance Matrix: (Units=1/GPa)
#
#
# Indices 1 2 3 4 5 6 
#
# 1 0.031667 0.005085 0.002135 0.000000 -0.014328 0.000000
# 2 0.005085 0.016226 0.001227 0.000000 -0.003655 0.000000
# 3 0.002135 0.001227 0.007372 0.000000 -0.004408 0.000000
# 4 0.000000 0.000000 0.000000 0.006158 0.000000 -0.037590
# 5 -0.014328 -0.003655 -0.004408 0.000000 0.052935 0.000000
# 6 0.000000 0.000000 0.000000 -0.037590 0.000000 0.114956
#
#
# Mechanical properties :
#
#
# Convention : Reuss Voigt Hill
#
# Bulk Modulus (GPa) = 13.85848 22.89735 18.37792
# Shear Modulus (GPa) = 21.14409 -12.03655 4.55377
#
# Velocity S-wave (km/s) = 3.24311 -2.44691 1.50506
# Velocity P-wave (km/s) = 4.57355 1.84573 3.48741
#
# Compressibility (1/GPa) = 0.07215798
#
# Stress axis : x y z
#
# Youngs Moduli (GPa) = 31.57904 61.62999 135.65695
#
# Poissons Ratio (x) = -0.31340 -0.28965
# Poissons Ratio (y) = -0.16059 -0.16641
# Poissons Ratio (z) = -0.06743 -0.07560
#
# Static dielectric constant tensor:
#      x y z
#    x 1.656130 0.000000 -0.010420 
#    y 0.000000 1.749290 0.000000 
#    z -0.010420 0.000000 1.778060 
# 
# From -- ./inp_files/345588.got.cif
#   From: 2010.05.17/outbox.cif.g08.bks.cpg/sg12_173_cif.got.tgz:345588.got - 2010.06.03 13:09:07.
