data_PCOD9179276
_publ_section_title
;
Structure prediction by ZEFSAII (Michael W. Deem and Ramdas Pophale) SiO2 
 PCOD9179276
Probable space group: C 2/M
;
_chemical_formula_sum "Si O2"
_cell_formula_units_Z 48
_cell_length_a 18.914539
_cell_length_b 8.721895
_cell_length_c 16.522950
_cell_angle_alpha 90.000000
_cell_angle_beta 90.535955
_cell_angle_gamma 90.000000
_cell_volume 2725.682104
_symmetry_space_group_name_H-M "C 2/M"
_symmetry_group_IT_number 12
_symmetry_cell_setting 'monoclinic'
loop_
_space_group_symop_operation_xyz
x,y,z
-x,y,-z
-x,-y,-z
x,-y,z
1/2+x,1/2+y,z
1/2-x,1/2+y,-z
1/2-x,1/2-y,-z
1/2+x,1/2-y,z
loop_
_atom_site_type_symbol
_atom_site_label
_atom_site_fract_x
_atom_site_fract_y
_atom_site_fract_z
Si Si1 0.090488 0.184325 0.164797
Si Si2 0.345049 0.816097 0.671629
Si Si3 0.787314 0.815843 0.420365
Si Si4 0.580760 0.314567 0.487515
Si Si5 0.327761 0.181925 0.988984
Si Si6 0.452496 0.322689 0.081546
O O1 0.121533 0.238816 0.249769
O O2 0.137540 0.252083 0.092719
O O3 0.008487 0.232328 0.149336
O O4 0.091577 0.000000 0.158569
O O5 0.262919 0.768481 0.654320
O O6 0.387386 0.763528 0.592062
O O7 0.348249 0.000000 0.679769
O O8 0.750000 0.750000 0.500000
O O9 0.869115 0.774378 0.435082
O O10 0.783361 0.000000 0.422753
O O11 0.500000 0.270553 0.500000
O O12 0.583907 0.500000 0.476795
O O13 0.323881 0.000000 0.983763
O O14 0.250000 0.250000 0.000000
O O15 0.381944 0.230007 0.061142
O O16 0.433366 0.500000 0.096780
O O17 0.500000 0.319595 0.000000
#
# Coordination Sequence:
#
# PCOD9179276 Si02
#       6
#     8   8   8   8   8   8
#     4  10  20  35  54  75 101 133 169 208 251 300
#     4  10  19  31  49  73 100 129 163 205 249 294
#     4   8  15  28  46  68  93 124 162 200 240 291
#     4   9  17  31  51  72  95 127 165 203 248 301
#     4  11  21  34  54  78 104 133 167 206 248 296
#     4   8  16  32  52  73  98 130 167 205 247 297
#
# _framework density 17.61027
#
# number of rings (size 3 to 8) (size 9 to 14) (size 15 to 20)
#    0.000    2.667    0.000    3.500    0.000    4.667 
#    0.000    1.667    0.000    8.000    0.000    0.000 
#    0.000    0.000    0.000    0.000    0.000    0.000 
#
# Total GULP energy -133664.141343 kJ/mol
# GULP energy per Si atom -5569.339223 kJ/mol
# Density = 1.757019 g / cm^3
# Si number density = 17.610270 Si / 1000 Ang^3
#
#
#
# Elastic Constant Matrix: (Units=GPa)
#
#
# Indices 1 2 3 4 5 6 
#
# 1 170.1149 55.3149 62.0390 0.0000 39.5123 0.0000
# 2 55.3149 64.1827 32.2414 0.0000 13.9165 0.0000
# 3 62.0390 32.2414 83.3292 0.0000 39.9477 0.0000
# 4 0.0000 0.0000 0.0000 25.7833 0.0000 2.4183
# 5 39.5123 13.9165 39.9477 0.0000 34.5018 0.0000
# 6 0.0000 0.0000 0.0000 2.4183 0.0000 24.1423
#
#
#
# Elastic Compliance Matrix: (Units=1/GPa)
#
#
# Indices 1 2 3 4 5 6 
#
# 1 0.010258 -0.006425 -0.001712 0.000000 -0.007174 0.000000
# 2 -0.006425 0.023422 -0.007366 0.000000 0.006439 0.000000
# 3 -0.001712 -0.007366 0.030928 0.000000 -0.030878 0.000000
# 4 0.000000 0.000000 0.000000 0.039153 0.000000 -0.003922
# 5 -0.007174 0.006439 -0.030878 0.000000 0.070354 0.000000
# 6 0.000000 0.000000 0.000000 -0.003922 0.000000 0.041814
#
#
# Mechanical properties :
#
#
# Convention : Reuss Voigt Hill
#
# Bulk Modulus (GPa) = 29.76008 68.53525 49.14767
# Shear Modulus (GPa) = 19.36963 28.08760 23.72861
#
# Velocity S-wave (km/s) = 3.32008 3.99802 3.67472
# Velocity P-wave (km/s) = 5.62434 7.76624 6.78040
#
# Compressibility (1/GPa) = 0.03360206
#
# Stress axis : x y z
#
# Youngs Moduli (GPa) = 97.48128 42.69494 32.33326
#
# Poissons Ratio (x) = 0.27433 0.05536
# Poissons Ratio (y) = 0.62636 0.23815
# Poissons Ratio (z) = 0.16690 0.31447
#
# Static dielectric constant tensor:
#      x y z
#    x 1.633010 0.000000 0.047900 
#    y 0.000000 1.590920 0.000000 
#    z 0.047900 0.000000 1.588410 
# 
# From -- ./inp_files/273651.got.cif
#   From: 2010.05.17/outbox.cif.g08.bks.cpg/sg12_137_cif.got.tgz:273651.got - 2010.06.03 13:09:07.
