data_PCOD9179516
_publ_section_title
;
Structure prediction by ZEFSAII (Michael W. Deem and Ramdas Pophale) SiO2 
 PCOD9179516
Probable space group: C 2/M
;
_chemical_formula_sum "Si O2"
_cell_formula_units_Z 48
_cell_length_a 22.971050
_cell_length_b 8.986934
_cell_length_c 29.451901
_cell_angle_alpha 90.000000
_cell_angle_beta 151.899811
_cell_angle_gamma 90.000000
_cell_volume 2863.784121
_symmetry_space_group_name_H-M "C 2/M"
_symmetry_group_IT_number 12
_symmetry_cell_setting 'monoclinic'
loop_
_space_group_symop_operation_xyz
x,y,z
-x,y,-z
-x,-y,-z
x,-y,z
1/2+x,1/2+y,z
1/2-x,1/2+y,-z
1/2-x,1/2-y,-z
1/2+x,1/2-y,z
loop_
_atom_site_type_symbol
_atom_site_label
_atom_site_fract_x
_atom_site_fract_y
_atom_site_fract_z
Si Si1 0.353350 0.177255 0.400060
Si Si2 0.206301 0.678831 0.818501
Si Si3 0.794655 0.322475 0.462663
Si Si4 0.710186 0.823592 0.218914
Si Si5 0.465063 0.670661 0.029605
Si Si6 0.948103 0.176809 0.646609
O O1 0.500000 0.205108 0.500000
O O2 0.304887 0.215460 0.416936
O O3 0.284410 0.265859 0.313378
O O4 0.334568 0.000000 0.379725
O O5 0.204701 0.500000 0.813555
O O6 0.234252 0.747218 0.788129
O O7 0.075622 0.741044 0.744679
O O8 0.322085 0.718432 0.930729
O O9 0.818356 0.500000 0.483645
O O10 0.893900 0.236219 0.561576
O O11 0.659938 0.292028 0.391196
O O12 0.567107 0.772071 0.123322
O O13 0.718429 0.000000 0.219981
O O14 0.476079 0.500000 0.053369
O O15 0.500000 0.669784 0.000000
O O16 0.967470 0.000000 0.657693
#
# Coordination Sequence:
#
# PCOD9179516 Si02
#       6
#     8   8   8   8   8   8
#     4  10  20  34  52  71  96 133 169 196 230 288
#     4  10  19  32  51  73  98 130 166 200 239 291
#     4   9  19  34  50  71 100 134 166 196 240 293
#     4  11  21  31  48  75 104 129 156 200 250 289
#     4   8  16  31  49  69  95 128 163 197 238 291
#     4  10  19  31  50  75 101 127 160 206 248 283
#
# _framework density 16.761040999999999
#
# number of rings (size 3 to 8) (size 9 to 14) (size 15 to 20)
#    0.000    2.333    0.000    4.500    0.000    6.667 
#    0.000    0.000    0.000    1.000    0.000    0.000 
#    0.000    0.000    0.000    0.000    0.000    0.000 
#
# Total GULP energy -133892.555221 kJ/mol
# GULP energy per Si atom -5578.856468 kJ/mol
# Density = 1.672289 g / cm^3
# Si number density = 16.761041 Si / 1000 Ang^3
#
#
#
# Elastic Constant Matrix: (Units=GPa)
#
#
# Indices 1 2 3 4 5 6 
#
# 1 47.0634 28.8391 30.7075 0.0000 -0.7248 0.0000
# 2 28.8391 68.1988 59.0663 0.0000 3.9054 0.0000
# 3 30.7075 59.0663 109.3870 0.0000 14.2416 0.0000
# 4 0.0000 0.0000 0.0000 21.6187 0.0000 4.7164
# 5 -0.7248 3.9054 14.2416 0.0000 23.2985 0.0000
# 6 0.0000 0.0000 0.0000 4.7164 0.0000 20.4123
#
#
#
# Elastic Compliance Matrix: (Units=1/GPa)
#
#
# Indices 1 2 3 4 5 6 
#
# 1 0.029638 -0.009501 -0.003821 0.000000 0.004850 0.000000
# 2 -0.009501 0.031107 -0.014572 0.000000 0.003398 0.000000
# 3 -0.003821 -0.014572 0.019318 0.000000 -0.009485 0.000000
# 4 0.000000 0.000000 0.000000 0.048712 0.000000 -0.011255
# 5 0.004850 0.003398 -0.009485 0.000000 0.048300 0.000000
# 6 0.000000 0.000000 0.000000 -0.011255 0.000000 0.051591
#
#
# Mechanical properties :
#
#
# Convention : Reuss Voigt Hill
#
# Bulk Modulus (GPa) = 41.19656 51.31945 46.25801
# Shear Modulus (GPa) = 17.09133 20.13498 18.61315
#
# Velocity S-wave (km/s) = 3.19675 3.46973 3.33603
# Velocity P-wave (km/s) = 6.18528 6.83643 6.51899
#
# Compressibility (1/GPa) = 0.02427387
#
# Stress axis : x y z
#
# Youngs Moduli (GPa) = 33.74066 32.14707 51.76511
#
# Poissons Ratio (x) = 0.30544 0.19780
# Poissons Ratio (y) = 0.32058 0.75433
# Poissons Ratio (z) = 0.12893 0.46845
#
# Static dielectric constant tensor:
#      x y z
#    x 1.554560 0.000000 0.026960 
#    y 0.000000 1.558450 0.000000 
#    z 0.026960 0.000000 1.566700 
# 
# From -- ./inp_files/249353.got.cif
#   From: 2010.05.17/outbox.cif.g08.bks.cpg/sg12_125_cif.got.tgz:249353.got - 2010.06.03 13:09:07.
