data_PCOD9179182
_publ_section_title
;
Structure prediction by ZEFSAII (Michael W. Deem and Ramdas Pophale) SiO2 
 PCOD9179182
Probable space group: C 2/M
;
_chemical_formula_sum "Si O2"
_cell_formula_units_Z 56
_cell_length_a 20.873159
_cell_length_b 7.436896
_cell_length_c 17.558820
_cell_angle_alpha 90.000000
_cell_angle_beta 90.276969
_cell_angle_gamma 90.000000
_cell_volume 2725.650343
_symmetry_space_group_name_H-M "C 2/M"
_symmetry_group_IT_number 12
_symmetry_cell_setting 'monoclinic'
loop_
_space_group_symop_operation_xyz
x,y,z
-x,y,-z
-x,-y,-z
x,-y,z
1/2+x,1/2+y,z
1/2-x,1/2+y,-z
1/2-x,1/2-y,-z
1/2+x,1/2-y,z
loop_
_atom_site_type_symbol
_atom_site_label
_atom_site_fract_x
_atom_site_fract_y
_atom_site_fract_z
Si Si1 0.635030 0.720088 0.325084
Si Si2 0.682145 0.281596 0.830880
Si Si3 0.007932 0.220279 0.412684
Si Si4 0.386058 0.293442 0.320379
Si Si5 0.826221 0.214785 0.003294
Si Si6 0.762663 0.713314 0.411817
Si Si7 0.334054 0.711929 0.838527
O O1 0.635655 0.500000 0.324645
O O2 0.574924 0.775082 0.375569
O O3 0.701821 0.778612 0.363042
O O4 0.633042 0.782894 0.237601
O O5 0.682003 0.500000 0.830113
O O6 0.642889 0.214988 0.757707
O O7 0.654449 0.220254 0.912598
O O8 0.757071 0.229233 0.826811
O O9 0.948889 0.284115 0.360381
O O10 0.000000 0.277968 0.500000
O O11 0.006613 0.000000 0.413628
O O12 0.402376 0.500000 0.301994
O O13 0.328507 0.292464 0.380989
O O14 0.836288 0.000000 0.003000
O O15 0.750000 0.250000 0.000000
O O16 0.851181 0.286779 0.922365
O O17 0.767602 0.500000 0.400794
O O18 0.750000 0.750000 0.500000
O O19 0.348402 0.500000 0.841461
#
# Coordination Sequence:
#
# PCOD9179182 Si02
#       7
#     8   8   8   8   8   8   8
#     4   9  17  29  47  69  90 117 156 196 227 267
#     4   9  16  26  41  66  96 120 145 181 231 279
#     4   9  17  30  47  65  87 119 160 196 227 274
#     4  10  19  31  49  70  93 121 153 192 233 275
#     4   8  14  23  38  61  91 121 145 178 222 271
#     4  11  21  33  50  71  94 118 150 194 239 278
#     4   9  15  26  44  66  90 118 154 189 223 265
#
# _framework density 20.545555
#
# number of rings (size 3 to 8) (size 9 to 14) (size 15 to 20)
#    0.000    2.714    1.429    1.286    0.000    2.286 
#    0.000    0.000    0.000    6.429    0.000    6.000 
#    0.000    0.000    0.000   22.286    0.000   16.000 
#
# Total GULP energy -156156.928320 kJ/mol
# GULP energy per Si atom -5577.033154 kJ/mol
# Density = 2.049879 g / cm^3
# Si number density = 20.545555 Si / 1000 Ang^3
#
#
#
# Elastic Constant Matrix: (Units=GPa)
#
#
# Indices 1 2 3 4 5 6 
#
# 1 41.2029 -6.9413 -9.3650 0.0000 -9.9566 0.0000
# 2 -6.9413 66.5116 -4.7359 0.0000 -0.5539 0.0000
# 3 -9.3650 -4.7359 126.1587 0.0000 -16.5841 0.0000
# 4 0.0000 0.0000 0.0000 4.8092 0.0000 -1.1062
# 5 -9.9566 -0.5539 -16.5841 0.0000 29.1567 0.0000
# 6 0.0000 0.0000 0.0000 -1.1062 0.0000 5.4699
#
#
#
# Elastic Compliance Matrix: (Units=1/GPa)
#
#
# Indices 1 2 3 4 5 6 
#
# 1 0.028609 0.003358 0.003829 0.000000 0.012011 0.000000
# 2 0.003358 0.015481 0.001102 0.000000 0.002068 0.000000
# 3 0.003829 0.001102 0.009108 0.000000 0.006509 0.000000
# 4 0.000000 0.000000 0.000000 0.218079 0.000000 0.044101
# 5 0.012011 0.002068 0.006509 0.000000 0.042140 0.000000
# 6 0.000000 0.000000 0.000000 0.044101 0.000000 0.191738
#
#
# Mechanical properties :
#
#
# Convention : Reuss Voigt Hill
#
# Bulk Modulus (GPa) = 14.33163 21.30987 17.82075
# Shear Modulus (GPa) = 9.76878 24.88151 17.32514
#
# Velocity S-wave (km/s) = 2.18289 3.48378 2.90704
# Velocity P-wave (km/s) = 3.65295 5.15527 4.46771
#
# Compressibility (1/GPa) = 0.06977575
#
# Stress axis : x y z
#
# Youngs Moduli (GPa) = 34.95464 64.59459 109.79709
#
# Poissons Ratio (x) = -0.21693 -0.42037
# Poissons Ratio (y) = -0.11739 -0.12103
# Poissons Ratio (z) = -0.13383 -0.07120
#
# Static dielectric constant tensor:
#      x y z
#    x 1.675130 0.000000 0.007080 
#    y 0.000000 1.594790 0.000000 
#    z 0.007080 0.000000 1.778640 
# 
# From -- ./inp_files/280258.got.cif
#   From: 2010.05.17/outbox.cif.g08.bks.cpg/sg12_141_cif.got.tgz:280258.got - 2010.06.03 13:09:07.
