data_PCOD9179006
_publ_section_title
;
Structure prediction by ZEFSAII (Michael W. Deem and Ramdas Pophale) SiO2 
 PCOD9179006
Probable space group: C 2/M
;
_chemical_formula_sum "Si O2"
_cell_formula_units_Z 56
_cell_length_a 5.277438
_cell_length_b 17.897221
_cell_length_c 32.982717
_cell_angle_alpha 90.000000
_cell_angle_beta 78.360468
_cell_angle_gamma 90.000000
_cell_volume 3051.204781
_symmetry_space_group_name_H-M "C 2/M"
_symmetry_group_IT_number 12
_symmetry_cell_setting 'monoclinic'
loop_
_space_group_symop_operation_xyz
x,y,z
-x,y,-z
-x,-y,-z
x,-y,z
1/2+x,1/2+y,z
1/2-x,1/2+y,-z
1/2-x,1/2-y,-z
1/2+x,1/2-y,z
loop_
_atom_site_type_symbol
_atom_site_label
_atom_site_fract_x
_atom_site_fract_y
_atom_site_fract_z
Si Si1 0.995542 0.700806 0.456815
Si Si2 0.387208 0.090655 0.143182
Si Si3 0.775572 0.909679 0.287888
Si Si4 0.657963 0.909332 0.763386
Si Si5 0.660111 0.280288 0.046643
Si Si6 0.675018 0.801721 0.365274
Si Si7 0.549696 0.588485 0.907020
O O1 0.208126 0.767115 0.457623
O O2 0.097629 0.665154 0.411963
O O3 0.000000 0.658977 0.500000
O O4 0.374959 0.118960 0.189646
O O5 0.134150 0.108505 0.125083
O O6 0.657128 0.109911 0.112862
O O7 0.390418 0.000000 0.145316
O O8 0.572585 0.888006 0.259288
O O9 0.707670 0.865134 0.330644
O O10 0.063935 0.889450 0.263944
O O11 0.763257 0.000000 0.293777
O O12 0.652171 0.000000 0.765682
O O13 0.406854 0.233951 0.066409
O O14 0.567185 0.365094 0.051894
O O15 0.750000 0.250000 0.000000
O O16 0.440630 0.745398 0.361243
O O17 0.536383 0.500000 0.914284
#
# Coordination Sequence:
#
# PCOD9179006 Si02
#       7
#     8   8   8   8   8   8   8
#     4   8  14  25  42  64  87 114 155 201 242 291
#     4   9  17  30  52  80 103 125 163 214 252 277
#     4  10  19  31  49  71  97 131 168 201 237 296
#     4   9  17  30  49  73  99 129 165 203 244 288
#     4  10  21  38  56  76 105 141 167 192 240 297
#     4  10  19  31  48  69  95 128 161 202 254 295
#     4  10  19  33  56  82 103 127 167 213 245 277
#
# _framework density 18.353404999999999
#
# number of rings (size 3 to 8) (size 9 to 14) (size 15 to 20)
#    0.000    2.571    0.000    2.571    0.000    3.429 
#    0.000    2.857    0.000   17.571    0.000    0.000 
#    0.000   14.857    0.000    0.000    0.000    2.286 
#
# Total GULP energy -155909.582662 kJ/mol
# GULP energy per Si atom -5568.199381 kJ/mol
# Density = 1.831163 g / cm^3
# Si number density = 18.353405 Si / 1000 Ang^3
#
#
#
# Elastic Constant Matrix: (Units=GPa)
#
#
# Indices 1 2 3 4 5 6 
#
# 1 121.9477 13.2327 5.9742 0.0000 -3.4973 0.0000
# 2 13.2327 32.0654 34.9980 0.0000 -1.8371 0.0000
# 3 5.9742 34.9980 79.5095 0.0000 5.3226 0.0000
# 4 0.0000 0.0000 0.0000 27.5044 0.0000 -2.8253
# 5 -3.4973 -1.8371 5.3226 0.0000 24.6382 0.0000
# 6 0.0000 0.0000 0.0000 -2.8253 0.0000 13.9541
#
#
#
# Elastic Compliance Matrix: (Units=1/GPa)
#
#
# Indices 1 2 3 4 5 6 
#
# 1 0.008720 -0.005433 0.001705 0.000000 0.000464 0.000000
# 2 -0.005433 0.066118 -0.029399 0.000000 0.010510 0.000000
# 3 0.001705 -0.029399 0.025895 0.000000 -0.007544 0.000000
# 4 0.000000 0.000000 0.000000 0.037130 0.000000 0.007518
# 5 0.000464 0.010510 -0.007544 0.000000 0.043067 0.000000
# 6 0.000000 0.000000 0.000000 0.007518 0.000000 0.073186
#
#
# Mechanical properties :
#
#
# Convention : Reuss Voigt Hill
#
# Bulk Modulus (GPa) = 29.00303 37.99249 33.49776
# Shear Modulus (GPa) = 15.06656 25.17384 20.12020
#
# Velocity S-wave (km/s) = 2.86827 3.70755 3.31458
# Velocity P-wave (km/s) = 5.17746 6.25087 5.73932
#
# Compressibility (1/GPa) = 0.03447916
#
# Stress axis : x y z
#
# Youngs Moduli (GPa) = 114.68490 15.12445 38.61804
#
# Poissons Ratio (x) = 0.08217 -0.06585
# Poissons Ratio (y) = 0.62307 1.13533
# Poissons Ratio (z) = -0.19556 0.44464
#
# Static dielectric constant tensor:
#      x y z
#    x 1.653120 0.000000 0.005290 
#    y 0.000000 1.625210 0.000000 
#    z 0.005290 0.000000 1.646210 
# 
# From -- ./inp_files/371544.got.cif
#   From: 2010.05.17/outbox.cif.g08.bks.cpg/sg12_186_cif.got.tgz:371544.got - 2010.06.03 13:09:07.
