data_PCOD9179444
_publ_section_title
;
Structure prediction by ZEFSAII (Michael W. Deem and Ramdas Pophale) SiO2 
 PCOD9179444
Probable space group: C 2/M
;
_chemical_formula_sum "Si O2"
_cell_formula_units_Z 48
_cell_length_a 22.020870
_cell_length_b 17.955586
_cell_length_c 14.135640
_cell_angle_alpha 90.000000
_cell_angle_beta 32.048105
_cell_angle_gamma 90.000000
_cell_volume 2965.802488
_symmetry_space_group_name_H-M "C 2/M"
_symmetry_group_IT_number 12
_symmetry_cell_setting 'monoclinic'
loop_
_space_group_symop_operation_xyz
x,y,z
-x,y,-z
-x,-y,-z
x,-y,z
1/2+x,1/2+y,z
1/2-x,1/2+y,-z
1/2-x,1/2-y,-z
1/2+x,1/2-y,z
loop_
_atom_site_type_symbol
_atom_site_label
_atom_site_fract_x
_atom_site_fract_y
_atom_site_fract_z
Si Si1 0.915481 0.910415 0.028598
Si Si2 0.655517 0.140221 0.372403
Si Si3 0.526064 0.410649 0.263792
Si Si4 0.609693 0.306051 0.424699
Si Si5 0.245136 0.171652 0.063753
Si Si6 0.077262 0.585664 0.270895
O O1 0.966181 0.893142 0.857935
O O2 0.906036 0.000000 0.045804
O O3 0.787475 0.879499 0.209266
O O4 0.000000 0.885113 0.000000
O O5 0.629470 0.224060 0.438901
O O6 0.623530 0.128174 0.303641
O O7 0.559671 0.090121 0.549446
O O8 0.519051 0.500000 0.285957
O O9 0.424453 0.367692 0.453097
O O10 0.644123 0.378594 0.151659
O O11 0.500000 0.301188 0.500000
O O12 0.713567 0.319966 0.215255
O O13 0.250000 0.250000 0.000000
O O14 0.362978 0.128425 0.892916
O O15 0.113819 0.500000 0.229515
#
# Coordination Sequence:
#
# PCOD9179444 Si02
#       6
#     8   8   8   8   8   8
#     4  10  20  35  54  73  97 132 171 212 254 292
#     4  11  18  32  48  72 103 128 163 203 251 301
#     4  10  20  33  49  72 102 133 172 213 246 296
#     4  10  19  31  50  72 102 138 163 197 252 306
#     4  11  18  30  47  71 103 136 165 194 246 307
#     4  11  19  27  47  73 101 129 159 201 251 299
#
# _framework density 16.184491000000001
#
# number of rings (size 3 to 8) (size 9 to 14) (size 15 to 20)
#    0.000    1.500    5.000    3.500    0.000    3.667 
#    0.000    0.833    0.000    0.000    0.000    0.000 
#    0.000    6.000    0.000    0.000    0.000    0.000 
#
# Total GULP energy -133767.440616 kJ/mol
# GULP energy per Si atom -5573.643359 kJ/mol
# Density = 1.614765 g / cm^3
# Si number density = 16.184491 Si / 1000 Ang^3
#
#
#
# Elastic Constant Matrix: (Units=GPa)
#
#
# Indices 1 2 3 4 5 6 
#
# 1 50.5187 21.0365 28.1714 0.0000 -5.1300 0.0000
# 2 21.0365 95.9992 43.2686 0.0000 9.3920 0.0000
# 3 28.1714 43.2686 119.5973 0.0000 7.6444 0.0000
# 4 0.0000 0.0000 0.0000 23.5531 0.0000 14.6493
# 5 -5.1300 9.3920 7.6444 0.0000 17.5454 0.0000
# 6 0.0000 0.0000 0.0000 14.6493 0.0000 -0.6688
#
#
#
# Elastic Compliance Matrix: (Units=1/GPa)
#
#
# Indices 1 2 3 4 5 6 
#
# 1 0.025833 -0.004497 -0.005241 0.000000 0.012243 0.000000
# 2 -0.004497 0.013641 -0.003420 0.000000 -0.007126 0.000000
# 3 -0.005241 -0.003420 0.011124 0.000000 -0.004548 0.000000
# 4 0.000000 0.000000 0.000000 0.002903 0.000000 0.063595
# 5 0.012243 -0.007126 -0.004548 0.000000 0.066371 0.000000
# 6 0.000000 0.000000 0.000000 0.063595 0.000000 -0.102248
#
#
# Mechanical properties :
#
#
# Convention : Reuss Voigt Hill
#
# Bulk Modulus (GPa) = 41.18218 50.11870 45.65044
# Shear Modulus (GPa) = 96.09092 19.66186 57.87639
#
# Velocity S-wave (km/s) = 7.71370 3.48926 5.98649
# Velocity P-wave (km/s) = 10.23892 6.87514 8.72076
#
# Compressibility (1/GPa) = 0.02428235
#
# Stress axis : x y z
#
# Youngs Moduli (GPa) = 38.71044 73.30874 89.89548
#
# Poissons Ratio (x) = 0.32963 0.47112
# Poissons Ratio (y) = 0.17406 0.30748
# Poissons Ratio (z) = 0.20287 0.25075
#
# Static dielectric constant tensor:
#      x y z
#    x 1.518860 0.000000 0.021250 
#    y 0.000000 1.553480 0.000000 
#    z 0.021250 0.000000 1.591060 
# 
# From -- ./inp_files/144954.got.cif
#   From: 2010.05.17/outbox.cif.g08.bks.cpg/sg12_73_cif.got.tgz:144954.got - 2010.06.03 13:09:07.
