data_PCOD9179010
_publ_section_title
;
Structure prediction by ZEFSAII (Michael W. Deem and Ramdas Pophale) SiO2 
 PCOD9179010
Probable space group: C 2/M
;
_chemical_formula_sum "Si O2"
_cell_formula_units_Z 40
_cell_length_a 26.845967
_cell_length_b 7.695603
_cell_length_c 18.427281
_cell_angle_alpha 90.000000
_cell_angle_beta 30.662471
_cell_angle_gamma 90.000000
_cell_volume 1941.492740
_symmetry_space_group_name_H-M "C 2/M"
_symmetry_group_IT_number 12
_symmetry_cell_setting 'monoclinic'
loop_
_space_group_symop_operation_xyz
x,y,z
-x,y,-z
-x,-y,-z
x,-y,z
1/2+x,1/2+y,z
1/2-x,1/2+y,-z
1/2-x,1/2-y,-z
1/2+x,1/2-y,z
loop_
_atom_site_type_symbol
_atom_site_label
_atom_site_fract_x
_atom_site_fract_y
_atom_site_fract_z
Si Si1 0.484223 0.703951 0.183774
Si Si2 0.355484 0.288676 0.478669
Si Si3 0.355458 0.702271 0.218113
Si Si4 0.099170 0.787341 0.413925
Si Si5 0.191456 0.698280 0.884687
O O1 0.460528 0.500000 0.210344
O O2 0.426238 0.772830 0.325930
O O3 0.440397 0.774699 0.163116
O O4 0.600382 0.720835 0.040503
O O5 0.350002 0.500000 0.484480
O O6 0.245649 0.217667 0.610617
O O7 0.394640 0.237736 0.509256
O O8 0.374684 0.500000 0.175640
O O9 0.336510 0.794752 0.165706
O O10 0.199290 0.725596 0.250058
O O11 0.000000 0.730134 0.500000
O O12 0.101406 0.000000 0.409185
O O13 0.197235 0.500000 0.901533
#
# Coordination Sequence:
#
# PCOD9179010 Si02
#       5
#     8   8   8   8   8
#     4  10  20  32  46  69 102 132 155 189 237 280
#     4   9  18  32  50  72  96 125 161 195 231 278
#     4  10  19  31  48  69  97 132 162 190 230 278
#     4   8  15  31  53  71  88 117 158 199 238 281
#     4  10  20  32  49  72  95 124 162 198 232 277
#
# _framework density 20.602703000000002
#
# number of rings (size 3 to 8) (size 9 to 14) (size 15 to 20)
#    0.000    2.600    0.000    3.600    0.000    4.800 
#    0.000    1.000    0.000   15.000    0.000    0.000 
#    0.000    0.000    0.000    0.000    0.000    0.000 
#
# Total GULP energy -111591.962518 kJ/mol
# GULP energy per Si atom -5579.598126 kJ/mol
# Density = 2.055581 g / cm^3
# Si number density = 20.602703 Si / 1000 Ang^3
#
#
#
# Elastic Constant Matrix: (Units=GPa)
#
#
# Indices 1 2 3 4 5 6 
#
# 1 57.9632 -0.9886 26.2834 -0.0047 -35.9510 -0.0135
# 2 -0.9886 33.1843 -12.5172 -0.0040 -0.2073 -0.0087
# 3 26.2834 -12.5172 126.1366 -0.0125 -24.1808 -0.0338
# 4 -0.0047 -0.0040 -0.0125 24.3712 0.0015 -10.8857
# 5 -35.9510 -0.2073 -24.1808 0.0015 30.5076 0.0021
# 6 -0.0135 -0.0087 -0.0338 -10.8857 0.0021 -40.9725
#
#
#
# Elastic Compliance Matrix: (Units=1/GPa)
#
#
# Indices 1 2 3 4 5 6 
#
# 1 0.064594 0.003049 0.001697 0.000000 0.077485 -0.000019
# 2 0.003049 0.031710 0.003822 0.000002 0.006838 -0.000011
# 3 0.001697 0.003822 0.009837 0.000001 0.009822 -0.000009
# 4 0.000000 0.000002 0.000001 0.036679 0.000000 -0.009745
# 5 0.077485 0.006838 0.009822 0.000000 0.131921 -0.000028
# 6 -0.000019 -0.000011 -0.000009 -0.009745 -0.000028 -0.021817
#
#
# Mechanical properties :
#
#
# Convention : Reuss Voigt Hill
#
# Bulk Modulus (GPa) = 8.11185 26.98213 17.54699
# Shear Modulus (GPa) = 18.05839 16.41503 17.23671
#
# Velocity S-wave (km/s) = 2.96380 2.82572 2.89558
# Velocity P-wave (km/s) = 3.95701 4.87556 4.44010
#
# Compressibility (1/GPa) = 0.12327643
#
# Stress axis : x y z
#
# Youngs Moduli (GPa) = 15.48132 31.53573 101.66123
#
# Poissons Ratio (x) = -0.09614 -0.17253
# Poissons Ratio (y) = -0.04720 -0.38858
# Poissons Ratio (z) = -0.02627 -0.12054
#
# Static dielectric constant tensor:
#      x y z
#    x 1.714780 0.000000 -0.003200 
#    y 0.000000 1.743900 0.000000 
#    z -0.003200 0.000000 1.755380 
# 
# From -- ./inp_files/151699.got.cif
#   From: 2010.05.17/outbox.cif.g08.bks.cpg/sg12_76_cif.got.tgz:151699.got - 2010.06.03 13:09:07.
