data_PCOD9179603
_publ_section_title
;
Structure prediction by ZEFSAII (Michael W. Deem and Ramdas Pophale) SiO2 
 PCOD9179603
Probable space group: C 2/M
;
_chemical_formula_sum "Si O2"
_cell_formula_units_Z 64
_cell_length_a 25.739700
_cell_length_b 7.411357
_cell_length_c 14.597793
_cell_angle_alpha 90.000000
_cell_angle_beta 88.620716
_cell_angle_gamma 90.000000
_cell_volume 2783.957261
_symmetry_space_group_name_H-M "C 2/M"
_symmetry_group_IT_number 12
_symmetry_cell_setting 'monoclinic'
loop_
_space_group_symop_operation_xyz
x,y,z
-x,y,-z
-x,-y,-z
x,-y,z
1/2+x,1/2+y,z
1/2-x,1/2+y,-z
1/2-x,1/2-y,-z
1/2+x,1/2-y,z
loop_
_atom_site_type_symbol
_atom_site_label
_atom_site_fract_x
_atom_site_fract_y
_atom_site_fract_z
Si Si1 0.414981 0.290707 0.244225
Si Si2 0.613434 0.794369 0.137293
Si Si3 0.330345 0.794112 0.500475
Si Si4 0.804163 0.794091 0.303451
Si Si5 0.057441 0.217458 0.469746
Si Si6 0.190166 0.277972 0.292074
Si Si7 0.442039 0.219609 0.033825
Si Si8 0.527130 0.281161 0.275802
O O1 0.412460 0.500000 0.275119
O O2 0.358834 0.210006 0.269815
O O3 0.467891 0.217258 0.286779
O O4 0.427279 0.281949 0.135795
O O5 0.652015 0.715213 0.212401
O O6 0.600867 0.716297 0.038299
O O7 0.556754 0.793445 0.187420
O O8 0.630976 0.000000 0.122485
O O9 0.303690 0.704853 0.414350
O O10 0.392414 0.788072 0.481077
O O11 0.322952 0.718334 0.603242
O O12 0.312353 0.000000 0.501760
O O13 0.749402 0.718949 0.272315
O O14 0.804854 0.000000 0.269901
O O15 0.060319 0.269210 0.363064
O O16 0.000000 0.276200 0.500000
O O17 0.058671 0.000000 0.478077
O O18 0.187424 0.500000 0.294235
O O19 0.441955 0.000000 0.033785
O O20 0.500000 0.277111 0.000000
O O21 0.526341 0.500000 0.269708
#
# Coordination Sequence:
#
# PCOD9179603 Si02
#       8
#     8   8   8   8   8   8   8   8
#     4  10  21  36  56  80 109 143 181 225 270 324
#     4  10  19  35  56  79 107 138 176 221 268 324
#     4  11  21  34  55  84 111 141 186 234 275 318
#     4  10  21  39  58  77 107 150 189 225 275 327
#     4  10  20  34  51  74 110 150 185 221 268 330
#     4   9  19  36  58  80 107 145 189 229 269 323
#     4  10  20  34  56  83 110 144 178 216 275 334
#     4  10  19  31  50  77 105 138 176 219 269 316
#
# _framework density 22.988858
#
# number of rings (size 3 to 8) (size 9 to 14) (size 15 to 20)
#    0.000    2.000    2.500    1.500    0.000    3.500 
#    0.000    3.125    0.000    0.000    0.000    0.000 
#    0.000    0.000    0.000    0.000    0.000    0.000 
#
# Total GULP energy -178731.863233 kJ/mol
# GULP energy per Si atom -5585.370726 kJ/mol
# Density = 2.293653 g / cm^3
# Si number density = 22.988858 Si / 1000 Ang^3
#
#
#
# Elastic Constant Matrix: (Units=GPa)
#
#
# Indices 1 2 3 4 5 6 
#
# 1 155.6278 -2.7114 32.2271 0.0000 18.7968 0.0000
# 2 -2.7114 76.4396 -7.8332 0.0000 -0.1520 0.0000
# 3 32.2271 -7.8332 79.9105 0.0000 19.2250 0.0000
# 4 0.0000 0.0000 0.0000 16.6116 0.0000 2.5893
# 5 18.7968 -0.1520 19.2250 0.0000 31.5191 0.0000
# 6 0.0000 0.0000 0.0000 2.5893 0.0000 8.1823
#
#
#
# Elastic Compliance Matrix: (Units=1/GPa)
#
#
# Indices 1 2 3 4 5 6 
#
# 1 0.007241 0.000025 -0.002202 0.000000 -0.002975 0.000000
# 2 0.000025 0.013235 0.001495 0.000000 -0.000863 0.000000
# 3 -0.002202 0.001495 0.015506 0.000000 -0.008138 0.000000
# 4 0.000000 0.000000 0.000000 0.063322 0.000000 -0.020039
# 5 -0.002975 -0.000863 -0.008138 0.000000 0.038460 0.000000
# 6 0.000000 0.000000 0.000000 -0.020039 0.000000 0.128557
#
#
# Mechanical properties :
#
#
# Convention : Reuss Voigt Hill
#
# Bulk Modulus (GPa) = 28.88663 39.48256 34.18459
# Shear Modulus (GPa) = 17.90666 30.61563 24.26114
#
# Velocity S-wave (km/s) = 2.79396 3.65329 3.25213
# Velocity P-wave (km/s) = 4.79594 5.91669 5.38555
#
# Compressibility (1/GPa) = 0.03461809
#
# Stress axis : x y z
#
# Youngs Moduli (GPa) = 138.09518 75.55969 64.48959
#
# Poissons Ratio (x) = -0.00191 0.14201
# Poissons Ratio (y) = -0.00349 -0.09639
# Poissons Ratio (z) = 0.30410 -0.11294
#
# Static dielectric constant tensor:
#      x y z
#    x 1.867040 0.000000 -0.007050 
#    y 0.000000 1.871090 0.000000 
#    z -0.007050 0.000000 1.850120 
# 
# From -- ./inp_files/238746.got.cif
#   From: 2010.05.17/outbox.cif.g08.bks.cpg/sg12_120_cif.got.tgz:238746.got - 2010.06.03 13:09:07.
