data_PCOD9179710
_publ_section_title
;
Structure prediction by ZEFSAII (Michael W. Deem and Ramdas Pophale) SiO2 
 PCOD9179710
Probable space group: C 2/M
;
_chemical_formula_sum "Si O2"
_cell_formula_units_Z 48
_cell_length_a 31.574774
_cell_length_b 9.062369
_cell_length_c 9.833497
_cell_angle_alpha 90.000000
_cell_angle_beta 78.136722
_cell_angle_gamma 90.000000
_cell_volume 2753.679326
_symmetry_space_group_name_H-M "C 2/M"
_symmetry_group_IT_number 12
_symmetry_cell_setting 'monoclinic'
loop_
_space_group_symop_operation_xyz
x,y,z
-x,y,-z
-x,-y,-z
x,-y,z
1/2+x,1/2+y,z
1/2-x,1/2+y,-z
1/2-x,1/2-y,-z
1/2+x,1/2-y,z
loop_
_atom_site_type_symbol
_atom_site_label
_atom_site_fract_x
_atom_site_fract_y
_atom_site_fract_z
Si Si1 0.934263 0.824846 0.343488
Si Si2 0.856504 0.824178 0.184185
Si Si3 0.512132 0.176558 0.146408
Si Si4 0.613607 0.176812 0.108069
Si Si5 0.626813 0.823864 0.406522
Si Si6 0.295687 0.176420 0.437896
O O1 0.899914 0.792655 0.244279
O O2 0.912687 0.756139 0.491741
O O3 0.979667 0.754779 0.271188
O O4 0.937974 0.000000 0.354669
O O5 0.817593 0.745039 0.289261
O O6 0.850149 0.000000 0.187268
O O7 0.863555 0.760957 0.029722
O O8 0.562316 0.209882 0.138224
O O9 0.506127 0.000000 0.161402
O O10 0.500000 0.220265 0.000000
O O11 0.630508 0.216828 0.246439
O O12 0.618466 0.000000 0.084981
O O13 0.670135 0.791765 0.463279
O O14 0.619128 0.000000 0.418377
O O15 0.250000 0.250000 0.500000
O O16 0.291641 0.000000 0.427812
#
# Coordination Sequence:
#
# PCOD9179710 Si02
#       6
#     8   8   8   8   8   8
#     4  10  20  33  51  75 106 143 182 222 261 305
#     4  10  20  34  54  80 108 140 176 215 261 312
#     4  10  19  31  51  76 104 141 185 224 257 301
#     4  10  20  35  54  78 107 141 179 220 263 306
#     4   9  20  37  56  77 106 140 174 215 265 316
#     4  10  20  37  61  84 105 133 171 214 260 317
#
# _framework density 17.431224
#
# number of rings (size 3 to 8) (size 9 to 14) (size 15 to 20)
#    0.000    2.167    1.667    1.500    0.000    4.333 
#    0.000    4.167    0.000    0.000    0.000    0.000 
#    0.000    0.000    0.000    0.000    0.000    0.000 
#
# Total GULP energy -133990.719688 kJ/mol
# GULP energy per Si atom -5582.946654 kJ/mol
# Density = 1.739155 g / cm^3
# Si number density = 17.431224 Si / 1000 Ang^3
#
#
#
# Elastic Constant Matrix: (Units=GPa)
#
#
# Indices 1 2 3 4 5 6 
#
# 1 92.6169 53.1826 64.6921 0.0000 -28.7189 0.0000
# 2 53.1826 48.9708 63.1934 0.0000 -15.0279 0.0000
# 3 64.6921 63.1934 154.5571 0.0000 -17.5821 0.0000
# 4 0.0000 0.0000 0.0000 27.3697 0.0000 -8.9006
# 5 -28.7189 -15.0279 -17.5821 0.0000 24.7320 0.0000
# 6 0.0000 0.0000 0.0000 -8.9006 0.0000 27.0034
#
#
#
# Elastic Compliance Matrix: (Units=1/GPa)
#
#
# Indices 1 2 3 4 5 6 
#
# 1 0.036886 -0.034965 0.001428 0.000000 0.022601 0.000000
# 2 -0.034965 0.082094 -0.019447 0.000000 -0.004545 0.000000
# 3 0.001428 -0.019447 0.013783 0.000000 -0.000360 0.000000
# 4 0.000000 0.000000 0.000000 0.040923 0.000000 0.013489
# 5 0.022601 -0.004545 -0.000360 0.000000 0.063660 0.000000
# 6 0.000000 0.000000 0.000000 0.013489 0.000000 0.041478
#
#
# Mechanical properties :
#
#
# Convention : Reuss Voigt Hill
#
# Bulk Modulus (GPa) = 37.32282 73.14233 55.23257
# Shear Modulus (GPa) = 12.69928 23.49281 18.09604
#
# Velocity S-wave (km/s) = 2.70207 3.67514 3.22551
# Velocity P-wave (km/s) = 5.58506 7.74987 6.75475
#
# Compressibility (1/GPa) = 0.02679326
#
# Stress axis : x y z
#
# Youngs Moduli (GPa) = 27.11088 12.18122 72.55526
#
# Poissons Ratio (x) = 0.42592 -0.10363
# Poissons Ratio (y) = 0.94794 1.41099
# Poissons Ratio (z) = -0.03872 0.23689
#
# Static dielectric constant tensor:
#      x y z
#    x 1.569010 0.000000 0.019510 
#    y 0.000000 1.577760 0.000000 
#    z 0.019510 0.000000 1.580300 
# 
# From -- ./inp_files/108659.got.cif
#   From: 2010.05.17/outbox.cif.g08.bks.cpg/sg12_55_cif.got.tgz:108659.got - 2010.06.03 13:09:07.
