data_PCOD9179222
_publ_section_title
;
Structure prediction by ZEFSAII (Michael W. Deem and Ramdas Pophale) SiO2 
 PCOD9179222
Probable space group: C 2/M
;
_chemical_formula_sum "Si O2"
_cell_formula_units_Z 64
_cell_length_a 27.002579
_cell_length_b 9.721080
_cell_length_c 15.377863
_cell_angle_alpha 90.000000
_cell_angle_beta 73.509267
_cell_angle_gamma 90.000000
_cell_volume 3870.557423
_symmetry_space_group_name_H-M "C 2/M"
_symmetry_group_IT_number 12
_symmetry_cell_setting 'monoclinic'
loop_
_space_group_symop_operation_xyz
x,y,z
-x,y,-z
-x,-y,-z
x,-y,z
1/2+x,1/2+y,z
1/2-x,1/2+y,-z
1/2-x,1/2-y,-z
1/2+x,1/2-y,z
loop_
_atom_site_type_symbol
_atom_site_label
_atom_site_fract_x
_atom_site_fract_y
_atom_site_fract_z
Si Si1 0.901007 0.658535 0.710328
Si Si2 0.524611 0.655524 0.220686
Si Si3 0.058816 0.339509 0.497870
Si Si4 0.880532 0.164588 0.187382
Si Si5 0.191886 0.837234 0.938500
Si Si6 0.590655 0.344894 0.641766
Si Si7 0.686877 0.838660 0.107294
Si Si8 0.018670 0.655107 0.893007
O O1 0.917580 0.500000 0.721845
O O2 0.940000 0.771547 0.726800
O O3 0.904337 0.669921 0.604843
O O4 0.848257 0.681652 0.789863
O O5 0.540471 0.500000 0.192012
O O6 0.466367 0.651784 0.286354
O O7 0.522649 0.756543 0.139956
O O8 0.053646 0.500000 0.525439
O O9 0.083679 0.255502 0.564318
O O10 0.000000 0.294195 0.500000
O O11 0.835795 0.191851 0.139586
O O12 0.872464 0.192301 0.294715
O O13 0.928445 0.259645 0.136891
O O14 0.893032 0.000000 0.175844
O O15 0.253154 0.807951 0.902443
O O16 0.185415 0.000000 0.959123
O O17 0.171061 0.751619 0.031498
O O18 0.603302 0.500000 0.606399
O O19 0.683072 0.000000 0.085652
O O20 0.024700 0.500000 0.854150
O O21 0.000000 0.645688 0.000000
#
# Coordination Sequence:
#
# PCOD9179222 Si02
#       8
#     8   8   8   8   8   8   8   8
#     4  10  20  33  49  72 102 133 166 206 251 297
#     4  10  20  32  47  68  97 132 168 203 243 289
#     4  10  19  31  49  71  98 134 169 202 244 293
#     4   9  19  34  51  72  97 128 166 205 248 297
#     4   9  18  35  56  76  99 130 166 206 253 300
#     4   9  18  32  48  69  96 127 165 204 242 291
#     4   9  19  34  53  76 102 130 165 208 251 299
#     4  10  21  33  45  66  97 132 166 200 241 292
#
# _framework density 16.535084999999999
#
# number of rings (size 3 to 8) (size 9 to 14) (size 15 to 20)
#    0.000    2.500    1.250    1.500    1.750    4.750 
#    0.000    0.000    0.000    0.750    0.000    0.000 
#    0.000    0.000    0.000    0.000    0.000    0.250 
#
# Total GULP energy -178171.637670 kJ/mol
# GULP energy per Si atom -5567.863677 kJ/mol
# Density = 1.649745 g / cm^3
# Si number density = 16.535085 Si / 1000 Ang^3
#
#
#
# Elastic Constant Matrix: (Units=GPa)
#
#
# Indices 1 2 3 4 5 6 
#
# 1 49.5714 36.0418 42.2507 0.0000 18.7504 0.0000
# 2 36.0418 79.7432 58.0794 0.0000 21.4885 0.0000
# 3 42.2507 58.0794 110.3202 0.0000 19.6570 0.0000
# 4 0.0000 0.0000 0.0000 28.4475 0.0000 11.0395
# 5 18.7504 21.4885 19.6570 0.0000 28.8004 0.0000
# 6 0.0000 0.0000 0.0000 11.0395 0.0000 8.2251
#
#
#
# Elastic Compliance Matrix: (Units=1/GPa)
#
#
# Indices 1 2 3 4 5 6 
#
# 1 0.037538 -0.007511 -0.008044 0.000000 -0.013344 0.000000
# 2 -0.007511 0.024096 -0.008512 0.000000 -0.007279 0.000000
# 3 -0.008044 -0.008512 0.016578 0.000000 0.000273 0.000000
# 4 0.000000 0.000000 0.000000 0.073364 0.000000 -0.098467
# 5 -0.013344 -0.007279 0.000273 0.000000 0.048653 0.000000
# 6 0.000000 0.000000 0.000000 -0.098467 0.000000 0.253738
#
#
# Mechanical properties :
#
#
# Convention : Reuss Voigt Hill
#
# Bulk Modulus (GPa) = 33.24844 56.93094 45.08969
# Shear Modulus (GPa) = 9.76318 19.97880 14.87099
#
# Velocity S-wave (km/s) = 2.43256 3.47978 3.00219
# Velocity P-wave (km/s) = 5.29540 7.11690 6.27262
#
# Compressibility (1/GPa) = 0.03007660
#
# Stress axis : x y z
#
# Youngs Moduli (GPa) = 26.63973 41.50032 60.32125
#
# Poissons Ratio (x) = 0.31173 0.48524
# Poissons Ratio (y) = 0.20010 0.51346
# Poissons Ratio (z) = 0.21430 0.35325
#
# Static dielectric constant tensor:
#      x y z
#    x 1.563030 0.000000 0.012150 
#    y 0.000000 1.569800 0.000000 
#    z 0.012150 0.000000 1.570410 
# 
# From -- ./inp_files/248316.got.cif
#   From: 2010.05.17/outbox.cif.g08.bks.cpg/sg12_125_cif.got.tgz:248316.got - 2010.06.03 13:09:07.
