data_PCOD9179893
_publ_section_title
;
Structure prediction by ZEFSAII (Michael W. Deem and Ramdas Pophale) SiO2 
 PCOD9179893
Probable space group: C 2/M
;
_chemical_formula_sum "Si O2"
_cell_formula_units_Z 56
_cell_length_a 21.133698
_cell_length_b 7.679633
_cell_length_c 28.616467
_cell_angle_alpha 90.000000
_cell_angle_beta 144.864530
_cell_angle_gamma 90.000000
_cell_volume 2672.920759
_symmetry_space_group_name_H-M "C 2/M"
_symmetry_group_IT_number 12
_symmetry_cell_setting 'monoclinic'
loop_
_space_group_symop_operation_xyz
x,y,z
-x,y,-z
-x,-y,-z
x,-y,z
1/2+x,1/2+y,z
1/2-x,1/2+y,-z
1/2-x,1/2-y,-z
1/2+x,1/2-y,z
loop_
_atom_site_type_symbol
_atom_site_label
_atom_site_fract_x
_atom_site_fract_y
_atom_site_fract_z
Si Si1 0.436901 0.286486 0.221756
Si Si2 0.443319 0.707799 0.332496
Si Si3 0.994480 0.286735 0.942488
Si Si4 0.815058 0.706690 0.491767
Si Si5 0.834350 0.209999 0.683099
Si Si6 0.723246 0.208976 0.037279
Si Si7 0.780673 0.291296 0.757208
O O1 0.436673 0.500000 0.221587
O O2 0.448526 0.227251 0.282271
O O3 0.542800 0.230099 0.255981
O O4 0.323044 0.227650 0.130036
O O5 0.430489 0.500000 0.321192
O O6 0.558878 0.738040 0.427529
O O7 0.336195 0.776658 0.294634
O O8 0.993481 0.500000 0.941053
O O9 0.883943 0.226211 0.849976
O O10 0.000000 0.235105 0.000000
O O11 0.104110 0.227124 0.981850
O O12 0.814755 0.500000 0.487536
O O13 0.750000 0.750000 0.500000
O O14 0.749711 0.776706 0.407300
O O15 0.799887 0.256339 0.714409
O O16 0.835791 0.000000 0.681081
O O17 0.720720 0.000000 0.040596
O O18 0.750000 0.250000 0.000000
O O19 0.779360 0.500000 0.762235
#
# Coordination Sequence:
#
# PCOD9179893 Si02
#       7
#     8   8   8   8   8   8   8
#     4   9  17  33  55  77 102 143 186 220 270 329
#     4  10  20  37  58  80 109 143 185 228 269 325
#     4   9  17  32  54  81 109 142 185 228 270 317
#     4  11  22  38  60  85 110 142 182 226 275 327
#     4  10  21  37  56  77 110 148 179 218 275 339
#     4  10  19  31  52  78 107 140 179 226 271 321
#     4  10  21  35  55  83 113 145 183 230 275 317
#
# _framework density 20.950862999999998
#
# number of rings (size 3 to 8) (size 9 to 14) (size 15 to 20)
#    0.000    2.143    1.429    2.143    0.000    5.714 
#    0.000    3.571    0.000    3.429    0.000    0.000 
#    0.000    0.000    0.000    0.000    0.000    0.000 
#
# Total GULP energy -156442.292132 kJ/mol
# GULP energy per Si atom -5587.224719 kJ/mol
# Density = 2.090318 g / cm^3
# Si number density = 20.950863 Si / 1000 Ang^3
#
#
#
# Elastic Constant Matrix: (Units=GPa)
#
#
# Indices 1 2 3 4 5 6 
#
# 1 177.5078 2.1762 94.4531 -0.0001 23.8869 0.0004
# 2 2.1762 32.5754 2.6841 -0.0001 3.6240 0.0024
# 3 94.4531 2.6841 185.5507 -0.0001 20.0434 0.0001
# 4 -0.0001 -0.0001 -0.0001 14.2200 -0.0001 -3.1852
# 5 23.8869 3.6240 20.0434 -0.0001 42.2449 0.0000
# 6 0.0004 0.0024 0.0001 -3.1852 0.0000 25.0296
#
#
#
# Elastic Compliance Matrix: (Units=1/GPa)
#
#
# Indices 1 2 3 4 5 6 
#
# 1 0.008016 0.000082 -0.003785 0.000000 -0.002744 0.000000
# 2 0.000082 0.031000 -0.000208 -0.000001 -0.002607 -0.000003
# 3 -0.003785 -0.000208 0.007469 0.000000 -0.001385 0.000000
# 4 0.000000 -0.000001 0.000000 0.072387 0.000000 0.009212
# 5 -0.002744 -0.002607 -0.001385 0.000000 0.026104 0.000000
# 6 0.000000 -0.000003 0.000000 0.009212 0.000000 0.041125
#
#
# Mechanical properties :
#
#
# Convention : Reuss Voigt Hill
#
# Bulk Modulus (GPa) = 25.86625 66.02896 45.94760
# Shear Modulus (GPa) = 24.17667 36.05359 30.11513
#
# Velocity S-wave (km/s) = 3.40070 4.15283 3.79544
# Velocity P-wave (km/s) = 5.27187 7.38777 6.41762
#
# Compressibility (1/GPa) = 0.03866042
#
# Stress axis : x y z
#
# Youngs Moduli (GPa) = 124.75185 32.25838 133.88865
#
# Poissons Ratio (x) = -0.00263 0.50680
# Poissons Ratio (y) = -0.01018 0.02790
# Poissons Ratio (z) = 0.47222 0.00672
#
# Static dielectric constant tensor:
#      x y z
#    x 1.709960 0.000000 0.009150 
#    y 0.000000 1.810940 0.000000 
#    z 0.009150 0.000000 1.736750 
# 
# From -- ./inp_files/363197.got.cif
#   From: 2010.05.17/outbox.cif.g08.bks.cpg/sg12_182_cif.got.tgz:363197.got - 2010.06.03 13:09:07.
