data_PCOD9179099
_publ_section_title
;
Structure prediction by ZEFSAII (Michael W. Deem and Ramdas Pophale) SiO2 
 PCOD9179099
Probable space group: C 2/M
;
_chemical_formula_sum "Si O2"
_cell_formula_units_Z 48
_cell_length_a 18.112795
_cell_length_b 10.405644
_cell_length_c 13.428411
_cell_angle_alpha 90.000000
_cell_angle_beta 120.932480
_cell_angle_gamma 90.000000
_cell_volume 2170.959700
_symmetry_space_group_name_H-M "C 2/M"
_symmetry_group_IT_number 12
_symmetry_cell_setting 'monoclinic'
loop_
_space_group_symop_operation_xyz
x,y,z
-x,y,-z
-x,-y,-z
x,-y,z
1/2+x,1/2+y,z
1/2-x,1/2+y,-z
1/2-x,1/2-y,-z
1/2+x,1/2-y,z
loop_
_atom_site_type_symbol
_atom_site_label
_atom_site_fract_x
_atom_site_fract_y
_atom_site_fract_z
Si Si1 0.705846 0.852253 0.044201
Si Si2 0.280062 0.211964 0.352757
Si Si3 0.121085 0.140663 0.715547
Si Si4 0.967685 0.852801 0.753866
Si Si5 0.380134 0.355759 0.895022
Si Si6 0.338860 0.864848 0.604228
O O1 0.781789 0.868135 0.177088
O O2 0.630074 0.768374 0.041862
O O3 0.685513 0.000000 0.995540
O O4 0.750000 0.750000 0.000000
O O5 0.368399 0.248774 0.358667
O O6 0.209205 0.146976 0.232286
O O7 0.298829 0.136876 0.466915
O O8 0.234756 0.340415 0.364983
O O9 0.059771 0.168765 0.766781
O O10 0.095161 0.000000 0.657782
O O11 0.954780 0.840743 0.863918
O O12 0.902959 0.753301 0.659680
O O13 0.942952 0.000000 0.714613
O O14 0.385292 0.500000 0.944911
O O15 0.383162 0.000000 0.654466
#
# Coordination Sequence:
#
# PCOD9179099 Si02
#       6
#     8   8   8   8   8   8
#     4  10  20  35  57  80 100 124 159 202 245 294
#     4   9  18  30  49  72  98 133 173 212 247 284
#     4   9  18  34  53  73  97 128 167 205 244 293
#     4   9  19  34  51  72 100 134 168 203 244 291
#     4   9  17  32  53  74  99 130 164 202 245 290
#     4  10  19  31  48  72 102 134 172 212 250 291
#
# _framework density 22.110036999999998
#
# number of rings (size 3 to 8) (size 9 to 14) (size 15 to 20)
#    0.000    2.667    0.000    1.500    0.000    9.333 
#    0.000    8.333    0.000    5.000    0.000    0.000 
#    0.000    0.000    0.000    0.000    0.000    0.000 
#
# Total GULP energy -133735.776492 kJ/mol
# GULP energy per Si atom -5572.324020 kJ/mol
# Density = 2.205971 g / cm^3
# Si number density = 22.110037 Si / 1000 Ang^3
#
#
#
# Elastic Constant Matrix: (Units=GPa)
#
#
# Indices 1 2 3 4 5 6 
#
# 1 120.0503 63.7831 9.5669 0.0000 -32.1933 0.0000
# 2 63.7831 162.1896 41.8849 0.0000 -18.6828 0.0000
# 3 9.5669 41.8849 39.3268 0.0000 -14.2351 0.0000
# 4 0.0000 0.0000 0.0000 -3.7199 0.0000 9.5839
# 5 -32.1933 -18.6828 -14.2351 0.0000 35.5113 0.0000
# 6 0.0000 0.0000 0.0000 9.5839 0.0000 22.1849
#
#
#
# Elastic Compliance Matrix: (Units=1/GPa)
#
#
# Indices 1 2 3 4 5 6 
#
# 1 0.014498 -0.006219 0.007802 0.000000 0.012999 0.000000
# 2 -0.006219 0.011202 -0.012078 0.000000 -0.004586 0.000000
# 3 0.007802 -0.012078 0.042875 0.000000 0.017906 0.000000
# 4 0.000000 0.000000 0.000000 -0.127225 0.000000 0.054961
# 5 0.012999 -0.004586 0.017906 0.000000 0.044710 0.000000
# 6 0.000000 0.000000 0.000000 0.054961 0.000000 0.021333
#
#
# Mechanical properties :
#
#
# Convention : Reuss Voigt Hill
#
# Bulk Modulus (GPa) = 21.01493 61.33741 41.17617
# Shear Modulus (GPa) = 113.00940 24.55072 68.78006
#
# Velocity S-wave (km/s) = 7.15704 3.33586 5.58351
# Velocity P-wave (km/s) = 8.82173 6.52989 7.76088
#
# Compressibility (1/GPa) = 0.04758521
#
# Stress axis : x y z
#
# Youngs Moduli (GPa) = 68.97394 89.26839 23.32368
#
# Poissons Ratio (x) = 0.55517 -0.18197
# Poissons Ratio (y) = 0.42895 0.28170
# Poissons Ratio (z) = -0.53813 1.07818
#
# Static dielectric constant tensor:
#      x y z
#    x 1.837020 0.000000 -0.027750 
#    y 0.000000 1.856420 0.000000 
#    z -0.027750 0.000000 1.890150 
# 
# From -- ./inp_files/212746.got.cif
#   From: 2010.05.17/outbox.cif.g08.bks.cpg/sg12_107_cif.got.tgz:212746.got - 2010.06.03 13:09:07.
