data_PCOD9179046
_publ_section_title
;
Structure prediction by ZEFSAII (Michael W. Deem and Ramdas Pophale) SiO2 
 PCOD9179046
Probable space group: C 2/M
;
_chemical_formula_sum "Si O2"
_cell_formula_units_Z 64
_cell_length_a 25.574113
_cell_length_b 20.579427
_cell_length_c 8.617078
_cell_angle_alpha 90.000000
_cell_angle_beta 51.622178
_cell_angle_gamma 90.000000
_cell_volume 3555.275744
_symmetry_space_group_name_H-M "C 2/M"
_symmetry_group_IT_number 12
_symmetry_cell_setting 'monoclinic'
loop_
_space_group_symop_operation_xyz
x,y,z
-x,y,-z
-x,-y,-z
x,-y,z
1/2+x,1/2+y,z
1/2-x,1/2+y,-z
1/2-x,1/2-y,-z
1/2+x,1/2-y,z
loop_
_atom_site_type_symbol
_atom_site_label
_atom_site_fract_x
_atom_site_fract_y
_atom_site_fract_z
Si Si1 0.310816 0.570597 0.802628
Si Si2 0.576840 0.185794 0.811700
Si Si3 0.736884 0.157056 0.160087
Si Si4 0.372161 0.693186 0.088933
Si Si5 0.686510 0.629383 0.518576
Si Si6 0.069507 0.137842 0.306166
Si Si7 0.316230 0.078121 0.452490
Si Si8 0.134037 0.759127 0.421643
O O1 0.281404 0.500000 0.876183
O O2 0.332954 0.581911 0.585210
O O3 0.375440 0.581533 0.789960
O O4 0.259909 0.624398 0.958507
O O5 0.611061 0.236716 0.869433
O O6 0.618462 0.118961 0.718522
O O7 0.585527 0.221128 0.628305
O O8 0.500000 0.176753 0.000000
O O9 0.802140 0.188492 0.123295
O O10 0.707198 0.103413 0.334125
O O11 0.679691 0.209675 0.243561
O O12 0.362506 0.641498 0.246742
O O13 0.429029 0.669929 0.865551
O O14 0.756559 0.604033 0.452631
O O15 0.684252 0.699646 0.439188
O O16 0.095919 0.192562 0.378155
O O17 0.000000 0.114777 0.500000
O O18 0.322763 0.000000 0.434290
#
# Coordination Sequence:
#
# PCOD9179046 Si02
#       8
#     8   8   8   8   8   8   8   8
#     4  10  20  33  50  71  97 128 160 195 234 282
#     4  10  19  31  48  70  99 131 160 194 235 283
#     4   9  18  32  51  73  95 122 158 202 246 281
#     4   9  18  32  51  73  96 122 155 199 246 282
#     4   9  18  32  50  72  96 122 156 200 246 282
#     4  10  20  33  51  73  98 128 159 193 233 283
#     4  10  19  31  48  70  98 130 162 196 234 281
#     4   9  18  32  50  73  97 122 157 201 246 283
#
# _framework density 18.001417
#
# number of rings (size 3 to 8) (size 9 to 14) (size 15 to 20)
#    0.000    2.500    0.000    2.250    0.000    9.000 
#    0.000    0.625    0.000    0.750    0.000    0.000 
#    0.000   11.000    0.000    0.000    0.000    0.000 
#
# Total GULP energy -178272.647948 kJ/mol
# GULP energy per Si atom -5571.020248 kJ/mol
# Density = 1.796044 g / cm^3
# Si number density = 18.001417 Si / 1000 Ang^3
#
#
#
# Elastic Constant Matrix: (Units=GPa)
#
#
# Indices 1 2 3 4 5 6 
#
# 1 25.8908 16.0190 16.9219 0.0000 2.8322 0.0000
# 2 16.0190 71.5023 26.5811 0.0000 -6.9466 0.0000
# 3 16.9219 26.5811 96.4987 0.0000 -5.5455 0.0000
# 4 0.0000 0.0000 0.0000 13.9070 0.0000 0.6179
# 5 2.8322 -6.9466 -5.5455 0.0000 28.9801 0.0000
# 6 0.0000 0.0000 0.0000 0.6179 0.0000 8.2112
#
#
#
# Elastic Compliance Matrix: (Units=1/GPa)
#
#
# Indices 1 2 3 4 5 6 
#
# 1 0.049729 -0.009510 -0.006584 0.000000 -0.008399 0.000000
# 2 -0.009510 0.017652 -0.002931 0.000000 0.004600 0.000000
# 3 -0.006584 -0.002931 0.012458 0.000000 0.002325 0.000000
# 4 0.000000 0.000000 0.000000 0.072148 0.000000 -0.005430
# 5 -0.008399 0.004600 0.002325 0.000000 0.036875 0.000000
# 6 0.000000 0.000000 0.000000 -0.005430 0.000000 0.122194
#
#
# Mechanical properties :
#
#
# Convention : Reuss Voigt Hill
#
# Bulk Modulus (GPa) = 23.92787 34.77065 29.34926
# Shear Modulus (GPa) = 13.77282 19.17766 16.47524
#
# Velocity S-wave (km/s) = 2.76904 3.26750 3.02854
# Velocity P-wave (km/s) = 4.85227 5.79593 5.34497
#
# Compressibility (1/GPa) = 0.04179226
#
# Stress axis : x y z
#
# Youngs Moduli (GPa) = 20.10889 56.64972 80.26870
#
# Poissons Ratio (x) = 0.53871 0.52846
# Poissons Ratio (y) = 0.19123 0.23523
# Poissons Ratio (z) = 0.13239 0.16601
#
# Static dielectric constant tensor:
#      x y z
#    x 1.621280 0.000000 0.020110 
#    y 0.000000 1.624920 0.000000 
#    z 0.020110 0.000000 1.635750 
# 
# From -- ./inp_files/99066.got.cif
#   From: 2010.05.17/outbox.cif.g08.bks.cpg/sg12_50_cif.got.tgz:99066.got - 2010.06.03 13:09:07.
