data_PCOD9179765
_publ_section_title
;
Structure prediction by ZEFSAII (Michael W. Deem and Ramdas Pophale) SiO2 
 PCOD9179765
Probable space group: C 2/M
;
_chemical_formula_sum "Si O2"
_cell_formula_units_Z 56
_cell_length_a 12.200612
_cell_length_b 18.158206
_cell_length_c 13.942979
_cell_angle_alpha 90.000000
_cell_angle_beta 121.559805
_cell_angle_gamma 90.000000
_cell_volume 2632.072198
_symmetry_space_group_name_H-M "C 2/M"
_symmetry_group_IT_number 12
_symmetry_cell_setting 'monoclinic'
loop_
_space_group_symop_operation_xyz
x,y,z
-x,y,-z
-x,-y,-z
x,-y,z
1/2+x,1/2+y,z
1/2-x,1/2+y,-z
1/2-x,1/2-y,-z
1/2+x,1/2-y,z
loop_
_atom_site_type_symbol
_atom_site_label
_atom_site_fract_x
_atom_site_fract_y
_atom_site_fract_z
Si Si1 0.356695 0.704477 0.428057
Si Si2 0.538219 0.912350 0.363632
Si Si3 0.778043 0.590134 0.158752
Si Si4 0.950891 0.913433 0.822618
Si Si5 0.239500 0.848786 0.411576
Si Si6 0.743400 0.410493 0.932309
Si Si7 0.784413 0.412371 0.740774
O O1 0.500000 0.732632 0.500000
O O2 0.262570 0.772593 0.366069
O O3 0.326848 0.673527 0.519443
O O4 0.335243 0.637898 0.345380
O O5 0.392549 0.885282 0.281744
O O6 0.625526 0.881509 0.489011
O O7 0.609978 0.898367 0.293855
O O8 0.534067 0.000000 0.374792
O O9 0.779099 0.500000 0.161774
O O10 0.636877 0.614421 0.129155
O O11 0.803380 0.613118 0.060981
O O12 0.853966 0.901603 0.689490
O O13 0.093781 0.884593 0.866466
O O14 0.969496 0.000000 0.848810
O O15 0.743328 0.500000 0.934028
O O16 0.812504 0.391776 0.863937
O O17 0.756537 0.500000 0.724630
#
# Coordination Sequence:
#
# PCOD9179765 Si02
#       7
#     8   8   8   8   8   8   8
#     4  10  21  35  51  75 102 136 171 212 258 309
#     4   9  18  32  50  78 110 136 172 212 250 304
#     4   9  18  30  48  78 110 138 169 210 253 300
#     4  10  19  31  51  78 106 138 173 212 253 300
#     4  10  21  34  51  77 103 140 173 206 260 309
#     4   9  17  31  52  79 106 133 171 215 260 300
#     4   9  18  33  54  77 101 131 168 216 262 305
#
# _framework density 21.276012999999999
#
# number of rings (size 3 to 8) (size 9 to 14) (size 15 to 20)
#    0.000    2.571    0.000    1.714    2.000    3.143 
#    0.000    5.000    0.000    0.857   11.143    0.000 
#    0.000    0.000    0.000    0.000    0.000    0.000 
#
# Total GULP energy -156073.367459 kJ/mol
# GULP energy per Si atom -5574.048838 kJ/mol
# Density = 2.122759 g / cm^3
# Si number density = 21.276013 Si / 1000 Ang^3
#
#
#
# Elastic Constant Matrix: (Units=GPa)
#
#
# Indices 1 2 3 4 5 6 
#
# 1 26.0885 8.9468 10.1351 0.0000 -0.8432 0.0000
# 2 8.9468 7.8156 5.0058 0.0000 -8.4101 0.0000
# 3 10.1351 5.0058 75.6045 0.0000 -2.0281 0.0000
# 4 0.0000 0.0000 0.0000 -4.3347 0.0000 0.3100
# 5 -0.8432 -8.4101 -2.0281 0.0000 33.8895 0.0000
# 6 0.0000 0.0000 0.0000 0.3100 0.0000 17.8880
#
#
#
# Elastic Compliance Matrix: (Units=1/GPa)
#
#
# Indices 1 2 3 4 5 6 
#
# 1 0.079388 -0.118300 -0.003550 0.000000 -0.027595 0.000000
# 2 -0.118300 0.359437 -0.005635 0.000000 0.085919 0.000000
# 3 -0.003550 -0.005635 0.014058 0.000000 -0.000645 0.000000
# 4 0.000000 0.000000 0.000000 -0.230413 0.000000 0.003993
# 5 -0.027595 0.085919 -0.000645 0.000000 0.050104 0.000000
# 6 0.000000 0.000000 0.000000 0.003993 0.000000 0.055834
#
#
# Mechanical properties :
#
#
# Convention : Reuss Voigt Hill
#
# Bulk Modulus (GPa) = 5.05270 17.52043 11.28656
# Shear Modulus (GPa) = 7.70002 15.18329 11.44165
#
# Velocity S-wave (km/s) = 1.90446 2.67429 2.32151
# Velocity P-wave (km/s) = 2.68625 4.21764 3.53585
#
# Compressibility (1/GPa) = 0.19791404
#
# Stress axis : x y z
#
# Youngs Moduli (GPa) = 12.59633 2.78213 71.13194
#
# Poissons Ratio (x) = 0.32913 0.25251
# Poissons Ratio (y) = 1.49014 0.40084
# Poissons Ratio (z) = 0.04472 0.01568
#
# Static dielectric constant tensor:
#      x y z
#    x 1.813090 0.000000 -0.016940 
#    y 0.000000 1.750230 0.000000 
#    z -0.016940 0.000000 1.776620 
# 
# From -- ./inp_files/206750.got.cif
#   From: 2010.05.17/outbox.cif.g08.bks.cpg/sg12_104_cif.got.tgz:206750.got - 2010.06.03 13:09:07.
