data_PCOD9179401
_publ_section_title
;
Structure prediction by ZEFSAII (Michael W. Deem and Ramdas Pophale) SiO2 
 PCOD9179401
Probable space group: C 2/M
;
_chemical_formula_sum "Si O2"
_cell_formula_units_Z 56
_cell_length_a 40.118816
_cell_length_b 8.113937
_cell_length_c 12.028866
_cell_angle_alpha 90.000000
_cell_angle_beta 53.609075
_cell_angle_gamma 90.000000
_cell_volume 3152.054459
_symmetry_space_group_name_H-M "C 2/M"
_symmetry_group_IT_number 12
_symmetry_cell_setting 'monoclinic'
loop_
_space_group_symop_operation_xyz
x,y,z
-x,y,-z
-x,-y,-z
x,-y,z
1/2+x,1/2+y,z
1/2-x,1/2+y,-z
1/2-x,1/2-y,-z
1/2+x,1/2-y,z
loop_
_atom_site_type_symbol
_atom_site_label
_atom_site_fract_x
_atom_site_fract_y
_atom_site_fract_z
Si Si1 0.920741 0.803260 0.926299
Si Si2 0.499515 0.701633 0.628266
Si Si3 0.452405 0.804735 0.099990
Si Si4 0.249678 0.698480 0.871755
Si Si5 0.159733 0.800357 0.309434
Si Si6 0.080285 0.802223 0.601112
Si Si7 0.841022 0.697714 0.947464
O O1 0.877808 0.758812 0.952501
O O2 0.958433 0.744013 0.773504
O O3 0.923547 0.000000 0.928682
O O4 0.928850 0.733369 0.032459
O O5 0.500000 0.755238 0.500000
O O6 0.499538 0.500000 0.628543
O O7 0.540361 0.758460 0.611709
O O8 0.427962 0.736827 0.254433
O O9 0.455388 0.000000 0.108609
O O10 0.500000 0.738392 0.000000
O O11 0.249694 0.500000 0.863362
O O12 0.294578 0.757048 0.740866
O O13 0.250000 0.750000 0.000000
O O14 0.204554 0.756110 0.920473
O O15 0.122449 0.739800 0.460906
O O16 0.153539 0.752540 0.192118
O O17 0.159805 0.000000 0.311978
O O18 0.081044 0.000000 0.588370
O O19 0.841196 0.500000 0.947503
#
# Coordination Sequence:
#
# PCOD9179401 Si02
#       7
#     8   8   8   8   8   8   8
#     4  11  21  34  54  74  99 133 175 216 247 294
#     4   9  17  29  47  73 101 127 157 199 248 291
#     4  11  23  38  54  72 100 133 170 212 258 307
#     4   8  15  28  47  73 104 137 168 203 247 299
#     4   9  17  31  53  79 105 135 173 210 248 299
#     4  10  19  33  54  76 100 131 172 215 250 294
#     4  10  19  31  49  76 111 141 167 204 256 307
#
# _framework density 17.766190999999999
#
# number of rings (size 3 to 8) (size 9 to 14) (size 15 to 20)
#    0.000    2.286    1.429    2.143    0.000    4.000 
#    0.000    0.000    0.000    3.000    0.000    0.000 
#    0.000    0.000    0.000    0.000    0.000    0.000 
#
# Total GULP energy -156099.440668 kJ/mol
# GULP energy per Si atom -5574.980024 kJ/mol
# Density = 1.772575 g / cm^3
# Si number density = 17.766191 Si / 1000 Ang^3
#
#
#
# Elastic Constant Matrix: (Units=GPa)
#
#
# Indices 1 2 3 4 5 6 
#
# 1 104.0239 -10.5314 91.0398 0.0000 -25.4798 0.0000
# 2 -10.5314 3.9297 -5.3527 0.0000 -6.6586 0.0000
# 3 91.0398 -5.3527 97.5637 0.0000 -10.4775 0.0000
# 4 0.0000 0.0000 0.0000 11.5649 0.0000 -1.5543
# 5 -25.4798 -6.6586 -10.4775 0.0000 35.0759 0.0000
# 6 0.0000 0.0000 0.0000 -1.5543 0.0000 19.0298
#
#
#
# Elastic Compliance Matrix: (Units=1/GPa)
#
#
# Indices 1 2 3 4 5 6 
#
# 1 -0.038681 -0.164011 0.021423 0.000000 -0.052835 0.000000
# 2 -0.164011 -0.218049 0.127945 0.000000 -0.122315 0.000000
# 3 0.021423 0.127945 0.001610 0.000000 0.040331 0.000000
# 4 0.000000 0.000000 0.000000 0.087428 0.000000 0.007141
# 5 -0.052835 -0.122315 0.040331 0.000000 -0.021043 0.000000
# 6 0.000000 0.000000 0.000000 0.007141 0.000000 0.053132
#
#
# Mechanical properties :
#
#
# Convention : Reuss Voigt Hill
#
# Bulk Modulus (GPa) = -3.51610 39.53651 18.01020
# Shear Modulus (GPa) = -24.86104 21.82490 -1.51807
#
# Velocity S-wave (km/s) = -3.74484 3.50873 -0.92538
# Velocity P-wave (km/s) = 4.54773 6.22230 3.00293
#
# Compressibility (1/GPa) = -0.28440596
#
# Stress axis : x y z
#
# Youngs Moduli (GPa) = -25.85226 -4.58613 620.95320
#
# Poissons Ratio (x) = -0.75217 -13.30240
# Poissons Ratio (y) = -4.24004 -79.44777
# Poissons Ratio (z) = 0.55382 0.58677
#
# Static dielectric constant tensor:
#      x y z
#    x 1.607570 0.000000 -0.048060 
#    y 0.000000 1.628660 0.000000 
#    z -0.048060 0.000000 1.607540 
# 
# From -- ./inp_files/187145.got.cif
#   From: 2010.05.17/outbox.cif.g08.bks.cpg/sg12_94_cif.got.tgz:187145.got - 2010.06.03 13:09:07.
