data_PCOD9179385
_publ_section_title
;
Structure prediction by ZEFSAII (Michael W. Deem and Ramdas Pophale) SiO2 
 PCOD9179385
Probable space group: C 2/M
;
_chemical_formula_sum "Si O2"
_cell_formula_units_Z 60
_cell_length_a 24.176273
_cell_length_b 7.365469
_cell_length_c 24.768608
_cell_angle_alpha 90.000000
_cell_angle_beta 149.420076
_cell_angle_gamma 90.000000
_cell_volume 2243.815072
_symmetry_space_group_name_H-M "C 2/M"
_symmetry_group_IT_number 12
_symmetry_cell_setting 'monoclinic'
loop_
_space_group_symop_operation_xyz
x,y,z
-x,y,-z
-x,-y,-z
x,-y,z
1/2+x,1/2+y,z
1/2-x,1/2+y,-z
1/2-x,1/2-y,-z
1/2+x,1/2-y,z
loop_
_atom_site_type_symbol
_atom_site_label
_atom_site_fract_x
_atom_site_fract_y
_atom_site_fract_z
Si Si1 0.324912 0.209259 0.823503
Si Si2 0.601532 0.500000 0.913017
Si Si3 0.638427 0.220140 0.026272
Si Si4 0.849648 0.289535 0.725642
Si Si5 0.634988 0.300064 0.833452
Si Si6 0.127479 0.720661 0.486691
Si Si7 0.070927 0.719080 0.611620
Si Si8 0.602826 0.795912 0.350825
O O1 0.370703 0.276436 0.919058
O O2 0.356473 0.288073 0.791917
O O3 0.193511 0.212970 0.717348
O O4 0.360097 0.000000 0.850981
O O5 0.565859 0.337482 0.925359
O O6 0.645052 0.346168 0.905361
O O7 0.759457 0.277790 0.106578
O O8 0.629784 0.000000 0.013913
O O9 0.888500 0.500000 0.759655
O O10 0.719212 0.288612 0.604349
O O11 0.889682 0.203727 0.701780
O O12 0.617500 0.500000 0.793680
O O13 0.523424 0.194470 0.738377
O O14 0.133203 0.500000 0.491570
O O15 0.152704 0.784936 0.447245
O O16 0.007507 0.771516 0.405162
O O17 0.079540 0.500000 0.617535
O O18 0.000000 0.773898 0.500000
O O19 0.642040 0.000000 0.376732
#
# Coordination Sequence:
#
# PCOD9179385 Si02
#       8
#     8   4   8   8   8   8   8   8
#     4  10  21  35  53  80 113 152 195 232 290 346
#     4  10  22  38  64  95 121 144 196 221 308 369
#     4  10  21  37  60  93 124 149 183 242 292 357
#     4  10  21  36  53  77 109 156 201 238 280 333
#     4   9  21  36  57  88 116 141 183 229 289 355
#     4  10  20  34  52  79 108 149 195 240 289 335
#     4  10  19  31  49  75 111 145 186 231 287 338
#     4  10  21  36  55  79 112 151 196 242 285 336
#
# _framework density 26.740169999999999
#
# number of rings (size 3 to 8) (size 9 to 14) (size 15 to 20)
#    0.400    1.733    1.333    1.600    1.867    2.400 
#    0.000    0.000    0.000    1.600    0.000    3.733 
#    0.000    0.000    0.000    0.000    0.000    0.000 
#
# Total GULP energy -167166.042565 kJ/mol
# GULP energy per Si atom -5572.201419 kJ/mol
# Density = 2.667931 g / cm^3
# Si number density = 26.740170 Si / 1000 Ang^3
#
#
#
# Elastic Constant Matrix: (Units=GPa)
#
#
# Indices 1 2 3 4 5 6 
#
# 1 208.3593 10.5266 52.3394 0.0000 -34.8284 0.0000
# 2 10.5266 108.1267 10.8951 -0.0002 -11.7390 -0.0001
# 3 52.3394 10.8951 71.0002 0.0000 -37.8341 0.0000
# 4 0.0000 -0.0002 0.0000 22.9107 0.0000 -11.9636
# 5 -34.8284 -11.7390 -37.8341 0.0000 77.7853 0.0000
# 6 0.0000 -0.0001 0.0000 -11.9636 0.0000 3.3538
#
#
#
# Elastic Compliance Matrix: (Units=1/GPa)
#
#
# Indices 1 2 3 4 5 6 
#
# 1 0.005920 -0.000100 -0.003975 0.000000 0.000703 0.000000
# 2 -0.000100 0.009450 -0.000865 0.000000 0.000961 -0.000001
# 3 -0.003975 -0.000865 0.021772 0.000000 0.008680 0.000000
# 4 0.000000 0.000000 0.000000 -0.050592 0.000000 -0.180472
# 5 0.000703 0.000961 0.008680 0.000000 0.017537 0.000000
# 6 0.000000 -0.000001 0.000000 -0.180472 0.000000 -0.345609
#
#
# Mechanical properties :
#
#
# Convention : Reuss Voigt Hill
#
# Bulk Modulus (GPa) = 36.67754 59.44539 48.06147
# Shear Modulus (GPa) = -15.50117 41.72497 13.11190
#
# Velocity S-wave (km/s) = -2.41030 3.95446 2.21678
# Velocity P-wave (km/s) = 2.44949 6.56729 4.95627
#
# Compressibility (1/GPa) = 0.02726464
#
# Stress axis : x y z
#
# Youngs Moduli (GPa) = 168.91076 105.82517 45.92983
#
# Poissons Ratio (x) = 0.01054 0.18255
# Poissons Ratio (y) = 0.01682 0.03971
# Poissons Ratio (z) = 0.67136 0.09149
#
# Static dielectric constant tensor:
#      x y z
#    x 2.080080 0.000000 -0.001920 
#    y 0.000000 1.996170 0.000000 
#    z -0.001920 0.000000 2.216490 
# 
# From -- ./inp_files/348859.got.cif
#   From: 2010.05.17/outbox.cif.g08.bks.cpg/sg12_175_cif.got.tgz:348859.got - 2010.06.03 13:09:07.
