data_PCOD9179817
_publ_section_title
;
Structure prediction by ZEFSAII (Michael W. Deem and Ramdas Pophale) SiO2 
 PCOD9179817
Probable space group: C 2/M
;
_chemical_formula_sum "Si O2"
_cell_formula_units_Z 56
_cell_length_a 13.313613
_cell_length_b 23.877388
_cell_length_c 15.189543
_cell_angle_alpha 90.000000
_cell_angle_beta 39.377388
_cell_angle_gamma 90.000000
_cell_volume 3063.430872
_symmetry_space_group_name_H-M "C 2/M"
_symmetry_group_IT_number 12
_symmetry_cell_setting 'monoclinic'
loop_
_space_group_symop_operation_xyz
x,y,z
-x,y,-z
-x,-y,-z
x,-y,z
1/2+x,1/2+y,z
1/2-x,1/2+y,-z
1/2-x,1/2-y,-z
1/2+x,1/2-y,z
loop_
_atom_site_type_symbol
_atom_site_label
_atom_site_fract_x
_atom_site_fract_y
_atom_site_fract_z
Si Si1 0.312875 0.868215 0.850424
Si Si2 0.315480 0.360878 0.348641
Si Si3 0.617057 0.298992 0.204514
Si Si4 0.539686 0.064519 0.576937
Si Si5 0.024164 0.936012 0.088670
Si Si6 0.245089 0.773130 0.757743
Si Si7 0.445028 0.794090 0.899859
O O1 0.392315 0.913040 0.732433
O O2 0.178237 0.898109 0.998496
O O3 0.230232 0.819265 0.847102
O O4 0.445169 0.842259 0.825271
O O5 0.470185 0.340965 0.297479
O O6 0.182270 0.391983 0.494534
O O7 0.243326 0.309723 0.339203
O O8 0.380690 0.406458 0.235068
O O9 0.613469 0.264350 0.298301
O O10 0.593761 0.259496 0.135158
O O11 0.802107 0.313368 0.060978
O O12 0.500000 0.067305 0.500000
O O13 0.576667 0.000000 0.573270
O O14 0.042831 0.000000 0.104737
O O15 0.000000 0.935733 0.000000
O O16 0.100452 0.730028 0.841292
#
# Coordination Sequence:
#
# PCOD9179817 Si02
#       7
#     8   8   8   8   8   8   8
#     4  11  20  34  52  77 108 141 172 217 262 306
#     4  11  20  34  52  77 108 141 172 217 262 306
#     4   9  18  29  50  78 106 139 175 208 263 313
#     4  11  22  38  55  74 106 146 178 210 269 320
#     4  11  20  30  49  76 100 130 174 222 265 306
#     4  10  19  31  51  80 109 140 167 212 253 324
#     4   9  18  29  50  78 106 139 175 208 263 313
#
# _framework density 18.280158
#
# number of rings (size 3 to 8) (size 9 to 14) (size 15 to 20)
#    0.000    1.714    4.286    1.286    4.000    2.286 
#    0.000    7.857    0.000    0.000    0.000    6.000 
#    0.000    0.000    0.000    0.000    0.000    0.000 
#
# Total GULP energy -155892.437841 kJ/mol
# GULP energy per Si atom -5567.587066 kJ/mol
# Density = 1.823855 g / cm^3
# Si number density = 18.280158 Si / 1000 Ang^3
#
#
#
# Elastic Constant Matrix: (Units=GPa)
#
#
# Indices 1 2 3 4 5 6 
#
# 1 87.2317 43.4505 10.4725 -0.0001 -10.6619 -0.0001
# 2 43.4505 76.4451 10.1866 -0.0002 -11.1492 0.0001
# 3 10.4725 10.1866 47.1047 -0.0004 -9.3264 -0.0001
# 4 -0.0001 -0.0002 -0.0004 8.5946 0.0002 3.4471
# 5 -10.6619 -11.1492 -9.3264 0.0002 19.1104 0.0000
# 6 -0.0001 0.0001 -0.0001 3.4471 0.0000 2.4351
#
#
#
# Elastic Compliance Matrix: (Units=1/GPa)
#
#
# Indices 1 2 3 4 5 6 
#
# 1 0.016317 -0.008614 -0.001060 -0.000001 0.003561 0.000003
# 2 -0.008614 0.018954 -0.001047 0.000001 0.005741 -0.000003
# 3 -0.001060 -0.001047 0.023748 0.000001 0.010388 0.000000
# 4 -0.000001 0.000001 0.000001 0.269172 -0.000003 -0.381031
# 5 0.003561 0.005741 0.010388 -0.000003 0.062733 0.000005
# 6 0.000003 -0.000003 0.000000 -0.381031 0.000005 0.950031
#
#
# Mechanical properties :
#
#
# Convention : Reuss Voigt Hill
#
# Bulk Modulus (GPa) = 26.61166 37.66675 32.13921
# Shear Modulus (GPa) = 3.63657 15.80615 9.72136
#
# Velocity S-wave (km/s) = 1.41197 2.94370 2.30858
# Velocity P-wave (km/s) = 4.15301 5.67484 4.97249
#
# Compressibility (1/GPa) = 0.03757751
#
# Stress axis : x y z
#
# Youngs Moduli (GPa) = 61.28705 52.75909 42.10872
#
# Poissons Ratio (x) = 0.45445 0.04463
# Poissons Ratio (y) = 0.52791 0.04409
# Poissons Ratio (z) = 0.06496 0.05525
#
# Static dielectric constant tensor:
#      x y z
#    x 1.682250 0.000000 -0.027500 
#    y 0.000000 1.664610 0.000000 
#    z -0.027500 0.000000 1.671640 
# 
# From -- ./inp_files/209107.got.cif
#   From: 2010.05.17/outbox.cif.g08.bks.cpg/sg12_105_cif.got.tgz:209107.got - 2010.06.03 13:09:07.
