data_PCOD9179023
_publ_section_title
;
Structure prediction by ZEFSAII (Michael W. Deem and Ramdas Pophale) SiO2 
 PCOD9179023
Probable space group: C 2/M
;
_chemical_formula_sum "Si O2"
_cell_formula_units_Z 56
_cell_length_a 30.230109
_cell_length_b 7.493645
_cell_length_c 22.907836
_cell_angle_alpha 90.000000
_cell_angle_beta 149.830076
_cell_angle_gamma 90.000000
_cell_volume 2608.015502
_symmetry_space_group_name_H-M "C 2/M"
_symmetry_group_IT_number 12
_symmetry_cell_setting 'monoclinic'
loop_
_space_group_symop_operation_xyz
x,y,z
-x,y,-z
-x,-y,-z
x,-y,z
1/2+x,1/2+y,z
1/2-x,1/2+y,-z
1/2-x,1/2-y,-z
1/2+x,1/2-y,z
loop_
_atom_site_type_symbol
_atom_site_label
_atom_site_fract_x
_atom_site_fract_y
_atom_site_fract_z
Si Si1 0.614811 0.715447 0.266851
Si Si2 0.453380 0.284243 0.007460
Si Si3 0.226705 0.212228 0.879631
Si Si4 0.786611 0.789756 0.389514
Si Si5 0.248491 0.791571 0.777447
Si Si6 0.089552 0.218703 0.366498
Si Si7 0.387619 0.284821 0.142119
O O1 0.615038 0.500000 0.266690
O O2 0.519306 0.772144 0.134127
O O3 0.690673 0.773139 0.309277
O O4 0.629586 0.775626 0.350001
O O5 0.447878 0.500000 0.001972
O O6 0.500000 0.232211 0.000000
O O7 0.354561 0.216344 0.898354
O O8 0.217338 0.286333 0.803758
O O9 0.161606 0.282439 0.855600
O O10 0.110663 0.000000 0.853538
O O11 0.325311 0.238183 0.016674
O O12 0.784528 0.713435 0.321699
O O13 0.855640 0.716831 0.515339
O O14 0.805733 0.000000 0.405819
O O15 0.223303 0.000000 0.748866
O O16 0.987860 0.274976 0.252339
O O17 0.091383 0.000000 0.369041
O O18 0.211864 0.000000 0.859660
#
# Coordination Sequence:
#
# PCOD9179023 Si02
#       7
#     8   8   8   8   8   8   8
#     4  10  19  32  49  69  93 122 160 202 238 273
#     4  10  19  31  48  70  95 123 160 200 233 275
#     4   9  18  32  51  76 100 121 151 195 241 286
#     4  10  20  33  47  66  96 130 161 191 229 281
#     4  10  20  32  47  70 101 130 155 189 238 288
#     4   9  18  32  50  70  92 123 162 199 233 275
#     4   9  17  33  55  74  94 122 157 196 240 282
#
# _framework density 21.472265
#
# number of rings (size 3 to 8) (size 9 to 14) (size 15 to 20)
#    0.000    2.429    1.429    1.286    0.000    2.571 
#    0.000    2.143    0.000    4.286    0.000    0.000 
#    0.000    6.857    0.000    0.000    0.000    0.000 
#
# Total GULP energy -156365.391492 kJ/mol
# GULP energy per Si atom -5584.478268 kJ/mol
# Density = 2.142339 g / cm^3
# Si number density = 21.472265 Si / 1000 Ang^3
#
#
#
# Elastic Constant Matrix: (Units=GPa)
#
#
# Indices 1 2 3 4 5 6 
#
# 1 105.3294 2.8720 45.6168 0.0000 -47.9232 0.0000
# 2 2.8720 59.1866 -0.4711 0.0004 -7.5254 0.0002
# 3 45.6168 -0.4711 89.5186 0.0000 -44.1797 0.0000
# 4 0.0000 0.0004 0.0000 -17.7754 0.0000 -13.4601
# 5 -47.9232 -7.5254 -44.1797 0.0000 42.7725 0.0000
# 6 0.0000 0.0002 0.0000 -13.4601 0.0000 -0.9493
#
#
#
# Elastic Compliance Matrix: (Units=1/GPa)
#
#
# Indices 1 2 3 4 5 6 
#
# 1 0.019767 0.002208 0.002164 0.000000 0.024771 0.000000
# 2 0.002208 0.018004 0.003577 0.000000 0.009336 0.000000
# 3 0.002164 0.003577 0.023650 0.000000 0.027482 0.000000
# 4 0.000000 0.000000 0.000000 0.005778 0.000000 -0.081924
# 5 0.024771 0.009336 0.027482 0.000000 0.081162 0.000000
# 6 0.000000 0.000000 0.000000 -0.081924 0.000000 0.108188
#
#
# Mechanical properties :
#
#
# Convention : Reuss Voigt Hill
#
# Bulk Modulus (GPa) = 12.93350 38.89667 25.91508
# Shear Modulus (GPa) = 18.76703 18.54403 18.65553
#
# Velocity S-wave (km/s) = 2.95958 2.94194 2.95077
# Velocity P-wave (km/s) = 4.20895 5.44924 4.86875
#
# Compressibility (1/GPa) = 0.07731862
#
# Stress axis : x y z
#
# Youngs Moduli (GPa) = 50.58940 55.54285 42.28308
#
# Poissons Ratio (x) = -0.12261 -0.09149
# Poissons Ratio (y) = -0.11168 -0.15127
# Poissons Ratio (z) = -0.10946 -0.19870
#
# Static dielectric constant tensor:
#      x y z
#    x 1.778790 0.000000 -0.038510 
#    y 0.000000 1.832520 0.000000 
#    z -0.038510 0.000000 1.758770 
# 
# From -- ./inp_files/238944.got.cif
#   From: 2010.05.17/outbox.cif.g08.bks.cpg/sg12_120_cif.got.tgz:238944.got - 2010.06.03 13:09:07.
