data_PCOD9179310
_publ_section_title
;
Structure prediction by ZEFSAII (Michael W. Deem and Ramdas Pophale) SiO2 
 PCOD9179310
Probable space group: C 2/M
;
_chemical_formula_sum "Si O2"
_cell_formula_units_Z 64
_cell_length_a 14.602865
_cell_length_b 7.600218
_cell_length_c 29.278559
_cell_angle_alpha 90.000000
_cell_angle_beta 91.458123
_cell_angle_gamma 90.000000
_cell_volume 3248.427412
_symmetry_space_group_name_H-M "C 2/M"
_symmetry_group_IT_number 12
_symmetry_cell_setting 'monoclinic'
loop_
_space_group_symop_operation_xyz
x,y,z
-x,y,-z
-x,-y,-z
x,-y,z
1/2+x,1/2+y,z
1/2-x,1/2+y,-z
1/2-x,1/2-y,-z
1/2+x,1/2-y,z
loop_
_atom_site_type_symbol
_atom_site_label
_atom_site_fract_x
_atom_site_fract_y
_atom_site_fract_z
Si Si1 0.653969 0.211620 0.125522
Si Si2 0.139129 0.788553 0.874477
Si Si3 0.512362 0.788792 0.199481
Si Si4 0.025735 0.703724 0.451535
Si Si5 0.502409 0.288867 0.051616
Si Si6 0.163728 0.284222 0.378080
Si Si7 0.372840 0.707786 0.377820
Si Si8 0.513870 0.212653 0.303052
O O1 0.757438 0.279062 0.125557
O O2 0.593516 0.278314 0.167471
O O3 0.596750 0.251785 0.079213
O O4 0.657950 0.000000 0.129783
O O5 0.078548 0.721177 0.916311
O O6 0.081845 0.749725 0.828107
O O7 0.143456 0.000000 0.878959
O O8 0.514884 0.721985 0.251206
O O9 0.521681 0.000000 0.201788
O O10 0.050419 0.500000 0.460585
O O11 0.109791 0.777494 0.422739
O O12 0.000000 0.784609 0.500000
O O13 0.938184 0.709392 0.417015
O O14 0.492193 0.500000 0.049243
O O15 0.500000 0.220415 0.000000
O O16 0.162984 0.500000 0.378220
O O17 0.268667 0.226790 0.376885
O O18 0.101379 0.229553 0.334211
O O19 0.370911 0.500000 0.387261
O O20 0.423709 0.735681 0.330282
O O21 0.515796 0.000000 0.302171
#
# Coordination Sequence:
#
# PCOD9179310 Si02
#       8
#     8   8   8   8   8   8   8   8
#     4   9  18  32  49  70  94 122 158 195 233 279
#     4   9  18  32  49  69  95 124 154 192 235 279
#     4   9  18  32  50  70  92 121 157 195 232 274
#     4   9  18  34  53  70  93 128 162 189 227 281
#     4   9  18  32  48  68  96 127 156 190 235 280
#     4   8  16  31  49  69  95 125 154 187 231 277
#     4  10  19  31  49  73  98 123 155 196 236 272
#     4   9  18  34  51  67  93 127 158 188 229 283
#
# _framework density 19.701841999999999
#
# number of rings (size 3 to 8) (size 9 to 14) (size 15 to 20)
#    0.000    3.000    0.000    1.125    0.000    3.500 
#    0.000    7.500    0.000    0.000    0.000    0.000 
#    0.000    0.000    0.000    0.000    0.000    0.000 
#
# Total GULP energy -178451.399978 kJ/mol
# GULP energy per Si atom -5576.606249 kJ/mol
# Density = 1.965700 g / cm^3
# Si number density = 19.701842 Si / 1000 Ang^3
#
#
#
# Elastic Constant Matrix: (Units=GPa)
#
#
# Indices 1 2 3 4 5 6 
#
# 1 147.8890 -5.1371 57.1467 0.0000 0.0196 0.0000
# 2 -5.1371 41.6168 -4.9828 0.0000 -3.1140 0.0000
# 3 57.1467 -4.9828 138.2078 0.0000 -13.3649 0.0000
# 4 0.0000 0.0000 0.0000 21.8994 0.0000 -7.9547
# 5 0.0196 -3.1140 -13.3649 0.0000 7.2865 0.0000
# 6 0.0000 0.0000 0.0000 -7.9547 0.0000 31.4734
#
#
#
# Elastic Compliance Matrix: (Units=1/GPa)
#
#
# Indices 1 2 3 4 5 6 
#
# 1 0.008394 -0.000053 -0.004227 0.000000 -0.007799 0.000000
# 2 -0.000053 0.025459 0.002422 0.000000 0.015322 0.000000
# 3 -0.004227 0.002422 0.011149 0.000000 0.021496 0.000000
# 4 0.000000 0.000000 0.000000 0.050279 0.000000 0.012708
# 5 -0.007799 0.015322 0.021496 0.000000 0.183236 0.000000
# 6 0.000000 0.000000 0.000000 0.012708 0.000000 0.034985
#
#
# Mechanical properties :
#
#
# Convention : Reuss Voigt Hill
#
# Bulk Modulus (GPa) = 24.22215 46.86302 35.54259
# Shear Modulus (GPa) = 15.10657 30.84433 22.97545
#
# Velocity S-wave (km/s) = 2.77205 3.96100 3.41861
# Velocity P-wave (km/s) = 4.75044 6.69008 5.80189
#
# Compressibility (1/GPa) = 0.04128452
#
# Stress axis : x y z
#
# Youngs Moduli (GPa) = 119.12716 39.27957 89.69166
#
# Poissons Ratio (x) = 0.00210 0.37913
# Poissons Ratio (y) = 0.00637 -0.21720
# Poissons Ratio (z) = 0.50355 -0.09512
#
# Static dielectric constant tensor:
#      x y z
#    x 1.675170 0.000000 -0.024870 
#    y 0.000000 1.745200 0.000000 
#    z -0.024870 0.000000 1.676900 
# 
# From -- ./inp_files/374811.got.cif
#   From: 2010.05.17/outbox.cif.g08.bks.cpg/sg12_188_cif.got.tgz:374811.got - 2010.06.03 13:09:07.
