data_PCOD9179135
_publ_section_title
;
Structure prediction by ZEFSAII (Michael W. Deem and Ramdas Pophale) SiO2 
 PCOD9179135
Probable space group: C 2/M
;
_chemical_formula_sum "Si O2"
_cell_formula_units_Z 44
_cell_length_a 10.279902
_cell_length_b 22.457105
_cell_length_c 9.405862
_cell_angle_alpha 90.000000
_cell_angle_beta 73.159816
_cell_angle_gamma 90.000000
_cell_volume 2078.290121
_symmetry_space_group_name_H-M "C 2/M"
_symmetry_group_IT_number 12
_symmetry_cell_setting 'monoclinic'
loop_
_space_group_symop_operation_xyz
x,y,z
-x,y,-z
-x,-y,-z
x,-y,z
1/2+x,1/2+y,z
1/2-x,1/2+y,-z
1/2-x,1/2-y,-z
1/2+x,1/2-y,z
loop_
_atom_site_type_symbol
_atom_site_label
_atom_site_fract_x
_atom_site_fract_y
_atom_site_fract_z
Si Si1 0.000000 0.139691 0.500000
Si Si2 0.462248 0.123709 0.355065
Si Si3 0.727267 0.598968 0.234624
Si Si4 0.123819 0.565837 0.073556
Si Si5 0.202758 0.232074 0.168189
Si Si6 0.396066 0.261514 0.341050
O O1 0.081870 0.101132 0.358826
O O2 0.104341 0.187035 0.539386
O O3 0.500000 0.102856 0.500000
O O4 0.341146 0.085952 0.318123
O O5 0.589226 0.114457 0.205215
O O6 0.413932 0.192874 0.384823
O O7 0.758879 0.666738 0.181350
O O8 0.748150 0.568546 0.075203
O O9 0.120597 0.500000 0.140627
O O10 0.000000 0.570988 0.000000
O O11 0.271003 0.269244 0.273731
O O12 0.041017 0.228627 0.220438
O O13 0.250000 0.250000 0.000000
#
# Coordination Sequence:
#
# PCOD9179135 Si02
#       6
#     4   8   8   8   8   8
#     4  10  20  34  51  76 111 148 182 206 256 320
#     4  10  19  31  54  81 107 134 173 221 272 317
#     4   9  20  34  51  75 106 140 179 219 260 319
#     4   9  18  35  55  76 102 134 174 226 277 315
#     4  10  19  31  48  74 108 143 184 215 260 317
#     4  10  20  30  50  73 112 146 175 216 258 317
#
# _framework density 21.171251999999999
#
# number of rings (size 3 to 8) (size 9 to 14) (size 15 to 20)
#    0.000    2.364    0.909    1.636    2.545    5.455 
#    0.000    0.455    0.000    0.000    0.000    1.273 
#    0.000    0.000    0.000    0.000    0.000    0.000 
#
# Total GULP energy -122549.002656 kJ/mol
# GULP energy per Si atom -5570.409212 kJ/mol
# Density = 2.112307 g / cm^3
# Si number density = 21.171252 Si / 1000 Ang^3
#
#
#
# Elastic Constant Matrix: (Units=GPa)
#
#
# Indices 1 2 3 4 5 6 
#
# 1 45.9364 11.7531 43.1877 0.0000 -13.9747 0.0000
# 2 11.7531 28.9521 20.6072 0.0000 -9.2015 0.0000
# 3 43.1877 20.6072 145.1266 0.0000 -18.7216 0.0000
# 4 0.0000 0.0000 0.0000 18.1792 0.0000 -3.9615
# 5 -13.9747 -9.2015 -18.7216 0.0000 29.9724 0.0000
# 6 0.0000 0.0000 0.0000 -3.9615 0.0000 7.6396
#
#
#
# Elastic Compliance Matrix: (Units=1/GPa)
#
#
# Indices 1 2 3 4 5 6 
#
# 1 0.033350 -0.004941 -0.008062 0.000000 0.008997 0.000000
# 2 -0.004941 0.041594 -0.003356 0.000000 0.008370 0.000000
# 3 -0.008062 -0.003356 0.009950 0.000000 0.001426 0.000000
# 4 0.000000 0.000000 0.000000 0.062016 0.000000 0.032158
# 5 0.008997 0.008370 0.001426 0.000000 0.041019 0.000000
# 6 0.000000 0.000000 0.000000 0.032158 0.000000 0.147573
#
#
# Mechanical properties :
#
#
# Convention : Reuss Voigt Hill
#
# Bulk Modulus (GPa) = 19.16575 41.23457 30.20016
# Shear Modulus (GPa) = 12.96638 20.78939 16.87788
#
# Velocity S-wave (km/s) = 2.47746 3.13703 2.82655
# Velocity P-wave (km/s) = 4.15405 5.71316 4.99482
#
# Compressibility (1/GPa) = 0.05217641
#
# Stress axis : x y z
#
# Youngs Moduli (GPa) = 29.98467 24.04179 100.49943
#
# Poissons Ratio (x) = 0.11878 0.81027
# Poissons Ratio (y) = 0.14814 0.33730
# Poissons Ratio (z) = 0.24175 0.08069
#
# Static dielectric constant tensor:
#      x y z
#    x 1.808160 0.000000 -0.035040 
#    y 0.000000 1.793630 0.000000 
#    z -0.035040 0.000000 1.823040 
# 
# From -- ./inp_files/50521.got.cif
#   From: 2010.05.17/outbox.cif.g08.bks.cpg/sg12_26_cif.got.tgz:50521.got - 2010.06.03 13:09:07.
