data_PCOD9179775
_publ_section_title
;
Structure prediction by ZEFSAII (Michael W. Deem and Ramdas Pophale) SiO2 
 PCOD9179775
Probable space group: C 2/M
;
_chemical_formula_sum "Si O2"
_cell_formula_units_Z 64
_cell_length_a 21.871230
_cell_length_b 9.284873
_cell_length_c 19.781963
_cell_angle_alpha 90.000000
_cell_angle_beta 59.870809
_cell_angle_gamma 90.000000
_cell_volume 3474.420256
_symmetry_space_group_name_H-M "C 2/M"
_symmetry_group_IT_number 12
_symmetry_cell_setting 'monoclinic'
loop_
_space_group_symop_operation_xyz
x,y,z
-x,y,-z
-x,-y,-z
x,-y,z
1/2+x,1/2+y,z
1/2-x,1/2+y,-z
1/2-x,1/2-y,-z
1/2+x,1/2-y,z
loop_
_atom_site_type_symbol
_atom_site_label
_atom_site_fract_x
_atom_site_fract_y
_atom_site_fract_z
Si Si1 0.795723 0.169793 0.568364
Si Si2 0.722841 0.666552 0.123607
Si Si3 0.898809 0.672206 0.873874
Si Si4 0.973853 0.830918 0.256183
Si Si5 0.393316 0.831341 0.028493
Si Si6 0.859522 0.670303 0.409406
Si Si7 0.389271 0.331968 0.163296
Si Si8 0.241536 0.829124 0.263797
O O1 0.842365 0.265317 0.492580
O O2 0.713486 0.190958 0.592469
O O3 0.800954 0.205534 0.644677
O O4 0.811438 0.000000 0.549555
O O5 0.706114 0.500000 0.116137
O O6 0.679357 0.772475 0.100547
O O7 0.807533 0.682542 0.073434
O O8 0.703962 0.694101 0.212867
O O9 0.902749 0.500000 0.867142
O O10 0.952234 0.749463 0.793265
O O11 0.917779 0.713808 0.940547
O O12 0.922284 0.755335 0.338283
O O13 0.936573 0.817430 0.203521
O O14 0.982935 0.000000 0.266099
O O15 0.418321 0.744175 0.079736
O O16 0.409429 0.000000 0.029416
O O17 0.873819 0.500000 0.403724
O O18 0.378871 0.500000 0.154709
O O19 0.314258 0.258421 0.221655
O O20 0.259269 0.000000 0.257113
#
# Coordination Sequence:
#
# PCOD9179775 Si02
#       8
#     8   8   8   8   8   8   8   8
#     4   9  17  30  51  79 110 140 170 207 253 307
#     4   9  18  34  56  79 104 134 171 216 262 306
#     4  11  23  37  54  76 101 137 181 218 259 310
#     4  11  23  37  52  73 107 144 176 213 260 314
#     4   9  20  37  56  77 103 135 171 215 265 317
#     4  10  19  31  51  78 108 141 174 211 252 303
#     4  10  20  32  51  78 105 135 172 216 262 306
#     4   9  17  32  54  79 108 140 171 208 259 313
#
# _framework density 18.420338999999998
#
# number of rings (size 3 to 8) (size 9 to 14) (size 15 to 20)
#    0.000    2.250    1.250    2.625    0.000    6.000 
#    0.000    2.500    0.000    0.750    0.000    5.250 
#    0.000    0.000    0.000    0.000    0.000    0.000 
#
# Total GULP energy -178615.796171 kJ/mol
# GULP energy per Si atom -5581.743630 kJ/mol
# Density = 1.837841 g / cm^3
# Si number density = 18.420339 Si / 1000 Ang^3
#
#
#
# Elastic Constant Matrix: (Units=GPa)
#
#
# Indices 1 2 3 4 5 6 
#
# 1 22.4635 17.0437 7.6425 0.0000 0.9802 0.0000
# 2 17.0437 55.9530 44.8917 0.0000 1.2780 0.0000
# 3 7.6425 44.8917 116.7065 0.0000 4.2560 0.0000
# 4 0.0000 0.0000 0.0000 29.0544 0.0000 6.0592
# 5 0.9802 1.2780 4.2560 0.0000 21.0844 0.0000
# 6 0.0000 0.0000 0.0000 6.0592 0.0000 17.3050
#
#
#
# Elastic Compliance Matrix: (Units=1/GPa)
#
#
# Indices 1 2 3 4 5 6 
#
# 1 0.059567 -0.021739 0.004548 0.000000 -0.002369 0.000000
# 2 -0.021739 0.033788 -0.011621 0.000000 0.001308 0.000000
# 3 0.004548 -0.011621 0.012817 0.000000 -0.002094 0.000000
# 4 0.000000 0.000000 0.000000 0.037129 0.000000 -0.013001
# 5 -0.002369 0.001308 -0.002094 0.000000 0.047882 0.000000
# 6 0.000000 0.000000 0.000000 -0.013001 0.000000 0.062339
#
#
# Mechanical properties :
#
#
# Convention : Reuss Voigt Hill
#
# Bulk Modulus (GPa) = 20.59842 37.14209 28.87026
# Shear Modulus (GPa) = 15.27516 21.85842 18.56679
#
# Velocity S-wave (km/s) = 2.88280 3.44851 3.17827
# Velocity P-wave (km/s) = 4.72096 6.00531 5.40144
#
# Compressibility (1/GPa) = 0.04854741
#
# Stress axis : x y z
#
# Youngs Moduli (GPa) = 16.78780 29.59667 78.02134
#
# Poissons Ratio (x) = 0.64341 -0.35482
# Poissons Ratio (y) = 0.36495 0.90666
# Poissons Ratio (z) = -0.07635 0.34393
#
# Static dielectric constant tensor:
#      x y z
#    x 1.633790 0.000000 0.005970 
#    y 0.000000 1.611020 0.000000 
#    z 0.005970 0.000000 1.646830 
# 
# From -- ./inp_files/319852.got.cif
#   From: 2010.05.17/outbox.cif.g08.bks.cpg/sg12_160_cif.got.tgz:319852.got - 2010.06.03 13:09:07.
