data_PCOD9179994
_publ_section_title
;
Structure prediction by ZEFSAII (Michael W. Deem and Ramdas Pophale) SiO2 
 PCOD9179994
Probable space group: C 2/M
;
_chemical_formula_sum "Si O2"
_cell_formula_units_Z 58
_cell_length_a 21.290208
_cell_length_b 7.642252
_cell_length_c 18.324861
_cell_angle_alpha 90.000000
_cell_angle_beta 113.372927
_cell_angle_gamma 90.000000
_cell_volume 2736.889570
_symmetry_space_group_name_H-M "C 2/M"
_symmetry_group_IT_number 12
_symmetry_cell_setting 'monoclinic'
loop_
_space_group_symop_operation_xyz
x,y,z
-x,y,-z
-x,-y,-z
x,-y,z
1/2+x,1/2+y,z
1/2-x,1/2+y,-z
1/2-x,1/2-y,-z
1/2+x,1/2-y,z
loop_
_atom_site_type_symbol
_atom_site_label
_atom_site_fract_x
_atom_site_fract_y
_atom_site_fract_z
Si Si1 0.192170 0.791108 0.879646
Si Si2 0.327949 0.210131 0.557138
Si Si3 0.665552 0.793089 0.275533
Si Si4 0.653455 0.297857 0.013878
Si Si5 0.420775 0.214363 0.465164
Si Si6 0.000000 0.500000 0.000000
Si Si7 0.318402 0.208734 0.290958
Si Si8 0.437064 0.703382 0.895639
O O1 0.367962 0.500000 0.998709
O O2 0.267211 0.711278 0.926049
O O3 0.167510 0.756785 0.786582
O O4 0.149008 0.726435 0.929677
O O5 0.250000 0.250000 0.500000
O O6 0.339063 0.276626 0.644192
O O7 0.380413 0.272571 0.519331
O O8 0.334623 0.000000 0.562419
O O9 0.742331 0.767577 0.279746
O O10 0.608371 0.712371 0.197422
O O11 0.652952 0.000000 0.270599
O O12 0.699598 0.500000 0.891705
O O13 0.613520 0.221473 0.063875
O O14 0.500000 0.269682 0.500000
O O15 0.375662 0.271976 0.374600
O O16 0.420772 0.000000 0.464835
O O17 0.996181 0.343546 0.933878
O O18 0.317450 0.000000 0.294817
O O19 0.456869 0.500000 0.914033
#
# Coordination Sequence:
#
# PCOD9179994 Si02
#       8
#     8   8   8   8   8   2   8   8
#     4  10  19  31  52  83 119 148 186 245 308 364
#     4  10  20  35  60  92 125 160 211 268 317 380
#     4  11  21  35  58  91 125 156 211 271 320 375
#     4   9  19  34  53  81 115 152 193 243 303 364
#     4   9  19  37  59  84 121 164 203 252 320 394
#     4  12  26  44  64  90 120 164 218 256 328 392
#     4  11  20  32  55  87 119 153 205 258 318 379
#     4  11  23  42  65  89 123 166 214 267 322 384
#
# _framework density 21.191941
#
# number of rings (size 3 to 8) (size 9 to 14) (size 15 to 20)
#    0.000    1.793    3.448    1.448    0.966    1.103 
#    0.000    1.379    3.034    3.724    0.000    0.000 
#    0.000    0.000    0.000    0.000    0.000    0.000 
#
# Total GULP energy -161592.561601 kJ/mol
# GULP energy per Si atom -5572.157297 kJ/mol
# Density = 2.114371 g / cm^3
# Si number density = 21.191941 Si / 1000 Ang^3
#
#
#
# Elastic Constant Matrix: (Units=GPa)
#
#
# Indices 1 2 3 4 5 6 
#
# 1 83.4177 5.9509 67.9934 0.0000 -6.5559 0.0000
# 2 5.9509 86.1571 21.9540 0.0000 4.9495 0.0000
# 3 67.9934 21.9540 223.6185 0.0000 -4.9437 0.0000
# 4 0.0000 0.0000 0.0000 9.9558 0.0000 77.1557
# 5 -6.5559 4.9495 -4.9437 0.0000 37.4325 0.0000
# 6 0.0000 0.0000 0.0000 77.1557 0.0000 -656.9334
#
#
#
# Elastic Compliance Matrix: (Units=1/GPa)
#
#
# Indices 1 2 3 4 5 6 
#
# 1 0.016114 -0.000002 -0.004851 0.000000 0.002182 0.000000
# 2 -0.000002 0.012018 -0.001218 0.000000 -0.001750 0.000000
# 3 -0.004851 -0.001218 0.006069 0.000000 0.000113 0.000000
# 4 0.000000 0.000000 0.000000 0.052583 0.000000 0.006176
# 5 0.002182 -0.001750 0.000113 0.000000 0.027343 0.000000
# 6 0.000000 0.000000 0.000000 0.006176 0.000000 -0.000797
#
#
# Mechanical properties :
#
#
# Convention : Reuss Voigt Hill
#
# Bulk Modulus (GPa) = 45.33497 64.99888 55.16692
# Shear Modulus (GPa) = 37.64372 -102.08935 -32.22281
#
# Velocity S-wave (km/s) = 4.21922 -6.94825 -3.90362
# Velocity P-wave (km/s) = 6.72121 5.79939 2.40227
#
# Compressibility (1/GPa) = 0.02205803
#
# Stress axis : x y z
#
# Youngs Moduli (GPa) = 62.05969 83.21033 164.77268
#
# Poissons Ratio (x) = 0.00018 0.79932
# Poissons Ratio (y) = 0.00014 0.20067
# Poissons Ratio (z) = 0.30105 0.10134
#
# Static dielectric constant tensor:
#      x y z
#    x 1.887530 0.000000 -0.005420 
#    y 0.000000 1.823300 0.000000 
#    z -0.005420 0.000000 1.780550 
# 
# From -- ./inp_files/281513.got.cif
#   From: 2010.05.17/outbox.cif.g08.bks.cpg/sg12_141_cif.got.tgz:281513.got - 2010.06.03 13:09:07.
