data_PCOD9179921
_publ_section_title
;
Structure prediction by ZEFSAII (Michael W. Deem and Ramdas Pophale) SiO2 
 PCOD9179921
Probable space group: C 2/M
;
_chemical_formula_sum "Si O2"
_cell_formula_units_Z 56
_cell_length_a 26.281822
_cell_length_b 23.622115
_cell_length_c 5.319960
_cell_angle_alpha 90.000000
_cell_angle_beta 125.408189
_cell_angle_gamma 90.000000
_cell_volume 2691.932713
_symmetry_space_group_name_H-M "C 2/M"
_symmetry_group_IT_number 12
_symmetry_cell_setting 'monoclinic'
loop_
_space_group_symop_operation_xyz
x,y,z
-x,y,-z
-x,-y,-z
x,-y,z
1/2+x,1/2+y,z
1/2-x,1/2+y,-z
1/2-x,1/2-y,-z
1/2+x,1/2-y,z
loop_
_atom_site_type_symbol
_atom_site_label
_atom_site_fract_x
_atom_site_fract_y
_atom_site_fract_z
Si Si1 0.181627 0.560315 0.733591
Si Si2 0.929973 0.931728 0.271975
Si Si3 0.262921 0.621348 0.636140
Si Si4 0.355213 0.567591 0.550084
Si Si5 0.708949 0.738181 0.131178
Si Si6 0.857687 0.347223 0.987630
Si Si7 0.063115 0.562550 0.022587
O O1 0.184006 0.500000 0.880878
O O2 0.246123 0.569044 0.767224
O O3 0.122200 0.557576 0.378076
O O4 0.169593 0.614299 0.868952
O O5 0.886539 0.914121 0.380175
O O6 0.000000 0.909179 0.500000
O O7 0.933130 0.000000 0.303687
O O8 0.902129 0.920813 0.917923
O O9 0.294363 0.600566 0.470361
O O10 0.302127 0.671296 0.875631
O O11 0.193704 0.644971 0.379026
O O12 0.343598 0.500000 0.510097
O O13 0.750000 0.750000 0.500000
O O14 0.649868 0.781105 0.965300
O O15 0.750000 0.750000 0.000000
O O16 0.920369 0.381437 0.092281
O O17 0.058955 0.500000 0.879904
O O18 0.000000 0.569755 0.000000
#
# Coordination Sequence:
#
# PCOD9179921 Si02
#       7
#     8   8   8   8   8   8   8
#     4  10  19  31  52  79 113 150 183 229 293 348
#     4   9  18  33  51  72 101 139 181 219 259 318
#     4  10  21  34  50  79 114 144 182 229 284 339
#     4  10  20  31  50  78 107 140 176 220 276 331
#     4  10  20  36  57  79 105 144 188 225 268 331
#     4  10  20  34  54  78 108 146 186 237 282 340
#     4   9  19  35  53  79 113 150 195 241 290 350
#
# _framework density 20.802896
#
# number of rings (size 3 to 8) (size 9 to 14) (size 15 to 20)
#    0.000    2.286    1.429    1.286    2.000    4.000 
#    0.000    2.143    0.000    1.714    0.000    0.000 
#    0.000    0.000    0.000    0.000    0.000    0.000 
#
# Total GULP energy -156032.116433 kJ/mol
# GULP energy per Si atom -5572.575587 kJ/mol
# Density = 2.075555 g / cm^3
# Si number density = 20.802896 Si / 1000 Ang^3
#
#
#
# Elastic Constant Matrix: (Units=GPa)
#
#
# Indices 1 2 3 4 5 6 
#
# 1 112.5998 41.2876 25.9787 0.0000 5.4799 0.0000
# 2 41.2876 100.9104 21.1121 0.0000 4.8225 0.0000
# 3 25.9787 21.1121 55.1130 0.0000 -9.2311 0.0000
# 4 0.0000 0.0000 0.0000 19.2744 0.0000 -5.5597
# 5 5.4799 4.8225 -9.2311 0.0000 28.7876 0.0000
# 6 0.0000 0.0000 0.0000 -5.5597 0.0000 13.4155
#
#
#
# Elastic Compliance Matrix: (Units=1/GPa)
#
#
# Indices 1 2 3 4 5 6 
#
# 1 0.011374 -0.003569 -0.004498 0.000000 -0.003010 0.000000
# 2 -0.003569 0.012199 -0.003402 0.000000 -0.002455 0.000000
# 3 -0.004498 -0.003402 0.023045 0.000000 0.008816 0.000000
# 4 0.000000 0.000000 0.000000 0.058926 0.000000 0.024420
# 5 -0.003010 -0.002455 0.008816 0.000000 0.038548 0.000000
# 6 0.000000 0.000000 0.000000 0.024420 0.000000 0.084661
#
#
# Mechanical properties :
#
#
# Convention : Reuss Voigt Hill
#
# Bulk Modulus (GPa) = 42.23093 49.48668 45.85880
# Shear Modulus (GPa) = 19.26155 24.31183 21.78669
#
# Velocity S-wave (km/s) = 3.04617 3.42230 3.23970
# Velocity P-wave (km/s) = 5.71986 6.28141 6.00720
#
# Compressibility (1/GPa) = 0.02367933
#
# Stress axis : x y z
#
# Youngs Moduli (GPa) = 87.92069 81.97379 43.39370
#
# Poissons Ratio (x) = 0.29254 0.19520
# Poissons Ratio (y) = 0.31376 0.14763
# Poissons Ratio (z) = 0.39550 0.27889
#
# Static dielectric constant tensor:
#      x y z
#    x 1.760740 0.000000 -0.002960 
#    y 0.000000 1.808410 0.000000 
#    z -0.002960 0.000000 1.770100 
# 
# From -- ./inp_files/21616.got.cif
#   From: 2010.05.17/outbox.cif.g08.bks.cpg/sg12_11_cif.got.tgz:21616.got - 2010.06.03 13:09:07.
