data_PCOD9179184
_publ_section_title
;
Structure prediction by ZEFSAII (Michael W. Deem and Ramdas Pophale) SiO2 
 PCOD9179184
Probable space group: C 2/M
;
_chemical_formula_sum "Si O2"
_cell_formula_units_Z 64
_cell_length_a 14.569490
_cell_length_b 9.743990
_cell_length_c 20.744428
_cell_angle_alpha 90.000000
_cell_angle_beta 92.489661
_cell_angle_gamma 90.000000
_cell_volume 2942.202154
_symmetry_space_group_name_H-M "C 2/M"
_symmetry_group_IT_number 12
_symmetry_cell_setting 'monoclinic'
loop_
_space_group_symop_operation_xyz
x,y,z
-x,y,-z
-x,-y,-z
x,-y,z
1/2+x,1/2+y,z
1/2-x,1/2+y,-z
1/2-x,1/2-y,-z
1/2+x,1/2-y,z
loop_
_atom_site_type_symbol
_atom_site_label
_atom_site_fract_x
_atom_site_fract_y
_atom_site_fract_z
Si Si1 0.630986 0.842297 0.061236
Si Si2 0.979911 0.347826 0.313216
Si Si3 0.164441 0.157297 0.179692
Si Si4 0.942537 0.156738 0.200638
Si Si5 0.910553 0.342533 0.082883
Si Si6 0.245356 0.155253 0.563052
Si Si7 0.029646 0.149675 0.574260
Si Si8 0.691425 0.844884 0.295548
O O1 0.675032 0.737557 0.112746
O O2 0.520846 0.841691 0.072316
O O3 0.662049 0.000000 0.072071
O O4 0.638289 0.806511 0.985962
O O5 0.938748 0.500000 0.315850
O O6 0.927905 0.241361 0.265776
O O7 0.994676 0.276549 0.382162
O O8 0.081552 0.360966 0.287367
O O9 0.212981 0.241502 0.238563
O O10 0.053531 0.154242 0.190559
O O11 0.194866 0.000000 0.177630
O O12 0.896852 0.237813 0.140339
O O13 0.912365 0.000000 0.204399
O O14 0.887718 0.500000 0.099326
O O15 0.250000 0.250000 0.500000
O O16 0.138779 0.143343 0.576592
O O17 0.289067 0.207625 0.631315
O O18 0.281687 0.000000 0.551289
O O19 0.000000 0.167993 0.500000
O O20 0.993332 0.000000 0.596206
O O21 0.730833 0.000000 0.291430
#
# Coordination Sequence:
#
# PCOD9179184 Si02
#       8
#     8   8   8   8   8   8   8   8
#     4   8  13  21  33  50  78 117 155 192 234 279
#     4  10  19  31  49  70  93 124 161 198 233 276
#     4   9  16  24  37  59  85 116 155 196 237 280
#     4   9  16  25  38  58  86 119 154 194 239 282
#     4   8  13  21  33  51  78 115 157 194 231 278
#     4  10  21  36  54  75  98 125 156 191 232 279
#     4  10  21  36  53  74 100 126 152 188 236 284
#     4   9  18  32  48  67  93 125 160 195 233 279
#
# _framework density 21.752414999999999
#
# number of rings (size 3 to 8) (size 9 to 14) (size 15 to 20)
#    0.000    2.875    0.000    2.625    0.000    5.250 
#    0.000    2.500    0.000    0.000    0.000    0.000 
#    0.000    1.000    0.000    3.000    0.000    5.750 
#
# Total GULP energy -178611.617099 kJ/mol
# GULP energy per Si atom -5581.613034 kJ/mol
# Density = 2.170291 g / cm^3
# Si number density = 21.752415 Si / 1000 Ang^3
#
#
#
# Elastic Constant Matrix: (Units=GPa)
#
#
# Indices 1 2 3 4 5 6 
#
# 1 40.6957 2.5724 7.3796 0.0000 5.2524 0.0000
# 2 2.5724 174.9993 123.3835 0.0000 25.6666 0.0000
# 3 7.3796 123.3835 152.3657 0.0000 33.2746 0.0000
# 4 0.0000 0.0000 0.0000 44.6801 0.0000 5.4922
# 5 5.2524 25.6666 33.2746 0.0000 23.2012 0.0000
# 6 0.0000 0.0000 0.0000 5.4922 0.0000 3.2356
#
#
#
# Elastic Compliance Matrix: (Units=1/GPa)
#
#
# Indices 1 2 3 4 5 6 
#
# 1 0.025395 0.001054 -0.000835 0.000000 -0.005718 0.000000
# 2 0.001054 0.013380 -0.011068 0.000000 0.000833 0.000000
# 3 -0.000835 -0.011068 0.018712 0.000000 -0.014403 0.000000
# 4 0.000000 0.000000 0.000000 0.028283 0.000000 -0.048007
# 5 -0.005718 0.000833 -0.014403 0.000000 0.064130 0.000000
# 6 0.000000 0.000000 0.000000 -0.048007 0.000000 0.390548
#
#
# Mechanical properties :
#
#
# Convention : Reuss Voigt Hill
#
# Bulk Modulus (GPa) = 27.94121 70.52574 49.23348
# Shear Modulus (GPa) = 8.70966 29.87172 19.29069
#
# Velocity S-wave (km/s) = 2.00317 3.70977 2.98120
# Velocity P-wave (km/s) = 4.26887 7.13038 5.87646
#
# Compressibility (1/GPa) = 0.03578944
#
# Stress axis : x y z
#
# Youngs Moduli (GPa) = 39.37730 74.73754 53.44269
#
# Poissons Ratio (x) = -0.07876 0.04460
# Poissons Ratio (y) = -0.04149 0.59150
# Poissons Ratio (z) = 0.03286 0.82719
#
# Static dielectric constant tensor:
#      x y z
#    x 1.852790 0.000000 -0.019270 
#    y 0.000000 1.800460 0.000000 
#    z -0.019270 0.000000 1.806740 
# 
# From -- ./inp_files/314196.got.cif
#   From: 2010.05.17/outbox.cif.g08.bks.cpg/sg12_158_cif.got.tgz:314196.got - 2010.06.03 13:09:07.
