data_PCOD9179335
_publ_section_title
;
Structure prediction by ZEFSAII (Michael W. Deem and Ramdas Pophale) SiO2 
 PCOD9179335
Probable space group: C 2/M
;
_chemical_formula_sum "Si O2"
_cell_formula_units_Z 32
_cell_length_a 13.717650
_cell_length_b 17.446062
_cell_length_c 7.718601
_cell_angle_alpha 90.000000
_cell_angle_beta 123.356008
_cell_angle_gamma 90.000000
_cell_volume 1542.917657
_symmetry_space_group_name_H-M "C 2/M"
_symmetry_group_IT_number 12
_symmetry_cell_setting 'monoclinic'
loop_
_space_group_symop_operation_xyz
x,y,z
-x,y,-z
-x,-y,-z
x,-y,z
1/2+x,1/2+y,z
1/2-x,1/2+y,-z
1/2-x,1/2-y,-z
1/2+x,1/2-y,z
loop_
_atom_site_type_symbol
_atom_site_label
_atom_site_fract_x
_atom_site_fract_y
_atom_site_fract_z
Si Si1 0.011014 0.914179 0.720304
Si Si2 0.872430 0.315944 0.296057
Si Si3 0.754460 0.852103 0.139291
Si Si4 0.276573 0.340611 0.543226
O O1 0.914283 0.856966 0.700726
O O2 0.000000 0.910088 0.500000
O O3 0.146588 0.895809 0.874499
O O4 0.982526 0.000000 0.749769
O O5 0.812230 0.232375 0.217964
O O6 0.797795 0.363798 0.362978
O O7 0.000000 0.306787 0.500000
O O8 0.860186 0.349153 0.090634
O O9 0.741290 0.879027 0.324890
O O10 0.250000 0.250000 0.500000
#
# Coordination Sequence:
#
# PCOD9179335 Si02
#       4
#     8   8   8   8
#     4   9  17  32  55  80 105 133 170 217 264 305
#     4  10  19  31  49  74 102 133 172 210 250 305
#     4   9  18  32  50  73 102 132 165 214 262 298
#     4   9  17  31  51  75 102 133 168 209 256 305
#
# _framework density 20.739927000000002
#
# number of rings (size 3 to 8) (size 9 to 14) (size 15 to 20)
#    0.000    2.750    0.000    3.750    0.000    2.000 
#    0.000   12.500    0.000    3.000    0.000    7.000 
#    0.000    0.000    0.000    0.000    0.000    0.000 
#
# Total GULP energy -89078.481120 kJ/mol
# GULP energy per Si atom -5567.405070 kJ/mol
# Density = 2.069272 g / cm^3
# Si number density = 20.739927 Si / 1000 Ang^3
#
#
#
# Elastic Constant Matrix: (Units=GPa)
#
#
# Indices 1 2 3 4 5 6 
#
# 1 73.1967 20.5116 28.1534 0.0000 -5.4367 0.0000
# 2 20.5116 41.7570 -0.5928 0.0000 8.9700 0.0000
# 3 28.1534 -0.5928 143.5563 0.0000 2.5514 0.0000
# 4 0.0000 0.0000 0.0000 1.3414 0.0000 1.0052
# 5 -5.4367 8.9700 2.5514 0.0000 19.8757 0.0000
# 6 0.0000 0.0000 0.0000 1.0052 0.0000 15.1844
#
#
#
# Elastic Compliance Matrix: (Units=1/GPa)
#
#
# Indices 1 2 3 4 5 6 
#
# 1 0.019428 -0.012020 -0.004060 0.000000 0.011260 0.000000
# 2 -0.012020 0.033970 0.002835 0.000000 -0.018982 0.000000
# 3 -0.004060 0.002835 0.007834 0.000000 -0.003396 0.000000
# 4 0.000000 0.000000 0.000000 0.784376 0.000000 -0.051928
# 5 0.011260 -0.018982 -0.003396 0.000000 0.062395 0.000000
# 6 0.000000 0.000000 0.000000 -0.051928 0.000000 0.069295
#
#
# Mechanical properties :
#
#
# Convention : Reuss Voigt Hill
#
# Bulk Modulus (GPa) = 28.78273 39.40604 34.09438
# Shear Modulus (GPa) = 4.92432 21.30951 13.11691
#
# Velocity S-wave (km/s) = 1.54255 3.20888 2.51758
# Velocity P-wave (km/s) = 4.13288 5.72456 4.99256
#
# Compressibility (1/GPa) = 0.03474306
#
# Stress axis : x y z
#
# Youngs Moduli (GPa) = 51.47253 29.43761 127.64623
#
# Poissons Ratio (x) = 0.35383 0.51822
# Poissons Ratio (y) = 0.61868 -0.36186
# Poissons Ratio (z) = 0.20897 -0.08345
#
# Static dielectric constant tensor:
#      x y z
#    x 1.793690 0.000000 -0.029150 
#    y 0.000000 1.794670 0.000000 
#    z -0.029150 0.000000 1.818780 
# 
# From -- ./inp_files/48299.got.cif
#   From: 2010.05.17/outbox.cif.g08.bks.cpg/sg12_25_cif.got.tgz:48299.got - 2010.06.03 13:09:07.
