data_PCOD9179577
_publ_section_title
;
Structure prediction by ZEFSAII (Michael W. Deem and Ramdas Pophale) SiO2 
 PCOD9179577
Probable space group: C 2/M
;
_chemical_formula_sum "Si O2"
_cell_formula_units_Z 48
_cell_length_a 23.981476
_cell_length_b 7.731686
_cell_length_c 27.543158
_cell_angle_alpha 90.000000
_cell_angle_beta 152.227599
_cell_angle_gamma 90.000000
_cell_volume 2379.649222
_symmetry_space_group_name_H-M "C 2/M"
_symmetry_group_IT_number 12
_symmetry_cell_setting 'monoclinic'
loop_
_space_group_symop_operation_xyz
x,y,z
-x,y,-z
-x,-y,-z
x,-y,z
1/2+x,1/2+y,z
1/2-x,1/2+y,-z
1/2-x,1/2-y,-z
1/2+x,1/2-y,z
loop_
_atom_site_type_symbol
_atom_site_label
_atom_site_fract_x
_atom_site_fract_y
_atom_site_fract_z
Si Si1 0.502327 0.200240 0.078976
Si Si2 0.361117 0.793482 0.724471
Si Si3 0.043880 0.288388 0.672601
Si Si4 0.628417 0.208333 0.377452
Si Si5 0.810480 0.199632 0.855734
Si Si6 0.409941 0.791208 0.472372
O O1 0.545348 0.273840 0.163606
O O2 0.616250 0.208166 0.130425
O O3 0.467413 0.000000 0.057529
O O4 0.394821 0.292289 0.968078
O O5 0.370547 0.724223 0.676855
O O6 0.226311 0.763800 0.638948
O O7 0.379537 0.000000 0.736761
O O8 0.046019 0.500000 0.675078
O O9 0.179099 0.231120 0.766517
O O10 0.982622 0.230505 0.675297
O O11 0.959722 0.234894 0.563014
O O12 0.750000 0.250000 0.500000
O O13 0.621979 0.000000 0.369829
O O14 0.797833 0.000000 0.830473
O O15 0.500000 0.729788 0.500000
O O16 0.411837 0.000000 0.473135
#
# Coordination Sequence:
#
# PCOD9179577 Si02
#       6
#     8   8   8   8   8   8
#     4  10  20  35  52  75 107 138 166 208 262 307
#     4  10  21  34  51  75 104 137 172 208 255 310
#     4   9  18  32  51  75 103 132 167 214 260 297
#     4  10  19  35  54  74 101 138 176 211 254 305
#     4  10  19  34  56  79 100 132 175 213 253 306
#     4  10  19  31  50  76 104 133 167 210 258 306
#
# _framework density 20.171040000000001
#
# number of rings (size 3 to 8) (size 9 to 14) (size 15 to 20)
#    0.000    2.167    1.667    3.000    0.000    3.000 
#    0.000    4.167    0.000    0.000    0.000    0.000 
#    0.000    0.000    0.000    0.000    0.000    0.000 
#
# Total GULP energy -134001.233856 kJ/mol
# GULP energy per Si atom -5583.384744 kJ/mol
# Density = 2.012513 g / cm^3
# Si number density = 20.171040 Si / 1000 Ang^3
#
#
#
# Elastic Constant Matrix: (Units=GPa)
#
#
# Indices 1 2 3 4 5 6 
#
# 1 50.7321 -3.3710 1.3593 0.0001 -21.0726 0.0000
# 2 -3.3710 34.2448 -8.2917 0.0002 -1.8693 0.0001
# 3 1.3593 -8.2917 66.9432 0.0001 -17.0704 0.0000
# 4 0.0001 0.0002 0.0001 0.3473 0.0000 -15.9233
# 5 -21.0726 -1.8693 -17.0704 0.0000 39.2702 0.0000
# 6 0.0000 0.0001 0.0000 -15.9233 0.0000 -5.1634
#
#
#
# Elastic Compliance Matrix: (Units=1/GPa)
#
#
# Indices 1 2 3 4 5 6 
#
# 1 0.026698 0.004537 0.004193 0.000000 0.016365 0.000000
# 2 0.004537 0.031293 0.005381 0.000000 0.006263 0.000000
# 3 0.004193 0.005381 0.018173 0.000000 0.010406 0.000000
# 4 0.000000 0.000000 0.000000 0.020221 0.000000 -0.062360
# 5 0.016365 0.006263 0.010406 0.000000 0.039067 0.000000
# 6 0.000000 0.000000 0.000000 -0.062360 0.000000 -0.001360
#
#
# Mechanical properties :
#
#
# Convention : Reuss Voigt Hill
#
# Bulk Modulus (GPa) = 9.57999 14.59036 12.08518
# Shear Modulus (GPa) = 35.54515 17.70571 26.62543
#
# Velocity S-wave (km/s) = 4.20240 2.96595 3.63710
# Velocity P-wave (km/s) = 5.32039 4.35639 4.86234
#
# Compressibility (1/GPa) = 0.10438423
#
# Stress axis : x y z
#
# Youngs Moduli (GPa) = 37.45605 31.95613 55.02739
#
# Poissons Ratio (x) = -0.14497 -0.23072
# Poissons Ratio (y) = -0.16992 -0.29610
# Poissons Ratio (z) = -0.15704 -0.17195
#
# Static dielectric constant tensor:
#      x y z
#    x 1.718140 0.000000 -0.023140 
#    y 0.000000 1.740910 0.000000 
#    z -0.023140 0.000000 1.691680 
# 
# From -- ./inp_files/172298.got.cif
#   From: 2010.05.17/outbox.cif.g08.bks.cpg/sg12_87_cif.got.tgz:172298.got - 2010.06.03 13:09:07.
