data_PCOD9179744
_publ_section_title
;
Structure prediction by ZEFSAII (Michael W. Deem and Ramdas Pophale) SiO2 
 PCOD9179744
Probable space group: C 2/M
;
_chemical_formula_sum "Si O2"
_cell_formula_units_Z 56
_cell_length_a 19.761633
_cell_length_b 9.132808
_cell_length_c 26.758033
_cell_angle_alpha 90.000000
_cell_angle_beta 148.832858
_cell_angle_gamma 90.000000
_cell_volume 2499.322126
_symmetry_space_group_name_H-M "C 2/M"
_symmetry_group_IT_number 12
_symmetry_cell_setting 'monoclinic'
loop_
_space_group_symop_operation_xyz
x,y,z
-x,y,-z
-x,-y,-z
x,-y,z
1/2+x,1/2+y,z
1/2-x,1/2+y,-z
1/2-x,1/2-y,-z
1/2+x,1/2-y,z
loop_
_atom_site_type_symbol
_atom_site_label
_atom_site_fract_x
_atom_site_fract_y
_atom_site_fract_z
Si Si1 0.959993 0.827072 0.668640
Si Si2 0.507569 0.326468 0.581900
Si Si3 0.021079 0.172120 0.167256
Si Si4 0.138903 0.329476 0.064984
Si Si5 0.210516 0.670996 0.220493
Si Si6 0.656820 0.826205 0.868939
Si Si7 0.739555 0.168921 0.603706
O O1 0.970327 0.800695 0.616501
O O2 0.814972 0.804907 0.598978
O O3 0.055307 0.725816 0.761570
O O4 0.993300 0.000000 0.699611
O O5 0.514290 0.500000 0.578342
O O6 0.655810 0.268866 0.670918
O O7 0.390668 0.263156 0.475422
O O8 0.081833 0.244653 0.156575
O O9 0.144348 0.192316 0.283246
O O10 0.899531 0.251247 0.116685
O O11 0.995283 0.000000 0.145410
O O12 0.128068 0.500000 0.042389
O O13 0.226979 0.324629 0.171063
O O14 0.205414 0.235118 0.064039
O O15 0.000000 0.283231 0.000000
O O16 0.194085 0.500000 0.223768
O O17 0.659085 0.000000 0.875529
O O18 0.700290 0.000000 0.581658
#
# Coordination Sequence:
#
# PCOD9179744 Si02
#       7
#     8   8   8   8   8   8   8
#     4   9  17  33  52  75 112 154 194 236 285 339
#     4  10  19  31  51  77 113 152 190 240 288 335
#     4  10  22  40  59  80 115 160 199 236 283 339
#     4  10  21  41  68  92 118 151 184 226 287 352
#     4  10  21  38  59  86 116 148 191 239 286 341
#     4  11  21  35  60  90 118 150 190 239 285 337
#     4   9  19  32  49  75 109 151 200 243 276 330
#
# _framework density 22.406075000000001
#
# number of rings (size 3 to 8) (size 9 to 14) (size 15 to 20)
#    0.000    2.143    1.429    3.000    0.000    5.429 
#    0.000    3.571    0.000    0.000    0.000    0.000 
#    0.000    0.000    0.000    0.000    0.000    0.000 
#
# Total GULP energy -156508.064292 kJ/mol
# GULP energy per Si atom -5589.573725 kJ/mol
# Density = 2.235508 g / cm^3
# Si number density = 22.406075 Si / 1000 Ang^3
#
#
#
# Elastic Constant Matrix: (Units=GPa)
#
#
# Indices 1 2 3 4 5 6 
#
# 1 134.0983 74.1973 23.5124 0.0000 25.6855 0.0000
# 2 74.1973 86.0031 34.7460 0.0000 25.6550 0.0000
# 3 23.5124 34.7460 85.2948 0.0002 23.3737 0.0000
# 4 0.0000 0.0000 0.0002 14.1224 0.0000 15.0700
# 5 25.6855 25.6550 23.3737 0.0000 39.5395 0.0000
# 6 0.0000 0.0000 0.0000 15.0700 0.0000 28.7943
#
#
#
# Elastic Compliance Matrix: (Units=1/GPa)
#
#
# Indices 1 2 3 4 5 6 
#
# 1 0.014547 -0.012560 0.001745 0.000000 -0.002333 0.000000
# 2 -0.012560 0.026470 -0.005788 0.000000 -0.005595 0.000000
# 3 0.001745 -0.005788 0.015372 0.000000 -0.006466 0.000000
# 4 0.000000 0.000000 0.000000 0.160379 0.000000 -0.083937
# 5 -0.002333 -0.005595 -0.006466 0.000000 0.034259 0.000000
# 6 0.000000 0.000000 0.000000 -0.083937 0.000000 0.078659
#
#
# Mechanical properties :
#
#
# Convention : Reuss Voigt Hill
#
# Bulk Modulus (GPa) = 43.12885 63.36750 53.24818
# Shear Modulus (GPa) = 13.49092 28.02061 20.75577
#
# Velocity S-wave (km/s) = 2.45646 3.54019 3.04689
# Velocity P-wave (km/s) = 5.22839 6.71218 6.01621
#
# Compressibility (1/GPa) = 0.02318633
#
# Stress axis : x y z
#
# Youngs Moduli (GPa) = 68.74106 37.77814 65.05134
#
# Poissons Ratio (x) = 0.47448 -0.11355
# Poissons Ratio (y) = 0.86337 0.37649
# Poissons Ratio (z) = -0.11999 0.21865
#
# Static dielectric constant tensor:
#      x y z
#    x 1.840330 0.000000 -0.036620 
#    y 0.000000 1.752360 0.000000 
#    z -0.036620 0.000000 1.901640 
# 
# From -- ./inp_files/380734.got.cif
#   From: 2010.05.17/outbox.cif.g08.bks.cpg/sg12_191_cif.got.tgz:380734.got - 2010.06.03 13:09:07.
