data_PCOD9179104
_publ_section_title
;
Structure prediction by ZEFSAII (Michael W. Deem and Ramdas Pophale) SiO2 
 PCOD9179104
Probable space group: C 2/M
;
_chemical_formula_sum "Si O2"
_cell_formula_units_Z 64
_cell_length_a 31.041202
_cell_length_b 9.059389
_cell_length_c 22.865576
_cell_angle_alpha 90.000000
_cell_angle_beta 31.345974
_cell_angle_gamma 90.000000
_cell_volume 3344.981647
_symmetry_space_group_name_H-M "C 2/M"
_symmetry_group_IT_number 12
_symmetry_cell_setting 'monoclinic'
loop_
_space_group_symop_operation_xyz
x,y,z
-x,y,-z
-x,-y,-z
x,-y,z
1/2+x,1/2+y,z
1/2-x,1/2+y,-z
1/2-x,1/2-y,-z
1/2+x,1/2-y,z
loop_
_atom_site_type_symbol
_atom_site_label
_atom_site_fract_x
_atom_site_fract_y
_atom_site_fract_z
Si Si1 0.852618 0.675235 0.043111
Si Si2 0.989404 0.825833 0.322805
Si Si3 0.413872 0.834230 0.685637
Si Si4 0.262348 0.332924 0.045619
Si Si5 0.317393 0.677134 0.697329
Si Si6 0.996979 0.822182 0.181173
Si Si7 0.694327 0.673729 0.424004
Si Si8 0.805154 0.823830 0.385512
O O1 0.862423 0.500000 0.035700
O O2 0.941792 0.753026 0.938043
O O3 0.817176 0.729059 0.022308
O O4 0.776786 0.719317 0.174049
O O5 0.016040 0.775829 0.226786
O O6 0.890319 0.809164 0.441510
O O7 0.028283 0.746365 0.334081
O O8 0.008600 0.000000 0.305688
O O9 0.326051 0.844043 0.820722
O O10 0.387660 0.750505 0.656535
O O11 0.444131 0.000000 0.638339
O O12 0.295996 0.500000 0.000408
O O13 0.250000 0.250000 0.000000
O O14 0.324003 0.500000 0.697278
O O15 0.325617 0.713571 0.619754
O O16 0.901519 0.782811 0.279681
O O17 0.004417 0.000000 0.170914
O O18 0.716991 0.500000 0.398884
O O19 0.765847 0.768678 0.370456
O O20 0.750000 0.750000 0.500000
O O21 0.799222 0.000000 0.397909
#
# Coordination Sequence:
#
# PCOD9179104 Si02
#       8
#     8   8   8   8   8   8   8   8
#     4  10  20  34  54  81 108 144 188 231 279 329
#     4  10  20  35  55  80 112 147 187 229 280 338
#     4  10  21  34  50  77 112 147 188 232 278 328
#     4  10  19  31  48  72 104 145 187 231 279 331
#     4   9  20  39  60  79 109 152 195 232 275 331
#     4  10  21  37  57  84 116 148 182 226 281 342
#     4  10  21  40  62  84 110 147 191 235 281 335
#     4  11  22  39  62  89 117 146 183 227 283 340
#
# _framework density 19.133139
#
# number of rings (size 3 to 8) (size 9 to 14) (size 15 to 20)
#    0.000    2.000    1.250    2.250    0.000    7.000 
#    0.000    3.125    0.000    3.750    0.000    0.000 
#    0.000    0.000    0.000    0.000    0.000    0.000 
#
# Total GULP energy -178505.531988 kJ/mol
# GULP energy per Si atom -5578.297875 kJ/mol
# Density = 1.908959 g / cm^3
# Si number density = 19.133139 Si / 1000 Ang^3
#
#
#
# Elastic Constant Matrix: (Units=GPa)
#
#
# Indices 1 2 3 4 5 6 
#
# 1 72.8855 23.5151 2.0946 -0.0008 -8.2653 0.0010
# 2 23.5151 34.6263 12.6248 -0.0007 -7.5123 -0.0002
# 3 2.0946 12.6248 44.7168 -0.0057 -8.1252 0.0009
# 4 -0.0008 -0.0007 -0.0057 26.0203 0.0006 -5.0640
# 5 -8.2653 -7.5123 -8.1252 0.0006 32.4580 0.0003
# 6 0.0010 -0.0002 0.0009 -5.0640 0.0003 32.0518
#
#
#
# Elastic Compliance Matrix: (Units=1/GPa)
#
#
# Indices 1 2 3 4 5 6 
#
# 1 0.018074 -0.012932 0.003244 0.000001 0.002422 -0.000001
# 2 -0.012932 0.042384 -0.010661 -0.000002 0.003848 0.000001
# 3 0.003244 -0.010661 0.026110 0.000005 0.004895 0.000000
# 4 0.000001 -0.000002 0.000005 0.039651 0.000000 0.006265
# 5 0.002422 0.003848 0.004895 0.000000 0.033542 0.000000
# 6 -0.000001 0.000001 0.000000 0.006265 0.000000 0.032189
#
#
# Mechanical properties :
#
#
# Convention : Reuss Voigt Hill
#
# Bulk Modulus (GPa) = 21.80035 25.41083 23.60559
# Shear Modulus (GPa) = 20.16648 25.70564 22.93606
#
# Velocity S-wave (km/s) = 3.25007 3.66937 3.46607
# Velocity P-wave (km/s) = 5.05002 5.59127 5.32752
#
# Compressibility (1/GPa) = 0.04587083
#
# Stress axis : x y z
#
# Youngs Moduli (GPa) = 55.32923 23.59404 38.29893
#
# Poissons Ratio (x) = 0.30511 -0.12426
# Poissons Ratio (y) = 0.71549 0.40831
# Poissons Ratio (z) = -0.17951 0.25154
#
# Static dielectric constant tensor:
#      x y z
#    x 1.634700 0.000000 -0.007140 
#    y 0.000000 1.664720 0.000000 
#    z -0.007140 0.000000 1.698460 
# 
# From -- ./inp_files/353394.got.cif
#   From: 2010.05.17/outbox.cif.g08.bks.cpg/sg12_177_cif.got.tgz:353394.got - 2010.06.03 13:09:07.
