data_PCOD9179317
_publ_section_title
;
Structure prediction by ZEFSAII (Michael W. Deem and Ramdas Pophale) SiO2 
 PCOD9179317
Probable space group: C 2/M
;
_chemical_formula_sum "Si O2"
_cell_formula_units_Z 64
_cell_length_a 16.240780
_cell_length_b 7.505197
_cell_length_c 19.552026
_cell_angle_alpha 90.000000
_cell_angle_beta 89.949063
_cell_angle_gamma 90.000000
_cell_volume 2383.200461
_symmetry_space_group_name_H-M "C 2/M"
_symmetry_group_IT_number 12
_symmetry_cell_setting 'monoclinic'
loop_
_space_group_symop_operation_xyz
x,y,z
-x,y,-z
-x,-y,-z
x,-y,z
1/2+x,1/2+y,z
1/2-x,1/2+y,-z
1/2-x,1/2-y,-z
1/2+x,1/2-y,z
loop_
_atom_site_type_symbol
_atom_site_label
_atom_site_fract_x
_atom_site_fract_y
_atom_site_fract_z
Si Si1 0.436317 0.296607 0.577464
Si Si2 0.832006 0.713541 0.957402
Si Si3 0.521215 0.210287 0.709164
Si Si4 0.225116 0.289438 0.338723
Si Si5 0.414852 0.214572 0.829307
Si Si6 0.917329 0.715762 0.087101
Si Si7 0.166873 0.213702 0.543637
Si Si8 0.817873 0.285692 0.212832
O O1 0.457121 0.500000 0.565136
O O2 0.505896 0.229349 0.628922
O O3 0.354515 0.290015 0.625035
O O4 0.406708 0.216010 0.504942
O O5 0.839718 0.500000 0.951505
O O6 0.902081 0.778821 0.010408
O O7 0.750000 0.750000 0.000000
O O8 0.843607 0.784529 0.880228
O O9 0.444967 0.281429 0.755283
O O10 0.605030 0.282804 0.741058
O O11 0.523857 0.000000 0.722685
O O12 0.217453 0.500000 0.350431
O O13 0.304487 0.220066 0.381880
O O14 0.239128 0.265143 0.258034
O O15 0.496913 0.250248 0.875427
O O16 0.403257 0.000000 0.822232
O O17 0.912921 0.500000 0.084311
O O18 0.843218 0.777734 0.137425
O O19 0.250000 0.250000 0.500000
O O20 0.155224 0.000000 0.548324
O O21 0.817931 0.500000 0.211039
#
# Coordination Sequence:
#
# PCOD9179317 Si02
#       8
#     8   8   8   8   8   8   8   8
#     4  10  19  32  51  73  97 126 162 201 242 288
#     4  10  19  31  49  73  99 124 154 194 238 280
#     4   9  18  33  51  72  99 128 160 200 243 286
#     4  10  19  32  51  73  97 126 162 201 242 288
#     4   8  15  30  52  72  90 121 164 200 229 272
#     4   8  15  30  52  72  90 121 164 200 229 272
#     4   8  16  30  47  68  93 123 159 199 239 282
#     4   9  18  33  51  72  99 128 160 200 243 286
#
# _framework density 26.854642999999999
#
# number of rings (size 3 to 8) (size 9 to 14) (size 15 to 20)
#    0.000    3.000    0.000    2.625    0.000    4.000 
#    0.000    4.375    0.000    6.750    0.000    0.000 
#    0.000    0.000    0.000    0.000    0.000    0.000 
#
# Total GULP energy -178738.425879 kJ/mol
# GULP energy per Si atom -5585.575809 kJ/mol
# Density = 2.679352 g / cm^3
# Si number density = 26.854643 Si / 1000 Ang^3
#
#
#
# Elastic Constant Matrix: (Units=GPa)
#
#
# Indices 1 2 3 4 5 6 
#
# 1 77.0137 -4.2897 14.0735 0.0000 -11.9955 0.0000
# 2 -4.2897 80.3747 -1.1751 0.0000 -1.8517 0.0000
# 3 14.0735 -1.1751 185.7858 0.0000 -19.2776 0.0000
# 4 0.0000 0.0000 0.0000 8.0722 0.0000 -5.0666
# 5 -11.9955 -1.8517 -19.2776 0.0000 56.4035 0.0000
# 6 0.0000 0.0000 0.0000 -5.0666 0.0000 -179.9700
#
#
#
# Elastic Compliance Matrix: (Units=1/GPa)
#
#
# Indices 1 2 3 4 5 6 
#
# 1 0.013578 0.000775 -0.000748 0.000000 0.002658 0.000000
# 2 0.000775 0.012498 0.000083 0.000000 0.000603 0.000000
# 3 -0.000748 0.000083 0.005623 0.000000 0.001765 0.000000
# 4 0.000000 0.000000 0.000000 0.121731 0.000000 -0.003427
# 5 0.002658 0.000603 0.001765 0.000000 0.018918 0.000000
# 6 0.000000 0.000000 0.000000 -0.003427 0.000000 -0.005460
#
#
# Mechanical properties :
#
#
# Convention : Reuss Voigt Hill
#
# Bulk Modulus (GPa) = 31.32866 40.04351 35.68609
# Shear Modulus (GPa) = 28.19952 -0.79449 13.70251
#
# Velocity S-wave (km/s) = 3.24401 -0.54451 2.26132
# Velocity P-wave (km/s) = 5.07176 3.81422 4.48726
#
# Compressibility (1/GPa) = 0.03191966
#
# Stress axis : x y z
#
# Youngs Moduli (GPa) = 73.64588 80.01152 177.84376
#
# Poissons Ratio (x) = -0.06201 0.13301
# Poissons Ratio (y) = -0.05707 -0.01475
# Poissons Ratio (z) = 0.05508 -0.00664
#
# Static dielectric constant tensor:
#      x y z
#    x 2.225140 0.000000 0.009310 
#    y 0.000000 2.053750 0.000000 
#    z 0.009310 0.000000 2.125760 
# 
# From -- ./inp_files/314042.got.cif
#   From: 2010.05.17/outbox.cif.g08.bks.cpg/sg12_158_cif.got.tgz:314042.got - 2010.06.03 13:09:07.
