data_PCOD9179086
_publ_section_title
;
Structure prediction by ZEFSAII (Michael W. Deem and Ramdas Pophale) SiO2 
 PCOD9179086
Probable space group: C 2/M
;
_chemical_formula_sum "Si O2"
_cell_formula_units_Z 56
_cell_length_a 19.657374
_cell_length_b 7.609191
_cell_length_c 22.445428
_cell_angle_alpha 90.000000
_cell_angle_beta 58.206662
_cell_angle_gamma 90.000000
_cell_volume 2853.561771
_symmetry_space_group_name_H-M "C 2/M"
_symmetry_group_IT_number 12
_symmetry_cell_setting 'monoclinic'
loop_
_space_group_symop_operation_xyz
x,y,z
-x,y,-z
-x,-y,-z
x,-y,z
1/2+x,1/2+y,z
1/2-x,1/2+y,-z
1/2-x,1/2-y,-z
1/2+x,1/2-y,z
loop_
_atom_site_type_symbol
_atom_site_label
_atom_site_fract_x
_atom_site_fract_y
_atom_site_fract_z
Si Si1 0.123188 0.210050 0.556888
Si Si2 0.036635 0.703807 0.422365
Si Si3 0.175473 0.783374 0.854079
Si Si4 0.175679 0.788789 0.991180
Si Si5 0.798066 0.297999 0.700743
Si Si6 0.000195 0.203697 0.072382
Si Si7 0.253342 0.207782 0.400515
O O1 0.179272 0.272424 0.475918
O O2 0.168718 0.259004 0.595967
O O3 0.035561 0.287036 0.590644
O O4 0.118566 0.000000 0.555260
O O5 0.055847 0.500000 0.427727
O O6 0.117215 0.783833 0.358226
O O7 0.000000 0.784073 0.500000
O O8 0.188866 0.730343 0.916618
O O9 0.245787 0.721726 0.778214
O O10 0.087517 0.722135 0.872435
O O11 0.173449 0.000000 0.853923
O O12 0.168351 0.000000 0.992110
O O13 0.250000 0.750000 0.000000
O O14 0.086807 0.721369 0.051210
O O15 0.814858 0.500000 0.710385
O O16 0.747195 0.294423 0.663435
O O17 0.999227 0.000000 0.092477
O O18 0.000000 0.204487 0.000000
O O19 0.243527 0.000000 0.396701
#
# Coordination Sequence:
#
# PCOD9179086 Si02
#       7
#     8   8   8   8   8   8   8
#     4  10  20  33  51  71  92 121 162 207 247 291
#     4  10  19  31  48  71  99 130 164 203 246 292
#     4   8  15  29  49  71  94 125 164 198 229 278
#     4   9  16  28  49  75  99 124 156 193 235 279
#     4  10  19  32  51  72  97 130 165 201 245 294
#     4   7  11  23  45  69  90 117 156 194 222 262
#     4  10  20  33  50  71  95 122 156 203 252 294
#
# _framework density 19.624596
#
# number of rings (size 3 to 8) (size 9 to 14) (size 15 to 20)
#    0.000    2.857    1.429    2.571    0.000    2.000 
#    0.000    2.143    0.000    8.143    0.000    0.000 
#    0.000    0.000    0.000    0.000    0.000    0.000 
#
# Total GULP energy -156006.791859 kJ/mol
# GULP energy per Si atom -5571.671138 kJ/mol
# Density = 1.957993 g / cm^3
# Si number density = 19.624596 Si / 1000 Ang^3
#
#
#
# Elastic Constant Matrix: (Units=GPa)
#
#
# Indices 1 2 3 4 5 6 
#
# 1 156.1172 -0.0062 76.5594 -0.0001 -19.5000 0.0009
# 2 -0.0062 47.4442 5.1203 -0.0002 -4.8094 0.0006
# 3 76.5594 5.1203 128.3674 0.0000 -28.7678 0.0000
# 4 -0.0001 -0.0002 0.0000 0.9021 -0.0001 4.7156
# 5 -19.5000 -4.8094 -28.7678 -0.0001 27.9513 -0.0001
# 6 0.0009 0.0006 0.0000 4.7156 -0.0001 20.7084
#
#
#
# Elastic Compliance Matrix: (Units=1/GPa)
#
#
# Indices 1 2 3 4 5 6 
#
# 1 0.009095 0.000675 -0.005204 -0.000016 0.001106 0.000003
# 2 0.000675 0.021502 -0.000423 -0.000044 0.003735 0.000009
# 3 -0.005204 -0.000423 0.013103 0.000006 0.009783 -0.000001
# 4 -0.000016 -0.000044 0.000006 -5.823454 -0.000019 1.326084
# 5 0.001106 0.003735 0.009783 -0.000019 0.047259 0.000004
# 6 0.000003 0.000009 -0.000001 1.326084 0.000004 -0.253679
#
#
# Mechanical properties :
#
#
# Convention : Reuss Voigt Hill
#
# Bulk Modulus (GPa) = 29.58915 55.03066 42.30991
# Shear Modulus (GPa) = -0.83822 26.59605 12.87891
#
# Velocity S-wave (km/s) = -0.65426 3.68535 2.56454
# Velocity P-wave (km/s) = 3.81308 6.79792 5.51141
#
# Compressibility (1/GPa) = 0.03379617
#
# Stress axis : x y z
#
# Youngs Moduli (GPa) = 109.94466 46.50780 76.31902
#
# Poissons Ratio (x) = -0.03139 0.39714
# Poissons Ratio (y) = -0.07420 0.03229
# Poissons Ratio (z) = 0.57212 0.01968
#
# Static dielectric constant tensor:
#      x y z
#    x 1.705830 0.000000 -0.037520 
#    y 0.000000 1.734000 0.000000 
#    z -0.037520 0.000000 1.697700 
# 
# From -- ./inp_files/313752.got.cif
#   From: 2010.05.17/outbox.cif.g08.bks.cpg/sg12_157_cif.got.tgz:313752.got - 2010.06.03 13:09:07.
