data_PCOD9179446
_publ_section_title
;
Structure prediction by ZEFSAII (Michael W. Deem and Ramdas Pophale) SiO2 
 PCOD9179446
Probable space group: C 2/M
;
_chemical_formula_sum "Si O2"
_cell_formula_units_Z 64
_cell_length_a 13.784897
_cell_length_b 9.209711
_cell_length_c 23.011208
_cell_angle_alpha 90.000000
_cell_angle_beta 69.865009
_cell_angle_gamma 90.000000
_cell_volume 2742.843174
_symmetry_space_group_name_H-M "C 2/M"
_symmetry_group_IT_number 12
_symmetry_cell_setting 'monoclinic'
loop_
_space_group_symop_operation_xyz
x,y,z
-x,y,-z
-x,-y,-z
x,-y,z
1/2+x,1/2+y,z
1/2-x,1/2+y,-z
1/2-x,1/2-y,-z
1/2+x,1/2-y,z
loop_
_atom_site_type_symbol
_atom_site_label
_atom_site_fract_x
_atom_site_fract_y
_atom_site_fract_z
Si Si1 0.498354 0.838182 0.135052
Si Si2 0.206982 0.336629 0.897942
Si Si3 0.575242 0.674226 0.610869
Si Si4 0.314063 0.333839 0.763918
Si Si5 0.851396 0.325399 0.643618
Si Si6 0.605996 0.333447 0.016903
Si Si7 0.557458 0.663108 0.741791
Si Si8 0.876299 0.332188 0.510356
O O1 0.405671 0.849706 0.108189
O O2 0.579818 0.735816 0.085026
O O3 0.447322 0.770488 0.203111
O O4 0.539440 0.000000 0.137905
O O5 0.246790 0.500000 0.898661
O O6 0.272461 0.266251 0.832355
O O7 0.187243 0.254555 0.961409
O O8 0.560547 0.500000 0.609305
O O9 0.466971 0.760354 0.627459
O O10 0.611890 0.701613 0.669517
O O11 0.638776 0.730769 0.542292
O O12 0.274022 0.500000 0.766315
O O13 0.291471 0.243744 0.710542
O O14 0.436737 0.344525 0.747690
O O15 0.852364 0.500000 0.647848
O O16 0.824699 0.289317 0.582246
O O17 0.636269 0.500000 0.015640
O O18 0.500000 0.331678 0.000000
O O19 0.589693 0.500000 0.752928
O O20 0.850093 0.500000 0.502433
O O21 0.000000 0.329781 0.500000
#
# Coordination Sequence:
#
# PCOD9179446 Si02
#       8
#     8   8   8   8   8   8   8   8
#     4  10  19  31  50  72  92 118 150 185 225 267
#     4   9  18  33  51  71  93 116 149 189 225 265
#     4   9  16  25  39  59  84 117 153 187 224 264
#     4   9  18  32  48  66  92 124 152 184 226 268
#     4   9  16  25  38  59  88 118 148 184 225 268
#     4   9  17  30  49  71  93 117 147 185 226 265
#     4   9  18  31  45  65  94 123 150 183 224 268
#     4   8  14  23  35  55  84 115 146 184 226 265
#
# _framework density 23.333454
#
# number of rings (size 3 to 8) (size 9 to 14) (size 15 to 20)
#    0.000    3.000    0.000    3.000    0.000    7.750 
#    0.000    0.625    0.000    0.000    0.000    0.875 
#    0.000    0.000    0.000    0.000    0.000    0.000 
#
# Total GULP energy -178715.874253 kJ/mol
# GULP energy per Si atom -5584.871070 kJ/mol
# Density = 2.328035 g / cm^3
# Si number density = 23.333454 Si / 1000 Ang^3
#
#
#
# Elastic Constant Matrix: (Units=GPa)
#
#
# Indices 1 2 3 4 5 6 
#
# 1 48.5077 7.0169 24.3344 0.0000 8.9030 0.0000
# 2 7.0169 118.1756 110.3681 0.0000 20.9956 0.0000
# 3 24.3344 110.3681 249.2818 0.0000 5.9684 0.0000
# 4 0.0000 0.0000 0.0000 42.9690 0.0000 -1.5333
# 5 8.9030 20.9956 5.9684 0.0000 48.4683 0.0000
# 6 0.0000 0.0000 0.0000 -1.5333 0.0000 3.1696
#
#
#
# Elastic Compliance Matrix: (Units=1/GPa)
#
#
# Indices 1 2 3 4 5 6 
#
# 1 0.022762 0.002526 -0.003223 0.000000 -0.004878 0.000000
# 2 0.002526 0.016321 -0.007314 0.000000 -0.006633 0.000000
# 3 -0.003223 -0.007314 0.007496 0.000000 0.002837 0.000000
# 4 0.000000 0.000000 0.000000 0.023681 0.000000 0.011456
# 5 -0.004878 -0.006633 0.002837 0.000000 0.024052 0.000000
# 6 0.000000 0.000000 0.000000 0.011456 0.000000 0.321043
#
#
# Mechanical properties :
#
#
# Convention : Reuss Voigt Hill
#
# Bulk Modulus (GPa) = 32.72609 77.71153 55.21881
# Shear Modulus (GPa) = 11.32335 37.20440 24.26387
#
# Velocity S-wave (km/s) = 2.20531 3.99741 3.22821
# Velocity P-wave (km/s) = 4.53215 7.39478 6.13283
#
# Compressibility (1/GPa) = 0.03055666
#
# Stress axis : x y z
#
# Youngs Moduli (GPa) = 43.93213 61.27016 133.39708
#
# Poissons Ratio (x) = -0.15474 0.42999
# Poissons Ratio (y) = -0.11095 0.97564
# Poissons Ratio (z) = 0.14161 0.44812
#
# Static dielectric constant tensor:
#      x y z
#    x 1.986100 0.000000 -0.035090 
#    y 0.000000 1.816950 0.000000 
#    z -0.035090 0.000000 1.907530 
# 
# From -- ./inp_files/345537.got.cif
#   From: 2010.05.17/outbox.cif.g08.bks.cpg/sg12_173_cif.got.tgz:345537.got - 2010.06.03 13:09:07.
