data_PCOD9179636
_publ_section_title
;
Structure prediction by ZEFSAII (Michael W. Deem and Ramdas Pophale) SiO2 
 PCOD9179636
Probable space group: C 2/M
;
_chemical_formula_sum "Si O2"
_cell_formula_units_Z 40
_cell_length_a 5.360450
_cell_length_b 23.889703
_cell_length_c 20.232708
_cell_angle_alpha 90.000000
_cell_angle_beta 59.877106
_cell_angle_gamma 90.000000
_cell_volume 2241.080717
_symmetry_space_group_name_H-M "C 2/M"
_symmetry_group_IT_number 12
_symmetry_cell_setting 'monoclinic'
loop_
_space_group_symop_operation_xyz
x,y,z
-x,y,-z
-x,-y,-z
x,-y,z
1/2+x,1/2+y,z
1/2-x,1/2+y,-z
1/2-x,1/2-y,-z
1/2+x,1/2-y,z
loop_
_atom_site_type_symbol
_atom_site_label
_atom_site_fract_x
_atom_site_fract_y
_atom_site_fract_z
Si Si1 0.154774 0.108920 0.650450
Si Si2 0.608113 0.728192 0.588284
Si Si3 0.338449 0.432455 0.086955
Si Si4 0.659855 0.431805 0.180766
Si Si5 0.793090 0.935338 0.582947
O O1 0.167281 0.166335 0.607077
O O2 0.482193 0.092381 0.622516
O O3 0.986893 0.103913 0.741703
O O4 0.971318 0.068673 0.626636
O O5 0.750000 0.750000 0.500000
O O6 0.267910 0.734062 0.621647
O O7 0.349879 0.500000 0.082211
O O8 0.504479 0.417944 0.132233
O O9 0.999887 0.418816 0.132945
O O10 0.500000 0.410804 0.000000
O O11 0.625622 0.500000 0.196859
O O12 0.000000 0.909120 0.500000
O O13 0.742194 0.000000 0.572509
#
# Coordination Sequence:
#
# PCOD9179636 Si02
#       5
#     8   8   8   8   8
#     4  12  23  37  59  77 110 144 185 238 283 323
#     4  10  23  39  58  79  98 133 187 241 292 335
#     4   9  17  30  49  75 111 150 180 206 245 313
#     4  10  19  31  50  78 111 145 178 214 265 321
#     4  11  24  37  53  78 108 145 185 221 269 335
#
# _framework density 17.84853
#
# number of rings (size 3 to 8) (size 9 to 14) (size 15 to 20)
#    0.000    1.600    0.000    5.400    8.400    5.600 
#    0.000    0.000    0.000    0.000    0.000    0.000 
#    0.000   16.000    0.000    0.000    0.000    0.000 
#
# Total GULP energy -111465.568921 kJ/mol
# GULP energy per Si atom -5573.278446 kJ/mol
# Density = 1.780791 g / cm^3
# Si number density = 17.848530 Si / 1000 Ang^3
#
#
#
# Elastic Constant Matrix: (Units=GPa)
#
#
# Indices 1 2 3 4 5 6 
#
# 1 134.5490 -10.6369 65.0851 0.0000 -3.6435 0.0000
# 2 -10.6369 32.9547 21.4644 0.0000 -7.0687 0.0000
# 3 65.0851 21.4644 145.6285 0.0000 -2.9926 0.0000
# 4 0.0000 0.0000 0.0000 17.2684 0.0000 3.8041
# 5 -3.6435 -7.0687 -2.9926 0.0000 25.8311 0.0000
# 6 0.0000 0.0000 0.0000 3.8041 0.0000 25.9770
#
#
#
# Elastic Compliance Matrix: (Units=1/GPa)
#
#
# Indices 1 2 3 4 5 6 
#
# 1 0.011134 0.008254 -0.006129 0.000000 0.003119 0.000000
# 2 0.008254 0.041724 -0.009603 0.000000 0.011470 0.000000
# 3 -0.006129 -0.009603 0.010976 0.000000 -0.002221 0.000000
# 4 0.000000 0.000000 0.000000 0.059840 0.000000 -0.008763
# 5 0.003119 0.011470 -0.002221 0.000000 0.042034 0.000000
# 6 0.000000 0.000000 0.000000 -0.008763 0.000000 0.039779
#
#
# Mechanical properties :
#
#
# Convention : Reuss Voigt Hill
#
# Bulk Modulus (GPa) = 20.45871 51.66195 36.06033
# Shear Modulus (GPa) = 21.12075 29.62992 25.37534
#
# Velocity S-wave (km/s) = 3.44369 4.07882 3.77464
# Velocity P-wave (km/s) = 5.22487 7.15471 6.26455
#
# Compressibility (1/GPa) = 0.04887893
#
# Stress axis : x y z
#
# Youngs Moduli (GPa) = 89.81644 23.96697 91.11130
#
# Poissons Ratio (x) = -0.19783 0.55838
# Poissons Ratio (y) = -0.74139 0.87496
# Poissons Ratio (z) = 0.55044 0.23016
#
# Static dielectric constant tensor:
#      x y z
#    x 2.494990 0.000000 -0.194590 
#    y 0.000000 1.621640 0.000000 
#    z -0.194590 0.000000 1.661070 
# 
# From -- ./inp_files/191497.got.cif
#   From: 2010.05.17/outbox.cif.g08.bks.cpg/sg12_96_cif.got.tgz:191497.got - 2010.06.03 13:09:07.
