data_PCOD9179285
_publ_section_title
;
Structure prediction by ZEFSAII (Michael W. Deem and Ramdas Pophale) SiO2 
 PCOD9179285
Probable space group: C 2/M
;
_chemical_formula_sum "Si O2"
_cell_formula_units_Z 56
_cell_length_a 16.182979
_cell_length_b 7.375917
_cell_length_c 21.599856
_cell_angle_alpha 90.000000
_cell_angle_beta 127.661703
_cell_angle_gamma 90.000000
_cell_volume 2041.026986
_symmetry_space_group_name_H-M "C 2/M"
_symmetry_group_IT_number 12
_symmetry_cell_setting 'monoclinic'
loop_
_space_group_symop_operation_xyz
x,y,z
-x,y,-z
-x,-y,-z
x,-y,z
1/2+x,1/2+y,z
1/2-x,1/2+y,-z
1/2-x,1/2-y,-z
1/2+x,1/2-y,z
loop_
_atom_site_type_symbol
_atom_site_label
_atom_site_fract_x
_atom_site_fract_y
_atom_site_fract_z
Si Si1 0.117796 0.722438 0.041866
Si Si2 0.389824 0.290476 0.624316
Si Si3 0.618283 0.718718 0.244422
Si Si4 0.362431 0.708250 0.343482
Si Si5 0.356770 0.278318 0.476556
Si Si6 0.903175 0.708794 0.101948
Si Si7 0.181179 0.209199 0.804397
O O1 0.120292 0.500000 0.043575
O O2 0.204630 0.788775 0.129471
O O3 0.143085 0.781058 0.983159
O O4 0.000000 0.778901 0.000000
O O5 0.423586 0.500000 0.641506
O O6 0.418053 0.211915 0.704060
O O7 0.413975 0.220166 0.566225
O O8 0.263002 0.284391 0.570478
O O9 0.622422 0.500000 0.247450
O O10 0.734956 0.786595 0.286679
O O11 0.529172 0.777742 0.156327
O O12 0.398855 0.500000 0.363378
O O13 0.391983 0.784690 0.424628
O O14 0.381255 0.786675 0.283108
O O15 0.356060 0.500000 0.476279
O O16 0.874670 0.500000 0.093877
O O17 0.871112 0.793758 0.152199
O O18 0.195203 0.000000 0.793186
#
# Coordination Sequence:
#
# PCOD9179285 Si02
#       7
#     8   8   8   8   8   8   8
#     4   9  18  34  56  78  99 125 158 197 242 292
#     4   8  14  24  40  65  96 126 156 196 244 288
#     4  10  19  31  49  73 101 132 166 205 248 291
#     4   9  17  30  51  76 100 129 164 202 245 293
#     4   8  13  23  41  67  96 123 156 197 240 288
#     4  11  22  35  52  73  99 132 168 203 242 289
#     4  10  20  35  54  75 102 133 163 197 241 292
#
# _framework density 27.437166999999999
#
# number of rings (size 3 to 8) (size 9 to 14) (size 15 to 20)
#    0.000    2.714    0.000    2.143    0.000    3.429 
#    0.000    0.714    0.000    3.857    0.000    6.000 
#    0.000    0.000    0.000    0.000    0.000    0.000 
#
# Total GULP energy -156583.648497 kJ/mol
# GULP energy per Si atom -5592.273161 kJ/mol
# Density = 2.737472 g / cm^3
# Si number density = 27.437167 Si / 1000 Ang^3
#
#
#
# Elastic Constant Matrix: (Units=GPa)
#
#
# Indices 1 2 3 4 5 6 
#
# 1 112.9746 3.5861 33.1755 0.0000 -20.5394 0.0000
# 2 3.5861 122.5902 3.8317 0.0000 -5.2225 0.0000
# 3 33.1755 3.8317 203.7569 0.0000 -21.1178 0.0000
# 4 0.0000 0.0000 0.0000 -5.3238 0.0000 -3.8772
# 5 -20.5394 -5.2225 -21.1178 0.0000 67.4824 0.0000
# 6 0.0000 0.0000 0.0000 -3.8772 0.0000 14.4627
#
#
#
# Elastic Compliance Matrix: (Units=1/GPa)
#
#
# Indices 1 2 3 4 5 6 
#
# 1 0.009702 -0.000135 -0.001315 0.000000 0.002531 0.000000
# 2 -0.000135 0.008188 -0.000073 0.000000 0.000570 0.000000
# 3 -0.001315 -0.000073 0.005252 0.000000 0.001238 0.000000
# 4 0.000000 0.000000 0.000000 -0.157155 0.000000 -0.042130
# 5 0.002531 0.000570 0.001238 0.000000 0.016020 0.000000
# 6 0.000000 0.000000 0.000000 -0.042130 0.000000 0.057849
#
#
# Mechanical properties :
#
#
# Convention : Reuss Voigt Hill
#
# Bulk Modulus (GPa) = 49.76104 57.83426 53.79765
# Shear Modulus (GPa) = -99.20661 41.90614 -28.65023
#
# Velocity S-wave (km/s) = -6.01965 3.91237 -3.23493
# Velocity P-wave (km/s) = 5.48992 6.44464 2.38686
#
# Compressibility (1/GPa) = 0.02009604
#
# Stress axis : x y z
#
# Youngs Moduli (GPa) = 103.07043 122.13354 190.42087
#
# Poissons Ratio (x) = 0.01647 0.25037
# Poissons Ratio (y) = 0.01390 0.01389
# Poissons Ratio (z) = 0.13552 0.00891
#
# Static dielectric constant tensor:
#      x y z
#    x 2.219200 0.000000 -0.026950 
#    y 0.000000 0.998350 0.000000 
#    z -0.026950 0.000000 2.126200 
# 
# From -- ./inp_files/314373.got.cif
#   From: 2010.05.17/outbox.cif.g08.bks.cpg/sg12_158_cif.got.tgz:314373.got - 2010.06.03 13:09:07.
