data_PCOD9179674
_publ_section_title
;
Structure prediction by ZEFSAII (Michael W. Deem and Ramdas Pophale) SiO2 
 PCOD9179674
Probable space group: C 2/M
;
_chemical_formula_sum "Si O2"
_cell_formula_units_Z 48
_cell_length_a 8.374527
_cell_length_b 17.712786
_cell_length_c 21.386782
_cell_angle_alpha 90.000000
_cell_angle_beta 138.536016
_cell_angle_gamma 90.000000
_cell_volume 2100.624445
_symmetry_space_group_name_H-M "C 2/M"
_symmetry_group_IT_number 12
_symmetry_cell_setting 'monoclinic'
loop_
_space_group_symop_operation_xyz
x,y,z
-x,y,-z
-x,-y,-z
x,-y,z
1/2+x,1/2+y,z
1/2-x,1/2+y,-z
1/2-x,1/2-y,-z
1/2+x,1/2-y,z
loop_
_atom_site_type_symbol
_atom_site_label
_atom_site_fract_x
_atom_site_fract_y
_atom_site_fract_z
Si Si1 0.367388 0.913855 0.682030
Si Si2 0.395612 0.089499 0.370566
Si Si3 0.878651 0.359740 0.126841
Si Si4 0.233875 0.083303 0.950846
Si Si5 0.381419 0.590091 0.595428
Si Si6 0.991984 0.775676 0.894281
O O1 0.529498 0.877958 0.674885
O O2 0.515760 0.913291 0.789710
O O3 0.110560 0.878195 0.625172
O O4 0.318578 0.000000 0.646702
O O5 0.643522 0.094954 0.483104
O O6 0.189109 0.120647 0.356419
O O7 0.338244 0.000000 0.345663
O O8 0.766762 0.403822 0.035200
O O9 0.079946 0.300669 0.161219
O O10 0.690727 0.305588 0.107817
O O11 0.137357 0.000000 0.909948
O O12 0.500000 0.089520 0.000000
O O13 0.066092 0.150190 0.877213
O O14 0.431304 0.500000 0.618428
O O15 0.250000 0.750000 0.000000
#
# Coordination Sequence:
#
# PCOD9179674 Si02
#       6
#     8   8   8   8   8   8
#     4  10  19  31  50  84 124 149 180 236 291 332
#     4   8  14  27  48  78 112 156 197 221 272 335
#     4  11  22  37  56  80 110 145 184 230 283 340
#     4  10  20  36  59  84 106 135 178 226 279 334
#     4   8  14  27  49  75 115 157 190 230 268 331
#     4  10  20  38  60  75 101 143 188 227 267 336
#
# _framework density 22.850349000000001
#
# number of rings (size 3 to 8) (size 9 to 14) (size 15 to 20)
#    0.000    2.500    0.000    6.000    0.000    4.000 
#    6.000    0.000    0.000    0.000    0.000    4.667 
#    0.000    0.000    0.000    0.000    0.000    1.333 
#
# Total GULP energy -133757.557645 kJ/mol
# GULP energy per Si atom -5573.231569 kJ/mol
# Density = 2.279834 g / cm^3
# Si number density = 22.850349 Si / 1000 Ang^3
#
#
#
# Elastic Constant Matrix: (Units=GPa)
#
#
# Indices 1 2 3 4 5 6 
#
# 1 142.4798 19.6389 23.6175 -0.0007 -12.6930 -0.0003
# 2 19.6389 55.0829 -7.0045 -0.0005 -1.4932 -0.0002
# 3 23.6175 -7.0045 31.7377 -0.0015 -6.0293 -0.0007
# 4 -0.0007 -0.0005 -0.0015 6.0344 -0.0008 -2.8356
# 5 -12.6930 -1.4932 -6.0293 -0.0008 28.4041 -0.0003
# 6 -0.0003 -0.0002 -0.0007 -2.8356 -0.0003 18.1167
#
#
#
# Elastic Compliance Matrix: (Units=1/GPa)
#
#
# Indices 1 2 3 4 5 6 
#
# 1 0.008959 -0.004039 -0.007125 -0.000001 0.002279 0.000000
# 2 -0.004039 0.020602 0.007727 0.000004 0.000918 0.000001
# 3 -0.007125 0.007727 0.039584 0.000012 0.005625 0.000003
# 4 -0.000001 0.000004 0.000012 0.178872 0.000008 0.027996
# 5 0.002279 0.000918 0.005625 0.000008 0.037467 0.000002
# 6 0.000000 0.000001 0.000003 0.027996 0.000002 0.059580
#
#
# Mechanical properties :
#
#
# Convention : Reuss Voigt Hill
#
# Bulk Modulus (GPa) = 16.05897 33.53381 24.79639
# Shear Modulus (GPa) = 13.41579 23.38095 18.39837
#
# Velocity S-wave (km/s) = 2.42567 3.20225 2.84063
# Velocity P-wave (km/s) = 3.85854 5.32727 4.65125
#
# Compressibility (1/GPa) = 0.06227048
#
# Stress axis : x y z
#
# Youngs Moduli (GPa) = 111.61539 48.53952 25.26249
#
# Poissons Ratio (x) = 0.19603 0.18001
# Poissons Ratio (y) = 0.45077 -0.19519
# Poissons Ratio (z) = 0.79531 -0.37504
#
# Static dielectric constant tensor:
#      x y z
#    x 1.949310 0.000000 -0.013990 
#    y 0.000000 1.906020 0.000000 
#    z -0.013990 0.000000 1.881330 
# 
# From -- ./inp_files/333232.got.cif
#   From: 2010.05.17/outbox.cif.g08.bks.cpg/sg12_167_cif.got.tgz:333232.got - 2010.06.03 13:09:07.
