data_PCOD9179705
_publ_section_title
;
Structure prediction by ZEFSAII (Michael W. Deem and Ramdas Pophale) SiO2 
 PCOD9179705
Probable space group: C 2/M
;
_chemical_formula_sum "Si O2"
_cell_formula_units_Z 64
_cell_length_a 31.538956
_cell_length_b 8.877339
_cell_length_c 26.678600
_cell_angle_alpha 90.000000
_cell_angle_beta 150.178132
_cell_angle_gamma 90.000000
_cell_volume 3714.634493
_symmetry_space_group_name_H-M "C 2/M"
_symmetry_group_IT_number 12
_symmetry_cell_setting 'monoclinic'
loop_
_space_group_symop_operation_xyz
x,y,z
-x,y,-z
-x,-y,-z
x,-y,z
1/2+x,1/2+y,z
1/2-x,1/2+y,-z
1/2-x,1/2-y,-z
1/2+x,1/2-y,z
loop_
_atom_site_type_symbol
_atom_site_label
_atom_site_fract_x
_atom_site_fract_y
_atom_site_fract_z
Si Si1 0.198976 0.181522 0.738991
Si Si2 0.469301 0.319297 0.371920
Si Si3 0.628617 0.180962 0.818044
Si Si4 0.385316 0.678776 0.652476
Si Si5 0.836533 0.818091 0.409291
Si Si6 0.713398 0.178662 0.538600
Si Si7 0.434556 0.180613 0.138081
Si Si8 0.796587 0.819594 0.929109
O O1 0.105574 0.221058 0.665770
O O2 0.201697 0.225505 0.683686
O O3 0.267771 0.258112 0.845593
O O4 0.207250 0.000000 0.750849
O O5 0.468187 0.500000 0.365627
O O6 0.442987 0.247440 0.292124
O O7 0.563305 0.275417 0.485890
O O8 0.613037 0.227783 0.859065
O O9 0.719557 0.226957 0.887984
O O10 0.624039 0.000000 0.811261
O O11 0.399521 0.500000 0.663312
O O12 0.355840 0.742534 0.568447
O O13 0.305444 0.706017 0.607651
O O14 0.469670 0.759623 0.758534
O O15 0.792379 0.744492 0.411834
O O16 0.831971 0.000000 0.408509
O O17 0.697982 0.000000 0.523004
O O18 0.433831 0.000000 0.134314
O O19 0.382936 0.250257 0.039057
O O20 0.801155 0.000000 0.933140
#
# Coordination Sequence:
#
# PCOD9179705 Si02
#       8
#     8   8   8   8   8   8   8   8
#     4   9  18  33  50  70 100 136 173 210 247 289
#     4   9  17  29  47  72 102 135 169 204 243 290
#     4   9  19  32  46  70 103 135 167 203 244 292
#     4  10  21  37  55  76 103 133 164 200 247 300
#     4  10  19  31  51  76 101 133 171 208 248 296
#     4  10  21  36  54  77 105 133 162 201 248 298
#     4  11  21  33  52  76 101 131 168 208 250 296
#     4  10  20  34  50  70 100 136 172 208 247 292
#
# _framework density 17.229151999999999
#
# number of rings (size 3 to 8) (size 9 to 14) (size 15 to 20)
#    0.000    2.250    0.000    3.000    0.000    7.500 
#    0.000    0.000    0.000    4.500    0.000    5.250 
#    0.000    0.000    0.000    0.000    0.000    0.000 
#
# Total GULP energy -178646.831108 kJ/mol
# GULP energy per Si atom -5582.713472 kJ/mol
# Density = 1.718994 g / cm^3
# Si number density = 17.229152 Si / 1000 Ang^3
#
#
#
# Elastic Constant Matrix: (Units=GPa)
#
#
# Indices 1 2 3 4 5 6 
#
# 1 81.1733 36.1269 53.6207 0.0000 -26.5895 0.0000
# 2 36.1269 35.6925 48.1570 0.0000 -7.1081 0.0000
# 3 53.6207 48.1570 133.4060 0.0000 -18.6729 0.0000
# 4 0.0000 0.0000 0.0000 30.0820 0.0000 -2.5354
# 5 -26.5895 -7.1081 -18.6729 0.0000 22.9219 0.0000
# 6 0.0000 0.0000 0.0000 -2.5354 0.0000 25.7305
#
#
#
# Elastic Compliance Matrix: (Units=1/GPa)
#
#
# Indices 1 2 3 4 5 6 
#
# 1 0.037111 -0.033306 0.001903 0.000000 0.034272 0.000000
# 2 -0.033306 0.084529 -0.021293 0.000000 -0.029769 0.000000
# 3 0.001903 -0.021293 0.015578 0.000000 0.008296 0.000000
# 4 0.000000 0.000000 0.000000 0.033521 0.000000 0.003303
# 5 0.034272 -0.029769 0.008296 0.000000 0.080908 0.000000
# 6 0.000000 0.000000 0.000000 0.003303 0.000000 0.039190
#
#
# Mechanical properties :
#
#
# Convention : Reuss Voigt Hill
#
# Bulk Modulus (GPa) = 31.41942 58.45345 44.93644
# Shear Modulus (GPa) = 12.28988 23.23802 17.76395
#
# Velocity S-wave (km/s) = 2.67370 3.67653 3.21447
# Velocity P-wave (km/s) = 5.27327 7.21271 6.31786
#
# Compressibility (1/GPa) = 0.03182745
#
# Stress axis : x y z
#
# Youngs Moduli (GPa) = 26.94604 11.83022 64.19115
#
# Poissons Ratio (x) = 0.39402 -0.12219
# Poissons Ratio (y) = 0.89746 1.36684
# Poissons Ratio (z) = -0.05129 0.25190
#
# Static dielectric constant tensor:
#      x y z
#    x 1.583130 0.000000 0.005360 
#    y 0.000000 1.573360 0.000000 
#    z 0.005360 0.000000 1.565160 
# 
# From -- ./inp_files/243825.got.cif
#   From: 2010.05.17/outbox.cif.g08.bks.cpg/sg12_122_cif.got.tgz:243825.got - 2010.06.03 13:09:07.
