data_PCOD9179898
_publ_section_title
;
Structure prediction by ZEFSAII (Michael W. Deem and Ramdas Pophale) SiO2 
 PCOD9179898
Probable space group: C 2/M
;
_chemical_formula_sum "Si O2"
_cell_formula_units_Z 40
_cell_length_a 19.456028
_cell_length_b 7.740571
_cell_length_c 27.695011
_cell_angle_alpha 90.000000
_cell_angle_beta 151.125591
_cell_angle_gamma 90.000000
_cell_volume 2014.086480
_symmetry_space_group_name_H-M "C 2/M"
_symmetry_group_IT_number 12
_symmetry_cell_setting 'monoclinic'
loop_
_space_group_symop_operation_xyz
x,y,z
-x,y,-z
-x,-y,-z
x,-y,z
1/2+x,1/2+y,z
1/2-x,1/2+y,-z
1/2-x,1/2-y,-z
1/2+x,1/2-y,z
loop_
_atom_site_type_symbol
_atom_site_label
_atom_site_fract_x
_atom_site_fract_y
_atom_site_fract_z
Si Si1 0.100949 0.704158 0.313326
Si Si2 0.943931 0.794741 0.315359
Si Si3 0.923138 0.212080 0.502129
Si Si4 0.840528 0.791426 0.909866
Si Si5 0.319518 0.792220 0.093452
O O1 0.112583 0.500000 0.311073
O O2 0.259640 0.773588 0.404707
O O3 0.037941 0.724234 0.328602
O O4 0.978974 0.774278 0.202360
O O5 0.778952 0.755480 0.202870
O O6 0.995990 0.731388 0.399456
O O7 0.962934 0.000000 0.325928
O O8 0.000000 0.265830 0.500000
O O9 0.923743 0.000000 0.502795
O O10 0.778440 0.729169 0.922786
O O11 0.846178 0.000000 0.914688
O O12 0.000000 0.726758 0.000000
O O13 0.325861 0.000000 0.101163
O O14 0.250000 0.750000 0.000000
#
# Coordination Sequence:
#
# PCOD9179898 Si02
#       5
#     8   8   8   8   8
#     4   9  18  34  53  70  96 136 170 196 239 299
#     4  10  19  31  52  78  99 125 164 208 246 283
#     4   9  18  32  50  74 102 130 163 203 247 294
#     4   9  19  36  54  71  97 134 168 197 240 297
#     4   9  18  31  49  72  96 127 163 199 241 286
#
# _framework density 19.860119999999998
#
# number of rings (size 3 to 8) (size 9 to 14) (size 15 to 20)
#    0.000    2.800    0.000    2.400    0.000    5.200 
#    0.000    3.000    0.000    5.400    0.000    0.000 
#    0.000    0.000    0.000    0.000    0.000    0.000 
#
# Total GULP energy -111551.180938 kJ/mol
# GULP energy per Si atom -5577.559047 kJ/mol
# Density = 1.981492 g / cm^3
# Si number density = 19.860120 Si / 1000 Ang^3
#
#
#
# Elastic Constant Matrix: (Units=GPa)
#
#
# Indices 1 2 3 4 5 6 
#
# 1 105.9171 -7.1333 133.8160 0.0001 -5.1120 -0.0002
# 2 -7.1333 21.8148 0.3324 0.0002 2.2130 -0.0005
# 3 133.8160 0.3324 234.8630 0.0002 -1.1281 -0.0002
# 4 0.0001 0.0002 0.0002 14.9527 0.0001 -5.4198
# 5 -5.1120 2.2130 -1.1281 0.0001 40.7908 0.0000
# 6 -0.0002 -0.0005 -0.0002 -5.4198 0.0000 9.9001
#
#
#
# Elastic Compliance Matrix: (Units=1/GPa)
#
#
# Indices 1 2 3 4 5 6 
#
# 1 0.037211 0.012144 -0.021202 0.000000 0.003418 0.000001
# 2 0.012144 0.050059 -0.006997 0.000000 -0.001387 0.000003
# 3 -0.021202 -0.006997 0.016339 0.000000 -0.001826 -0.000001
# 4 0.000000 0.000000 0.000000 0.083433 0.000000 0.045676
# 5 0.003418 -0.001387 -0.001826 0.000000 0.024968 0.000000
# 6 0.000001 0.000003 -0.000001 0.045676 0.000000 0.126014
#
#
# Mechanical properties :
#
#
# Convention : Reuss Voigt Hill
#
# Bulk Modulus (GPa) = 13.98613 68.51388 41.25001
# Shear Modulus (GPa) = 12.69138 28.83406 20.76272
#
# Velocity S-wave (km/s) = 2.53066 3.81446 3.23685
# Velocity P-wave (km/s) = 3.94926 7.34665 5.89787
#
# Compressibility (1/GPa) = 0.07149938
#
# Stress axis : x y z
#
# Youngs Moduli (GPa) = 26.87350 19.97652 61.20236
#
# Poissons Ratio (x) = -0.24260 1.29764
# Poissons Ratio (y) = -0.32636 0.42822
# Poissons Ratio (z) = 0.56978 0.13977
#
# Static dielectric constant tensor:
#      x y z
#    x 1.667300 0.000000 0.007310 
#    y 0.000000 1.730300 0.000000 
#    z 0.007310 0.000000 1.708340 
# 
# From -- ./inp_files/162367.got.cif
#   From: 2010.05.17/outbox.cif.g08.bks.cpg/sg12_82_cif.got.tgz:162367.got - 2010.06.03 13:09:07.
