data_PCOD9179933
_publ_section_title
;
Structure prediction by ZEFSAII (Michael W. Deem and Ramdas Pophale) SiO2 
 PCOD9179933
Probable space group: C 2/M
;
_chemical_formula_sum "Si O2"
_cell_formula_units_Z 56
_cell_length_a 32.081784
_cell_length_b 8.763859
_cell_length_c 20.531457
_cell_angle_alpha 90.000000
_cell_angle_beta 149.346275
_cell_angle_gamma 90.000000
_cell_volume 2943.165132
_symmetry_space_group_name_H-M "C 2/M"
_symmetry_group_IT_number 12
_symmetry_cell_setting 'monoclinic'
loop_
_space_group_symop_operation_xyz
x,y,z
-x,y,-z
-x,-y,-z
x,-y,z
1/2+x,1/2+y,z
1/2-x,1/2+y,-z
1/2-x,1/2-y,-z
1/2+x,1/2-y,z
loop_
_atom_site_type_symbol
_atom_site_label
_atom_site_fract_x
_atom_site_fract_y
_atom_site_fract_z
Si Si1 0.978878 0.324373 0.041995
Si Si2 0.472713 0.683514 0.657527
Si Si3 0.942445 0.814319 0.363162
Si Si4 0.309223 0.818572 0.481843
Si Si5 0.741113 0.315900 0.914920
Si Si6 0.100270 0.183094 0.941448
Si Si7 0.663725 0.173989 0.334124
O O1 0.949434 0.500000 0.992858
O O2 0.920901 0.238561 0.014416
O O3 0.068184 0.329131 0.193682
O O4 0.000000 0.255318 0.000000
O O5 0.469051 0.500000 0.653415
O O6 0.518512 0.732187 0.653343
O O7 0.380921 0.746755 0.536084
O O8 0.527120 0.730952 0.793229
O O9 0.847012 0.769550 0.233675
O O10 0.000000 0.761490 0.500000
O O11 0.943132 0.000000 0.365869
O O12 0.327074 0.764998 0.580157
O O13 0.215661 0.764806 0.350141
O O14 0.314725 0.000000 0.485686
O O15 0.743456 0.500000 0.921463
O O16 0.750000 0.250000 0.000000
O O17 0.816254 0.254537 0.973377
O O18 0.105510 0.000000 0.946246
O O19 0.694660 0.000000 0.374584
#
# Coordination Sequence:
#
# PCOD9179933 Si02
#       7
#     8   8   8   8   8   8   8
#     4  10  21  39  60  82 111 150 198 245 292 348
#     4  10  19  34  57  83 110 144 189 235 284 343
#     4   9  19  38  61  85 114 150 193 240 289 346
#     4  10  19  31  52  80 107 138 179 226 279 330
#     4  11  21  37  63  93 122 155 200 248 298 354
#     4  11  22  37  59  88 118 151 196 244 297 354
#     4   9  18  33  52  76 105 139 180 227 277 329
#
# _framework density 19.027135000000001
#
# number of rings (size 3 to 8) (size 9 to 14) (size 15 to 20)
#    0.000    2.000    2.857    1.286    0.000    2.000 
#    2.571    0.000    0.000    3.000    0.000    0.000 
#    0.000    0.000    0.000    0.000    0.000    0.000 
#
# Total GULP energy -156096.116499 kJ/mol
# GULP energy per Si atom -5574.861304 kJ/mol
# Density = 1.898383 g / cm^3
# Si number density = 19.027135 Si / 1000 Ang^3
#
#
#
# Elastic Constant Matrix: (Units=GPa)
#
#
# Indices 1 2 3 4 5 6 
#
# 1 145.3948 40.9312 47.0857 0.0000 20.7976 0.0000
# 2 40.9312 41.1503 23.2109 0.0000 12.1611 0.0000
# 3 47.0857 23.2109 66.6059 0.0000 16.8492 0.0000
# 4 0.0000 0.0000 0.0000 20.3721 0.0000 7.4368
# 5 20.7976 12.1611 16.8492 0.0000 39.6701 0.0000
# 6 0.0000 0.0000 0.0000 7.4368 0.0000 29.8335
#
#
#
# Elastic Compliance Matrix: (Units=1/GPa)
#
#
# Indices 1 2 3 4 5 6 
#
# 1 0.010707 -0.007690 -0.004555 0.000000 -0.001321 0.000000
# 2 -0.007690 0.036828 -0.006231 0.000000 -0.004612 0.000000
# 3 -0.004555 -0.006231 0.021643 0.000000 -0.004895 0.000000
# 4 0.000000 0.000000 0.000000 0.054001 0.000000 -0.013461
# 5 -0.001321 -0.004612 -0.004895 0.000000 0.029393 0.000000
# 6 0.000000 0.000000 0.000000 -0.013461 0.000000 0.036875
#
#
# Mechanical properties :
#
#
# Convention : Reuss Voigt Hill
#
# Bulk Modulus (GPa) = 31.03083 52.84519 41.93801
# Shear Modulus (GPa) = 21.08457 27.43668 24.26063
#
# Velocity S-wave (km/s) = 3.33247 3.80146 3.57466
# Velocity P-wave (km/s) = 5.58133 6.86309 6.25513
#
# Compressibility (1/GPa) = 0.03222602
#
# Stress axis : x y z
#
# Youngs Moduli (GPa) = 93.39847 27.15346 46.20410
#
# Poissons Ratio (x) = 0.20882 0.21045
# Poissons Ratio (y) = 0.71825 0.28789
# Poissons Ratio (z) = 0.42542 0.16919
#
# Static dielectric constant tensor:
#      x y z
#    x 1.662140 0.000000 -0.003560 
#    y 0.000000 1.672230 0.000000 
#    z -0.003560 0.000000 1.721640 
# 
# From -- ./inp_files/280863.got.cif
#   From: 2010.05.17/outbox.cif.g08.bks.cpg/sg12_141_cif.got.tgz:280863.got - 2010.06.03 13:09:07.
