data_PCOD9179801
_publ_section_title
;
Structure prediction by ZEFSAII (Michael W. Deem and Ramdas Pophale) SiO2 
 PCOD9179801
Probable space group: C 2/M
;
_chemical_formula_sum "Si O2"
_cell_formula_units_Z 56
_cell_length_a 15.073484
_cell_length_b 14.298820
_cell_length_c 13.873014
_cell_angle_alpha 90.000000
_cell_angle_beta 121.079160
_cell_angle_gamma 90.000000
_cell_volume 2560.879649
_symmetry_space_group_name_H-M "C 2/M"
_symmetry_group_IT_number 12
_symmetry_cell_setting 'monoclinic'
loop_
_space_group_symop_operation_xyz
x,y,z
-x,y,-z
-x,-y,-z
x,-y,z
1/2+x,1/2+y,z
1/2-x,1/2+y,-z
1/2-x,1/2-y,-z
1/2+x,1/2-y,z
loop_
_atom_site_type_symbol
_atom_site_label
_atom_site_fract_x
_atom_site_fract_y
_atom_site_fract_z
Si Si1 0.964092 0.345393 0.080140
Si Si2 0.746984 0.110778 0.959895
Si Si3 0.485629 0.367054 0.098357
Si Si4 0.316298 0.110699 0.286568
Si Si5 0.723989 0.110069 0.524459
Si Si6 0.519671 0.819680 0.322471
Si Si7 0.456215 0.603108 0.665428
O O1 0.839427 0.343823 0.020091
O O2 0.010466 0.241675 0.103538
O O3 0.999356 0.371621 0.208069
O O4 0.000000 0.391550 0.000000
O O5 0.733107 0.146498 0.841804
O O6 0.723366 0.000000 0.947172
O O7 0.864926 0.122460 0.057511
O O8 0.551938 0.405345 0.222841
O O9 0.500000 0.406429 0.000000
O O10 0.277651 0.148070 0.366775
O O11 0.438372 0.131379 0.347659
O O12 0.296693 0.000000 0.275485
O O13 0.638207 0.164567 0.416548
O O14 0.842272 0.112346 0.556324
O O15 0.693431 0.000000 0.508875
O O16 0.494151 0.707445 0.314299
O O17 0.500231 0.500000 0.658918
#
# Coordination Sequence:
#
# PCOD9179801 Si02
#       7
#     8   8   8   8   8   8   8
#     4   9  20  36  52  75 105 137 177 219 255 304
#     4  10  19  31  51  79 110 140 168 207 261 315
#     4  10  19  33  54  77 104 139 176 215 262 312
#     4   9  18  32  53  83 108 126 162 217 270 315
#     4  10  19  33  55  80 104 130 166 217 270 315
#     4  10  19  33  53  77 104 136 170 211 266 314
#     4  10  21  34  49  73 105 139 174 209 248 305
#
# _framework density 21.867486
#
# number of rings (size 3 to 8) (size 9 to 14) (size 15 to 20)
#    0.000    2.286    0.000    3.000    0.000    4.286 
#    0.000    0.000    0.000    1.714    0.000    4.000 
#    0.000    0.000    0.000    0.000    0.000    0.000 
#
# Total GULP energy -155931.790115 kJ/mol
# GULP energy per Si atom -5568.992504 kJ/mol
# Density = 2.181771 g / cm^3
# Si number density = 21.867486 Si / 1000 Ang^3
#
#
#
# Elastic Constant Matrix: (Units=GPa)
#
#
# Indices 1 2 3 4 5 6 
#
# 1 57.1743 -12.7946 22.2268 0.0000 1.6350 0.0000
# 2 -12.7946 59.1703 -1.6691 0.0000 -2.7930 0.0000
# 3 22.2268 -1.6691 64.7638 0.0000 20.9837 0.0000
# 4 0.0000 0.0000 0.0000 21.5109 0.0000 10.5726
# 5 1.6350 -2.7930 20.9837 0.0000 27.8850 0.0000
# 6 0.0000 0.0000 0.0000 10.5726 0.0000 17.0219
#
#
#
# Elastic Compliance Matrix: (Units=1/GPa)
#
#
# Indices 1 2 3 4 5 6 
#
# 1 0.022081 0.004806 -0.009509 0.000000 0.006343 0.000000
# 2 0.004806 0.018028 -0.002220 0.000000 0.003194 0.000000
# 3 -0.009509 -0.002220 0.024516 0.000000 -0.018113 0.000000
# 4 0.000000 0.000000 0.000000 0.066916 0.000000 -0.041563
# 5 0.006343 0.003194 -0.018113 0.000000 0.049440 0.000000
# 6 0.000000 0.000000 0.000000 -0.041563 0.000000 0.084563
#
#
# Mechanical properties :
#
#
# Convention : Reuss Voigt Hill
#
# Bulk Modulus (GPa) = 19.69342 21.84830 20.77086
# Shear Modulus (GPa) = 16.87382 24.83993 20.85687
#
# Velocity S-wave (km/s) = 2.78085 3.37401 3.09169
# Velocity P-wave (km/s) = 4.39730 5.01912 4.71846
#
# Compressibility (1/GPa) = 0.05077838
#
# Stress axis : x y z
#
# Youngs Moduli (GPa) = 45.28717 55.47009 40.78995
#
# Poissons Ratio (x) = -0.26658 0.38789
# Poissons Ratio (y) = -0.21764 0.09054
# Poissons Ratio (z) = 0.43065 0.12313
#
# Static dielectric constant tensor:
#      x y z
#    x 1.824340 0.000000 -0.027300 
#    y 0.000000 1.857010 0.000000 
#    z -0.027300 0.000000 1.833570 
# 
# From -- ./inp_files/225391.got.cif
#   From: 2010.05.17/outbox.cif.g08.bks.cpg/sg12_113_cif.got.tgz:225391.got - 2010.06.03 13:09:07.
