data_PCOD9179625
_publ_section_title
;
Structure prediction by ZEFSAII (Michael W. Deem and Ramdas Pophale) SiO2 
 PCOD9179625
Probable space group: C 2/M
;
_chemical_formula_sum "Si O2"
_cell_formula_units_Z 56
_cell_length_a 25.684373
_cell_length_b 18.329009
_cell_length_c 9.823354
_cell_angle_alpha 90.000000
_cell_angle_beta 46.456347
_cell_angle_gamma 90.000000
_cell_volume 3352.090365
_symmetry_space_group_name_H-M "C 2/M"
_symmetry_group_IT_number 12
_symmetry_cell_setting 'monoclinic'
loop_
_space_group_symop_operation_xyz
x,y,z
-x,y,-z
-x,-y,-z
x,-y,z
1/2+x,1/2+y,z
1/2-x,1/2+y,-z
1/2-x,1/2-y,-z
1/2+x,1/2-y,z
loop_
_atom_site_type_symbol
_atom_site_label
_atom_site_fract_x
_atom_site_fract_y
_atom_site_fract_z
Si Si1 0.346891 0.302043 0.962809
Si Si2 0.434967 0.412485 0.215126
Si Si3 0.009951 0.826945 0.634244
Si Si4 0.227806 0.915586 0.537185
Si Si5 0.723464 0.086455 0.240931
Si Si6 0.255011 0.218201 0.339138
Si Si7 0.366002 0.777098 0.641234
O O1 0.429836 0.320402 0.835371
O O2 0.344369 0.257846 0.825325
O O3 0.293827 0.372206 0.053065
O O4 0.318240 0.252336 0.136912
O O5 0.439266 0.500000 0.219172
O O6 0.445350 0.376465 0.343360
O O7 0.356386 0.394298 0.297829
O O8 0.500000 0.388679 0.000000
O O9 0.053526 0.750836 0.535495
O O10 0.000000 0.858295 0.500000
O O11 0.265549 0.906640 0.615298
O O12 0.260426 0.867150 0.358888
O O13 0.230329 0.000000 0.496789
O O14 0.655809 0.137574 0.322084
O O15 0.719337 0.000000 0.215858
O O16 0.250000 0.250000 0.500000
O O17 0.184635 0.240206 0.381321
#
# Coordination Sequence:
#
# PCOD9179625 Si02
#       7
#     8   8   8   8   8   8   8
#     4  10  21  35  53  79 108 137 178 222 258 316
#     4  10  20  32  49  75 109 141 173 211 256 317
#     4  10  21  35  53  74 107 146 174 216 263 310
#     4  10  19  31  50  78 106 134 171 216 262 311
#     4  10  19  34  56  80 107 140 175 219 268 316
#     4  11  18  32  53  76 100 136 173 218 261 308
#     4  10  20  36  54  77 107 139 182 219 259 314
#
# _framework density 16.705994
#
# number of rings (size 3 to 8) (size 9 to 14) (size 15 to 20)
#    0.000    1.857    4.286    2.571    0.000    2.000 
#    0.000    5.000    0.000    4.714    0.000    2.000 
#    0.000    0.000    0.000    0.000    0.000    0.000 
#
# Total GULP energy -155994.365744 kJ/mol
# GULP energy per Si atom -5571.227348 kJ/mol
# Density = 1.666797 g / cm^3
# Si number density = 16.705994 Si / 1000 Ang^3
#
#
#
# Elastic Constant Matrix: (Units=GPa)
#
#
# Indices 1 2 3 4 5 6 
#
# 1 43.7809 9.5930 7.0654 0.0000 14.1705 0.0000
# 2 9.5930 86.4476 15.7925 0.0000 9.6079 0.0000
# 3 7.0654 15.7925 55.5452 0.0000 4.8516 0.0000
# 4 0.0000 0.0000 0.0000 17.5567 0.0000 7.5081
# 5 14.1705 9.6079 4.8516 0.0000 27.7400 0.0000
# 6 0.0000 0.0000 0.0000 7.5081 0.0000 22.2937
#
#
#
# Elastic Compliance Matrix: (Units=1/GPa)
#
#
# Indices 1 2 3 4 5 6 
#
# 1 0.027775 -0.001224 -0.002014 0.000000 -0.013413 0.000000
# 2 -0.001224 0.012636 -0.003158 0.000000 -0.003199 0.000000
# 3 -0.002014 -0.003158 0.019266 0.000000 -0.001247 0.000000
# 4 0.000000 0.000000 0.000000 0.066542 0.000000 -0.022410
# 5 -0.013413 -0.003199 -0.001247 0.000000 0.044227 0.000000
# 6 0.000000 0.000000 0.000000 -0.022410 0.000000 0.052403
#
#
# Mechanical properties :
#
#
# Convention : Reuss Voigt Hill
#
# Bulk Modulus (GPa) = 21.32752 27.85283 24.59018
# Shear Modulus (GPa) = 19.89907 23.73961 21.81934
#
# Velocity S-wave (km/s) = 3.45502 3.77374 3.61789
# Velocity P-wave (km/s) = 5.35820 5.97467 5.67481
#
# Compressibility (1/GPa) = 0.04688777
#
# Stress axis : x y z
#
# Youngs Moduli (GPa) = 36.00319 79.13982 51.90449
#
# Poissons Ratio (x) = 0.09684 0.10452
# Poissons Ratio (y) = 0.04406 0.16389
# Poissons Ratio (z) = 0.07250 0.24989
#
# Static dielectric constant tensor:
#      x y z
#    x 1.576280 0.000000 -0.008620 
#    y 0.000000 1.603970 0.000000 
#    z -0.008620 0.000000 1.566060 
# 
# From -- ./inp_files/105560.got.cif
#   From: 2010.05.17/outbox.cif.g08.bks.cpg/sg12_53_cif.got.tgz:105560.got - 2010.06.03 13:09:07.
