data_PCOD9179457
_publ_section_title
;
Structure prediction by ZEFSAII (Michael W. Deem and Ramdas Pophale) SiO2 
 PCOD9179457
Probable space group: C 2/M
;
_chemical_formula_sum "Si O2"
_cell_formula_units_Z 64
_cell_length_a 22.408030
_cell_length_b 12.542128
_cell_length_c 13.490644
_cell_angle_alpha 90.000000
_cell_angle_beta 75.898551
_cell_angle_gamma 90.000000
_cell_volume 3677.216984
_symmetry_space_group_name_H-M "C 2/M"
_symmetry_group_IT_number 12
_symmetry_cell_setting 'monoclinic'
loop_
_space_group_symop_operation_xyz
x,y,z
-x,y,-z
-x,-y,-z
x,-y,z
1/2+x,1/2+y,z
1/2-x,1/2+y,-z
1/2-x,1/2-y,-z
1/2+x,1/2-y,z
loop_
_atom_site_type_symbol
_atom_site_label
_atom_site_fract_x
_atom_site_fract_y
_atom_site_fract_z
Si Si1 0.679414 0.263958 0.934520
Si Si2 0.277367 0.879110 0.753925
Si Si3 0.730314 0.627702 0.547874
Si Si4 0.560554 0.376052 0.907359
Si Si5 0.500189 0.627717 0.720611
Si Si6 0.095538 0.123379 0.517916
Si Si7 0.626386 0.706079 0.290394
Si Si8 0.218326 0.117769 0.109929
O O1 0.728292 0.328809 0.848199
O O2 0.612660 0.295059 0.922729
O O3 0.709597 0.147129 0.912701
O O4 0.687173 0.302014 0.044377
O O5 0.250618 0.869739 0.653697
O O6 0.342413 0.820160 0.731743
O O7 0.285314 0.000000 0.777744
O O8 0.748818 0.500000 0.506887
O O9 0.750000 0.750000 0.500000
O O10 0.657419 0.627217 0.558278
O O11 0.583134 0.500000 0.904070
O O12 0.539573 0.354441 0.803537
O O13 0.500000 0.369401 0.000000
O O14 0.489415 0.500000 0.718899
O O15 0.539131 0.661061 0.608353
O O16 0.434461 0.684190 0.748150
O O17 0.108652 0.183140 0.410724
O O18 0.083290 0.000000 0.496612
O O19 0.681649 0.630781 0.227709
O O20 0.209384 0.000000 0.074714
#
# Coordination Sequence:
#
# PCOD9179457 Si02
#       8
#     8   8   8   8   8   8   8   8
#     4  10  20  34  53  77 105 137 167 208 263 310
#     4  10  20  34  54  75 102 137 175 214 259 316
#     4  10  19  34  53  78 104 133 173 215 260 314
#     4  10  19  32  52  75 101 132 168 211 258 305
#     4  10  20  32  49  74 102 135 171 215 261 311
#     4  10  19  31  50  73 103 135 169 211 265 316
#     4  11  20  32  51  74 103 134 173 212 261 307
#     4  10  20  33  52  78 106 133 169 213 255 306
#
# _framework density 17.404465999999999
#
# number of rings (size 3 to 8) (size 9 to 14) (size 15 to 20)
#    0.000    1.875    1.250    4.125    0.000    4.000 
#    0.000    0.000    0.000    3.375    0.000    0.000 
#    0.000    0.000    0.000    0.000    0.000    0.000 
#
# Total GULP energy -178161.184498 kJ/mol
# GULP energy per Si atom -5567.537016 kJ/mol
# Density = 1.736485 g / cm^3
# Si number density = 17.404466 Si / 1000 Ang^3
#
#
#
# Elastic Constant Matrix: (Units=GPa)
#
#
# Indices 1 2 3 4 5 6 
#
# 1 78.4560 -2.7622 7.1030 0.0000 1.8228 0.0000
# 2 -2.7622 39.0682 7.2500 0.0000 -4.2286 0.0000
# 3 7.1030 7.2500 72.3836 0.0000 -6.7857 0.0000
# 4 0.0000 0.0000 0.0000 9.1045 0.0000 4.8449
# 5 1.8228 -4.2286 -6.7857 0.0000 22.9488 0.0000
# 6 0.0000 0.0000 0.0000 4.8449 0.0000 19.8841
#
#
#
# Elastic Compliance Matrix: (Units=1/GPa)
#
#
# Indices 1 2 3 4 5 6 
#
# 1 0.012948 0.001055 -0.001496 0.000000 -0.001276 0.000000
# 2 0.001055 0.026557 -0.002379 0.000000 0.004106 0.000000
# 3 -0.001496 -0.002379 0.014574 0.000000 0.003990 0.000000
# 4 0.000000 0.000000 0.000000 0.126198 0.000000 -0.030749
# 5 -0.001276 0.004106 0.003990 0.000000 0.045613 0.000000
# 6 0.000000 0.000000 0.000000 -0.030749 0.000000 0.057784
#
#
# Mechanical properties :
#
#
# Convention : Reuss Voigt Hill
#
# Bulk Modulus (GPa) = 20.64400 23.67660 22.16030
# Shear Modulus (GPa) = 16.36874 22.27526 19.32200
#
# Velocity S-wave (km/s) = 3.07007 3.58139 3.33554
# Velocity P-wave (km/s) = 4.94512 5.54393 5.25306
#
# Compressibility (1/GPa) = 0.04844021
#
# Stress axis : x y z
#
# Youngs Moduli (GPa) = 77.23063 37.65531 68.61360
#
# Poissons Ratio (x) = -0.03972 0.10264
# Poissons Ratio (y) = -0.08147 0.16320
# Poissons Ratio (z) = 0.11553 0.08956
#
# Static dielectric constant tensor:
#      x y z
#    x 1.588790 0.000000 0.008140 
#    y 0.000000 1.636050 0.000000 
#    z 0.008140 0.000000 1.613960 
# 
# From -- ./inp_files/232428.got.cif
#   From: 2010.05.17/outbox.cif.g08.bks.cpg/sg12_117_cif.got.tgz:232428.got - 2010.06.03 13:09:07.
