data_PCOD9179719
_publ_section_title
;
Structure prediction by ZEFSAII (Michael W. Deem and Ramdas Pophale) SiO2 
 PCOD9179719
Probable space group: C 2/M
;
_chemical_formula_sum "Si O2"
_cell_formula_units_Z 56
_cell_length_a 21.029003
_cell_length_b 7.373418
_cell_length_c 24.893991
_cell_angle_alpha 90.000000
_cell_angle_beta 41.518564
_cell_angle_gamma 90.000000
_cell_volume 2558.619071
_symmetry_space_group_name_H-M "C 2/M"
_symmetry_group_IT_number 12
_symmetry_cell_setting 'monoclinic'
loop_
_space_group_symop_operation_xyz
x,y,z
-x,y,-z
-x,-y,-z
x,-y,z
1/2+x,1/2+y,z
1/2-x,1/2+y,-z
1/2-x,1/2-y,-z
1/2+x,1/2-y,z
loop_
_atom_site_type_symbol
_atom_site_label
_atom_site_fract_x
_atom_site_fract_y
_atom_site_fract_z
Si Si1 0.402118 0.721599 0.532909
Si Si2 0.523653 0.717893 0.255962
Si Si3 0.980912 0.285282 0.160244
Si Si4 0.361983 0.716544 0.438338
Si Si5 0.582748 0.778964 0.989829
Si Si6 0.718999 0.721456 0.188492
Si Si7 0.236225 0.721406 0.718497
O O1 0.500000 0.777829 0.500000
O O2 0.402231 0.500000 0.532273
O O3 0.393962 0.783710 0.476704
O O4 0.310417 0.778967 0.625796
O O5 0.524173 0.500000 0.259435
O O6 0.518125 0.760217 0.196714
O O7 0.430377 0.785277 0.347466
O O8 0.620840 0.782430 0.222972
O O9 0.973463 0.500000 0.155282
O O10 0.872223 0.215068 0.223149
O O11 0.050379 0.216492 0.069257
O O12 0.374191 0.500000 0.431865
O O13 0.250000 0.750000 0.500000
O O14 0.585795 0.000000 0.987633
O O15 0.500000 0.726646 0.000000
O O16 0.686604 0.719377 0.903649
O O17 0.718450 0.500000 0.188671
O O18 0.729009 0.775919 0.244269
O O19 0.235673 0.500000 0.718092
#
# Coordination Sequence:
#
# PCOD9179719 Si02
#       7
#     8   8   8   8   8   8   8
#     4   9  16  26  43  68  95 120 154 203 249 285
#     4  10  21  34  48  71 104 137 163 195 247 303
#     4  10  19  31  51  76  99 126 165 209 245 286
#     4  10  20  34  51  72 100 133 166 201 246 297
#     4   9  15  27  48  76 102 124 160 209 252 287
#     4   9  16  28  47  71 101 132 162 201 249 294
#     4   9  15  25  45  71  93 118 158 206 246 279
#
# _framework density 21.886807999999998
#
# number of rings (size 3 to 8) (size 9 to 14) (size 15 to 20)
#    0.000    2.571    1.429    1.714    0.000    5.714 
#    0.000    0.000    0.000    1.714    0.000    0.000 
#    0.000    0.000    0.000    0.000    0.000    0.000 
#
# Total GULP energy -156484.045330 kJ/mol
# GULP energy per Si atom -5588.715905 kJ/mol
# Density = 2.183699 g / cm^3
# Si number density = 21.886808 Si / 1000 Ang^3
#
#
#
# Elastic Constant Matrix: (Units=GPa)
#
#
# Indices 1 2 3 4 5 6 
#
# 1 96.5416 -10.3498 23.8349 0.0010 17.7955 -0.0008
# 2 -10.3498 75.2017 0.7406 0.0027 0.2643 0.0076
# 3 23.8349 0.7406 136.6355 0.0019 18.8170 -0.0041
# 4 0.0010 0.0027 0.0019 -4.3874 -0.0004 1.4103
# 5 17.7955 0.2643 18.8170 -0.0004 41.6739 0.0020
# 6 -0.0008 0.0076 -0.0041 1.4103 0.0020 6.4754
#
#
#
# Elastic Compliance Matrix: (Units=1/GPa)
#
#
# Indices 1 2 3 4 5 6 
#
# 1 0.011694 0.001639 -0.001450 0.000003 -0.004349 -0.000001
# 2 0.001639 0.013528 -0.000268 0.000004 -0.000665 -0.000016
# 3 -0.001450 -0.000268 0.007984 0.000005 -0.002984 0.000005
# 4 0.000003 0.000004 0.000005 -0.213012 -0.000008 0.046391
# 5 -0.004349 -0.000665 -0.002984 -0.000008 0.027205 -0.000008
# 6 -0.000001 -0.000016 0.000005 0.046391 -0.000008 0.144327
#
#
# Mechanical properties :
#
#
# Convention : Reuss Voigt Hill
#
# Bulk Modulus (GPa) = 30.25841 37.42559 33.84200
# Shear Modulus (GPa) = 1724.67933 28.36256 876.52094
#
# Velocity S-wave (km/s) = 28.10178 3.60373 20.03368
# Velocity P-wave (km/s) = 32.66193 5.86963 23.46545
#
# Compressibility (1/GPa) = 0.03304866
#
# Stress axis : x y z
#
# Youngs Moduli (GPa) = 85.51733 73.92017 125.24919
#
# Poissons Ratio (x) = -0.12115 0.18158
# Poissons Ratio (y) = -0.14016 0.03353
# Poissons Ratio (z) = 0.12398 0.01979
#
# Static dielectric constant tensor:
#      x y z
#    x 1.731900 0.000000 -0.006450 
#    y 0.000000 1.882000 0.000000 
#    z -0.006450 0.000000 1.753080 
# 
# From -- ./inp_files/315265.got.cif
#   From: 2010.05.17/outbox.cif.g08.bks.cpg/sg12_158_cif.got.tgz:315265.got - 2010.06.03 13:09:07.
