data_PCOD9179597
_publ_section_title
;
Structure prediction by ZEFSAII (Michael W. Deem and Ramdas Pophale) SiO2 
 PCOD9179597
Probable space group: C 2/M
;
_chemical_formula_sum "Si O2"
_cell_formula_units_Z 64
_cell_length_a 20.197528
_cell_length_b 9.500550
_cell_length_c 23.346027
_cell_angle_alpha 90.000000
_cell_angle_beta 53.715380
_cell_angle_gamma 90.000000
_cell_volume 3611.120312
_symmetry_space_group_name_H-M "C 2/M"
_symmetry_group_IT_number 12
_symmetry_cell_setting 'monoclinic'
loop_
_space_group_symop_operation_xyz
x,y,z
-x,y,-z
-x,-y,-z
x,-y,z
1/2+x,1/2+y,z
1/2-x,1/2+y,-z
1/2-x,1/2-y,-z
1/2+x,1/2-y,z
loop_
_atom_site_type_symbol
_atom_site_label
_atom_site_fract_x
_atom_site_fract_y
_atom_site_fract_z
Si Si1 0.976395 0.665422 0.273285
Si Si2 0.266102 0.667798 0.873120
Si Si3 0.159348 0.341576 0.488279
Si Si4 0.092020 0.842043 0.427530
Si Si5 0.400331 0.335722 0.712131
Si Si6 0.582257 0.170965 0.991063
Si Si7 0.855670 0.840041 0.396166
Si Si8 0.390794 0.167497 0.890873
O O1 0.962100 0.500000 0.288821
O O2 0.893581 0.753299 0.324286
O O3 0.036004 0.731081 0.290831
O O4 0.026627 0.686036 0.189006
O O5 0.268554 0.500000 0.884648
O O6 0.313989 0.690158 0.788728
O O7 0.170688 0.710805 0.919011
O O8 0.317968 0.748825 0.895754
O O9 0.127837 0.500000 0.511003
O O10 0.139722 0.276008 0.437414
O O11 0.123317 0.241412 0.556008
O O12 0.257480 0.343704 0.444170
O O13 0.097448 0.819397 0.357009
O O14 0.000000 0.838253 0.500000
O O15 0.124618 0.000000 0.423065
O O16 0.420947 0.500000 0.713891
O O17 0.578037 0.000000 0.992391
O O18 0.500000 0.220995 0.000000
O O19 0.590537 0.212195 0.053694
O O20 0.885983 0.000000 0.381849
O O21 0.370925 0.000000 0.900899
#
# Coordination Sequence:
#
# PCOD9179597 Si02
#       8
#     8   8   8   8   8   8   8   8
#     4  10  19  31  50  77 102 129 166 209 255 299
#     4   9  17  31  53  77 100 135 178 218 259 307
#     4  10  21  35  52  74  98 129 170 209 252 303
#     4  10  20  33  49  71 101 135 169 208 255 302
#     4   9  18  32  49  74 102 132 172 212 255 304
#     4   9  17  31  51  76 106 137 172 215 261 311
#     4  10  20  35  53  72  99 133 167 207 253 301
#     4   9  18  32  51  78 105 133 172 214 260 307
#
# _framework density 17.723032
#
# number of rings (size 3 to 8) (size 9 to 14) (size 15 to 20)
#    0.000    2.500    0.000    2.250    0.000    3.750 
#    2.250    0.000    0.000    1.500    0.000    0.000 
#    0.000    0.000    0.000    0.000    0.000    0.000 
#
# Total GULP energy -178353.751410 kJ/mol
# GULP energy per Si atom -5573.554732 kJ/mol
# Density = 1.768269 g / cm^3
# Si number density = 17.723032 Si / 1000 Ang^3
#
#
#
# Elastic Constant Matrix: (Units=GPa)
#
#
# Indices 1 2 3 4 5 6 
#
# 1 66.1735 27.7652 53.4669 0.0001 2.2336 0.0001
# 2 27.7652 74.4668 40.9011 0.0002 3.5350 0.0002
# 3 53.4669 40.9011 117.7481 0.0000 -2.5598 0.0000
# 4 0.0001 0.0002 0.0000 19.0655 0.0000 -0.0945
# 5 2.2336 3.5350 -2.5598 0.0000 20.9848 0.0000
# 6 0.0001 0.0002 0.0000 -0.0945 0.0000 24.5230
#
#
#
# Elastic Compliance Matrix: (Units=1/GPa)
#
#
# Indices 1 2 3 4 5 6 
#
# 1 0.024917 -0.003560 -0.010149 0.000000 -0.003291 0.000000
# 2 -0.003560 0.017365 -0.004483 0.000000 -0.003093 0.000000
# 3 -0.010149 -0.004483 0.014737 0.000000 0.003633 0.000000
# 4 0.000000 0.000000 0.000000 0.052452 0.000000 0.000202
# 5 -0.003291 -0.003093 0.003633 0.000000 0.048968 0.000000
# 6 0.000000 0.000000 0.000000 0.000202 0.000000 0.040779
#
#
# Mechanical properties :
#
#
# Convention : Reuss Voigt Hill
#
# Bulk Modulus (GPa) = 48.45933 55.85053 52.15493
# Shear Modulus (GPa) = 20.62027 21.99835 21.30931
#
# Velocity S-wave (km/s) = 3.41467 3.52693 3.47126
# Velocity P-wave (km/s) = 6.55352 6.94025 6.74965
#
# Compressibility (1/GPa) = 0.02063586
#
# Stress axis : x y z
#
# Youngs Moduli (GPa) = 40.13355 57.58692 67.85446
#
# Poissons Ratio (x) = 0.20499 0.68867
# Poissons Ratio (y) = 0.14286 0.30418
# Poissons Ratio (z) = 0.40733 0.25815
#
# Static dielectric constant tensor:
#      x y z
#    x 1.602480 0.000000 -0.024430 
#    y 0.000000 1.607930 0.000000 
#    z -0.024430 0.000000 1.636680 
# 
# From -- ./inp_files/345930.got.cif
#   From: 2010.05.17/outbox.cif.g08.bks.cpg/sg12_173_cif.got.tgz:345930.got - 2010.06.03 13:09:07.
