data_PCOD9179241
_publ_section_title
;
Structure prediction by ZEFSAII (Michael W. Deem and Ramdas Pophale) SiO2 
 PCOD9179241
Probable space group: C 2/M
;
_chemical_formula_sum "Si O2"
_cell_formula_units_Z 48
_cell_length_a 18.678384
_cell_length_b 7.397596
_cell_length_c 36.348176
_cell_angle_alpha 90.000000
_cell_angle_beta 153.722008
_cell_angle_gamma 90.000000
_cell_volume 2223.557429
_symmetry_space_group_name_H-M "C 2/M"
_symmetry_group_IT_number 12
_symmetry_cell_setting 'monoclinic'
loop_
_space_group_symop_operation_xyz
x,y,z
-x,y,-z
-x,-y,-z
x,-y,z
1/2+x,1/2+y,z
1/2-x,1/2+y,-z
1/2-x,1/2-y,-z
1/2+x,1/2-y,z
loop_
_atom_site_type_symbol
_atom_site_label
_atom_site_fract_x
_atom_site_fract_y
_atom_site_fract_z
Si Si1 0.891827 0.784965 0.246359
Si Si2 0.145223 0.783979 0.915450
Si Si3 0.279141 0.716996 0.755229
Si Si4 0.185874 0.721361 0.081631
Si Si5 0.418717 0.779879 0.406206
Si Si6 0.244293 0.720241 0.592051
O O1 0.795032 0.755773 0.239239
O O2 0.792324 0.717264 0.165342
O O3 0.075365 0.715108 0.332991
O O4 0.905931 0.000000 0.247472
O O5 0.234934 0.717851 0.920144
O O6 0.962429 0.714487 0.835588
O O7 0.133224 0.000000 0.905792
O O8 0.250000 0.750000 0.000000
O O9 0.285693 0.500000 0.754673
O O10 0.163829 0.783561 0.669245
O O11 0.185381 0.500000 0.081412
O O12 0.000000 0.777954 0.000000
O O13 0.313159 0.728981 0.393344
O O14 0.602509 0.721213 0.498927
O O15 0.420424 0.000000 0.406273
O O16 0.244650 0.500000 0.591231
#
# Coordination Sequence:
#
# PCOD9179241 Si02
#       6
#     8   8   8   8   8   8
#     4  10  19  31  49  72  96 124 162 201 232 271
#     4  10  20  34  52  73  96 123 156 193 235 282
#     4  10  20  32  47  70 100 129 154 187 237 289
#     4   9  17  30  49  70  91 118 154 195 234 271
#     4   8  14  27  47  70  96 124 157 198 240 279
#     4   8  14  26  47  72  93 120 162 204 235 270
#
# _framework density 21.587029999999999
#
# number of rings (size 3 to 8) (size 9 to 14) (size 15 to 20)
#    0.000    2.833    0.000    3.000    0.000    6.667 
#    0.000    0.833    0.000    6.000    0.000    2.333 
#    0.000    0.000    0.000    0.000    0.000    0.000 
#
# Total GULP energy -134063.215426 kJ/mol
# GULP energy per Si atom -5585.967309 kJ/mol
# Density = 2.153790 g / cm^3
# Si number density = 21.587030 Si / 1000 Ang^3
#
#
#
# Elastic Constant Matrix: (Units=GPa)
#
#
# Indices 1 2 3 4 5 6 
#
# 1 203.3410 -1.8080 163.0306 -0.0011 4.3482 0.0018
# 2 -1.8080 71.9773 6.5900 -0.0031 3.4095 0.0009
# 3 163.0306 6.5900 250.7180 -0.0005 4.5040 0.0009
# 4 -0.0011 -0.0031 -0.0005 -5.4198 0.0002 1.4752
# 5 4.3482 3.4095 4.5040 0.0002 47.6928 -0.0010
# 6 0.0018 0.0009 0.0009 1.4752 -0.0010 15.8544
#
#
#
# Elastic Compliance Matrix: (Units=1/GPa)
#
#
# Indices 1 2 3 4 5 6 
#
# 1 0.010336 0.000894 -0.006738 -0.000002 -0.000370 -0.000001
# 2 0.000894 0.014048 -0.000933 -0.000008 -0.000998 0.000000
# 3 -0.006738 -0.000933 0.008396 0.000001 -0.000112 0.000000
# 4 -0.000002 -0.000008 0.000001 -0.179950 0.000002 0.016744
# 5 -0.000370 -0.000998 -0.000112 0.000002 0.021083 0.000001
# 6 -0.000001 0.000000 0.000000 0.016744 0.000001 0.061516
#
#
# Mechanical properties :
#
#
# Convention : Reuss Voigt Hill
#
# Bulk Modulus (GPa) = 52.00832 95.74016 73.87424
# Shear Modulus (GPa) = -112.08604 35.50707 -38.28948
#
# Velocity S-wave (km/s) = -7.21357 4.06005 -4.21613
# Velocity P-wave (km/s) = 6.72578 8.15020 3.25497
#
# Compressibility (1/GPa) = 0.01922769
#
# Stress axis : x y z
#
# Youngs Moduli (GPa) = 96.75172 71.18260 119.10003
#
# Poissons Ratio (x) = -0.06364 0.80246
# Poissons Ratio (y) = -0.08650 0.11108
# Poissons Ratio (z) = 0.65189 0.06639
#
# Static dielectric constant tensor:
#      x y z
#    x 1.725540 0.000000 0.011340 
#    y 0.000000 1.861420 0.000000 
#    z 0.011340 0.000000 1.764190 
# 
# From -- ./inp_files/212531.got.cif
#   From: 2010.05.17/outbox.cif.g08.bks.cpg/sg12_107_cif.got.tgz:212531.got - 2010.06.03 13:09:07.
