data_PCOD9179649
_publ_section_title
;
Structure prediction by ZEFSAII (Michael W. Deem and Ramdas Pophale) SiO2 
 PCOD9179649
Probable space group: C 2/M
;
_chemical_formula_sum "Si O2"
_cell_formula_units_Z 64
_cell_length_a 31.812368
_cell_length_b 7.875166
_cell_length_c 25.492350
_cell_angle_alpha 90.000000
_cell_angle_beta 155.599996
_cell_angle_gamma 90.000000
_cell_volume 2638.308071
_symmetry_space_group_name_H-M "C 2/M"
_symmetry_group_IT_number 12
_symmetry_cell_setting 'monoclinic'
loop_
_space_group_symop_operation_xyz
x,y,z
-x,y,-z
-x,-y,-z
x,-y,z
1/2+x,1/2+y,z
1/2-x,1/2+y,-z
1/2-x,1/2-y,-z
1/2+x,1/2-y,z
loop_
_atom_site_type_symbol
_atom_site_label
_atom_site_fract_x
_atom_site_fract_y
_atom_site_fract_z
Si Si1 0.571469 0.803923 0.131707
Si Si2 0.611481 0.702209 0.006670
Si Si3 0.795209 0.303197 0.989632
Si Si4 0.206680 0.305195 0.615037
Si Si5 0.325071 0.795612 0.538407
Si Si6 0.094194 0.797665 0.705468
Si Si7 0.463567 0.203840 0.253114
Si Si8 0.182140 0.702650 0.699889
O O1 0.672070 0.696502 0.236980
O O2 0.601235 0.000000 0.173715
O O3 0.500000 0.794213 0.000000
O O4 0.498057 0.741418 0.094150
O O5 0.622803 0.500000 0.013032
O O6 0.707359 0.762147 0.152119
O O7 0.623956 0.793532 0.965663
O O8 0.772983 0.500000 0.974715
O O9 0.856550 0.227170 0.108564
O O10 0.697110 0.222832 0.849972
O O11 0.169268 0.500000 0.568923
O O12 0.202008 0.230802 0.550958
O O13 0.161831 0.227106 0.618237
O O14 0.250000 0.750000 0.500000
O O15 0.442595 0.739799 0.676264
O O16 0.323367 0.000000 0.534479
O O17 0.015984 0.751273 0.662823
O O18 0.099835 0.736648 0.652154
O O19 0.099609 0.000000 0.708864
O O20 0.457108 0.000000 0.243452
O O21 0.188970 0.500000 0.701849
#
# Coordination Sequence:
#
# PCOD9179649 Si02
#       8
#     8   8   8   8   8   8   8   8
#     4  11  22  33  51  81 116 151 188 234 293 353
#     4  10  19  31  50  79 114 151 188 230 282 347
#     4   9  19  34  54  83 120 153 187 235 287 348
#     4  10  21  39  60  82 112 151 198 244 288 344
#     4  10  24  44  64  86 114 152 199 249 294 341
#     4  10  20  34  57  89 121 150 186 235 291 351
#     4  10  21  39  60  82 114 155 197 240 291 346
#     4   9  18  34  56  81 113 150 184 227 286 347
#
# _framework density 24.257971999999999
#
# number of rings (size 3 to 8) (size 9 to 14) (size 15 to 20)
#    0.000    2.125    1.250    1.500    1.750    3.500 
#    0.000    0.625    0.000    3.750    0.000    0.000 
#    0.000    0.000    0.000    0.000    0.000    0.000 
#
# Total GULP energy -178632.149860 kJ/mol
# GULP energy per Si atom -5582.254683 kJ/mol
# Density = 2.420276 g / cm^3
# Si number density = 24.257972 Si / 1000 Ang^3
#
#
#
# Elastic Constant Matrix: (Units=GPa)
#
#
# Indices 1 2 3 4 5 6 
#
# 1 186.2386 10.0180 30.0735 0.0000 -7.9992 0.0000
# 2 10.0180 49.3641 11.0608 0.0000 -5.2158 0.0000
# 3 30.0735 11.0608 73.1169 0.0000 -17.2651 0.0000
# 4 0.0000 0.0000 0.0000 9.9352 0.0000 1.4585
# 5 -7.9992 -5.2158 -17.2651 0.0000 39.3332 0.0000
# 6 0.0000 0.0000 0.0000 1.4585 0.0000 30.7732
#
#
#
# Elastic Compliance Matrix: (Units=1/GPa)
#
#
# Indices 1 2 3 4 5 6 
#
# 1 0.005773 -0.000657 -0.002252 0.000000 0.000099 0.000000
# 2 -0.000657 0.021128 -0.002562 0.000000 0.001544 0.000000
# 3 -0.002252 -0.002562 0.016514 0.000000 0.006451 0.000000
# 4 0.000000 0.000000 0.000000 0.101357 0.000000 -0.004804
# 5 0.000099 0.001544 0.006451 0.000000 0.028480 0.000000
# 6 0.000000 0.000000 0.000000 -0.004804 0.000000 0.032723
#
#
# Mechanical properties :
#
#
# Convention : Reuss Voigt Hill
#
# Bulk Modulus (GPa) = 30.79339 45.66935 38.23137
# Shear Modulus (GPa) = 21.95488 33.17947 27.56717
#
# Velocity S-wave (km/s) = 3.01168 3.70236 3.37474
# Velocity P-wave (km/s) = 4.98150 6.09459 5.56594
#
# Compressibility (1/GPa) = 0.03247451
#
# Stress axis : x y z
#
# Youngs Moduli (GPa) = 173.23178 47.33068 60.55599
#
# Poissons Ratio (x) = 0.03107 0.13636
# Poissons Ratio (y) = 0.11374 0.15512
# Poissons Ratio (z) = 0.39007 0.12124
#
# Static dielectric constant tensor:
#      x y z
#    x 1.997850 0.000000 -0.000260 
#    y 0.000000 1.880680 0.000000 
#    z -0.000260 0.000000 2.005020 
# 
# From -- ./inp_files/353566.got.cif
#   From: 2010.05.17/outbox.cif.g08.bks.cpg/sg12_177_cif.got.tgz:353566.got - 2010.06.03 13:09:07.
