data_PCOD9179479
_publ_section_title
;
Structure prediction by ZEFSAII (Michael W. Deem and Ramdas Pophale) SiO2 
 PCOD9179479
Probable space group: C 2/M
;
_chemical_formula_sum "Si O2"
_cell_formula_units_Z 52
_cell_length_a 19.002295
_cell_length_b 22.078141
_cell_length_c 14.907601
_cell_angle_alpha 90.000000
_cell_angle_beta 149.538208
_cell_angle_gamma 90.000000
_cell_volume 3170.685419
_symmetry_space_group_name_H-M "C 2/M"
_symmetry_group_IT_number 12
_symmetry_cell_setting 'monoclinic'
loop_
_space_group_symop_operation_xyz
x,y,z
-x,y,-z
-x,-y,-z
x,-y,z
1/2+x,1/2+y,z
1/2-x,1/2+y,-z
1/2-x,1/2-y,-z
1/2+x,1/2-y,z
loop_
_atom_site_type_symbol
_atom_site_label
_atom_site_fract_x
_atom_site_fract_y
_atom_site_fract_z
Si Si1 0.624460 0.321684 0.482082
Si Si2 0.363834 0.071421 0.071897
Si Si3 0.500000 0.764210 0.500000
Si Si4 0.815206 0.327528 0.152397
Si Si5 0.455956 0.258126 0.155805
Si Si6 0.945807 0.351254 0.843411
Si Si7 0.059484 0.069132 0.666467
O O1 0.581750 0.279299 0.519866
O O2 0.589070 0.284709 0.353121
O O3 0.780747 0.344596 0.660115
O O4 0.522327 0.379272 0.371094
O O5 0.337710 0.105758 0.137287
O O6 0.491709 0.102600 0.160977
O O7 0.383542 0.000000 0.104003
O O8 0.223833 0.081372 0.858154
O O9 0.397231 0.806608 0.330376
O O10 0.878637 0.284949 0.143270
O O11 0.654725 0.309984 0.988044
O O12 0.493780 0.214918 0.115477
O O13 0.000000 0.370126 0.000000
O O14 0.000000 0.072508 0.500000
O O15 0.036156 0.000000 0.672406
#
# Coordination Sequence:
#
# PCOD9179479 Si02
#       7
#     8   8   4   8   8   8   8
#     4  11  19  32  51  75 106 134 174 207 255 306
#     4  10  21  37  53  72 102 140 175 212 252 299
#     4  10  20  30  56  80 104 130 170 212 258 310
#     4   9  17  33  53  76 100 133 171 211 256 298
#     4   9  18  31  50  72 103 136 167 209 253 306
#     4  11  22  31  48  75 108 136 166 207 263 307
#     4  10  19  31  50  73  99 135 176 208 243 297
#
# _framework density 16.40024
#
# number of rings (size 3 to 8) (size 9 to 14) (size 15 to 20)
#    0.000    2.000    2.308    2.308    2.154    0.923 
#    0.000    0.385    0.000    0.000    0.000    0.000 
#    0.000    3.692    0.000    0.000    0.000    0.000 
#
# Total GULP energy -144944.098046 kJ/mol
# GULP energy per Si atom -5574.773002 kJ/mol
# Density = 1.636291 g / cm^3
# Si number density = 16.400240 Si / 1000 Ang^3
#
#
#
# Elastic Constant Matrix: (Units=GPa)
#
#
# Indices 1 2 3 4 5 6 
#
# 1 41.0640 31.9905 27.6367 0.0000 3.3232 0.0000
# 2 31.9905 92.2380 36.7036 0.0000 6.7696 0.0000
# 3 27.6367 36.7036 98.2287 0.0000 11.6885 0.0000
# 4 0.0000 0.0000 0.0000 9.6706 0.0000 -3.1025
# 5 3.3232 6.7696 11.6885 0.0000 23.4973 0.0000
# 6 0.0000 0.0000 0.0000 -3.1025 0.0000 13.1208
#
#
#
# Elastic Compliance Matrix: (Units=1/GPa)
#
#
# Indices 1 2 3 4 5 6 
#
# 1 0.036639 -0.010140 -0.006644 0.000000 0.001044 0.000000
# 2 -0.010140 0.015584 -0.002770 0.000000 -0.001677 0.000000
# 3 -0.006644 -0.002770 0.013688 0.000000 -0.005071 0.000000
# 4 0.000000 0.000000 0.000000 0.111895 0.000000 0.026458
# 5 0.001044 -0.001677 -0.005071 0.000000 0.045416 0.000000
# 6 0.000000 0.000000 0.000000 0.026458 0.000000 0.082471
#
#
# Mechanical properties :
#
#
# Convention : Reuss Voigt Hill
#
# Bulk Modulus (GPa) = 37.31050 47.13249 42.22149
# Shear Modulus (GPa) = 14.13486 18.27107 16.20297
#
# Velocity S-wave (km/s) = 2.93895 3.34139 3.14661
# Velocity P-wave (km/s) = 5.85798 6.60968 6.24515
#
# Compressibility (1/GPa) = 0.02680211
#
# Stress axis : x y z
#
# Youngs Moduli (GPa) = 27.29359 64.16862 73.05579
#
# Poissons Ratio (x) = 0.65068 0.48536
# Poissons Ratio (y) = 0.27676 0.20240
# Poissons Ratio (z) = 0.18133 0.17778
#
# Static dielectric constant tensor:
#      x y z
#    x 1.538170 0.000000 0.001610 
#    y 0.000000 1.549440 0.000000 
#    z 0.001610 0.000000 1.557420 
# 
# From -- ./inp_files/113550.got.cif
#   From: 2010.05.17/outbox.cif.g08.bks.cpg/sg12_57_cif.got.tgz:113550.got - 2010.06.03 13:09:07.
