data_PCOD9179780
_publ_section_title
;
Structure prediction by ZEFSAII (Michael W. Deem and Ramdas Pophale) SiO2 
 PCOD9179780
Probable space group: C 2/M
;
_chemical_formula_sum "Si O2"
_cell_formula_units_Z 64
_cell_length_a 26.240432
_cell_length_b 8.975027
_cell_length_c 14.773511
_cell_angle_alpha 90.000000
_cell_angle_beta 74.881104
_cell_angle_gamma 90.000000
_cell_volume 3358.858895
_symmetry_space_group_name_H-M "C 2/M"
_symmetry_group_IT_number 12
_symmetry_cell_setting 'monoclinic'
loop_
_space_group_symop_operation_xyz
x,y,z
-x,y,-z
-x,-y,-z
x,-y,z
1/2+x,1/2+y,z
1/2-x,1/2+y,-z
1/2-x,1/2-y,-z
1/2+x,1/2-y,z
loop_
_atom_site_type_symbol
_atom_site_label
_atom_site_fract_x
_atom_site_fract_y
_atom_site_fract_z
Si Si1 0.802236 0.824128 0.522370
Si Si2 0.892722 0.324064 0.367674
Si Si3 0.163503 0.831418 0.768265
Si Si4 0.990209 0.825806 0.233669
Si Si5 0.068772 0.832487 0.932876
Si Si6 0.414966 0.824854 0.899001
Si Si7 0.230995 0.829674 0.259499
Si Si8 0.698224 0.325046 0.069590
O O1 0.750000 0.750000 0.500000
O O2 0.855720 0.750336 0.460551
O O3 0.799712 0.809357 0.632193
O O4 0.801110 0.000000 0.500881
O O5 0.897085 0.500000 0.378638
O O6 0.859772 0.284960 0.292156
O O7 0.950080 0.251973 0.322349
O O8 0.129441 0.822502 0.874432
O O9 0.222874 0.790527 0.759801
O O10 0.156723 0.000000 0.735446
O O11 0.961788 0.816292 0.147788
O O12 0.046696 0.749166 0.193304
O O13 0.995649 0.000000 0.252516
O O14 0.058929 0.000000 0.973523
O O15 0.059529 0.714756 0.015167
O O16 0.356803 0.754057 0.928236
O O17 0.412086 0.000000 0.886798
O O18 0.202344 0.815799 0.177088
O O19 0.252813 0.000000 0.252243
O O20 0.696852 0.500000 0.045094
O O21 0.750000 0.250000 0.000000
#
# Coordination Sequence:
#
# PCOD9179780 Si02
#       8
#     8   8   8   8   8   8   8   8
#     4  11  21  35  56  86 119 154 191 236 292 350
#     4  11  21  34  53  82 118 152 185 228 282 346
#     4  10  19  31  51  78 112 151 189 230 281 340
#     4  10  21  38  59  82 111 150 192 237 288 345
#     4   9  19  34  53  80 112 149 191 236 286 341
#     4  12  24  37  56  83 113 149 191 239 290 345
#     4  10  22  37  56  81 113 151 196 241 287 341
#     4  11  24  43  63  85 114 154 198 244 289 337
#
# _framework density 19.054089000000001
#
# number of rings (size 3 to 8) (size 9 to 14) (size 15 to 20)
#    0.000    1.500    1.250    5.625    0.000    8.000 
#    0.000    0.000    0.000    0.750    0.000    5.250 
#    0.000    0.000    0.000    0.000    0.000    0.000 
#
# Total GULP energy -178641.561354 kJ/mol
# GULP energy per Si atom -5582.548792 kJ/mol
# Density = 1.901072 g / cm^3
# Si number density = 19.054089 Si / 1000 Ang^3
#
#
#
# Elastic Constant Matrix: (Units=GPa)
#
#
# Indices 1 2 3 4 5 6 
#
# 1 77.3560 55.5987 44.4580 0.0000 -34.9502 0.0000
# 2 55.5987 152.8935 63.6308 0.0000 -31.3174 0.0000
# 3 44.4580 63.6308 104.2822 0.0000 -23.3229 0.0000
# 4 0.0000 0.0000 0.0000 25.3731 0.0000 -9.9146
# 5 -34.9502 -31.3174 -23.3229 0.0000 34.9365 0.0000
# 6 0.0000 0.0000 0.0000 -9.9146 0.0000 24.0290
#
#
#
# Elastic Compliance Matrix: (Units=1/GPa)
#
#
# Indices 1 2 3 4 5 6 
#
# 1 0.028204 -0.003814 -0.004880 0.000000 0.021539 0.000000
# 2 -0.003814 0.010108 -0.003960 0.000000 0.002603 0.000000
# 3 -0.004880 -0.003960 0.014342 0.000000 0.001142 0.000000
# 4 0.000000 0.000000 0.000000 0.046987 0.000000 0.019387
# 5 0.021539 0.002603 0.001142 0.000000 0.053267 0.000000
# 6 0.000000 0.000000 0.000000 0.019387 0.000000 0.049616
#
#
# Mechanical properties :
#
#
# Convention : Reuss Voigt Hill
#
# Bulk Modulus (GPa) = 36.56666 73.54521 55.05594
# Shear Modulus (GPa) = 21.10171 28.25732 24.67952
#
# Velocity S-wave (km/s) = 3.33147 3.85516 3.60284
# Velocity P-wave (km/s) = 5.83360 7.64842 6.80181
#
# Compressibility (1/GPa) = 0.02734732
#
# Stress axis : x y z
#
# Youngs Moduli (GPa) = 35.45542 98.92700 69.72667
#
# Poissons Ratio (x) = 0.37726 0.34027
# Poissons Ratio (y) = 0.13521 0.27612
# Poissons Ratio (z) = 0.17302 0.39176
#
# Static dielectric constant tensor:
#      x y z
#    x 1.671940 0.000000 -0.008840 
#    y 0.000000 1.645750 0.000000 
#    z -0.008840 0.000000 1.688750 
# 
# From -- ./inp_files/243789.got.cif
#   From: 2010.05.17/outbox.cif.g08.bks.cpg/sg12_122_cif.got.tgz:243789.got - 2010.06.03 13:09:07.
