data_PCOD9179593
_publ_section_title
;
Structure prediction by ZEFSAII (Michael W. Deem and Ramdas Pophale) SiO2 
 PCOD9179593
Probable space group: C 2/M
;
_chemical_formula_sum "Si O2"
_cell_formula_units_Z 56
_cell_length_a 20.477989
_cell_length_b 7.865150
_cell_length_c 17.705687
_cell_angle_alpha 90.000000
_cell_angle_beta 67.073384
_cell_angle_gamma 90.000000
_cell_volume 2626.448384
_symmetry_space_group_name_H-M "C 2/M"
_symmetry_group_IT_number 12
_symmetry_cell_setting 'monoclinic'
loop_
_space_group_symop_operation_xyz
x,y,z
-x,y,-z
-x,-y,-z
x,-y,z
1/2+x,1/2+y,z
1/2-x,1/2+y,-z
1/2-x,1/2-y,-z
1/2+x,1/2-y,z
loop_
_atom_site_type_symbol
_atom_site_label
_atom_site_fract_x
_atom_site_fract_y
_atom_site_fract_z
Si Si1 0.107888 0.800428 0.256756
Si Si2 0.345541 0.205449 0.090272
Si Si3 0.951023 0.796089 0.303263
Si Si4 0.244829 0.209322 0.272458
Si Si5 0.021680 0.202588 0.876390
Si Si6 0.636907 0.195354 0.077790
Si Si7 0.700034 0.799277 0.591378
O O1 0.165369 0.731717 0.289063
O O2 0.139490 0.785125 0.157525
O O3 0.028264 0.727518 0.292700
O O4 0.100744 0.000000 0.276173
O O5 0.293814 0.263726 0.180210
O O6 0.424170 0.257850 0.081432
O O7 0.343354 0.000000 0.087928
O O8 0.326635 0.267504 0.014394
O O9 0.941254 0.746119 0.219728
O O10 0.882347 0.746787 0.381060
O O11 0.955259 0.000000 0.302040
O O12 0.272809 0.271905 0.340374
O O13 0.245637 0.000000 0.271861
O O14 0.946432 0.295055 0.908091
O O15 0.007477 0.000000 0.881550
O O16 0.657469 0.000000 0.079997
O O17 0.750000 0.750000 0.500000
O O18 0.703623 0.000000 0.596883
#
# Coordination Sequence:
#
# PCOD9179593 Si02
#       7
#     8   8   8   8   8   8   8
#     4   9  19  37  58  79 110 149 190 228 264 321
#     4  10  19  32  50  75 109 147 190 233 273 324
#     4   9  18  34  56  82 109 140 179 225 271 321
#     4   9  19  37  59  81 107 147 187 223 275 329
#     4  10  19  31  50  76 108 145 189 235 275 319
#     4  10  20  31  47  75 111 149 188 231 276 320
#     4  11  22  38  63  88 111 139 174 221 275 332
#
# _framework density 21.321569
#
# number of rings (size 3 to 8) (size 9 to 14) (size 15 to 20)
#    0.000    2.286    1.429    2.571    0.000    5.714 
#    0.000    2.857    0.000    4.286    0.000    0.000 
#    0.000    0.000    0.000    0.000    0.000    0.000 
#
# Total GULP energy -156302.720018 kJ/mol
# GULP energy per Si atom -5582.240001 kJ/mol
# Density = 2.127304 g / cm^3
# Si number density = 21.321569 Si / 1000 Ang^3
#
#
#
# Elastic Constant Matrix: (Units=GPa)
#
#
# Indices 1 2 3 4 5 6 
#
# 1 99.1044 0.0727 36.9175 0.0000 3.6909 0.0000
# 2 0.0727 24.8578 -2.0019 -0.0002 -2.7530 -0.0003
# 3 36.9175 -2.0019 109.8416 0.0000 -17.5625 0.0000
# 4 0.0000 -0.0002 0.0000 22.8229 0.0000 -0.4119
# 5 3.6909 -2.7530 -17.5625 0.0000 11.4137 0.0000
# 6 0.0000 -0.0003 0.0000 -0.4119 0.0000 11.9117
#
#
#
# Elastic Compliance Matrix: (Units=1/GPa)
#
#
# Indices 1 2 3 4 5 6 
#
# 1 0.013286 -0.002336 -0.007009 0.000000 -0.015645 0.000000
# 2 -0.002336 0.042562 0.004407 0.000000 0.017803 0.000001
# 3 -0.007009 0.004407 0.016012 0.000000 0.027967 0.000000
# 4 0.000000 0.000000 0.000000 0.043843 0.000000 0.001516
# 5 -0.015645 0.017803 0.027967 0.000000 0.140001 0.000000
# 6 0.000000 0.000001 0.000000 0.001516 0.000000 0.084003
#
#
# Mechanical properties :
#
#
# Convention : Reuss Voigt Hill
#
# Bulk Modulus (GPa) = 16.13323 33.75337 24.94330
# Shear Modulus (GPa) = 13.50458 22.48405 17.99431
#
# Velocity S-wave (km/s) = 2.51943 3.25086 2.90823
# Velocity P-wave (km/s) = 4.00580 5.47319 4.79595
#
# Compressibility (1/GPa) = 0.06198388
#
# Stress axis : x y z
#
# Youngs Moduli (GPa) = 75.26806 23.49495 62.45365
#
# Poissons Ratio (x) = 0.05489 0.43776
# Poissons Ratio (y) = 0.17583 -0.27526
# Poissons Ratio (z) = 0.52759 -0.10355
#
# Static dielectric constant tensor:
#      x y z
#    x 1.786010 0.000000 0.009870 
#    y 0.000000 1.773210 0.000000 
#    z 0.009870 0.000000 1.687330 
# 
# From -- ./inp_files/280976.got.cif
#   From: 2010.05.17/outbox.cif.g08.bks.cpg/sg12_141_cif.got.tgz:280976.got - 2010.06.03 13:09:07.
