data_PCOD9179688
_publ_section_title
;
Structure prediction by ZEFSAII (Michael W. Deem and Ramdas Pophale) SiO2 
 PCOD9179688
Probable space group: C 2/M
;
_chemical_formula_sum "Si O2"
_cell_formula_units_Z 64
_cell_length_a 31.746883
_cell_length_b 8.904968
_cell_length_c 14.572851
_cell_angle_alpha 90.000000
_cell_angle_beta 89.253813
_cell_angle_gamma 90.000000
_cell_volume 4119.468135
_symmetry_space_group_name_H-M "C 2/M"
_symmetry_group_IT_number 12
_symmetry_cell_setting 'monoclinic'
loop_
_space_group_symop_operation_xyz
x,y,z
-x,y,-z
-x,-y,-z
x,-y,z
1/2+x,1/2+y,z
1/2-x,1/2+y,-z
1/2-x,1/2-y,-z
1/2+x,1/2-y,z
loop_
_atom_site_type_symbol
_atom_site_label
_atom_site_fract_x
_atom_site_fract_y
_atom_site_fract_z
Si Si1 0.794131 0.679471 0.601320
Si Si2 0.407067 0.819013 0.096919
Si Si3 0.662374 0.819509 0.213323
Si Si4 0.499546 0.827908 0.888668
Si Si5 0.702058 0.178489 0.607935
Si Si6 0.830610 0.179994 0.212075
Si Si7 0.246880 0.319551 0.100544
Si Si8 0.586893 0.678019 0.105654
O O1 0.785142 0.500000 0.607780
O O2 0.826315 0.715973 0.681628
O O3 0.750210 0.765249 0.617096
O O4 0.809579 0.710935 0.497751
O O5 0.453133 0.778496 0.136775
O O6 0.369562 0.754576 0.158723
O O7 0.405286 0.000000 0.091435
O O8 0.404565 0.753416 0.994023
O O9 0.703612 0.776744 0.152502
O O10 0.621842 0.737999 0.174505
O O11 0.656889 0.000000 0.205490
O O12 0.459980 0.727727 0.862596
O O13 0.492768 0.000000 0.858625
O O14 0.500000 0.829292 0.000000
O O15 0.674380 0.261946 0.684281
O O16 0.699944 0.000000 0.622343
O O17 0.787438 0.222760 0.160080
O O18 0.834288 0.000000 0.209869
O O19 0.246948 0.500000 0.092949
O O20 0.250000 0.250000 0.000000
O O21 0.589191 0.500000 0.095800
#
# Coordination Sequence:
#
# PCOD9179688 Si02
#       8
#     8   8   8   8   8   8   8   8
#     4   9  18  34  52  70  93 124 165 207 246 287
#     4  10  20  34  51  72  97 129 168 202 239 287
#     4  10  19  34  50  65  93 133 168 200 239 283
#     4   8  16  32  51  69  93 126 162 200 241 286
#     4  10  19  31  51  74  95 123 160 205 250 291
#     4  11  21  34  49  70  99 130 164 200 242 290
#     4  10  21  33  45  62  91 130 166 197 229 275
#     4  11  21  31  47  74 102 128 163 202 243 290
#
# _framework density 15.535985999999999
#
# number of rings (size 3 to 8) (size 9 to 14) (size 15 to 20)
#    0.000    2.125    1.250    3.750    0.000    7.250 
#    0.000    0.000    0.000    0.000    0.000    0.875 
#    0.000    7.000    0.000    0.000    0.000    0.000 
#
# Total GULP energy -178519.066486 kJ/mol
# GULP energy per Si atom -5578.720828 kJ/mol
# Density = 1.550063 g / cm^3
# Si number density = 15.535986 Si / 1000 Ang^3
#
#
#
# Elastic Constant Matrix: (Units=GPa)
#
#
# Indices 1 2 3 4 5 6 
#
# 1 116.1715 54.0811 55.4529 0.0000 15.6942 0.0000
# 2 54.0811 58.1188 45.0760 0.0000 7.1852 0.0000
# 3 55.4529 45.0760 95.8273 0.0000 12.7824 0.0000
# 4 0.0000 0.0000 0.0000 22.4957 0.0000 -2.7930
# 5 15.6942 7.1852 12.7824 0.0000 8.9719 0.0000
# 6 0.0000 0.0000 0.0000 -2.7930 0.0000 24.2998
#
#
#
# Elastic Compliance Matrix: (Units=1/GPa)
#
#
# Indices 1 2 3 4 5 6 
#
# 1 0.018097 -0.013136 -0.001820 0.000000 -0.018543 0.000000
# 2 -0.013136 0.036763 -0.010901 0.000000 0.009067 0.000000
# 3 -0.001820 -0.010901 0.018553 0.000000 -0.014519 0.000000
# 4 0.000000 0.000000 0.000000 0.045097 0.000000 0.005183
# 5 -0.018543 0.009067 -0.014519 0.000000 0.157321 0.000000
# 6 0.000000 0.000000 0.000000 0.005183 0.000000 0.041748
#
#
# Mechanical properties :
#
#
# Convention : Reuss Voigt Hill
#
# Bulk Modulus (GPa) = 46.08328 64.37084 55.22706
# Shear Modulus (GPa) = 13.27936 18.85398 16.06667
#
# Velocity S-wave (km/s) = 2.92678 3.48741 3.21932
# Velocity P-wave (km/s) = 6.41468 7.59864 7.03162
#
# Compressibility (1/GPa) = 0.02169984
#
# Stress axis : x y z
#
# Youngs Moduli (GPa) = 55.25868 27.20131 53.89981
#
# Poissons Ratio (x) = 0.35731 0.09809
# Poissons Ratio (y) = 0.72586 0.58756
# Poissons Ratio (z) = 0.10056 0.29652
#
# Static dielectric constant tensor:
#      x y z
#    x 1.513160 0.000000 0.001290 
#    y 0.000000 1.518510 0.000000 
#    z 0.001290 0.000000 1.506660 
# 
# From -- ./inp_files/248382.got.cif
#   From: 2010.05.17/outbox.cif.g08.bks.cpg/sg12_125_cif.got.tgz:248382.got - 2010.06.03 13:09:07.
