data_PCOD9179301
_publ_section_title
;
Structure prediction by ZEFSAII (Michael W. Deem and Ramdas Pophale) SiO2 
 PCOD9179301
Probable space group: C 2/M
;
_chemical_formula_sum "Si O2"
_cell_formula_units_Z 40
_cell_length_a 9.253090
_cell_length_b 33.061502
_cell_length_c 5.572340
_cell_angle_alpha 90.000000
_cell_angle_beta 84.114511
_cell_angle_gamma 90.000000
_cell_volume 1695.710362
_symmetry_space_group_name_H-M "C 2/M"
_symmetry_group_IT_number 12
_symmetry_cell_setting 'monoclinic'
loop_
_space_group_symop_operation_xyz
x,y,z
-x,y,-z
-x,-y,-z
x,-y,z
1/2+x,1/2+y,z
1/2-x,1/2+y,-z
1/2-x,1/2-y,-z
1/2+x,1/2-y,z
loop_
_atom_site_type_symbol
_atom_site_label
_atom_site_fract_x
_atom_site_fract_y
_atom_site_fract_z
Si Si1 0.006897 0.604032 0.748973
Si Si2 0.333695 0.667941 0.023894
Si Si3 0.283929 0.453838 0.643177
Si Si4 0.321785 0.706338 0.521293
Si Si5 0.306527 0.426247 0.134926
O O1 0.149511 0.576807 0.703838
O O2 0.000000 0.627281 0.500000
O O3 0.868869 0.573894 0.794220
O O4 0.000000 0.627968 0.000000
O O5 0.272808 0.682974 0.288360
O O6 0.336915 0.619660 0.049875
O O7 0.500000 0.682522 0.000000
O O8 0.275295 0.684101 0.778376
O O9 0.240881 0.500000 0.601222
O O10 0.362824 0.438096 0.388682
O O11 0.352031 0.452269 0.898029
O O12 0.500000 0.708207 0.500000
O O13 0.250000 0.750000 0.500000
#
# Coordination Sequence:
#
# PCOD9179301 Si02
#       5
#     8   8   8   8   8
#     4   8  16  27  42  66  97 129 168 217 268 328
#     4  10  21  38  61  82 111 151 189 231 280 340
#     4  10  19  31  49  73 104 142 183 232 289 342
#     4  10  21  40  64  92 120 151 189 228 280 343
#     4  10  19  32  50  74 102 139 184 225 270 330
#
# _framework density 23.588933999999998
#
# number of rings (size 3 to 8) (size 9 to 14) (size 15 to 20)
#    0.000    2.400    0.000    2.400    0.000    7.200 
#    0.000    9.000    0.000    3.600    0.000    0.000 
#    0.000    0.000    0.000    0.000    0.000    0.000 
#
# Total GULP energy -111461.121855 kJ/mol
# GULP energy per Si atom -5573.056093 kJ/mol
# Density = 2.353524 g / cm^3
# Si number density = 23.588934 Si / 1000 Ang^3
#
#
#
# Elastic Constant Matrix: (Units=GPa)
#
#
# Indices 1 2 3 4 5 6 
#
# 1 65.4953 -4.3125 48.3510 0.0000 -3.5250 0.0000
# 2 -4.3125 101.9504 67.0466 0.0000 8.6994 0.0000
# 3 48.3510 67.0466 301.0640 0.0000 36.0245 0.0000
# 4 0.0000 0.0000 0.0000 33.8195 0.0000 23.7144
# 5 -3.5250 8.6994 36.0245 0.0000 35.2450 0.0000
# 6 0.0000 0.0000 0.0000 23.7144 0.0000 -37.1960
#
#
#
# Elastic Compliance Matrix: (Units=1/GPa)
#
#
# Indices 1 2 3 4 5 6 
#
# 1 0.019090 0.003264 -0.004472 0.000000 0.005674 0.000000
# 2 0.003264 0.012052 -0.003294 0.000000 0.000719 0.000000
# 3 -0.004472 -0.003294 0.005389 0.000000 -0.005142 0.000000
# 4 0.000000 0.000000 0.000000 0.020434 0.000000 0.013028
# 5 0.005674 0.000719 -0.005142 0.000000 0.034018 0.000000
# 6 0.000000 0.000000 0.000000 0.013028 0.000000 -0.018579
#
#
# Mechanical properties :
#
#
# Convention : Reuss Voigt Hill
#
# Bulk Modulus (GPa) = 36.32852 76.74222 56.53537
# Shear Modulus (GPa) = 55.19833 30.20201 42.70017
#
# Velocity S-wave (km/s) = 4.84261 3.58207 4.25923
# Velocity P-wave (km/s) = 6.83388 7.05068 6.94313
#
# Compressibility (1/GPa) = 0.02752659
#
# Stress axis : x y z
#
# Youngs Moduli (GPa) = 52.38420 82.97532 185.57809
#
# Poissons Ratio (x) = -0.27084 0.82984
# Poissons Ratio (y) = -0.17099 0.61132
# Poissons Ratio (z) = 0.23425 0.27333
#
# Static dielectric constant tensor:
#      x y z
#    x 1.998860 0.000000 0.089600 
#    y 0.000000 1.837010 0.000000 
#    z 0.089600 0.000000 1.988540 
# 
# From -- ./inp_files/7721.got.cif
#   From: 2010.05.17/outbox.cif.g08.bks.cpg/sg12_4_cif.got.tgz:7721.got - 2010.06.03 13:09:07.
