data_PCOD9179832
_publ_section_title
;
Structure prediction by ZEFSAII (Michael W. Deem and Ramdas Pophale) SiO2 
 PCOD9179832
Probable space group: C 2/M
;
_chemical_formula_sum "Si O2"
_cell_formula_units_Z 56
_cell_length_a 15.517036
_cell_length_b 13.786100
_cell_length_c 14.426001
_cell_angle_alpha 90.000000
_cell_angle_beta 127.240966
_cell_angle_gamma 90.000000
_cell_volume 2456.757964
_symmetry_space_group_name_H-M "C 2/M"
_symmetry_group_IT_number 12
_symmetry_cell_setting 'monoclinic'
loop_
_space_group_symop_operation_xyz
x,y,z
-x,y,-z
-x,-y,-z
x,-y,z
1/2+x,1/2+y,z
1/2-x,1/2+y,-z
1/2-x,1/2-y,-z
1/2+x,1/2-y,z
loop_
_atom_site_type_symbol
_atom_site_label
_atom_site_fract_x
_atom_site_fract_y
_atom_site_fract_z
Si Si1 0.183586 0.383822 0.891843
Si Si2 0.317505 0.191163 0.719902
Si Si3 0.658258 0.613565 0.468958
Si Si4 0.804375 0.892284 0.798378
Si Si5 0.987954 0.721734 0.680911
Si Si6 0.637322 0.107157 0.538270
Si Si7 0.119648 0.386235 0.053710
O O1 0.151248 0.500000 0.862071
O O2 0.292248 0.379688 0.900711
O O3 0.105326 0.306737 0.790636
O O4 0.177312 0.355722 0.995864
O O5 0.208507 0.172026 0.589691
O O6 0.350350 0.297279 0.780228
O O7 0.412177 0.168307 0.708822
O O8 0.312224 0.129172 0.809190
O O9 0.641293 0.500000 0.478681
O O10 0.554281 0.668334 0.359172
O O11 0.753729 0.620271 0.453984
O O12 0.684898 0.891029 0.672381
O O13 0.849631 0.000000 0.807211
O O14 0.952954 0.676252 0.560663
O O15 0.595966 0.000000 0.492331
O O16 0.102808 0.500000 0.029081
O O17 0.000000 0.343926 0.000000
#
# Coordination Sequence:
#
# PCOD9179832 Si02
#       7
#     8   8   8   8   8   8   8
#     4  10  22  36  53  82 113 138 174 223 275 321
#     4  11  19  34  57  79 107 143 182 220 265 316
#     4  10  19  31  51  81 107 138 182 224 260 310
#     4  10  20  35  53  79 113 142 173 218 272 324
#     4  11  18  31  52  79 107 141 178 219 262 318
#     4   9  16  28  47  75 106 133 168 214 264 312
#     4  10  20  35  56  82 108 137 177 227 269 309
#
# _framework density 22.794267999999999
#
# number of rings (size 3 to 8) (size 9 to 14) (size 15 to 20)
#    0.000    1.857    4.286    1.714    0.000    2.286 
#    0.000    2.143    0.000    3.857    0.000    0.000 
#    0.000    0.000    0.000    0.000    0.000    0.000 
#
# Total GULP energy -155980.869158 kJ/mol
# GULP energy per Si atom -5570.745327 kJ/mol
# Density = 2.274239 g / cm^3
# Si number density = 22.794268 Si / 1000 Ang^3
#
#
#
# Elastic Constant Matrix: (Units=GPa)
#
#
# Indices 1 2 3 4 5 6 
#
# 1 46.1495 10.2737 27.6816 0.0000 -34.3681 0.0000
# 2 10.2737 60.4249 5.5548 0.0000 -10.2906 0.0000
# 3 27.6816 5.5548 69.2103 0.0000 -36.3938 0.0000
# 4 0.0000 0.0000 0.0000 29.6367 0.0000 -8.7708
# 5 -34.3681 -10.2906 -36.3938 0.0000 41.1205 0.0000
# 6 0.0000 0.0000 0.0000 -8.7708 0.0000 10.6613
#
#
#
# Elastic Compliance Matrix: (Units=1/GPa)
#
#
# Indices 1 2 3 4 5 6 
#
# 1 0.058180 -0.001427 0.004165 0.000000 0.051956 0.000000
# 2 -0.001427 0.017424 0.001568 0.000000 0.004555 0.000000
# 3 0.004165 0.001568 0.027486 0.000000 0.028200 0.000000
# 4 0.000000 0.000000 0.000000 0.044601 0.000000 0.036692
# 5 0.051956 0.004555 0.028200 0.000000 0.093841 0.000000
# 6 0.000000 0.000000 0.000000 0.036692 0.000000 0.123983
#
#
# Mechanical properties :
#
#
# Convention : Reuss Voigt Hill
#
# Bulk Modulus (GPa) = 8.95243 29.20055 19.07649
# Shear Modulus (GPa) = 12.68598 25.10198 18.89398
#
# Velocity S-wave (km/s) = 2.36167 3.32210 2.88217
# Velocity P-wave (km/s) = 3.37234 5.24913 4.41169
#
# Compressibility (1/GPa) = 0.11170148
#
# Stress axis : x y z
#
# Youngs Moduli (GPa) = 17.18805 57.39292 36.38267
#
# Poissons Ratio (x) = 0.08188 -0.15154
# Poissons Ratio (y) = 0.02452 -0.05704
# Poissons Ratio (z) = -0.07159 -0.08997
#
# Static dielectric constant tensor:
#      x y z
#    x 1.896420 0.000000 -0.011120 
#    y 0.000000 1.907380 0.000000 
#    z -0.011120 0.000000 1.885190 
# 
# From -- ./inp_files/224880.got.cif
#   From: 2010.05.17/outbox.cif.g08.bks.cpg/sg12_113_cif.got.tgz:224880.got - 2010.06.03 13:09:07.
