data_PCOD9179715
_publ_section_title
;
Structure prediction by ZEFSAII (Michael W. Deem and Ramdas Pophale) SiO2 
 PCOD9179715
Probable space group: C 2/M
;
_chemical_formula_sum "Si O2"
_cell_formula_units_Z 64
_cell_length_a 20.173945
_cell_length_b 16.962624
_cell_length_c 29.313809
_cell_angle_alpha 90.000000
_cell_angle_beta 20.309281
_cell_angle_gamma 90.000000
_cell_volume 3481.730746
_symmetry_space_group_name_H-M "C 2/M"
_symmetry_group_IT_number 12
_symmetry_cell_setting 'monoclinic'
loop_
_space_group_symop_operation_xyz
x,y,z
-x,y,-z
-x,-y,-z
x,-y,z
1/2+x,1/2+y,z
1/2-x,1/2+y,-z
1/2-x,1/2-y,-z
1/2+x,1/2-y,z
loop_
_atom_site_type_symbol
_atom_site_label
_atom_site_fract_x
_atom_site_fract_y
_atom_site_fract_z
Si Si1 0.383667 0.848576 0.302017
Si Si2 0.353299 0.742729 0.803372
Si Si3 0.626911 0.252562 0.317562
Si Si4 0.507943 0.587890 0.439715
Si Si5 0.671849 0.809987 0.424334
Si Si6 0.809833 0.627862 0.963080
Si Si7 0.044677 0.776664 0.071992
Si Si8 0.021728 0.912448 0.225135
O O1 0.513400 0.806895 0.256720
O O2 0.212630 0.899978 0.432155
O O3 0.284502 0.771927 0.341952
O O4 0.510469 0.897055 0.183874
O O5 0.366260 0.746813 0.741122
O O6 0.419457 0.656170 0.777579
O O7 0.144353 0.759361 0.959172
O O8 0.618696 0.340865 0.344218
O O9 0.439028 0.207860 0.456864
O O10 0.820531 0.214102 0.211445
O O11 0.500000 0.596359 0.500000
O O12 0.578223 0.500000 0.383770
O O13 0.500000 0.822799 0.500000
O O14 0.827834 0.878426 0.327389
O O15 0.894016 0.703404 0.935667
O O16 0.650182 0.652075 0.029071
O O17 0.692224 0.583846 0.077860
O O18 0.992945 0.000000 0.262686
#
# Coordination Sequence:
#
# PCOD9179715 Si02
#       8
#     8   8   8   8   8   8   8   8
#     4   9  17  32  52  72  96 122 162 210 240 279
#     4   9  20  33  50  74  96 127 169 201 237 288
#     4  11  19  32  52  72  98 132 162 198 246 289
#     4  10  21  33  47  72 101 129 164 203 244 291
#     4  10  19  31  51  76  97 123 162 207 250 288
#     4   9  16  30  52  73  91 122 158 197 248 285
#     4   9  16  30  52  74  95 116 156 206 241 281
#     4  10  21  34  47  70 104 133 161 198 238 290
#
# _framework density 18.381661999999999
#
# number of rings (size 3 to 8) (size 9 to 14) (size 15 to 20)
#    0.000    2.375    0.000    6.375    0.000    5.750 
#    0.000    3.750    0.000    3.750    0.000    0.000 
#    0.000    7.000    0.000    0.000    0.000    0.000 
#
# Total GULP energy -178286.880440 kJ/mol
# GULP energy per Si atom -5571.465014 kJ/mol
# Density = 1.833982 g / cm^3
# Si number density = 18.381662 Si / 1000 Ang^3
#
#
#
# Elastic Constant Matrix: (Units=GPa)
#
#
# Indices 1 2 3 4 5 6 
#
# 1 63.5650 -4.1044 21.6712 0.0130 14.4291 0.0001
# 2 -4.1044 27.8160 -2.8280 0.0118 0.3773 -0.0061
# 3 21.6712 -2.8280 91.6568 0.0124 0.7134 -0.0012
# 4 0.0130 0.0118 0.0124 10.3371 0.0010 0.4862
# 5 14.4291 0.3773 0.7134 0.0010 31.9387 -0.0110
# 6 0.0001 -0.0061 -0.0012 0.4862 -0.0110 3.4187
#
#
#
# Elastic Compliance Matrix: (Units=1/GPa)
#
#
# Indices 1 2 3 4 5 6 
#
# 1 0.019379 0.002526 -0.004436 -0.000020 -0.008686 -0.000022
# 2 0.002526 0.036400 0.000538 -0.000049 -0.001583 0.000067
# 3 -0.004436 0.000538 0.011962 -0.000010 0.001731 0.000012
# 4 -0.000020 -0.000049 -0.000010 0.097391 0.000002 -0.013852
# 5 -0.008686 -0.001583 0.001731 0.000002 0.035214 0.000111
# 6 -0.000022 0.000067 0.000012 -0.013852 0.000111 0.294484
#
#
# Mechanical properties :
#
#
# Convention : Reuss Voigt Hill
#
# Bulk Modulus (GPa) = 15.38534 23.61283 19.49908
# Shear Modulus (GPa) = 9.62947 20.35882 14.99414
#
# Velocity S-wave (km/s) = 2.29129 3.33161 2.85917
# Velocity P-wave (km/s) = 3.92277 5.26054 4.64012
#
# Compressibility (1/GPa) = 0.06499695
#
# Stress axis : x y z
#
# Youngs Moduli (GPa) = 51.60164 27.47288 83.59566
#
# Poissons Ratio (x) = -0.06940 0.37087
# Poissons Ratio (y) = -0.13036 -0.04498
# Poissons Ratio (z) = 0.22893 -0.01478
#
# Static dielectric constant tensor:
#      x y z
#    x 1.634650 0.000000 -0.001860 
#    y 0.000000 1.631830 0.000020 
#    z -0.001860 0.000020 1.666720 
# 
# From -- ./inp_files/168831.got.cif
#   From: 2010.05.17/outbox.cif.g08.bks.cpg/sg12_85_cif.got.tgz:168831.got - 2010.06.03 13:09:07.
