data_PCOD9179378
_publ_section_title
;
Structure prediction by ZEFSAII (Michael W. Deem and Ramdas Pophale) SiO2 
 PCOD9179378
Probable space group: C 2/M
;
_chemical_formula_sum "Si O2"
_cell_formula_units_Z 64
_cell_length_a 25.245990
_cell_length_b 8.796089
_cell_length_c 24.456516
_cell_angle_alpha 90.000000
_cell_angle_beta 45.910687
_cell_angle_gamma 90.000000
_cell_volume 3900.820140
_symmetry_space_group_name_H-M "C 2/M"
_symmetry_group_IT_number 12
_symmetry_cell_setting 'monoclinic'
loop_
_space_group_symop_operation_xyz
x,y,z
-x,y,-z
-x,-y,-z
x,-y,z
1/2+x,1/2+y,z
1/2-x,1/2+y,-z
1/2-x,1/2-y,-z
1/2+x,1/2-y,z
loop_
_atom_site_type_symbol
_atom_site_label
_atom_site_fract_x
_atom_site_fract_y
_atom_site_fract_z
Si Si1 0.790818 0.318285 0.341304
Si Si2 0.308090 0.182134 0.501625
Si Si3 0.577278 0.181878 0.667499
Si Si4 0.855981 0.817787 0.186157
Si Si5 0.527665 0.318294 0.082611
Si Si6 0.774559 0.681168 0.924176
Si Si7 0.659533 0.181045 0.921202
Si Si8 0.068174 0.819345 0.179658
O O1 0.785858 0.500000 0.341836
O O2 0.717712 0.252043 0.422660
O O3 0.860374 0.281423 0.331444
O O4 0.808453 0.247105 0.270212
O O5 0.250000 0.250000 0.500000
O O6 0.386773 0.217828 0.417394
O O7 0.300807 0.000000 0.508351
O O8 0.503152 0.269254 0.735030
O O9 0.564859 0.000000 0.679152
O O10 0.834038 0.746464 0.144235
O O11 0.942070 0.779802 0.135639
O O12 0.849893 0.000000 0.188603
O O13 0.536331 0.500000 0.067761
O O14 0.551413 0.284309 0.127827
O O15 0.581124 0.232103 0.002868
O O16 0.767314 0.500000 0.931162
O O17 0.721558 0.748220 0.915915
O O18 0.858819 0.731104 0.854943
O O19 0.750000 0.750000 0.000000
O O20 0.665084 0.000000 0.917147
O O21 0.080178 0.000000 0.175292
#
# Coordination Sequence:
#
# PCOD9179378 Si02
#       8
#     8   8   8   8   8   8   8   8
#     4  10  19  31  49  75 107 142 179 217 261 316
#     4   9  17  29  46  71 104 141 177 214 260 315
#     4   9  18  31  48  74 108 141 176 217 261 314
#     4  11  22  37  55  77 108 145 181 220 263 316
#     4  10  21  36  54  77 107 142 179 218 264 317
#     4  12  24  40  59  78 102 136 177 224 271 317
#     4  12  25  39  56  78 104 139 180 225 268 315
#     4  11  21  34  55  81 107 139 177 220 267 316
#
# _framework density 16.406806
#
# number of rings (size 3 to 8) (size 9 to 14) (size 15 to 20)
#    0.000    1.500    2.500    4.875    0.000    5.500 
#    0.000    0.000    0.000    0.000    0.000    0.875 
#    0.000    7.000    0.000    0.000    0.000    0.000 
#
# Total GULP energy -178717.698406 kJ/mol
# GULP energy per Si atom -5584.928075 kJ/mol
# Density = 1.636946 g / cm^3
# Si number density = 16.406806 Si / 1000 Ang^3
#
#
#
# Elastic Constant Matrix: (Units=GPa)
#
#
# Indices 1 2 3 4 5 6 
#
# 1 59.3581 35.9689 49.8280 0.0007 17.5440 -0.0042
# 2 35.9689 79.6630 69.4098 0.0025 9.3401 -0.0050
# 3 49.8280 69.4098 159.4221 0.0000 12.6132 -0.0006
# 4 0.0007 0.0025 0.0000 34.6732 0.0000 -0.4133
# 5 17.5440 9.3401 12.6132 0.0000 17.5782 0.0012
# 6 -0.0042 -0.0050 -0.0006 -0.4133 0.0012 22.7251
#
#
#
# Elastic Compliance Matrix: (Units=1/GPa)
#
#
# Indices 1 2 3 4 5 6 
#
# 1 0.033245 -0.007613 -0.005058 0.000000 -0.025505 0.000006
# 2 -0.007613 0.022341 -0.007431 -0.000001 0.001060 0.000003
# 3 -0.005058 -0.007431 0.011002 0.000001 0.001103 -0.000002
# 4 0.000000 -0.000001 0.000001 0.028847 0.000000 0.000525
# 5 -0.025505 0.001060 0.001103 0.000000 0.080990 -0.000009
# 6 0.000006 0.000003 -0.000002 0.000525 -0.000009 0.044014
#
#
# Mechanical properties :
#
#
# Convention : Reuss Voigt Hill
#
# Bulk Modulus (GPa) = 37.90385 67.65072 52.77728
# Shear Modulus (GPa) = 18.55726 24.54440 21.55083
#
# Velocity S-wave (km/s) = 3.36679 3.87200 3.62820
# Velocity P-wave (km/s) = 6.18598 7.83024 7.05617
#
# Compressibility (1/GPa) = 0.02638255
#
# Stress axis : x y z
#
# Youngs Moduli (GPa) = 30.08013 44.76156 90.89391
#
# Poissons Ratio (x) = 0.34076 0.45977
# Poissons Ratio (y) = 0.22899 0.67545
# Poissons Ratio (z) = 0.15216 0.33263
#
# Static dielectric constant tensor:
#      x y z
#    x 1.518230 0.000000 -0.015000 
#    y 0.000000 1.546370 0.000000 
#    z -0.015000 0.000000 1.542560 
# 
# From -- ./inp_files/324151.got.cif
#   From: 2010.05.17/outbox.cif.g08.bks.cpg/sg12_163_cif.got.tgz:324151.got - 2010.06.03 13:09:07.
