data_PCOD9179219
_publ_section_title
;
Structure prediction by ZEFSAII (Michael W. Deem and Ramdas Pophale) SiO2 
 PCOD9179219
Probable space group: C 2/M
;
_chemical_formula_sum "Si O2"
_cell_formula_units_Z 40
_cell_length_a 7.679908
_cell_length_b 18.751678
_cell_length_c 12.371288
_cell_angle_alpha 90.000000
_cell_angle_beta 103.329221
_cell_angle_gamma 90.000000
_cell_volume 1733.609689
_symmetry_space_group_name_H-M "C 2/M"
_symmetry_group_IT_number 12
_symmetry_cell_setting 'monoclinic'
loop_
_space_group_symop_operation_xyz
x,y,z
-x,y,-z
-x,-y,-z
x,-y,z
1/2+x,1/2+y,z
1/2-x,1/2+y,-z
1/2-x,1/2-y,-z
1/2+x,1/2-y,z
loop_
_atom_site_type_symbol
_atom_site_label
_atom_site_fract_x
_atom_site_fract_y
_atom_site_fract_z
Si Si1 0.624955 0.331563 0.933152
Si Si2 0.711271 0.420670 0.562047
Si Si3 0.299309 0.851218 0.358505
Si Si4 0.390578 0.298974 0.302748
Si Si5 0.229891 0.083174 0.129142
O O1 0.674533 0.292513 0.830593
O O2 0.481274 0.395026 0.882685
O O3 0.500000 0.287465 0.000000
O O4 0.772009 0.368937 0.029695
O O5 0.500000 0.423223 0.500000
O O6 0.762525 0.500000 0.605739
O O7 0.812417 0.397164 0.468221
O O8 0.724833 0.358297 0.651801
O O9 0.396462 0.775686 0.365253
O O10 0.330412 0.894487 0.252646
O O11 0.092067 0.826730 0.326965
O O12 0.247095 0.000000 0.111243
#
# Coordination Sequence:
#
# PCOD9179219 Si02
#       5
#     8   8   8   8   8
#     4   7  15  27  43  71  93 119 152 198 230 267
#     4   9  18  31  50  73  94 118 157 203 236 268
#     4  10  19  31  49  71  97 124 155 190 237 281
#     4  10  19  32  48  72  97 126 153 192 234 282
#     4   8  14  26  45  69  92 117 156 198 229 263
#
# _framework density 23.073243999999999
#
# number of rings (size 3 to 8) (size 9 to 14) (size 15 to 20)
#    1.200    1.800    0.000    2.400    0.000    6.400 
#    0.000    0.000    0.000    3.600    0.000    1.400 
#    0.000    0.000    0.000    0.000    0.000    0.000 
#
# Total GULP energy -111466.844795 kJ/mol
# GULP energy per Si atom -5573.342240 kJ/mol
# Density = 2.302073 g / cm^3
# Si number density = 23.073244 Si / 1000 Ang^3
#
#
#
# Elastic Constant Matrix: (Units=GPa)
#
#
# Indices 1 2 3 4 5 6 
#
# 1 44.7842 17.1789 26.7273 0.0000 9.4872 0.0000
# 2 17.1789 97.0879 21.0060 0.0000 -8.3978 0.0000
# 3 26.7273 21.0060 92.9539 0.0000 -26.0938 0.0000
# 4 0.0000 0.0000 0.0000 35.4071 0.0000 -27.3430
# 5 9.4872 -8.3978 -26.0938 0.0000 0.6374 0.0000
# 6 0.0000 0.0000 0.0000 -27.3430 0.0000 321.2820
#
#
#
# Elastic Compliance Matrix: (Units=1/GPa)
#
#
# Indices 1 2 3 4 5 6 
#
# 1 0.012497 -0.000641 0.005532 0.000000 0.031990 0.000000
# 2 -0.000641 0.010754 -0.003832 0.000000 -0.005650 0.000000
# 3 0.005532 -0.003832 0.002597 0.000000 -0.026490 0.000000
# 4 0.000000 0.000000 0.000000 0.030230 0.000000 0.002573
# 5 0.031990 -0.005650 -0.026490 0.000000 -0.066148 0.000000
# 6 0.000000 0.000000 0.000000 0.002573 0.000000 0.003331
#
#
# Mechanical properties :
#
#
# Convention : Reuss Voigt Hill
#
# Bulk Modulus (GPa) = 35.75880 40.51670 38.13775
# Shear Modulus (GPa) = 10713.10684 82.79289 5397.94987
#
# Velocity S-wave (km/s) = 68.21412 5.99671 48.42069
# Velocity P-wave (km/s) = 78.86541 8.09602 56.05934
#
# Compressibility (1/GPa) = 0.02796514
#
# Stress axis : x y z
#
# Youngs Moduli (GPa) = 80.01778 92.99094 385.01264
#
# Poissons Ratio (x) = 0.05962 -2.12972
# Poissons Ratio (y) = 0.05130 1.47537
# Poissons Ratio (z) = -0.44262 0.35634
#
# Static dielectric constant tensor:
#      x y z
#    x 1.934470 0.000000 0.032210 
#    y 0.000000 1.835420 0.000000 
#    z 0.032210 0.000000 1.936900 
# 
# From -- ./inp_files/119056.got.cif
#   From: 2010.05.17/outbox.cif.g08.bks.cpg/sg12_60_cif.got.tgz:119056.got - 2010.06.03 13:09:07.
