data_PCOD9179613
_publ_section_title
;
Structure prediction by ZEFSAII (Michael W. Deem and Ramdas Pophale) SiO2 
 PCOD9179613
Probable space group: C 2/M
;
_chemical_formula_sum "Si O2"
_cell_formula_units_Z 64
_cell_length_a 21.051988
_cell_length_b 8.792663
_cell_length_c 32.327693
_cell_angle_alpha 90.000000
_cell_angle_beta 142.077580
_cell_angle_gamma 90.000000
_cell_volume 3677.701843
_symmetry_space_group_name_H-M "C 2/M"
_symmetry_group_IT_number 12
_symmetry_cell_setting 'monoclinic'
loop_
_space_group_symop_operation_xyz
x,y,z
-x,y,-z
-x,-y,-z
x,-y,z
1/2+x,1/2+y,z
1/2-x,1/2+y,-z
1/2-x,1/2-y,-z
1/2+x,1/2-y,z
loop_
_atom_site_type_symbol
_atom_site_label
_atom_site_fract_x
_atom_site_fract_y
_atom_site_fract_z
Si Si1 0.929948 0.324202 0.505710
Si Si2 0.965039 0.817479 0.768406
Si Si3 0.112796 0.818317 0.646555
Si Si4 0.741345 0.815975 0.786418
Si Si5 0.039589 0.815190 0.137550
Si Si6 0.814737 0.816060 0.995063
Si Si7 0.751041 0.181658 0.364527
Si Si8 0.320930 0.816246 0.153121
O O1 0.911366 0.500000 0.506250
O O2 0.824423 0.241464 0.438871
O O3 0.000000 0.318341 0.500000
O O4 0.000598 0.245223 0.576469
O O5 0.962974 0.768591 0.815687
O O6 0.861498 0.755252 0.694085
O O7 0.068393 0.753728 0.800918
O O8 0.965474 0.000000 0.767455
O O9 0.158454 0.748922 0.711683
O O10 0.190981 0.777014 0.648930
O O11 0.108962 0.000000 0.646892
O O12 0.855155 0.764228 0.830222
O O13 0.716796 0.771199 0.820724
O O14 0.738970 0.000000 0.782925
O O15 0.933779 0.766749 0.061049
O O16 0.040735 0.000000 0.137660
O O17 0.812381 0.000000 0.996398
O O18 0.750000 0.750000 0.000000
O O19 0.760259 0.771073 0.924292
O O20 0.743744 0.000000 0.362567
O O21 0.329192 0.000000 0.156473
#
# Coordination Sequence:
#
# PCOD9179613 Si02
#       8
#     8   8   8   8   8   8   8   8
#     4   9  17  29  48  76 109 144 180 218 264 318
#     4  11  20  33  55  79 106 141 183 225 267 322
#     4  10  19  31  50  77 109 144 178 221 271 316
#     4  10  20  36  54  76 108 144 182 223 268 325
#     4   9  18  32  54  79 102 136 180 222 266 317
#     4  10  19  34  54  79 106 137 177 223 274 323
#     4  10  19  31  50  79 112 140 177 227 271 313
#     4  10  22  36  54  79 108 141 179 225 275 324
#
# _framework density 17.402172
#
# number of rings (size 3 to 8) (size 9 to 14) (size 15 to 20)
#    0.000    2.125    2.500    1.500    0.000    3.500 
#    0.000    3.125    0.000    0.750    0.000    2.625 
#    0.000    0.000    0.000    0.000    0.000    0.000 
#
# Total GULP energy -178560.245105 kJ/mol
# GULP energy per Si atom -5580.007660 kJ/mol
# Density = 1.736256 g / cm^3
# Si number density = 17.402172 Si / 1000 Ang^3
#
#
#
# Elastic Constant Matrix: (Units=GPa)
#
#
# Indices 1 2 3 4 5 6 
#
# 1 116.3540 30.4415 84.9895 0.0000 -2.0657 -0.0002
# 2 30.4415 24.9202 40.5818 0.0001 -0.9526 -0.0005
# 3 84.9895 40.5818 195.5862 0.0000 3.9306 0.0000
# 4 0.0000 0.0001 0.0000 22.5417 0.0000 1.6465
# 5 -2.0657 -0.9526 3.9306 0.0000 24.0197 0.0000
# 6 -0.0002 -0.0005 0.0000 1.6465 0.0000 20.9870
#
#
#
# Elastic Compliance Matrix: (Units=1/GPa)
#
#
# Indices 1 2 3 4 5 6 
#
# 1 0.014443 -0.011054 -0.004012 0.000000 0.001460 0.000000
# 2 -0.011054 0.069550 -0.009696 0.000000 0.003394 0.000002
# 3 -0.004012 -0.009696 0.008912 0.000000 -0.002188 0.000000
# 4 0.000000 0.000000 0.000000 0.044618 0.000000 -0.003500
# 5 0.001460 0.003394 -0.002188 0.000000 0.042251 0.000000
# 6 0.000000 0.000002 0.000000 -0.003500 0.000000 0.047923
#
#
# Mechanical properties :
#
#
# Convention : Reuss Voigt Hill
#
# Bulk Modulus (GPa) = 23.05108 72.09846 47.57477
# Shear Modulus (GPa) = 17.14211 25.56618 21.35414
#
# Velocity S-wave (km/s) = 3.14196 3.83709 3.50679
# Velocity P-wave (km/s) = 5.14173 7.81995 6.61775
#
# Compressibility (1/GPa) = 0.04338191
#
# Stress axis : x y z
#
# Youngs Moduli (GPa) = 69.23925 14.37815 112.21120
#
# Poissons Ratio (x) = 0.15893 0.45015
# Poissons Ratio (y) = 0.76536 1.08797
# Poissons Ratio (z) = 0.27777 0.13941
#
# Static dielectric constant tensor:
#      x y z
#    x 1.567950 0.000000 -0.000180 
#    y 0.000000 1.581650 0.000000 
#    z -0.000180 0.000000 1.583140 
# 
# From -- ./inp_files/281368.got.cif
#   From: 2010.05.17/outbox.cif.g08.bks.cpg/sg12_141_cif.got.tgz:281368.got - 2010.06.03 13:09:07.
