data_PCOD9179862
_publ_section_title
;
Structure prediction by ZEFSAII (Michael W. Deem and Ramdas Pophale) SiO2 
 PCOD9179862
Probable space group: C 2/M
;
_chemical_formula_sum "Si O2"
_cell_formula_units_Z 56
_cell_length_a 18.440241
_cell_length_b 29.807247
_cell_length_c 8.796953
_cell_angle_alpha 90.000000
_cell_angle_beta 33.454625
_cell_angle_gamma 90.000000
_cell_volume 2665.570350
_symmetry_space_group_name_H-M "C 2/M"
_symmetry_group_IT_number 12
_symmetry_cell_setting 'monoclinic'
loop_
_space_group_symop_operation_xyz
x,y,z
-x,y,-z
-x,-y,-z
x,-y,z
1/2+x,1/2+y,z
1/2-x,1/2+y,-z
1/2-x,1/2-y,-z
1/2+x,1/2-y,z
loop_
_atom_site_type_symbol
_atom_site_label
_atom_site_fract_x
_atom_site_fract_y
_atom_site_fract_z
Si Si1 0.697336 0.000000 0.015700
Si Si2 0.711181 0.269894 0.832973
Si Si3 0.615652 0.000000 0.509790
Si Si4 0.152546 0.186114 0.238239
Si Si5 0.760041 0.905335 0.769138
Si Si6 0.962018 0.718942 0.224780
Si Si7 0.858230 0.585808 0.334409
Si Si8 0.490855 0.862856 0.342439
O O1 0.768783 0.045188 0.829023
O O2 0.678120 0.000000 0.231940
O O3 0.544660 0.000000 0.223722
O O4 0.771934 0.223712 0.795519
O O5 0.807785 0.277410 0.522489
O O6 0.712228 0.307558 0.963675
O O7 0.559761 0.261253 0.053447
O O8 0.658397 0.042230 0.533712
O O9 0.159612 0.136066 0.297262
O O10 0.000000 0.199440 0.500000
O O11 0.754463 0.908188 0.595343
O O12 0.613969 0.888655 0.061136
O O13 0.007040 0.689723 0.290252
O O14 0.000000 0.694874 0.000000
O O15 0.871761 0.623986 0.439781
O O16 0.000000 0.581125 0.000000
O O17 0.500000 0.875655 0.500000
#
# Coordination Sequence:
#
# PCOD9179862 Si02
#       8
#     4   8   4   8   8   8   8   8
#     4  11  21  32  56  89 123 167 208 256 314 388
#     4  11  24  41  67  94 130 173 220 264 333 390
#     4  11  18  31  52  86 130 159 206 256 320 387
#     4  11  23  42  67  93 123 168 220 275 326 391
#     4  11  21  36  58  87 123 160 212 262 324 382
#     4  12  24  41  62  96 134 171 215 270 321 391
#     4  10  19  31  51  83 122 163 195 257 319 379
#     4  11  21  33  55  86 124 168 205 250 319 384
#
# _framework density 21.008635999999999
#
# number of rings (size 3 to 8) (size 9 to 14) (size 15 to 20)
#    0.000    1.000    5.714    4.071    2.000    0.000 
#    0.000    0.357    0.000    0.000    0.000    1.000 
#    0.000    0.000    0.000    0.000    0.000    0.000 
#
# Total GULP energy -156033.275717 kJ/mol
# GULP energy per Si atom -5572.616990 kJ/mol
# Density = 2.096082 g / cm^3
# Si number density = 21.008636 Si / 1000 Ang^3
#
#
#
# Elastic Constant Matrix: (Units=GPa)
#
#
# Indices 1 2 3 4 5 6 
#
# 1 92.2791 28.7901 30.9551 0.0000 21.1690 0.0000
# 2 28.7901 84.1178 6.1127 0.0000 -0.1994 0.0000
# 3 30.9551 6.1127 81.9989 0.0000 16.6044 0.0000
# 4 0.0000 0.0000 0.0000 67.0686 0.0000 5.5085
# 5 21.1690 -0.1994 16.6044 0.0000 24.4599 0.0000
# 6 0.0000 0.0000 0.0000 5.5085 0.0000 39.4941
#
#
#
# Elastic Compliance Matrix: (Units=1/GPa)
#
#
# Indices 1 2 3 4 5 6 
#
# 1 0.016388 -0.005393 -0.003366 0.000000 -0.011942 0.000000
# 2 -0.005393 0.013741 0.000051 0.000000 0.004745 0.000000
# 3 -0.003366 0.000051 0.014924 0.000000 -0.007217 0.000000
# 4 0.000000 0.000000 0.000000 0.015083 0.000000 -0.002104
# 5 -0.011942 0.004745 -0.007217 0.000000 0.056156 0.000000
# 6 0.000000 0.000000 0.000000 -0.002104 0.000000 0.025614
#
#
# Mechanical properties :
#
#
# Convention : Reuss Voigt Hill
#
# Bulk Modulus (GPa) = 36.18443 43.34572 39.76508
# Shear Modulus (GPa) = 29.66757 39.04038 34.35397
#
# Velocity S-wave (km/s) = 3.76195 4.31548 4.04819
# Velocity P-wave (km/s) = 6.01088 6.74598 6.38901
#
# Compressibility (1/GPa) = 0.02763620
#
# Stress axis : x y z
#
# Youngs Moduli (GPa) = 61.02100 72.77321 67.00724
#
# Poissons Ratio (x) = 0.39243 0.22557
# Poissons Ratio (y) = 0.32906 -0.00339
# Poissons Ratio (z) = 0.20542 -0.00368
#
# Static dielectric constant tensor:
#      x y z
#    x 1.592510 0.000000 -0.074360 
#    y 0.000000 1.906300 0.000000 
#    z -0.074360 0.000000 1.739790 
# 
# From -- ./inp_files/91600.got.cif
#   From: 2010.05.17/outbox.cif.g08.bks.cpg/sg12_46_cif.got.tgz:91600.got - 2010.06.03 13:09:07.
