data_PCOD9179009
_publ_section_title
;
Structure prediction by ZEFSAII (Michael W. Deem and Ramdas Pophale) SiO2 
 PCOD9179009
Probable space group: C 2/M
;
_chemical_formula_sum "Si O2"
_cell_formula_units_Z 56
_cell_length_a 29.674192
_cell_length_b 7.804077
_cell_length_c 19.806931
_cell_angle_alpha 90.000000
_cell_angle_beta 137.753457
_cell_angle_gamma 90.000000
_cell_volume 3083.862832
_symmetry_space_group_name_H-M "C 2/M"
_symmetry_group_IT_number 12
_symmetry_cell_setting 'monoclinic'
loop_
_space_group_symop_operation_xyz
x,y,z
-x,y,-z
-x,-y,-z
x,-y,z
1/2+x,1/2+y,z
1/2-x,1/2+y,-z
1/2-x,1/2-y,-z
1/2+x,1/2-y,z
loop_
_atom_site_type_symbol
_atom_site_label
_atom_site_fract_x
_atom_site_fract_y
_atom_site_fract_z
Si Si1 0.698658 0.796133 0.689064
Si Si2 0.993967 0.204806 0.705790
Si Si3 0.643038 0.707370 0.891536
Si Si4 0.548191 0.792373 0.492360
Si Si5 0.757851 0.296078 0.615862
Si Si6 0.143191 0.793843 0.385752
Si Si7 0.742393 0.205918 0.882686
O O1 0.624246 0.729370 0.588629
O O2 0.746916 0.767581 0.679158
O O3 0.727213 0.726532 0.791177
O O4 0.690713 0.000000 0.689260
O O5 0.978790 0.236103 0.610211
O O6 0.930534 0.271911 0.677956
O O7 0.067073 0.272686 0.806746
O O8 0.996095 0.000000 0.718329
O O9 0.641526 0.500000 0.892955
O O10 0.680721 0.755210 0.864151
O O11 0.690747 0.770220 0.005243
O O12 0.500000 0.736555 0.500000
O O13 0.548751 0.000000 0.492814
O O14 0.752728 0.500000 0.611541
O O15 0.825844 0.249126 0.652475
O O16 0.696752 0.228440 0.500931
O O17 0.142005 0.000000 0.390074
O O18 0.748910 0.000000 0.885706
#
# Coordination Sequence:
#
# PCOD9179009 Si02
#       7
#     8   8   8   8   8   8   8
#     4  10  19  31  48  69  97 129 159 194 236 282
#     4  10  19  32  49  71  97 125 156 195 240 284
#     4   9  18  32  51  73  96 125 163 202 237 276
#     4  10  20  31  44  67  98 130 159 188 229 283
#     4  10  19  31  49  71  95 123 159 198 237 285
#     4   9  18  32  48  68  96 125 155 194 240 287
#     4   9  18  33  51  71  96 128 165 200 234 276
#
# _framework density 18.159043
#
# number of rings (size 3 to 8) (size 9 to 14) (size 15 to 20)
#    0.000    2.429    1.429    1.286    0.000    3.714 
#    0.000    0.000    0.000    0.857    0.000    6.000 
#    0.000    0.000    0.000    0.000    0.000    0.000 
#
# Total GULP energy -156199.037568 kJ/mol
# GULP energy per Si atom -5578.537056 kJ/mol
# Density = 1.811771 g / cm^3
# Si number density = 18.159043 Si / 1000 Ang^3
#
#
#
# Elastic Constant Matrix: (Units=GPa)
#
#
# Indices 1 2 3 4 5 6 
#
# 1 135.4124 -5.9669 87.2922 0.0000 13.6320 0.0000
# 2 -5.9669 16.6557 5.3426 0.0000 1.3719 0.0000
# 3 87.2922 5.3426 115.2530 0.0000 15.5388 0.0000
# 4 0.0000 0.0000 0.0000 12.6980 0.0000 -1.1531
# 5 13.6320 1.3719 15.5388 0.0000 20.2582 0.0000
# 6 0.0000 0.0000 0.0000 -1.1531 0.0000 15.3317
#
#
#
# Elastic Compliance Matrix: (Units=1/GPa)
#
#
# Indices 1 2 3 4 5 6 
#
# 1 0.015897 0.009780 -0.012227 0.000000 -0.001981 0.000000
# 2 0.009780 0.067050 -0.010056 0.000000 -0.003409 0.000000
# 3 -0.012227 -0.010056 0.019186 0.000000 -0.005808 0.000000
# 4 0.000000 0.000000 0.000000 0.079294 0.000000 0.005964
# 5 -0.001981 -0.003409 -0.005808 0.000000 0.055382 0.000000
# 6 0.000000 0.000000 0.000000 0.005964 0.000000 0.065673
#
#
# Mechanical properties :
#
#
# Convention : Reuss Voigt Hill
#
# Bulk Modulus (GPa) = 12.96547 48.96188 30.96368
# Shear Modulus (GPa) = 14.15646 21.70113 17.92879
#
# Velocity S-wave (km/s) = 2.79513 3.46071 3.14557
# Velocity P-wave (km/s) = 4.19195 6.55668 5.50284
#
# Compressibility (1/GPa) = 0.07712792
#
# Stress axis : x y z
#
# Youngs Moduli (GPa) = 62.90496 14.91434 52.12107
#
# Poissons Ratio (x) = -0.14586 0.63726
# Poissons Ratio (y) = -0.61522 0.52413
# Poissons Ratio (z) = 0.76911 0.14998
#
# Static dielectric constant tensor:
#      x y z
#    x 1.614010 0.000000 0.017500 
#    y 0.000000 1.660090 0.000000 
#    z 0.017500 0.000000 1.630000 
# 
# From -- ./inp_files/287389.got.cif
#   From: 2010.05.17/outbox.cif.g08.bks.cpg/sg12_144_cif.got.tgz:287389.got - 2010.06.03 13:09:07.
