data_PCOD9179939
_publ_section_title
;
Structure prediction by ZEFSAII (Michael W. Deem and Ramdas Pophale) SiO2 
 PCOD9179939
Probable space group: C 2/M
;
_chemical_formula_sum "Si O2"
_cell_formula_units_Z 48
_cell_length_a 27.706422
_cell_length_b 8.022154
_cell_length_c 11.251932
_cell_angle_alpha 90.000000
_cell_angle_beta 120.098240
_cell_angle_gamma 90.000000
_cell_volume 2163.706734
_symmetry_space_group_name_H-M "C 2/M"
_symmetry_group_IT_number 12
_symmetry_cell_setting 'monoclinic'
loop_
_space_group_symop_operation_xyz
x,y,z
-x,y,-z
-x,-y,-z
x,-y,z
1/2+x,1/2+y,z
1/2-x,1/2+y,-z
1/2-x,1/2-y,-z
1/2+x,1/2-y,z
loop_
_atom_site_type_symbol
_atom_site_label
_atom_site_fract_x
_atom_site_fract_y
_atom_site_fract_z
Si Si1 0.063828 0.704823 0.576607
Si Si2 0.362162 0.696248 0.828058
Si Si3 0.837684 0.304922 0.154010
Si Si4 0.031462 0.807432 0.910986
Si Si5 0.078117 0.694277 0.334483
Si Si6 0.764531 0.696788 0.844916
O O1 0.064038 0.500000 0.578784
O O2 0.102913 0.764718 0.732112
O O3 0.088701 0.757257 0.480078
O O4 0.000000 0.759383 0.500000
O O5 0.358485 0.500000 0.845262
O O6 0.387819 0.721154 0.729298
O O7 0.301798 0.774007 0.775117
O O8 0.408130 0.765373 0.979869
O O9 0.845335 0.500000 0.138370
O O10 0.794612 0.284138 0.210624
O O11 0.804420 0.233473 0.000566
O O12 0.988389 0.714090 0.772971
O O13 0.036411 0.000000 0.878834
O O14 0.000000 0.809440 0.000000
O O15 0.091666 0.500000 0.345513
O O16 0.755494 0.500000 0.850584
#
# Coordination Sequence:
#
# PCOD9179939 Si02
#       6
#     8   8   8   8   8   8
#     4   9  19  35  56  81 111 146 181 217 265 326
#     4  10  20  34  53  76 109 146 180 221 275 327
#     4   9  19  37  58  80 111 146 178 220 273 323
#     4   8  16  30  46  68 104 144 174 211 264 317
#     4  10  19  31  52  80 109 140 182 227 264 317
#     4  10  20  34  58  86 109 136 182 232 270 317
#
# _framework density 22.184152999999998
#
# number of rings (size 3 to 8) (size 9 to 14) (size 15 to 20)
#    0.000    2.667    0.000    2.500    2.333    4.333 
#    0.000    2.500    0.000    2.500    0.000    0.000 
#    0.000    0.000    0.000    0.000    0.000    0.000 
#
# Total GULP energy -133926.146742 kJ/mol
# GULP energy per Si atom -5580.256114 kJ/mol
# Density = 2.213366 g / cm^3
# Si number density = 22.184153 Si / 1000 Ang^3
#
#
#
# Elastic Constant Matrix: (Units=GPa)
#
#
# Indices 1 2 3 4 5 6 
#
# 1 85.5902 -9.4839 4.9952 0.0000 8.9316 0.0000
# 2 -9.4839 29.7427 -1.2527 0.0000 -2.7321 0.0000
# 3 4.9952 -1.2527 65.9360 0.0000 7.4135 0.0000
# 4 0.0000 0.0000 0.0000 2.3625 0.0000 8.0698
# 5 8.9316 -2.7321 7.4135 0.0000 27.3681 0.0000
# 6 0.0000 0.0000 0.0000 8.0698 0.0000 18.0859
#
#
#
# Elastic Compliance Matrix: (Units=1/GPa)
#
#
# Indices 1 2 3 4 5 6 
#
# 1 0.012488 0.003633 -0.000474 0.000000 -0.003584 0.000000
# 2 0.003633 0.034994 0.000134 0.000000 0.002271 0.000000
# 3 -0.000474 0.000134 0.015663 0.000000 -0.004075 0.000000
# 4 0.000000 0.000000 0.000000 -0.807631 0.000000 0.360359
# 5 -0.003584 0.002271 -0.004075 0.000000 0.039039 0.000000
# 6 0.000000 0.000000 0.000000 0.360359 0.000000 -0.105498
#
#
# Mechanical properties :
#
#
# Convention : Reuss Voigt Hill
#
# Bulk Modulus (GPa) = 14.34087 18.86512 16.60299
# Shear Modulus (GPa) = -6.29495 22.03066 7.86785
#
# Velocity S-wave (km/s) = -1.68634 3.15474 1.88529
# Velocity P-wave (km/s) = 1.63916 4.66821 3.49850
#
# Compressibility (1/GPa) = 0.06973080
#
# Stress axis : x y z
#
# Youngs Moduli (GPa) = 80.07804 28.57605 63.84542
#
# Poissons Ratio (x) = -0.10381 0.03026
# Poissons Ratio (y) = -0.29090 -0.00857
# Poissons Ratio (z) = 0.03796 -0.00384
#
# Static dielectric constant tensor:
#      x y z
#    x 1.870410 0.000000 -0.008590 
#    y 0.000000 1.773120 0.000000 
#    z -0.008590 0.000000 1.845500 
# 
# From -- ./inp_files/180251.got.cif
#   From: 2010.05.17/outbox.cif.g08.bks.cpg/sg12_91_cif.got.tgz:180251.got - 2010.06.03 13:09:07.
