data_PCOD9179450
_publ_section_title
;
Structure prediction by ZEFSAII (Michael W. Deem and Ramdas Pophale) SiO2 
 PCOD9179450
Probable space group: C 2/M
;
_chemical_formula_sum "Si O2"
_cell_formula_units_Z 56
_cell_length_a 18.994796
_cell_length_b 7.329127
_cell_length_c 21.960977
_cell_angle_alpha 90.000000
_cell_angle_beta 49.968631
_cell_angle_gamma 90.000000
_cell_volume 2340.953993
_symmetry_space_group_name_H-M "C 2/M"
_symmetry_group_IT_number 12
_symmetry_cell_setting 'monoclinic'
loop_
_space_group_symop_operation_xyz
x,y,z
-x,y,-z
-x,-y,-z
x,-y,z
1/2+x,1/2+y,z
1/2-x,1/2+y,-z
1/2-x,1/2-y,-z
1/2+x,1/2-y,z
loop_
_atom_site_type_symbol
_atom_site_label
_atom_site_fract_x
_atom_site_fract_y
_atom_site_fract_z
Si Si1 0.526343 0.219753 0.581471
Si Si2 0.353866 0.777888 0.597950
Si Si3 0.862355 0.721634 0.970667
Si Si4 0.350160 0.723996 0.253587
Si Si5 0.801057 0.796654 0.869738
Si Si6 0.002339 0.787500 0.265434
Si Si7 0.551707 0.707679 0.914172
O O1 0.604704 0.278968 0.490313
O O2 0.428461 0.278616 0.607278
O O3 0.537276 0.277922 0.644675
O O4 0.526338 0.000000 0.581246
O O5 0.250646 0.718869 0.668706
O O6 0.353392 0.000000 0.598519
O O7 0.862041 0.500000 0.968075
O O8 0.802329 0.778866 0.063769
O O9 0.824964 0.800181 0.928432
O O10 0.964770 0.793183 0.917236
O O11 0.351910 0.500000 0.251872
O O12 0.429239 0.785281 0.257083
O O13 0.369562 0.784242 0.173186
O O14 0.893215 0.707949 0.791480
O O15 0.791061 0.000000 0.849494
O O16 0.016432 0.000000 0.241823
O O17 0.575033 0.500000 0.917687
O O18 0.500000 0.799537 0.000000
#
# Coordination Sequence:
#
# PCOD9179450 Si02
#       7
#     8   8   8   8   8   8   8
#     4   9  18  33  54  79 104 129 167 218 257 300
#     4   8  16  33  54  74 101 138 172 206 256 306
#     4  10  19  31  50  72  97 129 166 211 255 294
#     4   9  17  32  53  74 100 138 176 208 251 309
#     4   9  18  33  50  70  98 133 168 200 247 308
#     4  10  19  32  52  76 105 137 168 207 255 308
#     4  10  20  34  52  73  99 135 178 216 249 301
#
# _framework density 23.921870999999999
#
# number of rings (size 3 to 8) (size 9 to 14) (size 15 to 20)
#    0.000    2.714    1.429    1.286    0.000    3.143 
#    0.000    2.857    0.000    2.571    0.000    0.000 
#    0.000    0.000    0.000    0.000    0.000    0.000 
#
# Total GULP energy -156136.997388 kJ/mol
# GULP energy per Si atom -5576.321335 kJ/mol
# Density = 2.386742 g / cm^3
# Si number density = 23.921871 Si / 1000 Ang^3
#
#
#
# Elastic Constant Matrix: (Units=GPa)
#
#
# Indices 1 2 3 4 5 6 
#
# 1 44.2911 12.0367 62.3425 0.0001 -8.6128 0.0004
# 2 12.0367 114.3496 4.5572 0.0006 -3.4429 -0.0005
# 3 62.3425 4.5572 204.1556 0.0003 -9.6958 -0.0002
# 4 0.0001 0.0006 0.0003 9.4085 -0.0001 8.3332
# 5 -8.6128 -3.4429 -9.6958 -0.0001 46.2311 0.0000
# 6 0.0004 -0.0005 -0.0002 8.3332 0.0000 6.2683
#
#
#
# Elastic Compliance Matrix: (Units=1/GPa)
#
#
# Indices 1 2 3 4 5 6 
#
# 1 0.042310 -0.003802 -0.012600 -0.000018 0.004957 0.000020
# 2 -0.003802 0.009112 0.000966 0.000008 0.000173 -0.000010
# 3 -0.012600 0.000966 0.008703 0.000006 -0.000450 -0.000008
# 4 -0.000018 0.000008 0.000006 -0.598852 -0.000002 0.796127
# 5 0.004957 0.000173 -0.000450 -0.000002 0.022472 0.000003
# 6 0.000020 -0.000010 -0.000008 0.796127 0.000003 -0.898856
#
#
# Mechanical properties :
#
#
# Convention : Reuss Voigt Hill
#
# Bulk Modulus (GPa) = 34.18500 57.85213 46.01856
# Shear Modulus (GPa) = -3.63772 31.30556 13.83392
#
# Velocity S-wave (km/s) = -1.23449 3.62146 2.40739
# Velocity P-wave (km/s) = 3.50561 6.45933 5.19674
#
# Compressibility (1/GPa) = 0.02925260
#
# Stress axis : x y z
#
# Youngs Moduli (GPa) = 23.63498 109.74477 114.90445
#
# Poissons Ratio (x) = 0.41728 1.44778
# Poissons Ratio (y) = 0.08987 -0.11099
# Poissons Ratio (z) = 0.29780 -0.10600
#
# Static dielectric constant tensor:
#      x y z
#    x 1.986700 0.000000 -0.045870 
#    y 0.000000 2.494030 0.000000 
#    z -0.045870 0.000000 1.943030 
# 
# From -- ./inp_files/319721.got.cif
#   From: 2010.05.17/outbox.cif.g08.bks.cpg/sg12_160_cif.got.tgz:319721.got - 2010.06.03 13:09:07.
