data_PCOD9179019
_publ_section_title
;
Structure prediction by ZEFSAII (Michael W. Deem and Ramdas Pophale) SiO2 
 PCOD9179019
Probable space group: C 2/M
;
_chemical_formula_sum "Si O2"
_cell_formula_units_Z 40
_cell_length_a 23.680934
_cell_length_b 7.670461
_cell_length_c 29.838014
_cell_angle_alpha 90.000000
_cell_angle_beta 157.759588
_cell_angle_gamma 90.000000
_cell_volume 2051.393129
_symmetry_space_group_name_H-M "C 2/M"
_symmetry_group_IT_number 12
_symmetry_cell_setting 'monoclinic'
loop_
_space_group_symop_operation_xyz
x,y,z
-x,y,-z
-x,-y,-z
x,-y,z
1/2+x,1/2+y,z
1/2-x,1/2+y,-z
1/2-x,1/2-y,-z
1/2+x,1/2-y,z
loop_
_atom_site_type_symbol
_atom_site_label
_atom_site_fract_x
_atom_site_fract_y
_atom_site_fract_z
Si Si1 0.069670 0.205297 0.406417
Si Si2 0.420657 0.290109 0.114006
Si Si3 0.477055 0.713113 0.055102
Si Si4 0.610051 0.296792 0.335988
Si Si5 0.261473 0.710160 0.817978
O O1 0.211154 0.284580 0.535783
O O2 0.068333 0.277960 0.354318
O O3 0.908427 0.231634 0.309250
O O4 0.101074 0.000000 0.426767
O O5 0.438364 0.500000 0.125184
O O6 0.460497 0.224505 0.093609
O O7 0.524814 0.221167 0.230669
O O8 0.250000 0.250000 0.000000
O O9 0.475737 0.500000 0.054406
O O10 0.629178 0.766833 0.141806
O O11 0.340555 0.767568 0.922498
O O12 0.566870 0.500000 0.306094
O O13 0.261959 0.500000 0.818403
#
# Coordination Sequence:
#
# PCOD9179019 Si02
#       5
#     8   8   8   8   8
#     4  10  19  31  48  70  94 121 156 196 234 270
#     4  10  19  32  50  72  97 122 151 189 233 277
#     4   8  16  30  49  72  95 122 156 189 223 274
#     4   9  19  33  48  68  94 124 157 190 227 277
#     4   9  16  30  51  71  93 123 157 189 225 272
#
# _framework density 19.498944000000002
#
# number of rings (size 3 to 8) (size 9 to 14) (size 15 to 20)
#    0.000    2.800    0.000    3.000    0.000    1.600 
#    0.000    4.000    0.000    6.000    0.000    0.000 
#    0.000    0.000    0.000    0.000    0.000    0.000 
#
# Total GULP energy -111559.613299 kJ/mol
# GULP energy per Si atom -5577.980665 kJ/mol
# Density = 1.945456 g / cm^3
# Si number density = 19.498944 Si / 1000 Ang^3
#
#
#
# Elastic Constant Matrix: (Units=GPa)
#
#
# Indices 1 2 3 4 5 6 
#
# 1 120.2645 -0.3475 86.1029 0.0001 -16.2880 0.0002
# 2 -0.3475 33.0743 -12.2908 0.0000 -8.4175 0.0014
# 3 86.1029 -12.2908 140.0605 0.0015 -6.6960 0.0006
# 4 0.0001 0.0000 0.0015 15.6910 -0.0001 10.1585
# 5 -16.2880 -8.4175 -6.6960 -0.0001 32.3417 0.0000
# 6 0.0002 0.0014 0.0006 10.1585 0.0000 11.7083
#
#
#
# Elastic Compliance Matrix: (Units=1/GPa)
#
#
# Indices 1 2 3 4 5 6 
#
# 1 0.016072 -0.002065 -0.009797 0.000001 0.005528 -0.000001
# 2 -0.002065 0.034206 0.004693 0.000006 0.008834 -0.000009
# 3 -0.009797 0.004693 0.013531 -0.000001 -0.000911 0.000000
# 4 0.000001 0.000006 -0.000001 0.145411 0.000002 -0.126163
# 5 0.005528 0.008834 -0.000911 0.000002 0.035815 -0.000003
# 6 -0.000001 -0.000009 0.000000 -0.126163 -0.000003 0.194873
#
#
# Mechanical properties :
#
#
# Convention : Reuss Voigt Hill
#
# Bulk Modulus (GPa) = 20.21373 48.92538 34.56955
# Shear Modulus (GPa) = 10.62167 26.61051 18.61609
#
# Velocity S-wave (km/s) = 2.33648 3.69821 3.09321
# Velocity P-wave (km/s) = 4.20332 6.58646 5.52492
#
# Compressibility (1/GPa) = 0.04947133
#
# Stress axis : x y z
#
# Youngs Moduli (GPa) = 62.21952 29.23483 73.90424
#
# Poissons Ratio (x) = 0.06037 0.72406
# Poissons Ratio (y) = 0.12848 -0.34686
# Poissons Ratio (z) = 0.60958 -0.13721
#
# Static dielectric constant tensor:
#      x y z
#    x 1.685100 0.000000 -0.018110 
#    y 0.000000 1.728360 0.000000 
#    z -0.018110 0.000000 1.660900 
# 
# From -- ./inp_files/162352.got.cif
#   From: 2010.05.17/outbox.cif.g08.bks.cpg/sg12_82_cif.got.tgz:162352.got - 2010.06.03 13:09:07.
