data_PCOD9179230
_publ_section_title
;
Structure prediction by ZEFSAII (Michael W. Deem and Ramdas Pophale) SiO2 
 PCOD9179230
Probable space group: C 2/M
;
_chemical_formula_sum "Si O2"
_cell_formula_units_Z 58
_cell_length_a 30.850053
_cell_length_b 7.255739
_cell_length_c 12.193298
_cell_angle_alpha 90.000000
_cell_angle_beta 102.678937
_cell_angle_gamma 90.000000
_cell_volume 2662.792689
_symmetry_space_group_name_H-M "C 2/M"
_symmetry_group_IT_number 12
_symmetry_cell_setting 'monoclinic'
loop_
_space_group_symop_operation_xyz
x,y,z
-x,y,-z
-x,-y,-z
x,-y,z
1/2+x,1/2+y,z
1/2-x,1/2+y,-z
1/2-x,1/2-y,-z
1/2+x,1/2-y,z
loop_
_atom_site_type_symbol
_atom_site_label
_atom_site_fract_x
_atom_site_fract_y
_atom_site_fract_z
Si Si1 0.825417 0.724505 0.564517
Si Si2 0.012716 0.721930 0.808160
Si Si3 0.868822 0.724255 0.927816
Si Si4 0.391443 0.776661 0.185969
Si Si5 0.220468 0.278713 0.241680
Si Si6 0.000000 0.000000 0.000000
Si Si7 0.085262 0.722142 0.266803
Si Si8 0.819066 0.285775 0.315183
O O1 0.823559 0.500000 0.564192
O O2 0.791671 0.784852 0.641463
O O3 0.874567 0.780226 0.632763
O O4 0.816601 0.791153 0.437131
O O5 0.012978 0.500000 0.830063
O O6 0.056943 0.764599 0.764082
O O7 0.964786 0.771240 0.730410
O O8 0.014623 0.838570 0.919614
O O9 0.870189 0.500000 0.928740
O O10 0.819824 0.780068 0.859258
O O11 0.902862 0.784776 0.850795
O O12 0.879741 0.785664 0.056023
O O13 0.356502 0.707986 0.255993
O O14 0.387540 0.000000 0.181460
O O15 0.219364 0.500000 0.241697
O O16 0.269895 0.223684 0.237473
O O17 0.087328 0.500000 0.266324
O O18 0.830580 0.500000 0.336119
#
# Coordination Sequence:
#
# PCOD9179230 Si02
#       8
#     8   8   8   8   8   2   8   8
#     4   8  15  29  51  77  99 127 172 221 267 310
#     4  10  20  35  55  80 111 146 180 215 264 321
#     4   8  14  26  46  69  94 128 168 207 252 314
#     4   9  18  32  49  72 103 140 175 206 256 321
#     4   9  17  30  49  70  93 129 174 216 263 315
#     4  12  22  32  56  86 110 140 182 228 264 300
#     4   8  14  28  53  76  97 132 173 213 258 309
#     4  10  19  31  49  72 102 134 170 219 263 310
#
# _framework density 21.781644
#
# number of rings (size 3 to 8) (size 9 to 14) (size 15 to 20)
#    0.000    3.034    0.000    3.103    0.000    2.759 
#    1.241    0.690   15.172    4.138    0.000    0.966 
#    0.000    0.000    0.000    0.000    0.000    0.276 
#
# Total GULP energy -161597.974376 kJ/mol
# GULP energy per Si atom -5572.343944 kJ/mol
# Density = 2.173207 g / cm^3
# Si number density = 21.781644 Si / 1000 Ang^3
#
#
#
# Elastic Constant Matrix: (Units=GPa)
#
#
# Indices 1 2 3 4 5 6 
#
# 1 175.2834 -1.4890 32.1729 0.0000 -14.1998 0.0000
# 2 -1.4890 102.3451 -3.2486 0.0000 -3.7146 0.0000
# 3 32.1729 -3.2486 27.9923 0.0000 1.9381 0.0000
# 4 0.0000 0.0000 0.0000 -21.0032 0.0000 -0.5955
# 5 -14.1998 -3.7146 1.9381 0.0000 17.5563 0.0000
# 6 0.0000 0.0000 0.0000 -0.5955 0.0000 3.5253
#
#
#
# Elastic Compliance Matrix: (Units=1/GPa)
#
#
# Indices 1 2 3 4 5 6 
#
# 1 0.008143 0.000084 -0.009882 0.000000 0.007695 0.000000
# 2 0.000084 0.009876 0.000907 0.000000 0.002057 0.000000
# 3 -0.009882 0.000907 0.048095 0.000000 -0.013110 0.000000
# 4 0.000000 0.000000 0.000000 -0.047385 0.000000 -0.008004
# 5 0.007695 0.002057 -0.013110 0.000000 0.065066 0.000000
# 6 0.000000 0.000000 0.000000 -0.008004 0.000000 0.282310
#
#
# Mechanical properties :
#
#
# Convention : Reuss Voigt Hill
#
# Bulk Modulus (GPa) = 20.69040 40.05461 30.37250
# Shear Modulus (GPa) = 12.50010 18.56140 15.53075
#
# Velocity S-wave (km/s) = 2.39818 2.92234 2.67314
# Velocity P-wave (km/s) = 4.14584 5.46039 4.84788
#
# Compressibility (1/GPa) = 0.04833160
#
# Stress axis : x y z
#
# Youngs Moduli (GPa) = 122.80524 101.26024 20.79211
#
# Poissons Ratio (x) = -0.00851 0.20547
# Poissons Ratio (y) = -0.01033 -0.01886
# Poissons Ratio (z) = 1.21358 -0.09184
#
# Static dielectric constant tensor:
#      x y z
#    x 1.806940 0.000000 0.017260 
#    y 0.000000 1.899240 0.000000 
#    z 0.017260 0.000000 1.757400 
# 
# From -- ./inp_files/186703.got.cif
#   From: 2010.05.17/outbox.cif.g08.bks.cpg/sg12_94_cif.got.tgz:186703.got - 2010.06.03 13:09:07.
