data_PCOD9179845
_publ_section_title
;
Structure prediction by ZEFSAII (Michael W. Deem and Ramdas Pophale) SiO2 
 PCOD9179845
Probable space group: C 2/M
;
_chemical_formula_sum "Si O2"
_cell_formula_units_Z 48
_cell_length_a 21.488906
_cell_length_b 16.908571
_cell_length_c 9.163880
_cell_angle_alpha 90.000000
_cell_angle_beta 46.545984
_cell_angle_gamma 90.000000
_cell_volume 2417.092721
_symmetry_space_group_name_H-M "C 2/M"
_symmetry_group_IT_number 12
_symmetry_cell_setting 'monoclinic'
loop_
_space_group_symop_operation_xyz
x,y,z
-x,y,-z
-x,-y,-z
x,-y,z
1/2+x,1/2+y,z
1/2-x,1/2+y,-z
1/2-x,1/2-y,-z
1/2+x,1/2-y,z
loop_
_atom_site_type_symbol
_atom_site_label
_atom_site_fract_x
_atom_site_fract_y
_atom_site_fract_z
Si Si1 0.703865 0.092262 0.053865
Si Si2 0.459065 0.585740 0.227470
Si Si3 0.611012 0.343000 0.160390
Si Si4 0.079115 0.258375 0.759625
Si Si5 0.120341 0.717534 0.393991
Si Si6 0.695785 0.784477 0.817026
O O1 0.642941 0.140675 0.263181
O O2 0.686192 0.000000 0.078443
O O3 0.802588 0.108234 0.944063
O O4 0.693499 0.136208 0.915919
O O5 0.418719 0.500000 0.325221
O O6 0.533203 0.604707 0.226086
O O7 0.404332 0.665494 0.303457
O O8 0.500000 0.580258 0.000000
O O9 0.592964 0.287895 0.329531
O O10 0.635746 0.281109 0.992934
O O11 0.061302 0.295683 0.629852
O O12 0.159618 0.294593 0.714349
O O13 0.000000 0.264967 0.000000
O O14 0.210504 0.747604 0.315578
#
# Coordination Sequence:
#
# PCOD9179845 Si02
#       6
#     8   8   8   8   8   8
#     4   9  18  34  59  83 107 136 182 241 283 311
#     4  10  19  31  51  81 117 145 172 208 267 334
#     4   9  16  34  54  83 108 141 174 217 273 336
#     4  11  20  35  53  77 109 154 185 215 264 328
#     4   9  20  33  57  80 106 142 192 226 264 324
#     4   9  17  35  55  78 106 141 182 222 272 327
#
# _framework density 19.858568000000002
#
# number of rings (size 3 to 8) (size 9 to 14) (size 15 to 20)
#    0.000    2.500    3.333    3.000    0.000    0.667 
#    0.000    5.833    0.000    3.000    0.000    0.000 
#    0.000    0.000    0.000    0.000    0.000    0.000 
#
# Total GULP energy -133860.190914 kJ/mol
# GULP energy per Si atom -5577.507955 kJ/mol
# Density = 1.981337 g / cm^3
# Si number density = 19.858568 Si / 1000 Ang^3
#
#
#
# Elastic Constant Matrix: (Units=GPa)
#
#
# Indices 1 2 3 4 5 6 
#
# 1 93.6698 25.1149 17.9226 0.0000 19.0006 0.0000
# 2 25.1149 133.0580 29.1803 0.0000 10.8460 0.0000
# 3 17.9226 29.1803 77.0043 0.0000 16.5499 0.0000
# 4 0.0000 0.0000 0.0000 11.8160 0.0000 0.8206
# 5 19.0006 10.8460 16.5499 0.0000 29.5842 0.0000
# 6 0.0000 0.0000 0.0000 0.8206 0.0000 10.5212
#
#
#
# Elastic Compliance Matrix: (Units=1/GPa)
#
#
# Indices 1 2 3 4 5 6 
#
# 1 0.012713 -0.001643 -0.000808 0.000000 -0.007111 0.000000
# 2 -0.001643 0.008463 -0.002711 0.000000 -0.000531 0.000000
# 3 -0.000808 -0.002711 0.015773 0.000000 -0.007311 0.000000
# 4 0.000000 0.000000 0.000000 0.085092 0.000000 -0.006637
# 5 -0.007111 -0.000531 -0.007311 0.000000 0.042653 0.000000
# 6 0.000000 0.000000 0.000000 -0.006637 0.000000 0.095564
#
#
# Mechanical properties :
#
#
# Convention : Reuss Voigt Hill
#
# Bulk Modulus (GPa) = 37.55682 49.79643 43.67663
# Shear Modulus (GPa) = 17.89184 25.81856 21.85520
#
# Velocity S-wave (km/s) = 3.00486 3.60963 3.32104
# Velocity P-wave (km/s) = 5.56706 6.51940 6.06196
#
# Compressibility (1/GPa) = 0.02662632
#
# Stress axis : x y z
#
# Youngs Moduli (GPa) = 78.65769 118.15646 63.40028
#
# Poissons Ratio (x) = 0.19411 0.05124
# Poissons Ratio (y) = 0.12922 0.17185
# Poissons Ratio (z) = 0.06357 0.32027
#
# Static dielectric constant tensor:
#      x y z
#    x 1.730200 0.000000 -0.018050 
#    y 0.000000 1.667690 0.000000 
#    z -0.018050 0.000000 1.785980 
# 
# From -- ./inp_files/87733.got.cif
#   From: 2010.05.17/outbox.cif.g08.bks.cpg/sg12_44_cif.got.tgz:87733.got - 2010.06.03 13:09:07.
