data_PCOD9179261
_publ_section_title
;
Structure prediction by ZEFSAII (Michael W. Deem and Ramdas Pophale) SiO2 
 PCOD9179261
Probable space group: C 2/M
;
_chemical_formula_sum "Si O2"
_cell_formula_units_Z 56
_cell_length_a 18.038192
_cell_length_b 14.160841
_cell_length_c 14.162037
_cell_angle_alpha 90.000000
_cell_angle_beta 62.588011
_cell_angle_gamma 90.000000
_cell_volume 3211.318092
_symmetry_space_group_name_H-M "C 2/M"
_symmetry_group_IT_number 12
_symmetry_cell_setting 'monoclinic'
loop_
_space_group_symop_operation_xyz
x,y,z
-x,y,-z
-x,-y,-z
x,-y,z
1/2+x,1/2+y,z
1/2-x,1/2+y,-z
1/2-x,1/2-y,-z
1/2+x,1/2-y,z
loop_
_atom_site_type_symbol
_atom_site_label
_atom_site_fract_x
_atom_site_fract_y
_atom_site_fract_z
Si Si1 0.913361 0.103021 0.104968
Si Si2 0.047382 0.718908 0.376440
Si Si3 0.762103 0.105658 0.043148
Si Si4 0.903023 0.607745 0.356650
Si Si5 0.810016 0.209881 0.829110
Si Si6 0.176982 0.260477 0.748021
Si Si7 0.191075 0.393915 0.392308
O O1 0.899789 0.194638 0.175780
O O2 0.910504 0.000000 0.155446
O O3 0.837375 0.105329 0.074670
O O4 0.000000 0.108543 0.000000
O O5 0.105994 0.790557 0.283043
O O6 0.112031 0.639436 0.376501
O O7 0.000000 0.754399 0.500000
O O8 0.980101 0.670914 0.347564
O O9 0.799600 0.136222 0.920026
O O10 0.726562 0.000000 0.060487
O O11 0.698985 0.186623 0.116049
O O12 0.928637 0.500000 0.321248
O O13 0.855697 0.657124 0.298700
O O14 0.840114 0.604982 0.482366
O O15 0.731158 0.201931 0.804504
O O16 0.238816 0.185011 0.662138
O O17 0.217126 0.500000 0.349100
#
# Coordination Sequence:
#
# PCOD9179261 Si02
#       7
#     8   8   8   8   8   8   8
#     4   9  18  31  49  72  94 118 156 206 252 283
#     4   9  18  32  52  75 101 131 166 209 251 291
#     4   9  18  33  52  73  96 128 168 207 245 289
#     4  10  20  31  47  74 104 134 161 196 245 296
#     4   9  19  33  52  75  98 132 169 203 245 298
#     4  10  19  31  49  72  99 130 161 199 244 294
#     4   9  17  32  52  73  97 126 168 208 243 286
#
# _framework density 17.438321999999999
#
# number of rings (size 3 to 8) (size 9 to 14) (size 15 to 20)
#    0.000    2.714    0.000    1.286    2.000    6.286 
#    0.000    0.000    0.000    0.857    0.000    0.000 
#    0.000    0.000    0.000    0.000    0.000    0.000 
#
# Total GULP energy -155997.401966 kJ/mol
# GULP energy per Si atom -5571.335784 kJ/mol
# Density = 1.739863 g / cm^3
# Si number density = 17.438322 Si / 1000 Ang^3
#
#
#
# Elastic Constant Matrix: (Units=GPa)
#
#
# Indices 1 2 3 4 5 6 
#
# 1 27.0122 6.9905 9.4349 0.0000 5.0205 0.0000
# 2 6.9905 24.2806 4.0599 0.0000 13.8322 0.0000
# 3 9.4349 4.0599 59.1178 0.0000 1.4755 0.0000
# 4 0.0000 0.0000 0.0000 14.9732 0.0000 3.7148
# 5 5.0205 13.8322 1.4755 0.0000 30.4447 0.0000
# 6 0.0000 0.0000 0.0000 3.7148 0.0000 14.1576
#
#
#
# Elastic Compliance Matrix: (Units=1/GPa)
#
#
# Indices 1 2 3 4 5 6 
#
# 1 0.042068 -0.009882 -0.005981 0.000000 -0.002157 0.000000
# 2 -0.009882 0.058497 -0.001820 0.000000 -0.024859 0.000000
# 3 -0.005981 -0.001820 0.017971 0.000000 0.000942 0.000000
# 4 0.000000 0.000000 0.000000 0.071436 0.000000 -0.018744
# 5 -0.002157 -0.024859 0.000942 0.000000 0.044451 0.000000
# 6 0.000000 0.000000 0.000000 -0.018744 0.000000 0.075552
#
#
# Mechanical properties :
#
#
# Convention : Reuss Voigt Hill
#
# Bulk Modulus (GPa) = 12.02365 16.82012 14.42188
# Shear Modulus (GPa) = 13.40249 17.91011 15.65630
#
# Velocity S-wave (km/s) = 2.77531 3.20825 2.99960
# Velocity P-wave (km/s) = 4.14484 4.83634 4.50388
#
# Compressibility (1/GPa) = 0.08316942
#
# Stress axis : x y z
#
# Youngs Moduli (GPa) = 23.77105 17.09502 55.64388
#
# Poissons Ratio (x) = 0.16894 0.33283
# Poissons Ratio (y) = 0.23491 0.10125
# Poissons Ratio (z) = 0.14218 0.03111
#
# Static dielectric constant tensor:
#      x y z
#    x 1.568380 0.000000 -0.008820 
#    y 0.000000 1.592120 0.000000 
#    z -0.008820 0.000000 1.623640 
# 
# From -- ./inp_files/224673.got.cif
#   From: 2010.05.17/outbox.cif.g08.bks.cpg/sg12_113_cif.got.tgz:224673.got - 2010.06.03 13:09:07.
