data_PCOD9179886
_publ_section_title
;
Structure prediction by ZEFSAII (Michael W. Deem and Ramdas Pophale) SiO2 
 PCOD9179886
Probable space group: C 2/M
;
_chemical_formula_sum "Si O2"
_cell_formula_units_Z 56
_cell_length_a 16.314992
_cell_length_b 7.586676
_cell_length_c 19.522058
_cell_angle_alpha 90.000000
_cell_angle_beta 119.205073
_cell_angle_gamma 90.000000
_cell_volume 2109.201084
_symmetry_space_group_name_H-M "C 2/M"
_symmetry_group_IT_number 12
_symmetry_cell_setting 'monoclinic'
loop_
_space_group_symop_operation_xyz
x,y,z
-x,y,-z
-x,-y,-z
x,-y,z
1/2+x,1/2+y,z
1/2-x,1/2+y,-z
1/2-x,1/2-y,-z
1/2+x,1/2-y,z
loop_
_atom_site_type_symbol
_atom_site_label
_atom_site_fract_x
_atom_site_fract_y
_atom_site_fract_z
Si Si1 0.451596 0.702932 0.197716
Si Si2 0.607015 0.212759 0.474320
Si Si3 0.051445 0.783948 0.951113
Si Si4 0.424478 0.204504 0.338066
Si Si5 0.290112 0.793518 0.618474
Si Si6 0.766258 0.785865 0.905065
Si Si7 0.715429 0.710775 0.236964
O O1 0.480723 0.500000 0.216309
O O2 0.486251 0.775966 0.138288
O O3 0.466723 0.791236 0.277691
O O4 0.338104 0.710457 0.139809
O O5 0.500807 0.278578 0.421888
O O6 0.658752 0.284836 0.426900
O O7 0.679701 0.249867 0.564495
O O8 0.599925 0.000000 0.469094
O O9 0.047555 0.000000 0.947210
O O10 0.160031 0.730176 0.007289
O O11 0.000000 0.730984 0.000000
O O12 0.321524 0.285434 0.289544
O O13 0.409902 0.000000 0.350176
O O14 0.330943 0.746012 0.708918
O O15 0.299059 0.000000 0.615482
O O16 0.813231 0.734982 0.850693
O O17 0.758108 0.000000 0.904271
O O18 0.718862 0.500000 0.233567
#
# Coordination Sequence:
#
# PCOD9179886 Si02
#       7
#     8   8   8   8   8   8   8
#     4  10  19  31  52  78 101 128 163 208 254 291
#     4   9  19  36  54  71  96 133 171 201 238 295
#     4   9  18  32  50  75 104 132 167 208 247 290
#     4   9  19  36  55  73  97 132 170 204 241 292
#     4  10  20  33  51  75 102 130 160 203 253 293
#     4   9  18  34  54  72  97 136 172 201 241 297
#     4   9  18  32  51  73  96 129 169 204 241 291
#
# _framework density 26.550339000000001
#
# number of rings (size 3 to 8) (size 9 to 14) (size 15 to 20)
#    0.000    2.714    0.000    2.143    0.000    5.143 
#    0.000    5.000    0.000    3.857    0.000    0.000 
#    0.000    0.000    0.000    0.000    0.000    0.000 
#
# Total GULP energy -156460.284341 kJ/mol
# GULP energy per Si atom -5587.867298 kJ/mol
# Density = 2.648991 g / cm^3
# Si number density = 26.550339 Si / 1000 Ang^3
#
#
#
# Elastic Constant Matrix: (Units=GPa)
#
#
# Indices 1 2 3 4 5 6 
#
# 1 63.3824 -8.8461 10.6574 0.0000 -9.8062 0.0000
# 2 -8.8461 67.0313 1.6602 0.0000 2.1552 0.0000
# 3 10.6574 1.6602 166.5681 0.0000 -3.7775 0.0000
# 4 0.0000 0.0000 0.0000 18.3436 0.0000 -4.7379
# 5 -9.8062 2.1552 -3.7775 0.0000 50.0055 0.0000
# 6 0.0000 0.0000 0.0000 -4.7379 0.0000 12.5525
#
#
#
# Elastic Compliance Matrix: (Units=1/GPa)
#
#
# Indices 1 2 3 4 5 6 
#
# 1 0.016728 0.002133 -0.001021 0.000000 0.003111 0.000000
# 2 0.002133 0.015216 -0.000294 0.000000 -0.000260 0.000000
# 3 -0.001021 -0.000294 0.006078 0.000000 0.000272 0.000000
# 4 0.000000 0.000000 0.000000 0.060403 0.000000 0.022799
# 5 0.003111 -0.000260 0.000272 0.000000 0.020640 0.000000
# 6 0.000000 0.000000 0.000000 0.022799 0.000000 0.088271
#
#
# Mechanical properties :
#
#
# Convention : Reuss Voigt Hill
#
# Bulk Modulus (GPa) = 25.21617 33.76943 29.49280
# Shear Modulus (GPa) = 22.83953 35.74766 29.29360
#
# Velocity S-wave (km/s) = 2.93616 3.67333 3.32523
# Velocity P-wave (km/s) = 4.58397 5.54416 5.08677
#
# Compressibility (1/GPa) = 0.03965710
#
# Stress axis : x y z
#
# Youngs Moduli (GPa) = 59.78016 65.72241 164.52869
#
# Poissons Ratio (x) = -0.14018 0.16798
# Poissons Ratio (y) = -0.12750 0.04837
# Poissons Ratio (z) = 0.06104 0.01932
#
# Static dielectric constant tensor:
#      x y z
#    x 2.234000 0.000000 -0.025370 
#    y 0.000000 1.968840 0.000000 
#    z -0.025370 0.000000 2.057100 
# 
# From -- ./inp_files/280934.got.cif
#   From: 2010.05.17/outbox.cif.g08.bks.cpg/sg12_141_cif.got.tgz:280934.got - 2010.06.03 13:09:07.
