data_PCOD9179461
_publ_section_title
;
Structure prediction by ZEFSAII (Michael W. Deem and Ramdas Pophale) SiO2 
 PCOD9179461
Probable space group: C 2/M
;
_chemical_formula_sum "Si O2"
_cell_formula_units_Z 44
_cell_length_a 13.520003
_cell_length_b 22.969417
_cell_length_c 11.853023
_cell_angle_alpha 90.000000
_cell_angle_beta 43.581722
_cell_angle_gamma 90.000000
_cell_volume 2537.581008
_symmetry_space_group_name_H-M "C 2/M"
_symmetry_group_IT_number 12
_symmetry_cell_setting 'monoclinic'
loop_
_space_group_symop_operation_xyz
x,y,z
-x,y,-z
-x,-y,-z
x,-y,z
1/2+x,1/2+y,z
1/2-x,1/2+y,-z
1/2-x,1/2-y,-z
1/2+x,1/2-y,z
loop_
_atom_site_type_symbol
_atom_site_label
_atom_site_fract_x
_atom_site_fract_y
_atom_site_fract_z
Si Si1 0.685120 0.066605 0.291621
Si Si2 0.000000 0.896461 0.000000
Si Si3 0.449324 0.863410 0.392177
Si Si4 0.194204 0.713198 0.653400
Si Si5 0.066370 0.204769 0.100138
Si Si6 0.648496 0.248944 0.259316
O O1 0.850889 0.070325 0.123235
O O2 0.648361 0.109946 0.426826
O O3 0.580337 0.090607 0.279657
O O4 0.652171 0.000000 0.347662
O O5 0.999430 0.853989 0.892483
O O6 0.355471 0.848107 0.359720
O O7 0.529314 0.802289 0.356976
O O8 0.250000 0.750000 0.500000
O O9 0.309391 0.720756 0.658132
O O10 0.049897 0.744174 0.817781
O O11 0.103361 0.204805 0.201469
O O12 0.208585 0.218640 0.910685
#
# Coordination Sequence:
#
# PCOD9179461 Si02
#       6
#     8   4   8   8   8   8
#     4  11  22  36  53  76 101 135 186 237 269 296
#     4  12  19  36  54  78 106 142 169 222 274 312
#     4  10  19  33  53  74 105 138 170 221 260 302
#     4  11  19  29  49  78 110 147 171 200 254 326
#     4  10  19  31  50  73 116 143 168 203 254 327
#     4  10  19  33  49  81 113 145 166 200 261 329
#
# _framework density 17.339348000000001
#
# number of rings (size 3 to 8) (size 9 to 14) (size 15 to 20)
#    0.000    1.455    3.636    4.636    0.000    2.182 
#    0.000    0.000    0.000    0.000    0.000    7.636 
#    0.000    0.000    0.000    0.000    0.000    0.000 
#
# Total GULP energy -122600.604708 kJ/mol
# GULP energy per Si atom -5572.754759 kJ/mol
# Density = 1.729988 g / cm^3
# Si number density = 17.339348 Si / 1000 Ang^3
#
#
#
# Elastic Constant Matrix: (Units=GPa)
#
#
# Indices 1 2 3 4 5 6 
#
# 1 123.3116 39.9039 20.3723 0.0000 21.2564 0.0000
# 2 39.9039 76.4838 27.9944 0.0000 4.9932 0.0000
# 3 20.3723 27.9944 63.2377 0.0000 -7.9009 0.0000
# 4 0.0000 0.0000 0.0000 11.9237 0.0000 3.0494
# 5 21.2564 4.9932 -7.9009 0.0000 39.6131 0.0000
# 6 0.0000 0.0000 0.0000 3.0494 0.0000 7.7878
#
#
#
# Elastic Compliance Matrix: (Units=1/GPa)
#
#
# Indices 1 2 3 4 5 6 
#
# 1 0.010928 -0.004505 -0.002244 0.000000 -0.005744 0.000000
# 2 -0.004505 0.017928 -0.006631 0.000000 -0.001165 0.000000
# 3 -0.002244 -0.006631 0.020230 0.000000 0.006075 0.000000
# 4 0.000000 0.000000 0.000000 0.093199 0.000000 -0.036493
# 5 -0.005744 -0.001165 0.006075 0.000000 0.029685 0.000000
# 6 0.000000 0.000000 0.000000 -0.036493 0.000000 0.142695
#
#
# Mechanical properties :
#
#
# Convention : Reuss Voigt Hill
#
# Bulk Modulus (GPa) = 44.78803 48.84159 46.81481
# Shear Modulus (GPa) = 14.33207 23.51577 18.92392
#
# Velocity S-wave (km/s) = 2.87812 3.68667 3.30720
# Velocity P-wave (km/s) = 6.07710 6.80818 6.45300
#
# Compressibility (1/GPa) = 0.02232740
#
# Stress axis : x y z
#
# Youngs Moduli (GPa) = 91.50564 55.77796 49.43042
#
# Poissons Ratio (x) = 0.25130 0.11091
# Poissons Ratio (y) = 0.41227 0.32776
# Poissons Ratio (z) = 0.20532 0.36984
#
# Static dielectric constant tensor:
#      x y z
#    x 1.659920 0.000000 -0.022930 
#    y 0.000000 1.575740 0.000000 
#    z -0.022930 0.000000 1.643890 
# 
# From -- ./inp_files/148542.got.cif
#   From: 2010.05.17/outbox.cif.g08.bks.cpg/sg12_75_cif.got.tgz:148542.got - 2010.06.03 13:09:07.
