data_PCOD9179007
_publ_section_title
;
Structure prediction by ZEFSAII (Michael W. Deem and Ramdas Pophale) SiO2 
 PCOD9179007
Probable space group: C 2/M
;
_chemical_formula_sum "Si O2"
_cell_formula_units_Z 48
_cell_length_a 17.184399
_cell_length_b 14.291954
_cell_length_c 17.399998
_cell_angle_alpha 90.000000
_cell_angle_beta 154.091199
_cell_angle_gamma 90.000000
_cell_volume 1867.226153
_symmetry_space_group_name_H-M "C 2/M"
_symmetry_group_IT_number 12
_symmetry_cell_setting 'monoclinic'
loop_
_space_group_symop_operation_xyz
x,y,z
-x,y,-z
-x,-y,-z
x,-y,z
1/2+x,1/2+y,z
1/2-x,1/2+y,-z
1/2-x,1/2-y,-z
1/2+x,1/2-y,z
loop_
_atom_site_type_symbol
_atom_site_label
_atom_site_fract_x
_atom_site_fract_y
_atom_site_fract_z
Si Si1 0.086069 0.683479 0.789915
Si Si2 0.999913 0.898962 0.747948
Si Si3 0.218482 0.343939 0.609147
Si Si4 0.706684 0.692256 0.160238
Si Si5 0.786063 0.597718 0.804976
Si Si6 0.302584 0.131978 0.647867
O O1 0.263171 0.657522 0.899982
O O2 0.089022 0.794731 0.816308
O O3 0.948958 0.658822 0.597448
O O4 0.998287 0.625308 0.782255
O O5 0.876884 0.902609 0.714093
O O6 0.848436 0.894537 0.546491
O O7 0.096995 0.000000 0.830320
O O8 0.198765 0.357048 0.682849
O O9 0.290920 0.239994 0.659266
O O10 0.775835 0.801072 0.221081
O O11 0.500000 0.692135 0.000000
O O12 0.721246 0.500000 0.783199
O O13 0.754910 0.590737 0.687012
O O14 0.000000 0.600091 0.000000
#
# Coordination Sequence:
#
# PCOD9179007 Si02
#       6
#     8   8   8   8   8   8
#     4   9  17  30  50  72  95 123 157 197 235 273
#     4   9  16  28  50  75  95 118 153 198 241 279
#     4   8  16  31  48  70  96 123 155 195 238 275
#     4  10  19  31  48  69  95 129 163 192 227 278
#     4   9  17  29  44  65  96 126 149 184 235 282
#     4   8  15  29  47  68  93 122 156 192 231 278
#
# _framework density 25.706579999999999
#
# number of rings (size 3 to 8) (size 9 to 14) (size 15 to 20)
#    0.000    3.167    0.000    3.000    0.000    0.667 
#    0.000   13.333    0.000   15.500    0.000    0.000 
#    0.000    0.000    0.000    0.000    0.000    0.000 
#
# Total GULP energy -133674.980292 kJ/mol
# GULP energy per Si atom -5569.790845 kJ/mol
# Density = 2.564807 g / cm^3
# Si number density = 25.706580 Si / 1000 Ang^3
#
#
#
# Elastic Constant Matrix: (Units=GPa)
#
#
# Indices 1 2 3 4 5 6 
#
# 1 109.2019 -17.4598 -4.1426 0.0028 13.8067 0.0026
# 2 -17.4598 63.3120 -0.4956 0.0061 10.7906 0.0023
# 3 -4.1426 -0.4956 62.9793 0.0092 -0.2163 0.0042
# 4 0.0028 0.0061 0.0092 5.4587 0.0056 8.7527
# 5 13.8067 10.7906 -0.2163 0.0056 29.3691 0.0020
# 6 0.0026 0.0023 0.0042 8.7527 0.0020 -22.3792
#
#
#
# Elastic Compliance Matrix: (Units=1/GPa)
#
#
# Indices 1 2 3 4 5 6 
#
# 1 0.010652 0.004049 0.000710 -0.000004 -0.006490 0.000000
# 2 0.004049 0.018390 0.000381 -0.000010 -0.008658 -0.000002
# 3 0.000710 0.000381 0.015927 -0.000020 -0.000357 -0.000005
# 4 -0.000004 -0.000010 -0.000020 0.112589 -0.000019 0.044034
# 5 -0.006490 -0.008658 -0.000357 -0.000019 0.040279 -0.000006
# 6 0.000000 -0.000002 -0.000005 0.044034 -0.000006 -0.027462
#
#
# Mechanical properties :
#
#
# Convention : Reuss Voigt Hill
#
# Bulk Modulus (GPa) = 18.09922 21.25525 19.67724
# Shear Modulus (GPa) = 28.00970 19.66245 23.83607
#
# Velocity S-wave (km/s) = 3.30448 2.76865 3.04836
# Velocity P-wave (km/s) = 4.64924 4.30196 4.47897
#
# Compressibility (1/GPa) = 0.05525099
#
# Stress axis : x y z
#
# Youngs Moduli (GPa) = 93.87632 54.37728 62.78751
#
# Poissons Ratio (x) = -0.22019 -0.04459
# Poissons Ratio (y) = -0.38014 -0.02394
# Poissons Ratio (z) = -0.06668 -0.02074
#
# Static dielectric constant tensor:
#      x y z
#    x 2.000120 -0.000010 0.112510 
#    y -0.000010 2.281180 0.000000 
#    z 0.112510 0.000000 1.975940 
# 
# From -- ./inp_files/278228.got.cif
#   From: 2010.05.17/outbox.cif.g08.bks.cpg/sg12_140_cif.got.tgz:278228.got - 2010.06.03 13:09:07.
