data_PCOD9179449
_publ_section_title
;
Structure prediction by ZEFSAII (Michael W. Deem and Ramdas Pophale) SiO2 
 PCOD9179449
Probable space group: C 2/M
;
_chemical_formula_sum "Si O2"
_cell_formula_units_Z 36
_cell_length_a 13.202816
_cell_length_b 21.956581
_cell_length_c 7.437823
_cell_angle_alpha 90.000000
_cell_angle_beta 57.292176
_cell_angle_gamma 90.000000
_cell_volume 1814.256677
_symmetry_space_group_name_H-M "C 2/M"
_symmetry_group_IT_number 12
_symmetry_cell_setting 'monoclinic'
loop_
_space_group_symop_operation_xyz
x,y,z
-x,y,-z
-x,-y,-z
x,-y,z
1/2+x,1/2+y,z
1/2-x,1/2+y,-z
1/2-x,1/2-y,-z
1/2+x,1/2-y,z
loop_
_atom_site_type_symbol
_atom_site_label
_atom_site_fract_x
_atom_site_fract_y
_atom_site_fract_z
Si Si1 0.752936 0.688109 0.887630
Si Si2 0.353390 0.300226 0.374065
Si Si3 0.876151 0.066570 0.360146
Si Si4 0.841352 0.065946 0.960696
Si Si5 0.000000 0.273458 0.500000
O O1 0.647244 0.691931 0.839700
O O2 0.731209 0.626403 0.017594
O O3 0.882900 0.687477 0.664559
O O4 0.750000 0.750000 0.000000
O O5 0.250000 0.250000 0.500000
O O6 0.327441 0.368287 0.473651
O O7 0.465879 0.270840 0.367124
O O8 0.847350 0.064399 0.173782
O O9 0.839041 0.000000 0.469971
O O10 0.020986 0.070731 0.237040
O O11 0.792937 0.000000 0.949522
#
# Coordination Sequence:
#
# PCOD9179449 Si02
#       5
#     8   8   8   8   4
#     4  10  19  31  50  72  94 126 160 195 239 285
#     4   9  18  31  46  68  99 127 157 197 236 281
#     4   8  13  24  44  67  91 121 155 193 237 280
#     4   8  14  25  43  68  93 117 153 197 237 279
#     4  10  20  32  46  70 100 126 160 198 234 284
#
# _framework density 19.842835999999998
#
# number of rings (size 3 to 8) (size 9 to 14) (size 15 to 20)
#    0.000    3.111    0.000    2.667    0.000    2.667 
#    0.000    1.111    0.000    6.667    0.000    1.556 
#    0.000    0.000    0.000    0.000    0.000    0.000 
#
# Total GULP energy -100207.183181 kJ/mol
# GULP energy per Si atom -5567.065732 kJ/mol
# Density = 1.979767 g / cm^3
# Si number density = 19.842836 Si / 1000 Ang^3
#
#
#
# Elastic Constant Matrix: (Units=GPa)
#
#
# Indices 1 2 3 4 5 6 
#
# 1 70.1619 29.7648 13.4721 0.0000 1.5746 0.0000
# 2 29.7648 231.0831 28.8075 0.0000 -10.6167 0.0000
# 3 13.4721 28.8075 42.0478 0.0000 -2.6727 0.0000
# 4 0.0000 0.0000 0.0000 19.8336 0.0000 -8.2921
# 5 1.5746 -10.6167 -2.6727 0.0000 19.7124 0.0000
# 6 0.0000 0.0000 0.0000 -8.2921 0.0000 24.3163
#
#
#
# Elastic Compliance Matrix: (Units=1/GPa)
#
#
# Indices 1 2 3 4 5 6 
#
# 1 0.015801 -0.001648 -0.004106 0.000000 -0.002706 0.000000
# 2 -0.001648 0.004993 -0.002737 0.000000 0.002450 0.000000
# 3 -0.004106 -0.002737 0.027134 0.000000 0.002533 0.000000
# 4 0.000000 0.000000 0.000000 0.058803 0.000000 0.020052
# 5 -0.002706 0.002450 0.002533 0.000000 0.052608 0.000000
# 6 0.000000 0.000000 0.000000 0.020052 0.000000 0.047963
#
#
# Mechanical properties :
#
#
# Convention : Reuss Voigt Hill
#
# Bulk Modulus (GPa) = 32.31343 54.15352 43.23348
# Shear Modulus (GPa) = 21.31283 30.85570 26.08426
#
# Velocity S-wave (km/s) = 3.28087 3.94763 3.62960
# Velocity P-wave (km/s) = 5.53825 6.93750 6.27699
#
# Compressibility (1/GPa) = 0.03094688
#
# Stress axis : x y z
#
# Youngs Moduli (GPa) = 63.28768 200.26046 36.85363
#
# Poissons Ratio (x) = 0.32998 0.15131
# Poissons Ratio (y) = 0.10428 0.10089
# Poissons Ratio (z) = 0.25984 0.54820
#
# Static dielectric constant tensor:
#      x y z
#    x 1.732930 0.000000 0.064650 
#    y 0.000000 1.784480 0.000000 
#    z 0.064650 0.000000 1.778970 
# 
# From -- ./inp_files/50158.got.cif
#   From: 2010.05.17/outbox.cif.g08.bks.cpg/sg12_26_cif.got.tgz:50158.got - 2010.06.03 13:09:07.
