data_PCOD9179544
_publ_section_title
;
Structure prediction by ZEFSAII (Michael W. Deem and Ramdas Pophale) SiO2 
 PCOD9179544
Probable space group: C 2/M
;
_chemical_formula_sum "Si O2"
_cell_formula_units_Z 48
_cell_length_a 30.000325
_cell_length_b 12.562812
_cell_length_c 7.354783
_cell_angle_alpha 90.000000
_cell_angle_beta 111.846178
_cell_angle_gamma 90.000000
_cell_volume 2572.869742
_symmetry_space_group_name_H-M "C 2/M"
_symmetry_group_IT_number 12
_symmetry_cell_setting 'monoclinic'
loop_
_space_group_symop_operation_xyz
x,y,z
-x,y,-z
-x,-y,-z
x,-y,z
1/2+x,1/2+y,z
1/2-x,1/2+y,-z
1/2-x,1/2-y,-z
1/2+x,1/2-y,z
loop_
_atom_site_type_symbol
_atom_site_label
_atom_site_fract_x
_atom_site_fract_y
_atom_site_fract_z
Si Si1 0.447312 0.222634 0.381245
Si Si2 0.848303 0.621470 0.145192
Si Si3 0.401767 0.378070 0.602947
Si Si4 0.195807 0.223784 0.634595
Si Si5 0.548996 0.622935 0.958605
Si Si6 0.796736 0.624650 0.701572
O O1 0.500000 0.176357 0.500000
O O2 0.403609 0.142110 0.281413
O O3 0.432673 0.297292 0.529019
O O4 0.449497 0.298276 0.207534
O O5 0.834624 0.500000 0.170113
O O6 0.817004 0.706786 0.208656
O O7 0.837806 0.636480 0.915996
O O8 0.416967 0.500000 0.593575
O O9 0.346982 0.359757 0.462370
O O10 0.409766 0.357276 0.828887
O O11 0.194342 0.305082 0.462404
O O12 0.246951 0.166463 0.713075
O O13 0.552213 0.500000 0.901095
O O14 0.500000 0.634041 0.000000
O O15 0.792519 0.500000 0.648888
#
# Coordination Sequence:
#
# PCOD9179544 Si02
#       6
#     8   8   8   8   8   8
#     4  11  21  34  53  75 102 139 180 219 259 304
#     4  10  22  38  55  76 105 139 176 217 259 304
#     4  10  20  33  51  78 110 138 171 213 258 310
#     4  10  20  35  57  82 106 137 172 210 257 310
#     4  10  19  31  50  75 104 137 170 208 258 311
#     4  10  20  36  58  81 107 136 170 211 259 312
#
# _framework density 18.656210999999999
#
# number of rings (size 3 to 8) (size 9 to 14) (size 15 to 20)
#    0.000    1.833    1.667    3.000    0.000    1.000 
#    0.000    0.000    0.000   16.500    0.000    0.000 
#    0.000    0.000    0.000    0.000    0.000    0.000 
#
# Total GULP energy -133979.803051 kJ/mol
# GULP energy per Si atom -5582.491794 kJ/mol
# Density = 1.861375 g / cm^3
# Si number density = 18.656211 Si / 1000 Ang^3
#
#
#
# Elastic Constant Matrix: (Units=GPa)
#
#
# Indices 1 2 3 4 5 6 
#
# 1 36.7778 -8.4391 -7.6862 0.0000 8.4727 0.0000
# 2 -8.4391 42.5214 9.9670 0.0000 2.7738 0.0000
# 3 -7.6862 9.9670 57.2694 0.0000 7.6652 0.0000
# 4 0.0000 0.0000 0.0000 26.1782 0.0000 -2.1697
# 5 8.4727 2.7738 7.6652 0.0000 26.2990 0.0000
# 6 0.0000 0.0000 0.0000 -2.1697 0.0000 -1.5122
#
#
#
# Elastic Compliance Matrix: (Units=1/GPa)
#
#
# Indices 1 2 3 4 5 6 
#
# 1 0.032532 0.006108 0.004987 0.000000 -0.012578 0.000000
# 2 0.006108 0.025714 -0.003152 0.000000 -0.003761 0.000000
# 3 0.004987 -0.003152 0.019615 0.000000 -0.006991 0.000000
# 4 0.000000 0.000000 0.000000 0.034140 0.000000 -0.048982
# 5 -0.012578 -0.003761 -0.006991 0.000000 0.044511 0.000000
# 6 0.000000 0.000000 0.000000 -0.048982 0.000000 -0.590994
#
#
# Mechanical properties :
#
#
# Convention : Reuss Voigt Hill
#
# Bulk Modulus (GPa) = 10.66707 13.80577 12.23642
# Shear Modulus (GPa) = -11.92979 19.70812 3.88917
#
# Velocity S-wave (km/s) = -2.53149 3.25373 1.44540
# Velocity P-wave (km/s) = 1.67763 4.64024 3.05920
#
# Compressibility (1/GPa) = 0.09374648
#
# Stress axis : x y z
#
# Youngs Moduli (GPa) = 30.73912 38.88931 50.98162
#
# Poissons Ratio (x) = -0.23754 -0.25423
# Poissons Ratio (y) = -0.18776 0.16069
# Poissons Ratio (z) = -0.15329 0.12258
#
# Static dielectric constant tensor:
#      x y z
#    x 1.642360 0.000000 0.020910 
#    y 0.000000 1.602980 0.000000 
#    z 0.020910 0.000000 1.643590 
# 
# From -- ./inp_files/31392.got.cif
#   From: 2010.05.17/outbox.cif.g08.bks.cpg/sg12_16_cif.got.tgz:31392.got - 2010.06.03 13:09:07.
