data_PCOD9179746
_publ_section_title
;
Structure prediction by ZEFSAII (Michael W. Deem and Ramdas Pophale) SiO2 
 PCOD9179746
Probable space group: C 2/M
;
_chemical_formula_sum "Si O2"
_cell_formula_units_Z 56
_cell_length_a 28.327788
_cell_length_b 7.614259
_cell_length_c 18.188613
_cell_angle_alpha 90.000000
_cell_angle_beta 136.234046
_cell_angle_gamma 90.000000
_cell_volume 2713.729555
_symmetry_space_group_name_H-M "C 2/M"
_symmetry_group_IT_number 12
_symmetry_cell_setting 'monoclinic'
loop_
_space_group_symop_operation_xyz
x,y,z
-x,y,-z
-x,-y,-z
x,-y,z
1/2+x,1/2+y,z
1/2-x,1/2+y,-z
1/2-x,1/2-y,-z
1/2+x,1/2-y,z
loop_
_atom_site_type_symbol
_atom_site_label
_atom_site_fract_x
_atom_site_fract_y
_atom_site_fract_z
Si Si1 0.914801 0.210300 0.667874
Si Si2 0.639056 0.298034 0.107898
Si Si3 0.174823 0.210158 0.885156
Si Si4 0.682631 0.284495 0.313515
Si Si5 0.934718 0.783471 0.118604
Si Si6 0.209886 0.204911 0.766699
Si Si7 0.332252 0.208202 0.437316
O O1 0.856481 0.276173 0.658123
O O2 0.893481 0.250973 0.560869
O O3 0.989174 0.273124 0.775720
O O4 0.916016 0.000000 0.676310
O O5 0.617507 0.500000 0.092935
O O6 0.644103 0.223743 0.195834
O O7 0.717062 0.294472 0.165901
O O8 0.591550 0.222034 0.990743
O O9 0.118213 0.276478 0.878205
O O10 0.173958 0.273648 0.799888
O O11 0.165820 0.000000 0.873229
O O12 0.250000 0.250000 0.000000
O O13 0.682974 0.500000 0.313555
O O14 0.761152 0.226740 0.394071
O O15 0.933115 0.000000 0.115415
O O16 0.165898 0.220715 0.643263
O O17 0.225975 0.000000 0.796450
O O18 0.326347 0.000000 0.423533
#
# Coordination Sequence:
#
# PCOD9179746 Si02
#       7
#     8   8   8   8   8   8   8
#     4  10  19  33  51  73 102 135 170 206 245 295
#     4   9  16  30  50  74 105 134 162 201 249 296
#     4  10  19  32  52  78 103 130 165 202 246 296
#     4   8  16  29  50  77  99 127 168 208 247 291
#     4   9  18  31  50  75 105 136 164 200 248 298
#     4  10  19  31  51  78 101 126 166 211 249 291
#     4  10  20  35  53  73  99 131 169 211 253 295
#
# _framework density 20.635805999999999
#
# number of rings (size 3 to 8) (size 9 to 14) (size 15 to 20)
#    0.000    2.571    1.429    2.143    0.000    1.143 
#    0.000    7.857    0.000    4.286    0.000    5.000 
#    0.000    0.000    0.000    0.000    0.000    0.000 
#
# Total GULP energy -156239.488937 kJ/mol
# GULP energy per Si atom -5579.981748 kJ/mol
# Density = 2.058884 g / cm^3
# Si number density = 20.635806 Si / 1000 Ang^3
#
#
#
# Elastic Constant Matrix: (Units=GPa)
#
#
# Indices 1 2 3 4 5 6 
#
# 1 27.6275 -1.7526 16.5790 0.0000 -16.5180 0.0000
# 2 -1.7526 41.0677 -7.6725 0.0000 2.0389 0.0000
# 3 16.5790 -7.6725 141.1901 0.0000 -19.3094 0.0000
# 4 0.0000 0.0000 0.0000 15.3395 0.0000 1.4694
# 5 -16.5180 2.0389 -19.3094 0.0000 24.0372 0.0000
# 6 0.0000 0.0000 0.0000 1.4694 0.0000 8.3787
#
#
#
# Elastic Compliance Matrix: (Units=1/GPa)
#
#
# Indices 1 2 3 4 5 6 
#
# 1 0.061772 0.000293 -0.001613 0.000000 0.041129 0.000000
# 2 0.000293 0.024629 0.001175 0.000000 -0.000944 0.000000
# 3 -0.001613 0.001175 0.008056 0.000000 0.005263 0.000000
# 4 0.000000 0.000000 0.000000 0.066305 0.000000 -0.011628
# 5 0.041129 -0.000944 0.005263 0.000000 0.074173 0.000000
# 6 0.000000 0.000000 0.000000 -0.011628 0.000000 0.121389
#
#
# Mechanical properties :
#
#
# Convention : Reuss Voigt Hill
#
# Bulk Modulus (GPa) = 10.61943 24.91032 17.76488
# Shear Modulus (GPa) = 12.88650 23.06652 17.97651
#
# Velocity S-wave (km/s) = 2.50166 3.34697 2.95470
# Velocity P-wave (km/s) = 3.67446 5.19941 4.50197
#
# Compressibility (1/GPa) = 0.09416698
#
# Stress axis : x y z
#
# Youngs Moduli (GPa) = 16.18850 40.60269 124.13581
#
# Poissons Ratio (x) = -0.01189 0.20020
# Poissons Ratio (y) = -0.00474 -0.14584
# Poissons Ratio (z) = 0.02611 -0.04770
#
# Static dielectric constant tensor:
#      x y z
#    x 1.709370 0.000000 -0.035150 
#    y 0.000000 1.777900 0.000000 
#    z -0.035150 0.000000 1.725880 
# 
# From -- ./inp_files/288156.got.cif
#   From: 2010.05.17/outbox.cif.g08.bks.cpg/sg12_145_cif.got.tgz:288156.got - 2010.06.03 13:09:07.
