data_PCOD9179295
_publ_section_title
;
Structure prediction by ZEFSAII (Michael W. Deem and Ramdas Pophale) SiO2 
 PCOD9179295
Probable space group: C 2/M
;
_chemical_formula_sum "Si O2"
_cell_formula_units_Z 58
_cell_length_a 27.289067
_cell_length_b 14.043019
_cell_length_c 15.390564
_cell_angle_alpha 90.000000
_cell_angle_beta 34.935511
_cell_angle_gamma 90.000000
_cell_volume 3377.505507
_symmetry_space_group_name_H-M "C 2/M"
_symmetry_group_IT_number 12
_symmetry_cell_setting 'monoclinic'
loop_
_space_group_symop_operation_xyz
x,y,z
-x,y,-z
-x,-y,-z
x,-y,z
1/2+x,1/2+y,z
1/2-x,1/2+y,-z
1/2-x,1/2-y,-z
1/2+x,1/2-y,z
loop_
_atom_site_type_symbol
_atom_site_label
_atom_site_fract_x
_atom_site_fract_y
_atom_site_fract_z
Si Si1 0.972639 0.744725 0.139243
Si Si2 0.621800 0.613647 0.606790
Si Si3 0.128742 0.389032 0.954781
Si Si4 0.000000 0.000000 0.500000
Si Si5 0.731107 0.110604 0.982718
Si Si6 0.317286 0.110387 0.321543
Si Si7 0.933947 0.813497 0.495264
Si Si8 0.878969 0.257401 0.750106
O O1 0.945355 0.838966 0.229913
O O2 0.888540 0.678077 0.258376
O O3 0.000000 0.764002 0.000000
O O4 0.049700 0.683982 0.069576
O O5 0.609118 0.500000 0.615595
O O6 0.720330 0.628825 0.491568
O O7 0.608953 0.666403 0.533681
O O8 0.099488 0.500000 0.002382
O O9 0.175783 0.378838 0.793505
O O10 0.191411 0.372541 0.944728
O O11 0.950053 0.084615 0.517882
O O12 0.661554 0.147370 0.152797
O O13 0.750836 0.000000 0.962948
O O14 0.815983 0.172602 0.870977
O O15 0.338185 0.000000 0.309956
O O16 0.884088 0.749979 0.638378
O O17 0.026843 0.764426 0.350821
#
# Coordination Sequence:
#
# PCOD9179295 Si02
#       8
#     8   8   8   2   8   8   8   8
#     4  10  20  34  51  71 102 133 158 199 253 300
#     4  11  21  32  51  75  99 128 169 205 243 297
#     4   9  17  31  52  76  96 125 164 208 245 291
#     4   8  16  28  48  72  92 120 150 202 256 268
#     4  10  19  31  49  73 104 132 163 202 250 296
#     4   9  18  32  51  76  97 123 163 212 248 286
#     4  10  19  33  51  71  99 127 168 212 246 286
#     4   9  20  32  48  74  99 131 165 204 249 298
#
# _framework density 17.172436000000001
#
# number of rings (size 3 to 8) (size 9 to 14) (size 15 to 20)
#    0.000    2.483    0.690    2.483    3.862    3.034 
#    0.000    1.379    0.000    1.655    0.000    7.724 
#    0.000    0.000    0.000    0.000    0.000    0.000 
#
# Total GULP energy -161441.937239 kJ/mol
# GULP energy per Si atom -5566.963353 kJ/mol
# Density = 1.713335 g / cm^3
# Si number density = 17.172436 Si / 1000 Ang^3
#
#
#
# Elastic Constant Matrix: (Units=GPa)
#
#
# Indices 1 2 3 4 5 6 
#
# 1 15.1760 0.0049 -13.8157 0.0000 -1.5318 0.0000
# 2 0.0049 27.7390 12.2397 0.0000 -2.6590 0.0000
# 3 -13.8157 12.2397 53.6018 0.0000 -8.6459 0.0000
# 4 0.0000 0.0000 0.0000 23.3436 0.0000 3.6425
# 5 -1.5318 -2.6590 -8.6459 0.0000 11.7655 0.0000
# 6 0.0000 0.0000 0.0000 3.6425 0.0000 14.4773
#
#
#
# Elastic Compliance Matrix: (Units=1/GPa)
#
#
# Indices 1 2 3 4 5 6 
#
# 1 0.100895 -0.011797 0.034474 0.000000 0.035803 0.000000
# 2 -0.011797 0.041542 -0.012774 0.000000 -0.001534 0.000000
# 3 0.034474 -0.012774 0.034847 0.000000 0.027209 0.000000
# 4 0.000000 0.000000 0.000000 0.044589 0.000000 -0.011219
# 5 0.035803 -0.001534 0.027209 0.000000 0.109303 0.000000
# 6 0.000000 0.000000 0.000000 -0.011219 0.000000 0.071896
#
#
# Mechanical properties :
#
#
# Convention : Reuss Voigt Hill
#
# Bulk Modulus (GPa) = 5.07383 10.37497 7.72440
# Shear Modulus (GPa) = 11.13675 16.45646 13.79661
#
# Velocity S-wave (km/s) = 2.54938 3.09901 2.83753
# Velocity P-wave (km/s) = 3.40981 4.34280 3.90428
#
# Compressibility (1/GPa) = 0.19708979
#
# Stress axis : x y z
#
# Youngs Moduli (GPa) = 9.91128 24.07210 28.69663
#
# Poissons Ratio (x) = 0.28399 -0.98929
# Poissons Ratio (y) = 0.11693 0.36657
# Poissons Ratio (z) = -0.34168 0.30750
#
# Static dielectric constant tensor:
#      x y z
#    x 1.579700 0.000000 0.009620 
#    y 0.000000 1.553730 0.000000 
#    z 0.009620 0.000000 1.603340 
# 
# From -- ./inp_files/296265.got.cif
#   From: 2010.05.17/outbox.cif.g08.bks.cpg/sg12_149_cif.got.tgz:296265.got - 2010.06.03 13:09:07.
