data_PCOD9179925
_publ_section_title
;
Structure prediction by ZEFSAII (Michael W. Deem and Ramdas Pophale) SiO2 
 PCOD9179925
Probable space group: C 2/M
;
_chemical_formula_sum "Si O2"
_cell_formula_units_Z 64
_cell_length_a 21.070760
_cell_length_b 9.041810
_cell_length_c 25.046898
_cell_angle_alpha 90.000000
_cell_angle_beta 127.820556
_cell_angle_gamma 90.000000
_cell_volume 3769.475448
_symmetry_space_group_name_H-M "C 2/M"
_symmetry_group_IT_number 12
_symmetry_cell_setting 'monoclinic'
loop_
_space_group_symop_operation_xyz
x,y,z
-x,y,-z
-x,-y,-z
x,-y,z
1/2+x,1/2+y,z
1/2-x,1/2+y,-z
1/2-x,1/2-y,-z
1/2+x,1/2-y,z
loop_
_atom_site_type_symbol
_atom_site_label
_atom_site_fract_x
_atom_site_fract_y
_atom_site_fract_z
Si Si1 0.478612 0.177769 0.796517
Si Si2 0.121540 0.823997 0.930556
Si Si3 0.758336 0.323699 0.418843
Si Si4 0.207684 0.678235 0.286415
Si Si5 0.627017 0.822761 0.427593
Si Si6 0.789613 0.821723 0.217573
Si Si7 0.538147 0.177343 0.707762
Si Si8 0.270325 0.177091 0.928522
O O1 0.538518 0.252569 0.869182
O O2 0.385935 0.221117 0.756386
O O3 0.508199 0.216075 0.752051
O O4 0.483616 0.000000 0.804452
O O5 0.188538 0.790215 0.919411
O O6 0.114439 0.000000 0.930806
O O7 0.157965 0.757064 0.003486
O O8 0.750780 0.500000 0.410651
O O9 0.756228 0.250586 0.359949
O O10 0.683630 0.258670 0.414085
O O11 0.836664 0.290446 0.495421
O O12 0.211631 0.500000 0.293459
O O13 0.243176 0.720733 0.247361
O O14 0.534760 0.783219 0.369609
O O15 0.634765 0.000000 0.422332
O O16 0.878585 0.755350 0.262019
O O17 0.743466 0.776787 0.139597
O O18 0.795418 0.000000 0.219181
O O19 0.549172 0.000000 0.711714
O O20 0.282693 0.000000 0.937149
#
# Coordination Sequence:
#
# PCOD9179925 Si02
#       8
#     8   8   8   8   8   8   8   8
#     4  10  19  33  54  78 103 138 177 213 258 313
#     4  10  19  31  52  80 106 132 168 221 267 302
#     4  10  19  31  53  81 108 138 177 223 265 307
#     4  10  21  38  56  75 108 147 178 212 264 323
#     4   9  18  34  53  78 109 141 176 217 267 317
#     4  10  21  37  56  78 106 141 178 220 263 310
#     4  10  19  33  55  79 105 137 175 219 264 312
#     4   9  18  33  51  75 105 135 172 213 259 316
#
# _framework density 16.978489
#
# number of rings (size 3 to 8) (size 9 to 14) (size 15 to 20)
#    0.000    2.250    2.500    0.750    0.000    3.000 
#    0.000    1.250    0.000    7.500    0.000    0.000 
#    0.000    0.000    0.000    0.000    0.000    0.000 
#
# Total GULP energy -178522.846889 kJ/mol
# GULP energy per Si atom -5578.838965 kJ/mol
# Density = 1.693985 g / cm^3
# Si number density = 16.978489 Si / 1000 Ang^3
#
#
#
# Elastic Constant Matrix: (Units=GPa)
#
#
# Indices 1 2 3 4 5 6 
#
# 1 97.4420 31.6584 71.8652 0.0000 -6.7861 0.0000
# 2 31.6584 18.0272 47.1449 0.0000 -2.6032 0.0000
# 3 71.8652 47.1449 170.2257 0.0000 -6.1384 0.0000
# 4 0.0000 0.0000 0.0000 31.5609 0.0000 2.1387
# 5 -6.7861 -2.6032 -6.1384 0.0000 25.8751 0.0000
# 6 0.0000 0.0000 0.0000 2.1387 0.0000 22.1326
#
#
#
# Elastic Compliance Matrix: (Units=1/GPa)
#
#
# Indices 1 2 3 4 5 6 
#
# 1 0.025553 -0.060061 0.005921 0.000000 0.002064 0.000000
# 2 -0.060061 0.343665 -0.069741 0.000000 0.002278 0.000000
# 3 0.005921 -0.069741 0.022687 0.000000 -0.000081 0.000000
# 4 0.000000 0.000000 0.000000 0.031894 0.000000 -0.003082
# 5 0.002064 0.002278 -0.000081 0.000000 0.039398 0.000000
# 6 0.000000 0.000000 0.000000 -0.003082 0.000000 0.045480
#
#
# Mechanical properties :
#
#
# Convention : Reuss Voigt Hill
#
# Bulk Modulus (GPa) = 6.93760 65.22578 36.08169
# Shear Modulus (GPa) = 6.21513 24.91547 15.56530
#
# Velocity S-wave (km/s) = 1.91534 3.83492 3.03110
# Velocity P-wave (km/s) = 2.99773 7.62292 5.79203
#
# Compressibility (1/GPa) = 0.14414212
#
# Stress axis : x y z
#
# Youngs Moduli (GPa) = 39.13416 2.90981 44.07752
#
# Poissons Ratio (x) = 0.17477 -0.26097
# Poissons Ratio (y) = 2.35043 3.07403
# Poissons Ratio (z) = -0.23170 0.20293
#
# Static dielectric constant tensor:
#      x y z
#    x 1.547050 0.000000 -0.006700 
#    y 0.000000 1.567050 0.000000 
#    z -0.006700 0.000000 1.577420 
# 
# From -- ./inp_files/346024.got.cif
#   From: 2010.05.17/outbox.cif.g08.bks.cpg/sg12_174_cif.got.tgz:346024.got - 2010.06.03 13:09:07.
