data_PCOD9179858
_publ_section_title
;
Structure prediction by ZEFSAII (Michael W. Deem and Ramdas Pophale) SiO2 
 PCOD9179858
Probable space group: C 2/M
;
_chemical_formula_sum "Si O2"
_cell_formula_units_Z 48
_cell_length_a 18.570183
_cell_length_b 14.870988
_cell_length_c 8.463538
_cell_angle_alpha 90.000000
_cell_angle_beta 79.506530
_cell_angle_gamma 90.000000
_cell_volume 2298.175807
_symmetry_space_group_name_H-M "C 2/M"
_symmetry_group_IT_number 12
_symmetry_cell_setting 'monoclinic'
loop_
_space_group_symop_operation_xyz
x,y,z
-x,y,-z
-x,-y,-z
x,-y,z
1/2+x,1/2+y,z
1/2-x,1/2+y,-z
1/2-x,1/2-y,-z
1/2+x,1/2-y,z
loop_
_atom_site_type_symbol
_atom_site_label
_atom_site_fract_x
_atom_site_fract_y
_atom_site_fract_z
Si Si1 0.716875 0.892179 0.755709
Si Si2 0.296134 0.608999 0.050341
Si Si3 0.085214 0.598605 0.004057
Si Si4 0.035502 0.098896 0.654852
Si Si5 0.707298 0.609218 0.595459
Si Si6 0.435904 0.718931 0.900811
O O1 0.749164 0.856490 0.577506
O O2 0.728781 0.000000 0.744047
O O3 0.753786 0.862478 0.906965
O O4 0.631117 0.878057 0.827167
O O5 0.300768 0.500000 0.047322
O O6 0.268541 0.637165 0.236638
O O7 0.375102 0.654012 0.997104
O O8 0.112094 0.500000 0.049503
O O9 0.095686 0.681756 0.117882
O O10 0.000000 0.589108 0.000000
O O11 0.120241 0.128637 0.614494
O O12 0.000000 0.086041 0.500000
O O13 0.979477 0.169104 0.749186
O O14 0.034645 0.000000 0.737795
O O15 0.713384 0.500000 0.590757
O O16 0.500000 0.733822 0.000000
#
# Coordination Sequence:
#
# PCOD9179858 Si02
#       6
#     8   8   8   8   8   8
#     4   9  18  35  58  80 108 148 187 228 284 338
#     4  10  19  31  52  85 120 148 178 218 275 349
#     4   9  20  39  62  79  99 142 197 246 286 322
#     4  10  19  31  51  82 120 156 182 210 266 345
#     4   9  17  30  50  80 116 147 176 218 272 337
#     4  11  20  32  55  80 113 151 190 224 272 326
#
# _framework density 20.886130000000001
#
# number of rings (size 3 to 8) (size 9 to 14) (size 15 to 20)
#    0.000    2.333    1.667    1.500    0.000    4.000 
#    0.000    0.833    7.333    0.500    0.000    0.000 
#    0.000    0.000    0.000    0.000    0.000    0.000 
#
# Total GULP energy -133627.891207 kJ/mol
# GULP energy per Si atom -5567.828800 kJ/mol
# Density = 2.083859 g / cm^3
# Si number density = 20.886130 Si / 1000 Ang^3
#
#
#
# Elastic Constant Matrix: (Units=GPa)
#
#
# Indices 1 2 3 4 5 6 
#
# 1 76.2271 11.9136 63.7135 0.0000 -16.5735 0.0000
# 2 11.9136 81.8160 55.5987 0.0000 -15.3242 0.0000
# 3 63.7135 55.5987 173.0048 0.0000 -24.6579 0.0000
# 4 0.0000 0.0000 0.0000 -6.3924 0.0000 23.7046
# 5 -16.5735 -15.3242 -24.6579 0.0000 34.3639 0.0000
# 6 0.0000 0.0000 0.0000 23.7046 0.0000 -24.0988
#
#
#
# Elastic Compliance Matrix: (Units=1/GPa)
#
#
# Indices 1 2 3 4 5 6 
#
# 1 0.020318 0.003385 -0.007752 0.000000 0.005747 0.000000
# 2 0.003385 0.016648 -0.005911 0.000000 0.004816 0.000000
# 3 -0.007752 -0.005911 0.010722 0.000000 0.001320 0.000000
# 4 0.000000 0.000000 0.000000 0.059086 0.000000 0.058119
# 5 0.005747 0.004816 0.001320 0.000000 0.034966 0.000000
# 6 0.000000 0.000000 0.000000 0.058119 0.000000 0.015673
#
#
# Mechanical properties :
#
#
# Convention : Reuss Voigt Hill
#
# Bulk Modulus (GPa) = 36.85249 65.94438 51.39844
# Shear Modulus (GPa) = 26.73618 14.09603 20.41610
#
# Velocity S-wave (km/s) = 3.58172 2.60070 3.12988
# Velocity P-wave (km/s) = 5.89811 6.37652 6.14198
#
# Compressibility (1/GPa) = 0.02713521
#
# Stress axis : x y z
#
# Youngs Moduli (GPa) = 49.21719 60.06662 93.26197
#
# Poissons Ratio (x) = -0.20335 0.72293
# Poissons Ratio (y) = -0.16662 0.55124
# Poissons Ratio (z) = 0.38151 0.35503
#
# Static dielectric constant tensor:
#      x y z
#    x 1.762540 0.000000 0.006190 
#    y 0.000000 1.921000 0.000000 
#    z 0.006190 0.000000 1.747800 
# 
# From -- ./inp_files/85697.got.cif
#   From: 2010.05.17/outbox.cif.g08.bks.cpg/sg12_43_cif.got.tgz:85697.got - 2010.06.03 13:09:07.
