data_PCOD9179489
_publ_section_title
;
Structure prediction by ZEFSAII (Michael W. Deem and Ramdas Pophale) SiO2 
 PCOD9179489
Probable space group: C 2/M
;
_chemical_formula_sum "Si O2"
_cell_formula_units_Z 64
_cell_length_a 23.022514
_cell_length_b 9.459780
_cell_length_c 14.649788
_cell_angle_alpha 90.000000
_cell_angle_beta 73.419034
_cell_angle_gamma 90.000000
_cell_volume 3057.875680
_symmetry_space_group_name_H-M "C 2/M"
_symmetry_group_IT_number 12
_symmetry_cell_setting 'monoclinic'
loop_
_space_group_symop_operation_xyz
x,y,z
-x,y,-z
-x,-y,-z
x,-y,z
1/2+x,1/2+y,z
1/2-x,1/2+y,-z
1/2-x,1/2-y,-z
1/2+x,1/2-y,z
loop_
_atom_site_type_symbol
_atom_site_label
_atom_site_fract_x
_atom_site_fract_y
_atom_site_fract_z
Si Si1 0.882899 0.338444 0.607996
Si Si2 0.297992 0.658440 0.534628
Si Si3 0.299847 0.157131 0.270441
Si Si4 0.567920 0.671370 0.950152
Si Si5 0.865167 0.833168 0.900892
Si Si6 0.779254 0.338845 0.814321
Si Si7 0.594695 0.668409 0.728357
Si Si8 0.466672 0.665386 0.697313
O O1 0.894754 0.500000 0.575811
O O2 0.857481 0.245324 0.535883
O O3 0.830113 0.343081 0.710296
O O4 0.939460 0.263044 0.630837
O O5 0.309273 0.500000 0.492395
O O6 0.250000 0.750000 0.500000
O O7 0.261997 0.639610 0.645682
O O8 0.279445 0.257339 0.196863
O O9 0.346640 0.237643 0.315809
O O10 0.321428 0.000000 0.235152
O O11 0.567037 0.500000 0.956931
O O12 0.582770 0.705724 0.839769
O O13 0.500000 0.722225 0.000000
O O14 0.612950 0.717652 0.009909
O O15 0.810894 0.744221 0.882218
O O16 0.922714 0.820498 0.805735
O O17 0.849651 0.000000 0.910685
O O18 0.763859 0.500000 0.844283
O O19 0.606143 0.500000 0.718302
O O20 0.534950 0.698997 0.696912
O O21 0.463783 0.500000 0.671472
#
# Coordination Sequence:
#
# PCOD9179489 Si02
#       8
#     8   8   8   8   8   8   8   8
#     4   9  17  29  48  75 104 131 162 202 245 290
#     4  10  20  35  57  82 105 129 159 198 245 296
#     4  10  21  36  52  73 102 133 165 200 245 301
#     4   9  15  27  47  72  99 130 172 216 255 296
#     4   9  15  26  47  71  96 126 166 215 259 297
#     4   9  17  30  48  69  95 127 166 210 252 296
#     4  10  19  31  50  74 101 136 174 210 250 297
#     4   9  16  27  46  72 100 132 170 209 248 291
#
# _framework density 20.929563999999999
#
# number of rings (size 3 to 8) (size 9 to 14) (size 15 to 20)
#    0.000    2.625    1.250    1.500    0.000    5.000 
#    0.000    1.250    0.000    1.500    0.000    5.250 
#    0.000    0.000    0.000    0.000    0.000    0.000 
#
# Total GULP energy -178561.741902 kJ/mol
# GULP energy per Si atom -5580.054434 kJ/mol
# Density = 2.088193 g / cm^3
# Si number density = 20.929564 Si / 1000 Ang^3
#
#
#
# Elastic Constant Matrix: (Units=GPa)
#
#
# Indices 1 2 3 4 5 6 
#
# 1 126.2033 85.6891 29.4337 0.0000 41.5911 0.0000
# 2 85.6891 142.5435 29.5419 0.0000 44.3158 0.0000
# 3 29.4337 29.5419 50.6769 0.0000 22.2534 0.0000
# 4 0.0000 0.0000 0.0000 15.6326 0.0000 9.3675
# 5 41.5911 44.3158 22.2534 0.0000 45.1134 0.0000
# 6 0.0000 0.0000 0.0000 9.3675 0.0000 25.6393
#
#
#
# Elastic Compliance Matrix: (Units=1/GPa)
#
#
# Indices 1 2 3 4 5 6 
#
# 1 0.014970 -0.006617 -0.002082 0.000000 -0.006274 0.000000
# 2 -0.006617 0.013179 -0.001064 0.000000 -0.006321 0.000000
# 3 -0.002082 -0.001064 0.025863 0.000000 -0.009793 0.000000
# 4 0.000000 0.000000 0.000000 0.081899 0.000000 -0.029922
# 5 -0.006274 -0.006321 -0.009793 0.000000 0.038990 0.000000
# 6 0.000000 0.000000 0.000000 -0.029922 0.000000 0.049935
#
#
# Mechanical properties :
#
#
# Convention : Reuss Voigt Hill
#
# Bulk Modulus (GPa) = 28.99798 67.63922 48.31860
# Shear Modulus (GPa) = 19.54231 28.92767 24.23499
#
# Velocity S-wave (km/s) = 3.05899 3.72175 3.40653
# Velocity P-wave (km/s) = 5.13437 7.13136 6.21361
#
# Compressibility (1/GPa) = 0.03448516
#
# Stress axis : x y z
#
# Youngs Moduli (GPa) = 66.80186 75.88072 38.66585
#
# Poissons Ratio (x) = 0.50209 0.08051
# Poissons Ratio (y) = 0.44202 0.04113
# Poissons Ratio (z) = 0.13910 0.08072
#
# Static dielectric constant tensor:
#      x y z
#    x 1.750180 0.000000 -0.065130 
#    y 0.000000 1.742140 0.000000 
#    z -0.065130 0.000000 1.815090 
# 
# From -- ./inp_files/287623.got.cif
#   From: 2010.05.17/outbox.cif.g08.bks.cpg/sg12_144_cif.got.tgz:287623.got - 2010.06.03 13:09:07.
