data_PCOD9179083
_publ_section_title
;
Structure prediction by ZEFSAII (Michael W. Deem and Ramdas Pophale) SiO2 
 PCOD9179083
Probable space group: C 2/M
;
_chemical_formula_sum "Si O2"
_cell_formula_units_Z 64
_cell_length_a 14.957265
_cell_length_b 26.802679
_cell_length_c 9.856533
_cell_angle_alpha 90.000000
_cell_angle_beta 77.740392
_cell_angle_gamma 90.000000
_cell_volume 3861.322160
_symmetry_space_group_name_H-M "C 2/M"
_symmetry_group_IT_number 12
_symmetry_cell_setting 'monoclinic'
loop_
_space_group_symop_operation_xyz
x,y,z
-x,y,-z
-x,-y,-z
x,-y,z
1/2+x,1/2+y,z
1/2-x,1/2+y,-z
1/2-x,1/2-y,-z
1/2+x,1/2-y,z
loop_
_atom_site_type_symbol
_atom_site_label
_atom_site_fract_x
_atom_site_fract_y
_atom_site_fract_z
Si Si1 0.414637 0.441259 0.938678
Si Si2 0.589833 0.441075 0.380518
Si Si3 0.407280 0.199982 0.297481
Si Si4 0.386000 0.812150 0.804765
Si Si5 0.269075 0.361202 0.010556
Si Si6 0.775800 0.147211 0.683861
Si Si7 0.842541 0.751286 0.560245
Si Si8 0.893683 0.768216 0.040266
O O1 0.403089 0.500000 0.964342
O O2 0.431788 0.433472 0.772616
O O3 0.325258 0.411494 0.011521
O O4 0.500000 0.423600 0.000000
O O5 0.500000 0.430390 0.500000
O O6 0.612767 0.500000 0.391978
O O7 0.673681 0.403124 0.380952
O O8 0.506321 0.176665 0.239754
O O9 0.324639 0.160696 0.342926
O O10 0.416667 0.236048 0.424315
O O11 0.380514 0.235267 0.179356
O O12 0.347803 0.789568 0.677148
O O13 0.326949 0.857323 0.882469
O O14 0.376144 0.768098 0.919079
O O15 0.261857 0.354523 0.850650
O O16 0.328539 0.315363 0.050077
O O17 0.841752 0.193867 0.625333
O O18 0.750000 0.750000 0.500000
O O19 0.000000 0.783733 0.000000
#
# Coordination Sequence:
#
# PCOD9179083 Si02
#       8
#     8   8   8   8   8   8   8   8
#     4   9  19  36  54  74 101 128 160 211 263 303
#     4   9  19  36  56  76  99 129 166 209 260 310
#     4  10  21  34  48  73 104 138 170 203 248 294
#     4  11  20  32  51  70 102 138 169 202 244 296
#     4  11  18  31  52  74  97 131 173 203 245 298
#     4  10  19  33  51  73 101 133 168 208 247 297
#     4  10  20  34  48  71 102 136 169 209 248 288
#     4  10  19  31  48  71  98 132 169 203 240 296
#
# _framework density 16.574632999999999
#
# number of rings (size 3 to 8) (size 9 to 14) (size 15 to 20)
#    0.000    2.000    2.500    2.625    0.000    1.000 
#    9.000    0.000    0.000    0.750    0.000    3.500 
#    0.000    5.000    0.000    0.000    0.000    0.000 
#
# Total GULP energy -178392.812286 kJ/mol
# GULP energy per Si atom -5574.775384 kJ/mol
# Density = 1.653691 g / cm^3
# Si number density = 16.574633 Si / 1000 Ang^3
#
#
#
# Elastic Constant Matrix: (Units=GPa)
#
#
# Indices 1 2 3 4 5 6 
#
# 1 83.7077 46.2481 34.5506 0.0000 -15.0936 0.0000
# 2 46.2481 60.7304 30.5743 0.0000 -14.8353 0.0000
# 3 34.5506 30.5743 82.5381 0.0000 -8.7158 0.0000
# 4 0.0000 0.0000 0.0000 17.5133 0.0000 -4.4788
# 5 -15.0936 -14.8353 -8.7158 0.0000 31.6216 0.0000
# 6 0.0000 0.0000 0.0000 -4.4788 0.0000 24.5136
#
#
#
# Elastic Compliance Matrix: (Units=1/GPa)
#
#
# Indices 1 2 3 4 5 6 
#
# 1 0.021674 -0.014022 -0.003585 0.000000 0.002779 0.000000
# 2 -0.014022 0.031285 -0.005022 0.000000 0.006600 0.000000
# 3 -0.003585 -0.005022 0.015498 0.000000 0.000204 0.000000
# 4 0.000000 0.000000 0.000000 0.059898 0.000000 0.010944
# 5 0.002779 0.006600 0.000204 0.000000 0.036103 0.000000
# 6 0.000000 0.000000 0.000000 0.010944 0.000000 0.042793
#
#
# Mechanical properties :
#
#
# Convention : Reuss Voigt Hill
#
# Bulk Modulus (GPa) = 43.10571 49.96914 46.53743
# Shear Modulus (GPa) = 19.21274 22.43659 20.82467
#
# Velocity S-wave (km/s) = 3.40835 3.68322 3.54844
# Velocity P-wave (km/s) = 6.44613 6.94993 6.70277
#
# Compressibility (1/GPa) = 0.02319878
#
# Stress axis : x y z
#
# Youngs Moduli (GPa) = 46.13768 31.96423 64.52270
#
# Poissons Ratio (x) = 0.44819 0.23134
# Poissons Ratio (y) = 0.64693 0.32405
# Poissons Ratio (z) = 0.16542 0.16053
#
# Static dielectric constant tensor:
#      x y z
#    x 1.599810 0.000000 -0.008990 
#    y 0.000000 1.542580 0.000000 
#    z -0.008990 0.000000 1.585940 
# 
# From -- ./inp_files/66963.got.cif
#   From: 2010.05.17/outbox.cif.g08.bks.cpg/sg12_34_cif.got.tgz:66963.got - 2010.06.03 13:09:07.
