data_PCOD9179643
_publ_section_title
;
Structure prediction by ZEFSAII (Michael W. Deem and Ramdas Pophale) SiO2 
 PCOD9179643
Probable space group: C 2/M
;
_chemical_formula_sum "Si O2"
_cell_formula_units_Z 40
_cell_length_a 10.570220
_cell_length_b 28.267945
_cell_length_c 8.445759
_cell_angle_alpha 90.000000
_cell_angle_beta 43.068234
_cell_angle_gamma 90.000000
_cell_volume 1723.273667
_symmetry_space_group_name_H-M "C 2/M"
_symmetry_group_IT_number 12
_symmetry_cell_setting 'monoclinic'
loop_
_space_group_symop_operation_xyz
x,y,z
-x,y,-z
-x,-y,-z
x,-y,z
1/2+x,1/2+y,z
1/2-x,1/2+y,-z
1/2-x,1/2-y,-z
1/2+x,1/2-y,z
loop_
_atom_site_type_symbol
_atom_site_label
_atom_site_fract_x
_atom_site_fract_y
_atom_site_fract_z
Si Si1 0.012892 0.099731 0.675983
Si Si2 0.541419 0.798075 0.648749
Si Si3 0.990091 0.000000 0.197077
Si Si4 0.979411 0.199070 0.206058
Si Si5 0.051656 0.500000 0.640240
Si Si6 0.948547 0.399380 0.360295
O O1 0.931551 0.050445 0.816795
O O2 0.937000 0.150994 0.798466
O O3 0.225957 0.100514 0.543632
O O4 0.000000 0.097306 0.500000
O O5 0.500000 0.795811 0.500000
O O6 0.764398 0.799236 0.457065
O O7 0.456206 0.751447 0.803563
O O8 0.480257 0.849333 0.769599
O O9 0.774612 0.000000 0.446709
O O10 0.000000 0.000000 0.000000
O O11 0.000000 0.194573 0.000000
O O12 0.986373 0.449736 0.767280
O O13 0.000000 0.500000 0.500000
O O14 0.000000 0.399284 0.500000
#
# Coordination Sequence:
#
# PCOD9179643 Si02
#       6
#     8   8   4   8   4   8
#     4  10  19  32  51  77 106 134 167 212 261 304
#     4   9  18  33  50  71 101 132 169 218 259 304
#     4  10  19  31  50  79 107 132 169 212 252 303
#     4  10  20  33  51  74 100 135 174 212 260 314
#     4   8  14  27  50  73  92 126 169 200 237 295
#     4   8  15  29  50  73  96 130 170 207 250 305
#
# _framework density 23.211634
#
# number of rings (size 3 to 8) (size 9 to 14) (size 15 to 20)
#    0.000    2.800    0.000    1.500    0.000    0.800 
#    0.000    0.000    0.000    0.000    0.000   38.500 
#    0.000    0.000    0.000    0.000    0.000    0.000 
#
# Total GULP energy -111490.015562 kJ/mol
# GULP energy per Si atom -5574.500778 kJ/mol
# Density = 2.315880 g / cm^3
# Si number density = 23.211634 Si / 1000 Ang^3
#
#
#
# Elastic Constant Matrix: (Units=GPa)
#
#
# Indices 1 2 3 4 5 6 
#
# 1 84.8048 0.1721 3.0493 0.0000 -31.6375 0.0000
# 2 0.1721 340.4717 67.6326 0.0000 11.5357 0.0000
# 3 3.0493 67.6326 65.8643 0.0000 6.5857 0.0000
# 4 0.0000 0.0000 0.0000 54.8252 0.0000 29.6300
# 5 -31.6375 11.5357 6.5857 0.0000 35.7322 0.0000
# 6 0.0000 0.0000 0.0000 29.6300 0.0000 0.5873
#
#
#
# Elastic Compliance Matrix: (Units=1/GPa)
#
#
# Indices 1 2 3 4 5 6 
#
# 1 0.017997 -0.000092 -0.002378 0.000000 0.016402 0.000000
# 2 -0.000092 0.003699 -0.003735 0.000000 -0.000588 0.000000
# 3 -0.002378 -0.003735 0.019579 0.000000 -0.004509 0.000000
# 4 0.000000 0.000000 0.000000 -0.000694 0.000000 0.035034
# 5 0.016402 -0.000588 -0.004509 0.000000 0.043529 0.000000
# 6 0.000000 0.000000 0.000000 0.035034 0.000000 -0.064825
#
#
# Mechanical properties :
#
#
# Convention : Reuss Voigt Hill
#
# Bulk Modulus (GPa) = 34.64676 70.31655 52.48165
# Shear Modulus (GPa) = 121.01271 46.24807 83.63039
#
# Velocity S-wave (km/s) = 7.22826 4.46853 6.00897
# Velocity P-wave (km/s) = 9.19905 7.54872 8.41444
#
# Compressibility (1/GPa) = 0.02886273
#
# Stress axis : x y z
#
# Youngs Moduli (GPa) = 55.56592 270.33898 51.07443
#
# Poissons Ratio (x) = 0.02498 0.12147
# Poissons Ratio (y) = 0.00513 0.19078
# Poissons Ratio (z) = 0.13216 1.00981
#
# Static dielectric constant tensor:
#      x y z
#    x 1.877580 0.000000 -0.025300 
#    y 0.000000 1.987520 0.000000 
#    z -0.025300 0.000000 1.758580 
# 
# From -- ./inp_files/8359.got.cif
#   From: 2010.05.17/outbox.cif.g08.bks.cpg/sg12_5_cif.got.tgz:8359.got - 2010.06.03 13:09:07.
