data_PCOD9179266
_publ_section_title
;
Structure prediction by ZEFSAII (Michael W. Deem and Ramdas Pophale) SiO2 
 PCOD9179266
Probable space group: C 2/M
;
_chemical_formula_sum "Si O2"
_cell_formula_units_Z 48
_cell_length_a 16.352984
_cell_length_b 18.439542
_cell_length_c 14.900356
_cell_angle_alpha 90.000000
_cell_angle_beta 145.255409
_cell_angle_gamma 90.000000
_cell_volume 2560.690374
_symmetry_space_group_name_H-M "C 2/M"
_symmetry_group_IT_number 12
_symmetry_cell_setting 'monoclinic'
loop_
_space_group_symop_operation_xyz
x,y,z
-x,y,-z
-x,-y,-z
x,-y,z
1/2+x,1/2+y,z
1/2-x,1/2+y,-z
1/2-x,1/2-y,-z
1/2+x,1/2-y,z
loop_
_atom_site_type_symbol
_atom_site_label
_atom_site_fract_x
_atom_site_fract_y
_atom_site_fract_z
Si Si1 0.897889 0.693112 0.331814
Si Si2 0.062388 0.084062 0.736149
Si Si3 0.990192 0.337995 0.848441
Si Si4 0.259720 0.837951 0.777657
Si Si5 0.683932 0.083826 0.887639
Si Si6 0.412494 0.724285 0.645380
O O1 0.800826 0.756703 0.286293
O O2 0.810968 0.635599 0.194161
O O3 0.000000 0.659841 0.500000
O O4 0.000118 0.735968 0.354634
O O5 0.137212 0.111561 0.710955
O O6 0.938034 0.139660 0.651869
O O7 0.022719 0.000000 0.693864
O O8 0.182690 0.092335 0.923407
O O9 0.840269 0.360032 0.759237
O O10 0.978929 0.257760 0.796122
O O11 0.044927 0.391236 0.819869
O O12 0.114308 0.337415 0.034633
O O13 0.674377 0.000000 0.853815
O O14 0.250000 0.750000 0.500000
#
# Coordination Sequence:
#
# PCOD9179266 Si02
#       6
#     8   8   8   8   8   8
#     4  10  19  31  49  72  99 133 172 210 247 291
#     4   9  18  33  53  76 102 131 163 203 253 303
#     4   9  17  30  50  75 100 130 167 207 246 293
#     4   9  17  30  51  76 100 128 166 207 249 295
#     4   9  18  32  50  74 103 134 167 204 248 297
#     4  10  19  32  50  71  98 132 170 209 248 293
#
# _framework density 18.744945000000001
#
# number of rings (size 3 to 8) (size 9 to 14) (size 15 to 20)
#    0.000    2.667    0.000    2.000    0.000    5.000 
#    0.000    6.667    0.000   20.000    0.000   11.667 
#    0.000    0.000    0.000    0.000    0.000    0.000 
#
# Total GULP energy -133776.588442 kJ/mol
# GULP energy per Si atom -5574.024518 kJ/mol
# Density = 1.870228 g / cm^3
# Si number density = 18.744945 Si / 1000 Ang^3
#
#
#
# Elastic Constant Matrix: (Units=GPa)
#
#
# Indices 1 2 3 4 5 6 
#
# 1 34.1664 29.6805 9.9889 0.0000 7.8659 0.0000
# 2 29.6805 120.9163 30.1525 0.0000 13.9331 0.0000
# 3 9.9889 30.1525 28.8608 0.0000 1.1867 0.0000
# 4 0.0000 0.0000 0.0000 9.2985 0.0000 4.2614
# 5 7.8659 13.9331 1.1867 0.0000 29.9205 0.0000
# 6 0.0000 0.0000 0.0000 4.2614 0.0000 14.5985
#
#
#
# Elastic Compliance Matrix: (Units=1/GPa)
#
#
# Indices 1 2 3 4 5 6 
#
# 1 0.038801 -0.007424 -0.005404 0.000000 -0.006529 0.000000
# 2 -0.007424 0.013322 -0.011193 0.000000 -0.003808 0.000000
# 3 -0.005404 -0.011193 0.048019 0.000000 0.004728 0.000000
# 4 0.000000 0.000000 0.000000 0.124153 0.000000 -0.036241
# 5 -0.006529 -0.003808 0.004728 0.000000 0.036724 0.000000
# 6 0.000000 0.000000 0.000000 -0.036241 0.000000 0.079079
#
#
# Mechanical properties :
#
#
# Convention : Reuss Voigt Hill
#
# Bulk Modulus (GPa) = 19.19386 35.95414 27.57400
# Shear Modulus (GPa) = 12.33026 18.37162 15.35094
#
# Velocity S-wave (km/s) = 2.56753 3.13403 2.86481
# Velocity P-wave (km/s) = 4.36478 5.68494 5.06803
#
# Compressibility (1/GPa) = 0.05209998
#
# Stress axis : x y z
#
# Youngs Moduli (GPa) = 25.77247 75.06140 20.82529
#
# Poissons Ratio (x) = 0.55728 0.11254
# Poissons Ratio (y) = 0.19134 0.23309
# Poissons Ratio (z) = 0.13928 0.84013
#
# Static dielectric constant tensor:
#      x y z
#    x 1.665840 0.000000 -0.008280 
#    y 0.000000 1.637220 0.000000 
#    z -0.008280 0.000000 1.682340 
# 
# From -- ./inp_files/75111.got.cif
#   From: 2010.05.17/outbox.cif.g08.bks.cpg/sg12_38_cif.got.tgz:75111.got - 2010.06.03 13:09:07.
