data_PCOD9179887
_publ_section_title
;
Structure prediction by ZEFSAII (Michael W. Deem and Ramdas Pophale) SiO2 
 PCOD9179887
Probable space group: C 2/M
;
_chemical_formula_sum "Si O2"
_cell_formula_units_Z 64
_cell_length_a 17.334794
_cell_length_b 16.313045
_cell_length_c 22.994462
_cell_angle_alpha 90.000000
_cell_angle_beta 146.450392
_cell_angle_gamma 90.000000
_cell_volume 3593.635649
_symmetry_space_group_name_H-M "C 2/M"
_symmetry_group_IT_number 12
_symmetry_cell_setting 'monoclinic'
loop_
_space_group_symop_operation_xyz
x,y,z
-x,y,-z
-x,-y,-z
x,-y,z
1/2+x,1/2+y,z
1/2-x,1/2+y,-z
1/2-x,1/2-y,-z
1/2+x,1/2-y,z
loop_
_atom_site_type_symbol
_atom_site_label
_atom_site_fract_x
_atom_site_fract_y
_atom_site_fract_z
Si Si1 0.346021 0.092855 0.209540
Si Si2 0.413873 0.857509 0.838128
Si Si3 0.600059 0.319102 0.119171
Si Si4 0.837836 0.858833 0.009813
Si Si5 0.781420 0.666533 0.943315
Si Si6 0.161420 0.906523 0.753612
Si Si7 0.567119 0.599730 0.480700
Si Si8 0.612076 0.900504 0.311578
O O1 0.244091 0.142895 0.187782
O O2 0.497836 0.127036 0.287230
O O3 0.360841 0.000000 0.240555
O O4 0.262849 0.091857 0.095921
O O5 0.377461 0.764120 0.831817
O O6 0.289738 0.908263 0.788599
O O7 0.425721 0.869792 0.776741
O O8 0.565042 0.873727 0.961059
O O9 0.498488 0.375142 0.094509
O O10 0.500000 0.302537 0.000000
O O11 0.802623 0.868934 0.054808
O O12 0.806127 0.762845 0.973150
O O13 0.705347 0.649824 0.835151
O O14 0.029179 0.875475 0.633861
O O15 0.136571 0.000000 0.758291
O O16 0.500000 0.626999 0.500000
O O17 0.563423 0.500000 0.479284
O O18 0.728328 0.624226 0.576510
O O19 0.605692 0.000000 0.306270
#
# Coordination Sequence:
#
# PCOD9179887 Si02
#       8
#     8   8   8   8   8   8   8   8
#     4  10  19  32  51  76 101 126 169 221 254 291
#     4  11  18  31  49  72 104 139 167 195 248 312
#     4   9  19  33  49  72  97 137 172 197 251 309
#     4   9  18  34  50  69 100 142 168 199 254 311
#     4  10  20  32  48  73 103 139 173 198 249 313
#     4  11  21  30  47  74 106 138 167 209 247 298
#     4   9  17  32  48  68 101 138 173 203 254 310
#     4  10  19  31  52  78 101 134 172 208 253 302
#
# _framework density 17.809263000000001
#
# number of rings (size 3 to 8) (size 9 to 14) (size 15 to 20)
#    0.000    2.125    2.500    3.000    0.000    4.250 
#    0.000    0.000    0.000    3.000    6.500    0.000 
#    0.000    4.000    0.000    0.000    0.000    0.000 
#
# Total GULP energy -178427.799250 kJ/mol
# GULP energy per Si atom -5575.868727 kJ/mol
# Density = 1.776873 g / cm^3
# Si number density = 17.809263 Si / 1000 Ang^3
#
#
#
# Elastic Constant Matrix: (Units=GPa)
#
#
# Indices 1 2 3 4 5 6 
#
# 1 123.6042 15.5497 52.7359 0.0000 27.8153 0.0000
# 2 15.5497 23.6763 17.2216 -0.0003 7.0743 -0.0004
# 3 52.7359 17.2216 115.3993 -0.0004 14.3915 -0.0010
# 4 0.0000 -0.0003 -0.0004 37.9447 -0.0001 -5.1458
# 5 27.8153 7.0743 14.3915 -0.0001 30.5079 -0.0003
# 6 0.0000 -0.0004 -0.0010 -5.1458 -0.0003 18.8020
#
#
#
# Elastic Compliance Matrix: (Units=1/GPa)
#
#
# Indices 1 2 3 4 5 6 
#
# 1 0.012050 -0.002400 -0.004088 0.000000 -0.008501 0.000000
# 2 -0.002400 0.049834 -0.005495 0.000000 -0.006775 0.000001
# 3 -0.004088 -0.005495 0.011401 0.000000 -0.000377 0.000001
# 4 0.000000 0.000000 0.000000 0.027370 0.000000 0.007491
# 5 -0.008501 -0.006775 -0.000377 0.000000 0.042278 0.000001
# 6 0.000000 0.000001 0.000001 0.007491 0.000001 0.055236
#
#
# Mechanical properties :
#
#
# Convention : Reuss Voigt Hill
#
# Bulk Modulus (GPa) = 20.27671 48.18823 34.23247
# Shear Modulus (GPa) = 20.95784 29.26243 25.11014
#
# Velocity S-wave (km/s) = 3.43417 4.05792 3.75900
# Velocity P-wave (km/s) = 5.20911 7.00516 6.17281
#
# Compressibility (1/GPa) = 0.04931767
#
# Stress axis : x y z
#
# Youngs Moduli (GPa) = 82.99095 20.06659 87.71299
#
# Poissons Ratio (x) = 0.04816 0.35858
# Poissons Ratio (y) = 0.19918 0.48200
# Poissons Ratio (z) = 0.33928 0.11027
#
# Static dielectric constant tensor:
#      x y z
#    x 1.636680 0.000000 0.031630 
#    y 0.000000 1.652130 0.000000 
#    z 0.031630 0.000000 1.606660 
# 
# From -- ./inp_files/344395.got.cif
#   From: 2010.05.17/outbox.cif.g08.bks.cpg/sg12_173_cif.got.tgz:344395.got - 2010.06.03 13:09:07.
