data_PCOD9179512
_publ_section_title
;
Structure prediction by ZEFSAII (Michael W. Deem and Ramdas Pophale) SiO2 
 PCOD9179512
Probable space group: C 2/M
;
_chemical_formula_sum "Si O2"
_cell_formula_units_Z 56
_cell_length_a 20.325788
_cell_length_b 8.626750
_cell_length_c 31.386385
_cell_angle_alpha 90.000000
_cell_angle_beta 143.888169
_cell_angle_gamma 90.000000
_cell_volume 3243.537376
_symmetry_space_group_name_H-M "C 2/M"
_symmetry_group_IT_number 12
_symmetry_cell_setting 'monoclinic'
loop_
_space_group_symop_operation_xyz
x,y,z
-x,y,-z
-x,-y,-z
x,-y,z
1/2+x,1/2+y,z
1/2-x,1/2+y,-z
1/2-x,1/2-y,-z
1/2+x,1/2-y,z
loop_
_atom_site_type_symbol
_atom_site_label
_atom_site_fract_x
_atom_site_fract_y
_atom_site_fract_z
Si Si1 0.518001 0.312821 0.057773
Si Si2 0.872707 0.314642 0.057122
Si Si3 0.375515 0.313821 0.659838
Si Si4 0.775310 0.812743 0.776459
Si Si5 0.978590 0.312121 0.342454
Si Si6 0.421174 0.814312 0.777007
Si Si7 0.677269 0.186538 0.501104
O O1 0.511140 0.500000 0.055134
O O2 0.424914 0.245826 0.040449
O O3 0.637685 0.268740 0.140643
O O4 0.500000 0.261205 0.000000
O O5 0.869286 0.500000 0.054891
O O6 0.960832 0.265846 0.139931
O O7 0.750000 0.250000 0.000000
O O8 0.380254 0.500000 0.662941
O O9 0.459048 0.253621 0.666620
O O10 0.406494 0.249557 0.722047
O O11 0.248945 0.265156 0.579755
O O12 0.649326 0.761677 0.720091
O O13 0.825988 0.746712 0.759310
O O14 0.775159 0.000000 0.773376
O O15 0.980279 0.500000 0.340071
O O16 0.051804 0.266970 0.422598
O O17 0.417825 0.000000 0.774383
O O18 0.750000 0.250000 0.500000
O O19 0.679064 0.000000 0.501632
#
# Coordination Sequence:
#
# PCOD9179512 Si02
#       7
#     8   8   8   8   8   8   8
#     4   9  18  33  52  74 101 131 162 199 243 291
#     4  10  21  36  54  75  99 129 164 202 244 290
#     4  10  19  31  50  75 100 129 167 207 247 292
#     4   9  18  33  52  72  97 131 166 200 243 293
#     4   9  17  31  51  74 100 130 166 207 249 294
#     4  10  21  36  52  71  99 133 165 200 245 293
#     4   8  15  28  46  69  97 128 162 203 248 290
#
# _framework density 17.265101000000001
#
# number of rings (size 3 to 8) (size 9 to 14) (size 15 to 20)
#    0.000    2.714    0.000    1.286    0.000    4.286 
#    0.000    3.571    0.000    4.286    0.000    0.000 
#    0.000    0.000    0.000    0.000    0.000    0.000 
#
# Total GULP energy -156001.355065 kJ/mol
# GULP energy per Si atom -5571.476967 kJ/mol
# Density = 1.722580 g / cm^3
# Si number density = 17.265101 Si / 1000 Ang^3
#
#
#
# Elastic Constant Matrix: (Units=GPa)
#
#
# Indices 1 2 3 4 5 6 
#
# 1 114.2066 29.6859 120.9538 0.0000 4.7894 -0.0002
# 2 29.6859 16.0668 36.5993 0.0002 0.7411 -0.0008
# 3 120.9538 36.5993 167.4183 0.0000 0.1051 0.0000
# 4 0.0000 0.0002 0.0000 19.8709 0.0000 -1.8412
# 5 4.7894 0.7411 0.1051 0.0000 35.1183 0.0000
# 6 -0.0002 -0.0008 0.0000 -1.8412 0.0000 28.9995
#
#
#
# Elastic Compliance Matrix: (Units=1/GPa)
#
#
# Indices 1 2 3 4 5 6 
#
# 1 0.040067 -0.015665 -0.025519 0.000000 -0.005057 0.000000
# 2 -0.015665 0.130330 -0.017174 -0.000001 -0.000562 0.000003
# 3 -0.025519 -0.017174 0.028162 0.000000 0.003758 -0.000001
# 4 0.000000 -0.000001 0.000000 0.050623 0.000000 0.003214
# 5 -0.005057 -0.000562 0.003758 0.000000 0.029166 0.000000
# 6 0.000000 0.000003 -0.000001 0.003214 0.000000 0.034687
#
#
# Mechanical properties :
#
#
# Convention : Reuss Voigt Hill
#
# Bulk Modulus (GPa) = 12.21854 74.68553 43.45203
# Shear Modulus (GPa) = 10.94019 24.16126 17.55073
#
# Velocity S-wave (km/s) = 2.51999 3.74495 3.19179
# Velocity P-wave (km/s) = 3.94455 7.87728 6.22941
#
# Compressibility (1/GPa) = 0.08184287
#
# Stress axis : x y z
#
# Youngs Moduli (GPa) = 24.95839 7.67282 35.50929
#
# Poissons Ratio (x) = 0.12020 0.90616
# Poissons Ratio (y) = 0.39098 0.60982
# Poissons Ratio (z) = 0.63691 0.13177
#
# Static dielectric constant tensor:
#      x y z
#    x 1.535010 0.000000 0.009590 
#    y 0.000000 1.584080 0.000000 
#    z 0.009590 0.000000 1.623930 
# 
# From -- ./inp_files/339101.got.cif
#   From: 2010.05.17/outbox.cif.g08.bks.cpg/sg12_170_cif.got.tgz:339101.got - 2010.06.03 13:09:07.
