data_PCOD9179533
_publ_section_title
;
Structure prediction by ZEFSAII (Michael W. Deem and Ramdas Pophale) SiO2 
 PCOD9179533
Probable space group: C 2/M
;
_chemical_formula_sum "Si O2"
_cell_formula_units_Z 64
_cell_length_a 19.935114
_cell_length_b 7.312786
_cell_length_c 22.743120
_cell_angle_alpha 90.000000
_cell_angle_beta 48.692799
_cell_angle_gamma 90.000000
_cell_volume 2490.556097
_symmetry_space_group_name_H-M "C 2/M"
_symmetry_group_IT_number 12
_symmetry_cell_setting 'monoclinic'
loop_
_space_group_symop_operation_xyz
x,y,z
-x,y,-z
-x,-y,-z
x,-y,z
1/2+x,1/2+y,z
1/2-x,1/2+y,-z
1/2-x,1/2-y,-z
1/2+x,1/2-y,z
loop_
_atom_site_type_symbol
_atom_site_label
_atom_site_fract_x
_atom_site_fract_y
_atom_site_fract_z
Si Si1 0.466538 0.709029 0.431198
Si Si2 0.275151 0.277972 0.581032
Si Si3 0.783795 0.777615 0.828511
Si Si4 0.089501 0.723410 0.916497
Si Si5 0.153693 0.216345 0.084531
Si Si6 0.460603 0.792873 0.178866
Si Si7 0.159989 0.222923 0.333388
Si Si8 0.080719 0.721296 0.667596
O O1 0.461828 0.500000 0.454939
O O2 0.369503 0.789528 0.501180
O O3 0.558237 0.785285 0.403818
O O4 0.474588 0.709336 0.355783
O O5 0.274162 0.500000 0.578099
O O6 0.276785 0.226926 0.649081
O O7 0.184393 0.219058 0.602374
O O8 0.680416 0.724023 0.895796
O O9 0.840274 0.715006 0.851602
O O10 0.812507 0.716385 0.747288
O O11 0.787447 0.000000 0.826801
O O12 0.087653 0.500000 0.916022
O O13 0.087733 0.786888 0.849838
O O14 0.000000 0.784665 0.000000
O O15 0.066551 0.297495 0.104220
O O16 0.139424 0.000000 0.093018
O O17 0.250000 0.250000 0.000000
O O18 0.449685 0.714370 0.250352
O O19 0.425566 0.000000 0.204469
O O20 0.158905 0.000000 0.332654
O O21 0.075203 0.500000 0.668488
#
# Coordination Sequence:
#
# PCOD9179533 Si02
#       8
#     8   8   8   8   8   8   8   8
#     4  10  19  31  50  75 102 133 170 213 258 304
#     4   9  17  30  49  74 102 132 169 213 259 303
#     4   9  17  29  48  74 100 128 167 214 257 298
#     4   9  16  28  48  72  96 123 161 209 254 298
#     4  11  22  36  55  79 107 137 169 206 250 301
#     4  10  20  34  53  77 103 132 168 210 256 303
#     4   9  16  28  48  74 100 126 165 217 263 298
#     4  10  20  33  50  73 103 137 169 205 252 307
#
# _framework density 25.697071000000001
#
# number of rings (size 3 to 8) (size 9 to 14) (size 15 to 20)
#    0.000    2.375    0.000    3.375    0.000    8.000 
#    0.000    0.000    0.000    6.375    0.000    0.000 
#    0.000    0.000    0.000    0.000    0.000    0.000 
#
# Total GULP energy -179060.482731 kJ/mol
# GULP energy per Si atom -5595.640085 kJ/mol
# Density = 2.563858 g / cm^3
# Si number density = 25.697071 Si / 1000 Ang^3
#
#
#
# Elastic Constant Matrix: (Units=GPa)
#
#
# Indices 1 2 3 4 5 6 
#
# 1 111.3501 -5.8571 -16.2527 0.0000 2.2772 0.0008
# 2 -5.8571 112.8289 -7.1928 0.0000 1.2670 -0.0011
# 3 -16.2527 -7.1928 66.3240 -0.0002 1.1653 0.0000
# 4 0.0000 0.0000 -0.0002 -0.4559 -0.0001 4.0844
# 5 2.2772 1.2670 1.1653 -0.0001 48.1004 0.0001
# 6 0.0008 -0.0011 0.0000 4.0844 0.0001 -1.0118
#
#
#
# Elastic Compliance Matrix: (Units=1/GPa)
#
#
# Indices 1 2 3 4 5 6 
#
# 1 0.009372 0.000644 0.002375 -0.000002 -0.000518 0.000000
# 2 0.000644 0.008972 0.001136 0.000002 -0.000294 0.000000
# 3 0.002375 0.001136 0.015792 0.000000 -0.000525 0.000001
# 4 -0.000002 0.000002 0.000000 0.062377 0.000000 0.251798
# 5 -0.000518 -0.000294 -0.000525 0.000000 0.020835 0.000001
# 6 0.000000 0.000000 0.000001 0.251798 0.000001 0.028105
#
#
# Mechanical properties :
#
#
# Convention : Reuss Voigt Hill
#
# Bulk Modulus (GPa) = 23.55912 25.76644 24.66278
# Shear Modulus (GPa) = 33.04882 30.64689 31.84786
#
# Velocity S-wave (km/s) = 3.59010 3.45718 3.52427
# Velocity P-wave (km/s) = 5.13547 5.09754 5.11654
#
# Compressibility (1/GPa) = 0.04244641
#
# Stress axis : x y z
#
# Youngs Moduli (GPa) = 106.70224 111.45644 63.32305
#
# Poissons Ratio (x) = -0.07175 -0.15042
# Poissons Ratio (y) = -0.06869 -0.07193
# Poissons Ratio (z) = -0.25347 -0.12661
#
# Static dielectric constant tensor:
#      x y z
#    x 1.924090 0.000000 -0.006160 
#    y 0.000000 2.007560 0.000000 
#    z -0.006160 0.000000 2.047610 
# 
# From -- ./inp_files/346081.got.cif
#   From: 2010.05.17/outbox.cif.g08.bks.cpg/sg12_174_cif.got.tgz:346081.got - 2010.06.03 13:09:07.
