data_PCOD9179165
_publ_section_title
;
Structure prediction by ZEFSAII (Michael W. Deem and Ramdas Pophale) SiO2 
 PCOD9179165
Probable space group: C 2/M
;
_chemical_formula_sum "Si O2"
_cell_formula_units_Z 48
_cell_length_a 16.406890
_cell_length_b 7.252929
_cell_length_c 15.234092
_cell_angle_alpha 90.000000
_cell_angle_beta 77.619985
_cell_angle_gamma 90.000000
_cell_volume 1770.673165
_symmetry_space_group_name_H-M "C 2/M"
_symmetry_group_IT_number 12
_symmetry_cell_setting 'monoclinic'
loop_
_space_group_symop_operation_xyz
x,y,z
-x,y,-z
-x,-y,-z
x,-y,z
1/2+x,1/2+y,z
1/2-x,1/2+y,-z
1/2-x,1/2-y,-z
1/2+x,1/2-y,z
loop_
_atom_site_type_symbol
_atom_site_label
_atom_site_fract_x
_atom_site_fract_y
_atom_site_fract_z
Si Si1 0.415106 0.211436 0.605230
Si Si2 0.345054 0.780977 0.445218
Si Si3 0.655749 0.781173 0.051525
Si Si4 0.538630 0.225271 0.222902
Si Si5 0.770727 0.722964 0.286913
Si Si6 0.103656 0.275564 0.880598
O O1 0.404408 0.291426 0.509538
O O2 0.465925 0.291478 0.675654
O O3 0.320323 0.208772 0.665843
O O4 0.441598 0.000000 0.588793
O O5 0.250000 0.750000 0.500000
O O6 0.337110 0.717817 0.346996
O O7 0.359854 0.000000 0.438496
O O8 0.623182 0.714082 0.152920
O O9 0.643355 0.000000 0.058446
O O10 0.750000 0.750000 0.000000
O O11 0.601339 0.712975 0.981239
O O12 0.467849 0.280348 0.170335
O O13 0.535913 0.000000 0.230121
O O14 0.766586 0.500000 0.290900
O O15 0.809020 0.778464 0.185327
O O16 0.100877 0.500000 0.883246
#
# Coordination Sequence:
#
# PCOD9179165 Si02
#       6
#     8   8   8   8   8   8
#     4   9  16  27  44  64  86 112 143 178 212 249
#     4   8  14  24  39  61  85 109 139 174 212 248
#     4  10  19  31  49  69  87 110 142 178 212 250
#     4   9  17  29  45  65  88 114 143 174 210 253
#     4   9  16  27  44  64  86 112 143 178 212 249
#     4   9  17  29  45  65  88 114 143 174 210 253
#
# _framework density 27.108333999999999
#
# number of rings (size 3 to 8) (size 9 to 14) (size 15 to 20)
#    0.000    3.000    0.000    1.500    0.000    2.000 
#    0.000    0.833    0.000   10.000    0.000    0.000 
#    0.000   13.333    0.000    0.000    0.000    0.000 
#
# Total GULP energy -134169.970295 kJ/mol
# GULP energy per Si atom -5590.415429 kJ/mol
# Density = 2.704663 g / cm^3
# Si number density = 27.108334 Si / 1000 Ang^3
#
#
#
# Elastic Constant Matrix: (Units=GPa)
#
#
# Indices 1 2 3 4 5 6 
#
# 1 107.7756 -6.2748 27.0444 0.0000 15.5309 0.0000
# 2 -6.2748 130.0989 7.7907 0.0000 1.3755 0.0000
# 3 27.0444 7.7907 189.5220 0.0000 15.8870 0.0000
# 4 0.0000 0.0000 0.0000 -7.5066 0.0000 -4.9164
# 5 15.5309 1.3755 15.8870 0.0000 54.0978 0.0000
# 6 0.0000 0.0000 0.0000 -4.9164 0.0000 -5.1029
#
#
#
# Elastic Compliance Matrix: (Units=1/GPa)
#
#
# Indices 1 2 3 4 5 6 
#
# 1 0.009986 0.000582 -0.001238 0.000000 -0.002518 0.000000
# 2 0.000582 0.007740 -0.000380 0.000000 -0.000252 0.000000
# 3 -0.001238 -0.000380 0.005575 0.000000 -0.001272 0.000000
# 4 0.000000 0.000000 0.000000 -0.361025 0.000000 0.347829
# 5 -0.002518 -0.000252 -0.001272 0.000000 0.019588 0.000000
# 6 0.000000 0.000000 0.000000 0.347829 0.000000 -0.531081
#
#
# Mechanical properties :
#
#
# Convention : Reuss Voigt Hill
#
# Bulk Modulus (GPa) = 47.10290 53.83526 50.46908
# Shear Modulus (GPa) = -5.95190 34.88674 14.46742
#
# Velocity S-wave (km/s) = -1.48336 3.59128 2.31268
# Velocity P-wave (km/s) = 3.80522 6.09088 5.07831
#
# Compressibility (1/GPa) = 0.02123012
#
# Stress axis : x y z
#
# Youngs Moduli (GPa) = 100.14094 129.19931 179.36112
#
# Poissons Ratio (x) = -0.07524 0.22202
# Poissons Ratio (y) = -0.05832 0.06818
# Poissons Ratio (z) = 0.12396 0.04911
#
# Static dielectric constant tensor:
#      x y z
#    x 2.175900 0.000000 0.018750 
#    y 0.000000 1.723970 0.000000 
#    z 0.018750 0.000000 2.167770 
# 
# From -- ./inp_files/204459.got.cif
#   From: 2010.05.17/outbox.cif.g08.bks.cpg/sg12_103_cif.got.tgz:204459.got - 2010.06.03 13:09:07.
