data_PCOD9179000
_publ_section_title
;
Structure prediction by ZEFSAII (Michael W. Deem and Ramdas Pophale) SiO2 
 PCOD9179000
Probable space group: C 2/M
;
_chemical_formula_sum "Si O2"
_cell_formula_units_Z 56
_cell_length_a 5.155358
_cell_length_b 14.347452
_cell_length_c 36.555127
_cell_angle_alpha 90.000000
_cell_angle_beta 73.594312
_cell_angle_gamma 90.000000
_cell_volume 2593.761180
_symmetry_space_group_name_H-M "C 2/M"
_symmetry_group_IT_number 12
_symmetry_cell_setting 'monoclinic'
loop_
_space_group_symop_operation_xyz
x,y,z
-x,y,-z
-x,-y,-z
x,-y,z
1/2+x,1/2+y,z
1/2-x,1/2+y,-z
1/2-x,1/2-y,-z
1/2+x,1/2-y,z
loop_
_atom_site_type_symbol
_atom_site_label
_atom_site_fract_x
_atom_site_fract_y
_atom_site_fract_z
Si Si1 0.524823 0.388378 0.702324
Si Si2 0.677016 0.810320 0.379674
Si Si3 0.862171 0.314198 0.540104
Si Si4 0.061782 0.614027 0.252865
Si Si5 0.828629 0.611525 0.121878
Si Si6 0.644172 0.810259 0.959884
Si Si7 0.736194 0.114069 0.166516
O O1 0.515989 0.500000 0.703569
O O2 0.681155 0.360500 0.659604
O O3 0.689706 0.358076 0.731535
O O4 0.217299 0.354881 0.717494
O O5 0.378817 0.776442 0.380291
O O6 0.663125 0.862515 0.419400
O O7 0.573755 0.271077 0.539931
O O8 0.000000 0.364496 0.500000
O O9 0.058321 0.500000 0.252191
O O10 0.099294 0.645202 0.209675
O O11 0.832018 0.500000 0.123498
O O12 0.842348 0.638437 0.079093
O O13 0.547051 0.642272 0.151048
O O14 0.076328 0.645161 0.136805
O O15 0.440390 0.723588 0.960164
O O16 0.500000 0.860621 0.000000
O O17 0.730898 0.000000 0.167170
#
# Coordination Sequence:
#
# PCOD9179000 Si02
#       7
#     8   8   8   8   8   8   8
#     4  10  19  31  49  71  94 125 164 199 231 278
#     4  10  19  31  48  69  95 125 154 194 245 285
#     4   8  14  25  42  64  87 114 152 191 227 277
#     4   9  17  30  49  71  95 126 163 198 232 279
#     4  10  19  32  54  80 101 123 158 206 246 275
#     4  10  21  37  55  74 101 137 167 191 230 288
#     4   9  17  30  50  76 100 123 158 202 243 279
#
# _framework density 21.59027
#
# number of rings (size 3 to 8) (size 9 to 14) (size 15 to 20)
#    0.000    2.571    0.000    2.571    0.000    3.714 
#    0.000    0.000    0.000   22.714    0.000    0.000 
#    0.000   14.857    0.000    0.000    0.000    2.286 
#
# Total GULP energy -156306.641940 kJ/mol
# GULP energy per Si atom -5582.380069 kJ/mol
# Density = 2.154113 g / cm^3
# Si number density = 21.590270 Si / 1000 Ang^3
#
#
#
# Elastic Constant Matrix: (Units=GPa)
#
#
# Indices 1 2 3 4 5 6 
#
# 1 82.6832 -9.8016 -8.4371 0.0000 -0.2862 0.0000
# 2 -9.8016 39.1729 -2.3207 0.0000 0.3743 0.0000
# 3 -8.4371 -2.3207 125.7082 0.0000 2.5902 0.0000
# 4 0.0000 0.0000 0.0000 28.1160 0.0000 -4.9132
# 5 -0.2862 0.3743 2.5902 0.0000 39.4573 0.0000
# 6 0.0000 0.0000 0.0000 -4.9132 0.0000 -4.1502
#
#
#
# Elastic Compliance Matrix: (Units=1/GPa)
#
#
# Indices 1 2 3 4 5 6 
#
# 1 0.012565 0.003198 0.000902 0.000000 0.000002 0.000000
# 2 0.003198 0.026372 0.000707 0.000000 -0.000273 0.000000
# 3 0.000902 0.000707 0.008039 0.000000 -0.000528 0.000000
# 4 0.000000 0.000000 0.000000 0.029470 0.000000 -0.034888
# 5 0.000002 -0.000273 -0.000528 0.000000 0.025381 0.000000
# 6 0.000000 0.000000 0.000000 -0.034888 0.000000 -0.199648
#
#
# Mechanical properties :
#
#
# Convention : Reuss Voigt Hill
#
# Bulk Modulus (GPa) = 17.67058 22.93839 20.30448
# Shear Modulus (GPa) = -56.45299 30.55951 -12.94674
#
# Velocity S-wave (km/s) = -5.11900 3.76630 -2.45144
# Velocity P-wave (km/s) = 5.17075 5.43699 1.18832
#
# Compressibility (1/GPa) = 0.05659125
#
# Stress axis : x y z
#
# Youngs Moduli (GPa) = 79.58311 37.91836 124.38702
#
# Poissons Ratio (x) = -0.12124 -0.11224
# Poissons Ratio (y) = -0.25447 -0.08795
# Poissons Ratio (z) = -0.07181 -0.02681
#
# Static dielectric constant tensor:
#      x y z
#    x 1.748630 0.000000 0.002570 
#    y 0.000000 1.799530 0.000000 
#    z 0.002570 0.000000 1.810410 
# 
# From -- ./inp_files/371563.got.cif
#   From: 2010.05.17/outbox.cif.g08.bks.cpg/sg12_186_cif.got.tgz:371563.got - 2010.06.03 13:09:07.
