data_PCOD9179491
_publ_section_title
;
Structure prediction by ZEFSAII (Michael W. Deem and Ramdas Pophale) SiO2 
 PCOD9179491
Probable space group: C 2/M
;
_chemical_formula_sum "Si O2"
_cell_formula_units_Z 56
_cell_length_a 18.697558
_cell_length_b 8.732944
_cell_length_c 23.466623
_cell_angle_alpha 90.000000
_cell_angle_beta 126.180771
_cell_angle_gamma 90.000000
_cell_volume 3092.822343
_symmetry_space_group_name_H-M "C 2/M"
_symmetry_group_IT_number 12
_symmetry_cell_setting 'monoclinic'
loop_
_space_group_symop_operation_xyz
x,y,z
-x,y,-z
-x,-y,-z
x,-y,z
1/2+x,1/2+y,z
1/2-x,1/2+y,-z
1/2-x,1/2-y,-z
1/2+x,1/2-y,z
loop_
_atom_site_type_symbol
_atom_site_label
_atom_site_fract_x
_atom_site_fract_y
_atom_site_fract_z
Si Si1 0.670407 0.681484 0.999480
Si Si2 0.180558 0.682754 0.130377
Si Si3 0.138881 0.683264 0.287064
Si Si4 0.093112 0.313983 0.567904
Si Si5 0.761148 0.816104 0.567991
Si Si6 0.511094 0.817332 0.130234
Si Si7 0.208229 0.682921 0.721915
O O1 0.677790 0.500000 0.004177
O O2 0.577090 0.730659 0.928182
O O3 0.750000 0.750000 0.000000
O O4 0.675161 0.745377 0.065804
O O5 0.183840 0.500000 0.127835
O O6 0.091886 0.721849 0.125089
O O7 0.265106 0.740837 0.206173
O O8 0.154006 0.500000 0.291488
O O9 0.156333 0.743775 0.358603
O O10 0.046981 0.713359 0.211033
O O11 0.212016 0.769274 0.282995
O O12 0.089478 0.500000 0.567342
O O13 0.172898 0.273945 0.562577
O O14 0.121549 0.267001 0.645307
O O15 0.000000 0.256623 0.500000
O O16 0.750000 0.750000 0.500000
O O17 0.768639 0.000000 0.570744
O O18 0.495908 0.000000 0.117914
O O19 0.206475 0.500000 0.727828
#
# Coordination Sequence:
#
# PCOD9179491 Si02
#       7
#     8   8   8   8   8   8   8
#     4  12  25  39  56  78 108 142 174 213 262 316
#     4  10  20  36  58  81 107 138 174 217 262 311
#     4   9  17  31  52  76 104 136 169 212 262 309
#     4   8  15  29  49  73 100 132 170 210 253 300
#     4  10  19  31  50  74 102 136 174 217 261 311
#     4   9  19  36  58  82 106 135 173 216 262 313
#     4   9  16  28  50  78 104 132 171 217 259 304
#
# _framework density 18.106439999999999
#
# number of rings (size 3 to 8) (size 9 to 14) (size 15 to 20)
#    0.000    2.429    0.000    5.143    0.000    5.143 
#    0.000    1.429    0.000   22.286    0.000    0.000 
#    0.000    0.000    0.000    0.000    0.000    0.000 
#
# Total GULP energy -156100.381574 kJ/mol
# GULP energy per Si atom -5575.013628 kJ/mol
# Density = 1.806523 g / cm^3
# Si number density = 18.106440 Si / 1000 Ang^3
#
#
#
# Elastic Constant Matrix: (Units=GPa)
#
#
# Indices 1 2 3 4 5 6 
#
# 1 54.5674 40.4943 69.3892 0.0000 7.7157 0.0000
# 2 40.4943 73.7308 71.1523 0.0000 3.5099 0.0000
# 3 69.3892 71.1523 203.9654 0.0000 8.2397 0.0000
# 4 0.0000 0.0000 0.0000 36.6440 0.0000 -2.9356
# 5 7.7157 3.5099 8.2397 0.0000 25.4896 0.0000
# 6 0.0000 0.0000 0.0000 -2.9356 0.0000 19.6146
#
#
#
# Elastic Compliance Matrix: (Units=1/GPa)
#
#
# Indices 1 2 3 4 5 6 
#
# 1 0.040555 -0.013407 -0.008813 0.000000 -0.007581 0.000000
# 2 -0.013407 0.024885 -0.004200 0.000000 0.001990 0.000000
# 3 -0.008813 -0.004200 0.009357 0.000000 0.000221 0.000000
# 4 0.000000 0.000000 0.000000 0.027621 0.000000 0.004134
# 5 -0.007581 0.001990 0.000221 0.000000 0.041181 0.000000
# 6 0.000000 0.000000 0.000000 0.004134 0.000000 0.051601
#
#
# Mechanical properties :
#
#
# Convention : Reuss Voigt Hill
#
# Bulk Modulus (GPa) = 45.54721 77.14836 61.34778
# Shear Modulus (GPa) = 19.58020 26.43151 23.00585
#
# Velocity S-wave (km/s) = 3.29202 3.82486 3.56840
# Velocity P-wave (km/s) = 6.29760 7.88713 7.13676
#
# Compressibility (1/GPa) = 0.02195524
#
# Stress axis : x y z
#
# Youngs Moduli (GPa) = 24.65805 40.18485 106.86721
#
# Poissons Ratio (x) = 0.53877 0.94187
# Poissons Ratio (y) = 0.33060 0.44886
# Poissons Ratio (z) = 0.21732 0.16878
#
# Static dielectric constant tensor:
#      x y z
#    x 1.608770 0.000000 0.006080 
#    y 0.000000 1.605750 0.000000 
#    z 0.006080 0.000000 1.661570 
# 
# From -- ./inp_files/313775.got.cif
#   From: 2010.05.17/outbox.cif.g08.bks.cpg/sg12_157_cif.got.tgz:313775.got - 2010.06.03 13:09:07.
