data_PCOD9179281
_publ_section_title
;
Structure prediction by ZEFSAII (Michael W. Deem and Ramdas Pophale) SiO2 
 PCOD9179281
Probable space group: C 2/M
;
_chemical_formula_sum "Si O2"
_cell_formula_units_Z 64
_cell_length_a 14.551295
_cell_length_b 7.353881
_cell_length_c 28.286179
_cell_angle_alpha 90.000000
_cell_angle_beta 112.570322
_cell_angle_gamma 90.000000
_cell_volume 2795.031471
_symmetry_space_group_name_H-M "C 2/M"
_symmetry_group_IT_number 12
_symmetry_cell_setting 'monoclinic'
loop_
_space_group_symop_operation_xyz
x,y,z
-x,y,-z
-x,-y,-z
x,-y,z
1/2+x,1/2+y,z
1/2-x,1/2+y,-z
1/2-x,1/2-y,-z
1/2+x,1/2-y,z
loop_
_atom_site_type_symbol
_atom_site_label
_atom_site_fract_x
_atom_site_fract_y
_atom_site_fract_z
Si Si1 0.400024 0.778932 0.507257
Si Si2 0.657906 0.278062 0.742592
Si Si3 0.521588 0.210651 0.055647
Si Si4 0.717981 0.221400 0.144306
Si Si5 0.190301 0.290005 0.416063
Si Si6 0.234734 0.706800 0.323272
Si Si7 0.467179 0.719967 0.765736
Si Si8 0.407768 0.718591 0.121247
O O1 0.500000 0.721038 0.500000
O O2 0.300598 0.718579 0.460369
O O3 0.384118 0.715893 0.558406
O O4 0.399047 0.000000 0.507407
O O5 0.660239 0.500000 0.741915
O O6 0.742726 0.217987 0.796736
O O7 0.681125 0.212743 0.694384
O O8 0.552893 0.228169 0.745017
O O9 0.613456 0.288962 0.103822
O O10 0.428851 0.217909 0.072751
O O11 0.548751 0.000000 0.052656
O O12 0.500000 0.290945 0.000000
O O13 0.803674 0.272647 0.123872
O O14 0.715600 0.000000 0.146523
O O15 0.159827 0.500000 0.403379
O O16 0.202098 0.206768 0.366378
O O17 0.266405 0.500000 0.340771
O O18 0.137202 0.704062 0.271271
O O19 0.460815 0.500000 0.764776
O O20 0.506651 0.779286 0.824925
O O21 0.409407 0.500000 0.121300
#
# Coordination Sequence:
#
# PCOD9179281 Si02
#       8
#     8   8   8   8   8   8   8   8
#     4   9  18  34  53  69  92 130 168 201 243 288
#     4   8  15  29  48  67  90 125 159 183 225 290
#     4  10  20  32  48  72  97 121 155 198 241 285
#     4   8  15  30  49  66  90 125 157 185 228 286
#     4   9  19  33  48  72 100 124 160 203 237 280
#     4  10  19  31  49  73 101 128 154 193 241 283
#     4   9  18  32  49  70  94 122 159 194 226 278
#     4   9  18  33  51  68  90 124 161 193 228 277
#
# _framework density 22.897776
#
# number of rings (size 3 to 8) (size 9 to 14) (size 15 to 20)
#    0.000    3.000    0.000    2.250    0.000    4.000 
#    0.000    1.250    0.000    1.500    0.000    0.000 
#    0.000    0.000    0.000    0.000    0.000    0.000 
#
# Total GULP energy -178602.476571 kJ/mol
# GULP energy per Si atom -5581.327393 kJ/mol
# Density = 2.284566 g / cm^3
# Si number density = 22.897776 Si / 1000 Ang^3
#
#
#
# Elastic Constant Matrix: (Units=GPa)
#
#
# Indices 1 2 3 4 5 6 
#
# 1 80.3052 -13.6391 45.0773 0.0000 -38.9605 0.0000
# 2 -13.6391 85.1035 -4.0039 0.0000 -1.4985 0.0000
# 3 45.0773 -4.0039 74.2346 0.0000 -53.5437 0.0000
# 4 0.0000 0.0000 0.0000 -7.0457 0.0000 16.7467
# 5 -38.9605 -1.4985 -53.5437 0.0000 42.9715 0.0000
# 6 0.0000 0.0000 0.0000 16.7467 0.0000 -13.6161
#
#
#
# Elastic Compliance Matrix: (Units=1/GPa)
#
#
# Indices 1 2 3 4 5 6 
#
# 1 0.025326 0.005573 0.016038 0.000000 0.043141 0.000000
# 2 0.005573 0.013654 0.013235 0.000000 0.022020 0.000000
# 3 0.016038 0.013235 0.150759 0.000000 0.202853 0.000000
# 4 0.000000 0.000000 0.000000 0.073794 0.000000 0.090760
# 5 0.043141 0.022020 0.202853 0.000000 0.315914 0.000000
# 6 0.000000 0.000000 0.000000 0.090760 0.000000 0.038185
#
#
# Mechanical properties :
#
#
# Convention : Reuss Voigt Hill
#
# Bulk Modulus (GPa) = 3.85458 32.72354 18.28906
# Shear Modulus (GPa) = 7.88125 18.60920 13.24523
#
# Velocity S-wave (km/s) = 1.85726 2.85390 2.40771
# Velocity P-wave (km/s) = 2.50724 5.01815 3.96661
#
# Compressibility (1/GPa) = 0.25943190
#
# Stress axis : x y z
#
# Youngs Moduli (GPa) = 39.48449 73.23885 6.63310
#
# Poissons Ratio (x) = -0.40817 -0.10638
# Poissons Ratio (y) = -0.22005 -0.08779
# Poissons Ratio (z) = -0.63326 -0.96931
#
# Static dielectric constant tensor:
#      x y z
#    x 1.838830 0.000000 -0.039630 
#    y 0.000000 1.865440 0.000000 
#    z -0.039630 0.000000 1.849500 
# 
# From -- ./inp_files/359997.got.cif
#   From: 2010.05.17/outbox.cif.g08.bks.cpg/sg12_180_cif.got.tgz:359997.got - 2010.06.03 13:09:07.
