data_PCOD9179869
_publ_section_title
;
Structure prediction by ZEFSAII (Michael W. Deem and Ramdas Pophale) SiO2 
 PCOD9179869
Probable space group: C 2/M
;
_chemical_formula_sum "Si O2"
_cell_formula_units_Z 42
_cell_length_a 5.013620
_cell_length_b 13.497025
_cell_length_c 26.247452
_cell_angle_alpha 90.000000
_cell_angle_beta 78.089294
_cell_angle_gamma 90.000000
_cell_volume 1737.898169
_symmetry_space_group_name_H-M "C 2/M"
_symmetry_group_IT_number 12
_symmetry_cell_setting 'monoclinic'
loop_
_space_group_symop_operation_xyz
x,y,z
-x,y,-z
-x,-y,-z
x,-y,z
1/2+x,1/2+y,z
1/2-x,1/2+y,-z
1/2-x,1/2-y,-z
1/2+x,1/2-y,z
loop_
_atom_site_type_symbol
_atom_site_label
_atom_site_fract_x
_atom_site_fract_y
_atom_site_fract_z
Si Si1 0.697110 0.382186 0.208332
Si Si2 0.942153 0.810048 0.676823
Si Si3 0.698107 0.885409 0.034549
Si Si4 0.000000 0.000000 0.500000
Si Si5 0.685886 0.322337 0.564374
Si Si6 0.267679 0.620531 0.145400
O O1 0.687639 0.500000 0.206899
O O2 0.559738 0.352906 0.266606
O O3 0.539022 0.348001 0.163964
O O4 0.013465 0.355462 0.191780
O O5 0.630480 0.787980 0.674324
O O6 0.084645 0.863223 0.623690
O O7 0.715499 0.841971 0.090422
O O8 0.597373 0.000000 0.045242
O O9 0.500000 0.838645 0.000000
O O10 0.000000 0.889803 0.000000
O O11 0.158643 0.088250 0.526476
O O12 0.974083 0.267046 0.559356
O O13 0.283512 0.500000 0.140181
#
# Coordination Sequence:
#
# PCOD9179869 Si02
#       6
#     8   8   8   2   8   8
#     4  10  19  31  52  74 106 139 181 230 282 347
#     4  10  21  39  58  81 116 151 187 241 293 340
#     4   9  15  23  37  58  94 139 174 209 272 345
#     4  12  24  42  76  96 132 182 216 258 320 384
#     4  10  24  43  64  97 134 167 216 271 313 371
#     4   9  17  28  42  71 103 137 177 230 280 331
#
# _framework density 24.167123
#
# number of rings (size 3 to 8) (size 9 to 14) (size 15 to 20)
#    0.000    2.286    0.000    2.857    1.333    6.095 
#    0.000    0.000    0.000    0.000    0.000    0.000 
#    0.000   53.333    0.000    0.000    0.000    0.000 
#
# Total GULP energy -117137.894453 kJ/mol
# GULP energy per Si atom -5577.994974 kJ/mol
# Density = 2.411212 g / cm^3
# Si number density = 24.167123 Si / 1000 Ang^3
#
#
#
# Elastic Constant Matrix: (Units=GPa)
#
#
# Indices 1 2 3 4 5 6 
#
# 1 97.2040 -8.9995 10.8691 0.0000 17.6137 0.0000
# 2 -8.9995 95.6109 11.5657 0.0000 6.1913 0.0000
# 3 10.8691 11.5657 107.8870 0.0000 13.1065 0.0000
# 4 0.0000 0.0000 0.0000 21.7635 0.0000 7.5830
# 5 17.6137 6.1913 13.1065 0.0000 34.8319 0.0000
# 6 0.0000 0.0000 0.0000 7.5830 0.0000 0.2388
#
#
#
# Elastic Compliance Matrix: (Units=1/GPa)
#
#
# Indices 1 2 3 4 5 6 
#
# 1 0.011567 0.001545 -0.000615 0.000000 -0.005892 0.000000
# 2 0.001545 0.010881 -0.001040 0.000000 -0.002324 0.000000
# 3 -0.000615 -0.001040 0.009832 0.000000 -0.003204 0.000000
# 4 0.000000 0.000000 0.000000 -0.004565 0.000000 0.144977
# 5 -0.005892 -0.002324 -0.003204 0.000000 0.033308 0.000000
# 6 0.000000 0.000000 0.000000 0.144977 0.000000 -0.416088
#
#
# Mechanical properties :
#
#
# Convention : Reuss Voigt Hill
#
# Bulk Modulus (GPa) = 31.19225 36.39695 33.79460
# Shear Modulus (GPa) = -14.52814 30.51794 7.99490
#
# Velocity S-wave (km/s) = -2.45450 3.55743 1.82081
# Velocity P-wave (km/s) = 2.21408 5.65393 4.29355
#
# Compressibility (1/GPa) = 0.03205925
#
# Stress axis : x y z
#
# Youngs Moduli (GPa) = 86.45157 91.90565 101.71320
#
# Poissons Ratio (x) = -0.14197 0.06256
# Poissons Ratio (y) = -0.13355 0.10576
# Poissons Ratio (z) = 0.05318 0.09556
#
# Static dielectric constant tensor:
#      x y z
#    x 1.918400 0.000000 -0.001160 
#    y 0.000000 1.943540 0.000000 
#    z -0.001160 0.000000 1.949740 
# 
# From -- ./inp_files/330871.got.cif
#   From: 2010.05.17/outbox.cif.g08.bks.cpg/sg12_166_cif.got.tgz:330871.got - 2010.06.03 13:09:07.
