data_PCOD9179567
_publ_section_title
;
Structure prediction by ZEFSAII (Michael W. Deem and Ramdas Pophale) SiO2 
 PCOD9179567
Probable space group: C 2/M
;
_chemical_formula_sum "Si O2"
_cell_formula_units_Z 48
_cell_length_a 29.921687
_cell_length_b 12.741598
_cell_length_c 7.481833
_cell_angle_alpha 90.000000
_cell_angle_beta 111.249387
_cell_angle_gamma 90.000000
_cell_volume 2658.516566
_symmetry_space_group_name_H-M "C 2/M"
_symmetry_group_IT_number 12
_symmetry_cell_setting 'monoclinic'
loop_
_space_group_symop_operation_xyz
x,y,z
-x,y,-z
-x,-y,-z
x,-y,z
1/2+x,1/2+y,z
1/2-x,1/2+y,-z
1/2-x,1/2-y,-z
1/2+x,1/2-y,z
loop_
_atom_site_type_symbol
_atom_site_label
_atom_site_fract_x
_atom_site_fract_y
_atom_site_fract_z
Si Si1 0.805067 0.782130 0.264432
Si Si2 0.113730 0.381166 0.650304
Si Si3 0.778165 0.120900 0.855379
Si Si4 0.140745 0.121902 0.319483
Si Si5 0.968681 0.621175 0.191233
Si Si6 0.431133 0.191615 0.766332
O O1 0.845799 0.703258 0.249116
O O2 0.761519 0.706119 0.258436
O O3 0.827639 0.844080 0.462970
O O4 0.788619 0.856322 0.078911
O O5 0.128454 0.500000 0.714692
O O6 0.065545 0.358173 0.691864
O O7 0.101044 0.370528 0.422946
O O8 0.825759 0.135981 0.805841
O O9 0.762278 0.000000 0.807178
O O10 0.094727 0.197256 0.246053
O O11 0.127620 0.000000 0.314543
O O12 0.985674 0.500000 0.226622
O O13 0.015256 0.693464 0.237794
O O14 0.937859 0.635819 0.966346
#
# Coordination Sequence:
#
# PCOD9179567 Si02
#       6
#     8   8   8   8   8   8
#     4  10  20  34  54  77 102 131 165 206 247 293
#     4  10  19  31  50  76 103 131 164 203 250 300
#     4  10  20  35  54  76 102 132 166 203 247 296
#     4  10  21  36  53  73 100 135 170 205 246 291
#     4  10  19  32  51  75 103 132 162 202 253 301
#     4  10  19  32  50  71  98 131 168 204 244 293
#
# _framework density 18.055183
#
# number of rings (size 3 to 8) (size 9 to 14) (size 15 to 20)
#    0.000    2.000    0.000    5.000    0.000    1.333 
#    0.000    1.667    0.000   27.000    0.000    0.000 
#    0.000    0.000    0.000    0.000    0.000    0.000 
#
# Total GULP energy -133920.514103 kJ/mol
# GULP energy per Si atom -5580.021421 kJ/mol
# Density = 1.801409 g / cm^3
# Si number density = 18.055183 Si / 1000 Ang^3
#
#
#
# Elastic Constant Matrix: (Units=GPa)
#
#
# Indices 1 2 3 4 5 6 
#
# 1 83.0950 62.0727 6.0874 0.0000 0.0095 0.0000
# 2 62.0727 93.5857 2.8336 0.0000 2.1554 0.0000
# 3 6.0874 2.8336 36.5485 0.0000 -1.6606 0.0000
# 4 0.0000 0.0000 0.0000 12.0327 0.0000 2.0221
# 5 0.0095 2.1554 -1.6606 0.0000 23.6088 0.0000
# 6 0.0000 0.0000 0.0000 2.0221 0.0000 29.9413
#
#
#
# Elastic Compliance Matrix: (Units=1/GPa)
#
#
# Indices 1 2 3 4 5 6 
#
# 1 0.024169 -0.015977 -0.002730 0.000000 0.001257 0.000000
# 2 -0.015977 0.021298 0.000925 0.000000 -0.001873 0.000000
# 3 -0.002730 0.000925 0.027829 0.000000 0.001874 0.000000
# 4 0.000000 0.000000 0.000000 0.084061 0.000000 -0.005677
# 5 0.001257 -0.001873 0.001874 0.000000 0.042659 0.000000
# 6 0.000000 0.000000 0.000000 -0.005677 0.000000 0.033782
#
#
# Mechanical properties :
#
#
# Convention : Reuss Voigt Hill
#
# Bulk Modulus (GPa) = 26.50280 39.46850 32.98565
# Shear Modulus (GPa) = 17.73428 22.59892 20.16660
#
# Velocity S-wave (km/s) = 3.13745 3.54172 3.34569
# Velocity P-wave (km/s) = 5.27593 6.21550 5.76489
#
# Compressibility (1/GPa) = 0.03773187
#
# Stress axis : x y z
#
# Youngs Moduli (GPa) = 41.37488 46.95359 35.93375
#
# Poissons Ratio (x) = 0.75018 0.09809
# Poissons Ratio (y) = 0.66105 -0.03323
# Poissons Ratio (z) = 0.11294 -0.04342
#
# Static dielectric constant tensor:
#      x y z
#    x 1.609720 0.000000 0.002050 
#    y 0.000000 1.591270 0.000000 
#    z 0.002050 0.000000 1.625920 
# 
# From -- ./inp_files/102792.got.cif
#   From: 2010.05.17/outbox.cif.g08.bks.cpg/sg12_52_cif.got.tgz:102792.got - 2010.06.03 13:09:07.
