data_PCOD9179681
_publ_section_title
;
Structure prediction by ZEFSAII (Michael W. Deem and Ramdas Pophale) SiO2 
 PCOD9179681
Probable space group: C 2/M
;
_chemical_formula_sum "Si O2"
_cell_formula_units_Z 48
_cell_length_a 11.818993
_cell_length_b 28.446268
_cell_length_c 7.948891
_cell_angle_alpha 90.000000
_cell_angle_beta 69.920529
_cell_angle_gamma 90.000000
_cell_volume 2510.027094
_symmetry_space_group_name_H-M "C 2/M"
_symmetry_group_IT_number 12
_symmetry_cell_setting 'monoclinic'
loop_
_space_group_symop_operation_xyz
x,y,z
-x,y,-z
-x,-y,-z
x,-y,z
1/2+x,1/2+y,z
1/2-x,1/2+y,-z
1/2-x,1/2-y,-z
1/2+x,1/2-y,z
loop_
_atom_site_type_symbol
_atom_site_label
_atom_site_fract_x
_atom_site_fract_y
_atom_site_fract_z
Si Si1 0.643760 0.447169 0.733117
Si Si2 0.565648 0.226164 0.141073
Si Si3 0.857089 0.117340 0.564776
Si Si4 0.810840 0.816118 0.079948
Si Si5 0.865878 0.084075 0.910502
Si Si6 0.865111 0.217686 0.418893
O O1 0.662996 0.500000 0.661035
O O2 0.691001 0.408303 0.577900
O O3 0.691448 0.442269 0.900129
O O4 0.499207 0.437635 0.820119
O O5 0.665640 0.188467 0.146412
O O6 0.637599 0.272886 0.051913
O O7 0.475335 0.245898 0.330123
O O8 0.500000 0.210980 0.000000
O O9 0.806898 0.091833 0.757475
O O10 0.855059 0.174431 0.556432
O O11 0.000000 0.107627 0.500000
O O12 0.855109 0.808820 0.246102
O O13 0.867854 0.862758 0.976925
O O14 0.750000 0.250000 0.500000
#
# Coordination Sequence:
#
# PCOD9179681 Si02
#       6
#     8   8   8   8   8   8
#     4  10  20  35  52  80 112 138 175 228 283 347
#     4   9  20  33  50  74  99 147 188 229 267 318
#     4  10  21  32  51  75 107 146 180 222 268 329
#     4  10  20  35  52  70 110 147 184 222 276 324
#     4  10  19  31  51  73 102 143 177 210 275 332
#     4  11  23  34  51  77 110 148 196 233 272 317
#
# _framework density 19.123298999999999
#
# number of rings (size 3 to 8) (size 9 to 14) (size 15 to 20)
#    0.000    2.000    1.667    3.000   14.000    3.667 
#    0.000    0.000    0.000    0.000    0.000    0.000 
#    0.000    6.667    0.000    0.000    0.000    0.000 
#
# Total GULP energy -133627.058605 kJ/mol
# GULP energy per Si atom -5567.794109 kJ/mol
# Density = 1.907977 g / cm^3
# Si number density = 19.123299 Si / 1000 Ang^3
#
#
#
# Elastic Constant Matrix: (Units=GPa)
#
#
# Indices 1 2 3 4 5 6 
#
# 1 52.3061 4.4636 9.4741 0.0000 -1.2639 0.0000
# 2 4.4636 58.1550 5.0298 0.0000 7.3547 0.0000
# 3 9.4741 5.0298 91.1590 0.0000 18.2677 0.0000
# 4 0.0000 0.0000 0.0000 4.5489 0.0000 14.6332
# 5 -1.2639 7.3547 18.2677 0.0000 12.3353 0.0000
# 6 0.0000 0.0000 0.0000 14.6332 0.0000 7.8968
#
#
#
# Elastic Compliance Matrix: (Units=1/GPa)
#
#
# Indices 1 2 3 4 5 6 
#
# 1 0.020229 -0.002377 -0.003798 0.000000 0.009114 0.000000
# 2 -0.002377 0.019064 0.002164 0.000000 -0.014815 0.000000
# 3 -0.003798 0.002164 0.016469 0.000000 -0.026069 0.000000
# 4 0.000000 0.000000 0.000000 -0.044312 0.000000 0.082112
# 5 0.009114 -0.014815 -0.026069 0.000000 0.129441 0.000000
# 6 0.000000 0.000000 0.000000 0.082112 0.000000 -0.025525
#
#
# Mechanical properties :
#
#
# Convention : Reuss Voigt Hill
#
# Bulk Modulus (GPa) = 20.94603 26.61724 23.78164
# Shear Modulus (GPa) = 35.89338 17.13303 26.51321
#
# Velocity S-wave (km/s) = 4.33707 2.99645 3.72753
# Velocity P-wave (km/s) = 6.00476 5.09122 5.56677
#
# Compressibility (1/GPa) = 0.04774173
#
# Stress axis : x y z
#
# Youngs Moduli (GPa) = 49.43363 52.45401 60.71948
#
# Poissons Ratio (x) = 0.12467 0.23059
# Poissons Ratio (y) = 0.11749 -0.13139
# Poissons Ratio (z) = 0.18773 -0.11351
#
# Static dielectric constant tensor:
#      x y z
#    x 1.710940 0.000000 0.053800 
#    y 0.000000 1.665370 0.000000 
#    z 0.053800 0.000000 1.721480 
# 
# From -- ./inp_files/50615.got.cif
#   From: 2010.05.17/outbox.cif.g08.bks.cpg/sg12_26_cif.got.tgz:50615.got - 2010.06.03 13:09:07.
