data_PCOD9179217
_publ_section_title
;
Structure prediction by ZEFSAII (Michael W. Deem and Ramdas Pophale) SiO2 
 PCOD9179217
Probable space group: C 2/M
;
_chemical_formula_sum "Si O2"
_cell_formula_units_Z 56
_cell_length_a 16.321872
_cell_length_b 7.409088
_cell_length_c 21.595140
_cell_angle_alpha 90.000000
_cell_angle_beta 128.367598
_cell_angle_gamma 90.000000
_cell_volume 2047.535853
_symmetry_space_group_name_H-M "C 2/M"
_symmetry_group_IT_number 12
_symmetry_cell_setting 'monoclinic'
loop_
_space_group_symop_operation_xyz
x,y,z
-x,y,-z
-x,-y,-z
x,-y,z
1/2+x,1/2+y,z
1/2-x,1/2+y,-z
1/2-x,1/2-y,-z
1/2+x,1/2-y,z
loop_
_atom_site_type_symbol
_atom_site_label
_atom_site_fract_x
_atom_site_fract_y
_atom_site_fract_z
Si Si1 0.119244 0.218922 0.047507
Si Si2 0.368437 0.282720 0.614628
Si Si3 0.600546 0.789194 0.234937
Si Si4 0.339423 0.722127 0.334421
Si Si5 0.377235 0.291477 0.485049
Si Si6 0.886466 0.793935 0.090396
Si Si7 0.168069 0.208525 0.803383
O O1 0.205178 0.288155 0.135729
O O2 0.121244 0.000000 0.050251
O O3 0.149135 0.281287 0.991856
O O4 0.000000 0.276915 0.000000
O O5 0.363526 0.500000 0.608881
O O6 0.427341 0.235272 0.705322
O O7 0.409433 0.215609 0.567178
O O8 0.249977 0.212243 0.568528
O O9 0.718305 0.719984 0.283821
O O10 0.512815 0.702741 0.151346
O O11 0.601573 0.000000 0.221617
O O12 0.341972 0.500000 0.336307
O O13 0.396390 0.781154 0.424538
O O14 0.370673 0.781235 0.280385
O O15 0.410573 0.500000 0.500678
O O16 0.858629 0.704807 0.142910
O O17 0.850578 0.000000 0.075155
O O18 0.132274 0.000000 0.788704
#
# Coordination Sequence:
#
# PCOD9179217 Si02
#       7
#     8   8   8   8   8   8   8
#     4  10  21  36  53  74 101 128 155 193 238 284
#     4   9  15  24  42  68  97 126 157 198 243 283
#     4  10  19  31  49  71  96 127 162 200 240 285
#     4   8  15  29  48  71  96 122 158 201 239 277
#     4   8  14  25  42  66  96 127 159 196 239 285
#     4  10  21  35  50  71  98 127 160 197 238 283
#     4  10  20  34  53  74  97 126 160 198 236 280
#
# _framework density 27.349947
#
# number of rings (size 3 to 8) (size 9 to 14) (size 15 to 20)
#    0.000    2.714    0.000    3.000    0.000    2.000 
#    0.000    2.857    0.000    0.857    0.000    6.000 
#    0.000    0.000    0.000    0.000    0.000    0.000 
#
# Total GULP energy -156640.337350 kJ/mol
# GULP energy per Si atom -5594.297762 kJ/mol
# Density = 2.728770 g / cm^3
# Si number density = 27.349947 Si / 1000 Ang^3
#
#
#
# Elastic Constant Matrix: (Units=GPa)
#
#
# Indices 1 2 3 4 5 6 
#
# 1 100.2452 6.6020 49.4472 0.0000 -22.3576 0.0000
# 2 6.6020 113.4026 -2.1315 0.0000 2.5100 0.0000
# 3 49.4472 -2.1315 220.4188 0.0000 -23.1716 0.0000
# 4 0.0000 0.0000 0.0000 16.9032 0.0000 3.5680
# 5 -22.3576 2.5100 -23.1716 0.0000 71.0096 0.0000
# 6 0.0000 0.0000 0.0000 3.5680 0.0000 1.6550
#
#
#
# Elastic Compliance Matrix: (Units=1/GPa)
#
#
# Indices 1 2 3 4 5 6 
#
# 1 0.011857 -0.000801 -0.002353 0.000000 0.002994 0.000000
# 2 -0.000801 0.008880 0.000213 0.000000 -0.000496 0.000000
# 3 -0.002353 0.000213 0.005165 0.000000 0.000937 0.000000
# 4 0.000000 0.000000 0.000000 0.108564 0.000000 -0.234047
# 5 0.002994 -0.000496 0.000937 0.000000 0.015349 0.000000
# 6 0.000000 0.000000 0.000000 -0.234047 0.000000 1.108783
#
#
# Mechanical properties :
#
#
# Convention : Reuss Voigt Hill
#
# Bulk Modulus (GPa) = 49.94766 60.21133 55.07950
# Shear Modulus (GPa) = 3.93344 43.25682 23.59513
#
# Velocity S-wave (km/s) = 1.20055 3.98125 2.94038
# Velocity P-wave (km/s) = 4.49709 6.57243 5.63119
#
# Compressibility (1/GPa) = 0.02002096
#
# Stress axis : x y z
#
# Youngs Moduli (GPa) = 84.34188 112.61577 193.60263
#
# Poissons Ratio (x) = 0.09017 0.45552
# Poissons Ratio (y) = 0.06754 -0.04130
# Poissons Ratio (z) = 0.19844 -0.02402
#
# Static dielectric constant tensor:
#      x y z
#    x 2.252660 0.000000 -0.026330 
#    y 0.000000 2.096880 0.000000 
#    z -0.026330 0.000000 2.076740 
# 
# From -- ./inp_files/313726.got.cif
#   From: 2010.05.17/outbox.cif.g08.bks.cpg/sg12_157_cif.got.tgz:313726.got - 2010.06.03 13:09:07.
