data_PCOD9179044
_publ_section_title
;
Structure prediction by ZEFSAII (Michael W. Deem and Ramdas Pophale) SiO2 
 PCOD9179044
Probable space group: C 2/M
;
_chemical_formula_sum "Si O2"
_cell_formula_units_Z 56
_cell_length_a 15.919375
_cell_length_b 7.591097
_cell_length_c 17.656204
_cell_angle_alpha 90.000000
_cell_angle_beta 107.039474
_cell_angle_gamma 90.000000
_cell_volume 2040.011511
_symmetry_space_group_name_H-M "C 2/M"
_symmetry_group_IT_number 12
_symmetry_cell_setting 'monoclinic'
loop_
_space_group_symop_operation_xyz
x,y,z
-x,y,-z
-x,-y,-z
x,-y,z
1/2+x,1/2+y,z
1/2-x,1/2+y,-z
1/2-x,1/2-y,-z
1/2+x,1/2-y,z
loop_
_atom_site_type_symbol
_atom_site_label
_atom_site_fract_x
_atom_site_fract_y
_atom_site_fract_z
Si Si1 0.790160 0.712144 0.690668
Si Si2 0.589265 0.789457 0.589645
Si Si3 0.227570 0.791045 0.830834
Si Si4 0.350554 0.788303 0.551242
Si Si5 0.862457 0.196397 0.985075
Si Si6 0.032797 0.704654 0.733697
Si Si7 0.518334 0.797324 0.120969
O O1 0.796531 0.500000 0.691187
O O2 0.691225 0.761994 0.639623
O O3 0.791996 0.767067 0.778747
O O4 0.853129 0.775892 0.639074
O O5 0.588887 0.723269 0.502413
O O6 0.536903 0.720096 0.649506
O O7 0.572659 0.000000 0.583125
O O8 0.271290 0.754967 0.923248
O O9 0.134285 0.706399 0.788309
O O10 0.214974 0.000000 0.820291
O O11 0.250000 0.750000 0.500000
O O12 0.360963 0.000000 0.554579
O O13 0.925938 0.200497 0.927801
O O14 0.854369 0.000000 0.012447
O O15 0.918754 0.300710 0.061595
O O16 0.005458 0.500000 0.720300
O O17 0.983504 0.777289 0.794629
O O18 0.550316 0.000000 0.131269
#
# Coordination Sequence:
#
# PCOD9179044 Si02
#       7
#     8   8   8   8   8   8   8
#     4   8  14  23  36  58  87 119 152 184 219 260
#     4   8  13  22  37  59  88 119 148 180 220 263
#     4  10  19  31  48  70  98 128 157 191 231 273
#     4   8  12  19  33  54  83 117 149 180 215 257
#     4  11  22  36  53  71  92 118 154 195 233 278
#     4   9  18  31  48  72  99 125 153 188 230 276
#     4  10  20  36  55  72  93 120 152 189 231 280
#
# _framework density 27.450824000000001
#
# number of rings (size 3 to 8) (size 9 to 14) (size 15 to 20)
#    0.000    2.857    0.000    3.000    0.000    2.286 
#    0.000    0.000    0.000    0.000    0.000    1.000 
#    0.000    8.000    0.000    0.000    0.000    0.000 
#
# Total GULP energy -156577.499326 kJ/mol
# GULP energy per Si atom -5592.053547 kJ/mol
# Density = 2.738834 g / cm^3
# Si number density = 27.450824 Si / 1000 Ang^3
#
#
#
# Elastic Constant Matrix: (Units=GPa)
#
#
# Indices 1 2 3 4 5 6 
#
# 1 118.8366 6.0547 41.8619 0.0000 -15.9785 0.0000
# 2 6.0547 84.1021 0.2198 0.0000 3.5058 0.0000
# 3 41.8619 0.2198 253.3412 0.0000 -18.2355 0.0000
# 4 0.0000 0.0000 0.0000 -8.8133 0.0000 -13.3667
# 5 -15.9785 3.5058 -18.2355 0.0000 76.3242 0.0000
# 6 0.0000 0.0000 0.0000 -13.3667 0.0000 0.0327
#
#
#
# Elastic Compliance Matrix: (Units=1/GPa)
#
#
# Indices 1 2 3 4 5 6 
#
# 1 0.009161 -0.000723 -0.001397 0.000000 0.001617 0.000000
# 2 -0.000723 0.011971 0.000060 0.000000 -0.000687 0.000000
# 3 -0.001397 0.000060 0.004229 0.000000 0.000715 0.000000
# 4 0.000000 0.000000 0.000000 -0.000183 0.000000 -0.074692
# 5 0.001617 -0.000687 0.000715 0.000000 0.013643 0.000000
# 6 0.000000 0.000000 0.000000 -0.074692 0.000000 0.049248
#
#
# Mechanical properties :
#
#
# Convention : Reuss Voigt Hill
#
# Bulk Modulus (GPa) = 47.07907 61.39474 54.23690
# Shear Modulus (GPa) = 50.36745 40.71830 45.54287
#
# Velocity S-wave (km/s) = 4.28813 3.85556 4.07759
# Velocity P-wave (km/s) = 6.45794 6.49880 6.47840
#
# Compressibility (1/GPa) = 0.02124086
#
# Stress axis : x y z
#
# Youngs Moduli (GPa) = 109.15515 83.53615 236.43545
#
# Poissons Ratio (x) = 0.06042 0.33024
# Poissons Ratio (y) = 0.07895 -0.01411
# Poissons Ratio (z) = 0.15246 -0.00499
#
# Static dielectric constant tensor:
#      x y z
#    x 2.257950 0.000000 -0.004000 
#    y 0.000000 2.054600 0.000000 
#    z -0.004000 0.000000 2.159000 
# 
# From -- ./inp_files/280313.got.cif
#   From: 2010.05.17/outbox.cif.g08.bks.cpg/sg12_141_cif.got.tgz:280313.got - 2010.06.03 13:09:07.
