data_PCOD9179302
_publ_section_title
;
Structure prediction by ZEFSAII (Michael W. Deem and Ramdas Pophale) SiO2 
 PCOD9179302
Probable space group: C 2/M
;
_chemical_formula_sum "Si O2"
_cell_formula_units_Z 60
_cell_length_a 10.053906
_cell_length_b 21.266902
_cell_length_c 20.769548
_cell_angle_alpha 90.000000
_cell_angle_beta 49.474524
_cell_angle_gamma 90.000000
_cell_volume 3375.566044
_symmetry_space_group_name_H-M "C 2/M"
_symmetry_group_IT_number 12
_symmetry_cell_setting 'monoclinic'
loop_
_space_group_symop_operation_xyz
x,y,z
-x,y,-z
-x,-y,-z
x,-y,z
1/2+x,1/2+y,z
1/2-x,1/2+y,-z
1/2-x,1/2-y,-z
1/2+x,1/2-y,z
loop_
_atom_site_type_symbol
_atom_site_label
_atom_site_fract_x
_atom_site_fract_y
_atom_site_fract_z
Si Si1 0.677619 0.646182 0.182613
Si Si2 0.518753 0.761655 0.690837
Si Si3 0.718198 0.572323 0.301156
Si Si4 0.000000 0.620528 0.000000
Si Si5 0.396733 0.891029 0.786036
Si Si6 0.032840 0.070737 0.853661
Si Si7 0.732476 0.072570 0.041427
Si Si8 0.589220 0.300098 0.402658
O O1 0.593256 0.707943 0.238934
O O2 0.720773 0.597310 0.226620
O O3 0.852671 0.657927 0.086075
O O4 0.535382 0.616004 0.180025
O O5 0.427924 0.827170 0.737341
O O6 0.514167 0.740546 0.617912
O O7 0.716662 0.770219 0.653254
O O8 0.655463 0.500000 0.324847
O O9 0.611216 0.627260 0.371967
O O10 0.915942 0.575473 0.266350
O O11 0.104899 0.580481 0.020171
O O12 0.237869 0.925968 0.801472
O O13 0.330960 0.883706 0.880585
O O14 0.979554 0.000000 0.853160
O O15 0.924476 0.086073 0.952695
O O16 0.726659 0.000000 0.066191
O O17 0.500000 0.298608 0.500000
#
# Coordination Sequence:
#
# PCOD9179302 Si02
#       8
#     8   8   8   4   8   8   8   8
#     4  10  20  36  52  76 108 149 189 225 261 309
#     4  10  22  38  57  81 111 139 182 220 268 327
#     4  10  20  34  57  83 110 140 174 224 278 322
#     4  10  19  32  50  78 104 148 195 224 264 302
#     4  11  20  33  51  75 108 144 177 224 271 314
#     4  10  20  32  49  74 104 142 189 230 264 305
#     4  10  19  31  49  73 104 142 190 232 264 305
#     4  10  21  39  63  84 107 138 175 221 275 339
#
# _framework density 17.774795999999998
#
# number of rings (size 3 to 8) (size 9 to 14) (size 15 to 20)
#    0.000    1.867    1.333    3.400    0.000    2.400 
#    2.400    1.333    0.000    0.000    0.000    0.000 
#    0.000   21.867    0.000    0.000    0.000    0.000 
#
# Total GULP energy -167301.565841 kJ/mol
# GULP energy per Si atom -5576.718861 kJ/mol
# Density = 1.773434 g / cm^3
# Si number density = 17.774796 Si / 1000 Ang^3
#
#
#
# Elastic Constant Matrix: (Units=GPa)
#
#
# Indices 1 2 3 4 5 6 
#
# 1 64.3941 16.8763 4.8499 0.0000 5.5083 0.0000
# 2 16.8763 80.0187 25.3009 0.0000 11.7049 0.0000
# 3 4.8499 25.3009 60.0517 0.0000 19.0821 0.0000
# 4 0.0000 0.0000 0.0000 5.7410 0.0000 -2.2401
# 5 5.5083 11.7049 19.0821 0.0000 29.2774 0.0000
# 6 0.0000 0.0000 0.0000 -2.2401 0.0000 15.0474
#
#
#
# Elastic Compliance Matrix: (Units=1/GPa)
#
#
# Indices 1 2 3 4 5 6 
#
# 1 0.016559 -0.003420 0.000831 0.000000 -0.002290 0.000000
# 2 -0.003420 0.015246 -0.005568 0.000000 -0.001823 0.000000
# 3 0.000831 -0.005568 0.023046 0.000000 -0.012951 0.000000
# 4 0.000000 0.000000 0.000000 0.184928 0.000000 0.027530
# 5 -0.002290 -0.001823 -0.012951 0.000000 0.043757 0.000000
# 6 0.000000 0.000000 0.000000 0.027530 0.000000 0.070555
#
#
# Mechanical properties :
#
#
# Convention : Reuss Voigt Hill
#
# Bulk Modulus (GPa) = 25.94883 33.16876 29.55879
# Shear Modulus (GPa) = 13.04630 20.50897 16.77764
#
# Velocity S-wave (km/s) = 2.71214 3.40048 3.07563
# Velocity P-wave (km/s) = 4.94348 5.84113 5.41095
#
# Compressibility (1/GPa) = 0.03853739
#
# Stress axis : x y z
#
# Youngs Moduli (GPa) = 60.39004 65.59301 43.39066
#
# Poissons Ratio (x) = 0.22435 -0.03607
# Poissons Ratio (y) = 0.20655 0.24159
# Poissons Ratio (z) = -0.05020 0.36521
#
# Static dielectric constant tensor:
#      x y z
#    x 1.620820 0.000000 0.002380 
#    y 0.000000 1.578780 0.000000 
#    z 0.002380 0.000000 1.605830 
# 
# From -- ./inp_files/301900.got.cif
#   From: 2010.05.17/outbox.cif.g08.bks.cpg/sg12_151_cif.got.tgz:301900.got - 2010.06.03 13:09:07.
