data_PCOD9179078
_publ_section_title
;
Structure prediction by ZEFSAII (Michael W. Deem and Ramdas Pophale) SiO2 
 PCOD9179078
Probable space group: C 2/M
;
_chemical_formula_sum "Si O2"
_cell_formula_units_Z 56
_cell_length_a 29.537986
_cell_length_b 8.883129
_cell_length_c 17.656541
_cell_angle_alpha 90.000000
_cell_angle_beta 131.689159
_cell_angle_gamma 90.000000
_cell_volume 3459.679529
_symmetry_space_group_name_H-M "C 2/M"
_symmetry_group_IT_number 12
_symmetry_cell_setting 'monoclinic'
loop_
_space_group_symop_operation_xyz
x,y,z
-x,y,-z
-x,-y,-z
x,-y,z
1/2+x,1/2+y,z
1/2-x,1/2+y,-z
1/2-x,1/2-y,-z
1/2+x,1/2-y,z
loop_
_atom_site_type_symbol
_atom_site_label
_atom_site_fract_x
_atom_site_fract_y
_atom_site_fract_z
Si Si1 0.238233 0.321076 0.866967
Si Si2 0.787823 0.820126 0.610631
Si Si3 0.041255 0.177825 0.861846
Si Si4 0.845580 0.320984 0.086285
Si Si5 0.579585 0.820383 0.227221
Si Si6 0.266267 0.174861 0.745226
Si Si7 0.910663 0.326861 0.935397
O O1 0.247789 0.500000 0.870916
O O2 0.181850 0.294980 0.860733
O O3 0.231961 0.247937 0.777782
O O4 0.296375 0.248911 0.973733
O O5 0.750000 0.750000 0.500000
O O6 0.856722 0.758537 0.684414
O O7 0.760673 0.763292 0.660451
O O8 0.787519 0.000000 0.607102
O O9 0.089938 0.246574 0.858045
O O10 0.975766 0.256052 0.786211
O O11 0.036153 0.000000 0.847155
O O12 0.067680 0.218765 0.974417
O O13 0.848899 0.500000 0.076472
O O14 0.565479 0.792238 0.122208
O O15 0.586142 0.000000 0.242860
O O16 0.337870 0.179943 0.846331
O O17 0.250170 0.000000 0.717043
O O18 0.927479 0.500000 0.973760
#
# Coordination Sequence:
#
# PCOD9179078 Si02
#       7
#     8   8   8   8   8   8   8
#     4  10  19  31  48  71  97 132 177 218 253 294
#     4  11  22  38  58  80 105 129 165 209 254 304
#     4  12  22  30  45  70 100 135 175 211 248 296
#     4  10  20  32  46  66  99 139 176 214 254 295
#     4  10  21  36  52  70  97 132 169 207 254 303
#     4  10  19  32  52  75 103 136 169 207 257 304
#     4   9  18  31  46  66  96 134 170 204 246 298
#
# _framework density 16.186471000000001
#
# number of rings (size 3 to 8) (size 9 to 14) (size 15 to 20)
#    0.000    1.714    1.429    5.571    0.000    6.286 
#    0.000    0.000    0.000    0.000    0.000    1.000 
#    0.000    8.000    0.000    0.000    0.000    0.000 
#
# Total GULP energy -156375.185751 kJ/mol
# GULP energy per Si atom -5584.828063 kJ/mol
# Density = 1.614963 g / cm^3
# Si number density = 16.186471 Si / 1000 Ang^3
#
#
#
# Elastic Constant Matrix: (Units=GPa)
#
#
# Indices 1 2 3 4 5 6 
#
# 1 123.2169 69.7758 43.2648 0.0000 -15.7633 0.0000
# 2 69.7758 132.6647 53.3882 0.0000 -11.1631 0.0000
# 3 43.2648 53.3882 75.2146 0.0000 -10.6126 0.0000
# 4 0.0000 0.0000 0.0000 24.1333 0.0000 -1.1997
# 5 -15.7633 -11.1631 -10.6126 0.0000 14.5649 0.0000
# 6 0.0000 0.0000 0.0000 -1.1997 0.0000 27.1204
#
#
#
# Elastic Compliance Matrix: (Units=1/GPa)
#
#
# Indices 1 2 3 4 5 6 
#
# 1 0.012975 -0.005035 -0.002734 0.000000 0.008192 0.000000
# 2 -0.005035 0.012619 -0.006092 0.000000 -0.000216 0.000000
# 3 -0.002734 -0.006092 0.020191 0.000000 0.007085 0.000000
# 4 0.000000 0.000000 0.000000 0.041528 0.000000 0.001837
# 5 0.008192 -0.000216 0.007085 0.000000 0.082521 0.000000
# 6 0.000000 0.000000 0.000000 0.001837 0.000000 0.036954
#
#
# Mechanical properties :
#
#
# Convention : Reuss Voigt Hill
#
# Bulk Modulus (GPa) = 55.35570 73.77263 64.56417
# Shear Modulus (GPa) = 20.78748 24.14154 22.46451
#
# Velocity S-wave (km/s) = 3.58753 3.86614 3.72944
# Velocity P-wave (km/s) = 7.17172 8.09969 7.64979
#
# Compressibility (1/GPa) = 0.01806499
#
# Stress axis : x y z
#
# Youngs Moduli (GPa) = 77.07306 79.24496 49.52621
#
# Poissons Ratio (x) = 0.39897 0.13539
# Poissons Ratio (y) = 0.38804 0.30169
# Poissons Ratio (z) = 0.21070 0.48273
#
# Static dielectric constant tensor:
#      x y z
#    x 1.569870 0.000000 -0.005490 
#    y 0.000000 1.540940 0.000000 
#    z -0.005490 0.000000 1.515750 
# 
# From -- ./inp_files/244298.got.cif
#   From: 2010.05.17/outbox.cif.g08.bks.cpg/sg12_123_cif.got.tgz:244298.got - 2010.06.03 13:09:07.
