data_PCOD9179820
_publ_section_title
;
Structure prediction by ZEFSAII (Michael W. Deem and Ramdas Pophale) SiO2 
 PCOD9179820
Probable space group: C 2/M
;
_chemical_formula_sum "Si O2"
_cell_formula_units_Z 64
_cell_length_a 24.901008
_cell_length_b 8.896072
_cell_length_c 16.438641
_cell_angle_alpha 90.000000
_cell_angle_beta 91.236026
_cell_angle_gamma 90.000000
_cell_volume 3640.659510
_symmetry_space_group_name_H-M "C 2/M"
_symmetry_group_IT_number 12
_symmetry_cell_setting 'monoclinic'
loop_
_space_group_symop_operation_xyz
x,y,z
-x,y,-z
-x,-y,-z
x,-y,z
1/2+x,1/2+y,z
1/2-x,1/2+y,-z
1/2-x,1/2-y,-z
1/2+x,1/2-y,z
loop_
_atom_site_type_symbol
_atom_site_label
_atom_site_fract_x
_atom_site_fract_y
_atom_site_fract_z
Si Si1 0.605949 0.679076 0.311854
Si Si2 0.405176 0.180018 0.131798
Si Si3 0.698919 0.679749 0.792734
Si Si4 0.011059 0.179503 0.191354
Si Si5 0.083919 0.678514 0.055164
Si Si6 0.820679 0.321937 0.823579
Si Si7 0.673750 0.178577 0.443706
Si Si8 0.283870 0.820913 0.380742
O O1 0.608003 0.500000 0.321340
O O2 0.549151 0.720890 0.268885
O O3 0.650487 0.730974 0.247341
O O4 0.621836 0.758799 0.396037
O O5 0.348597 0.245431 0.158387
O O6 0.453295 0.243772 0.188085
O O7 0.404084 0.000000 0.135551
O O8 0.417247 0.223901 0.038603
O O9 0.693210 0.500000 0.793749
O O10 0.758357 0.718243 0.828515
O O11 0.697857 0.739505 0.700310
O O12 0.043050 0.234626 0.112149
O O13 0.005778 0.000000 0.189397
O O14 0.071388 0.500000 0.060086
O O15 0.143254 0.700957 0.095195
O O16 0.823655 0.500000 0.803042
O O17 0.677865 0.207408 0.540228
O O18 0.725569 0.258668 0.405333
O O19 0.678569 0.000000 0.430961
O O20 0.280500 0.000000 0.367525
#
# Coordination Sequence:
#
# PCOD9179820 Si02
#       8
#     8   8   8   8   8   8   8   8
#     4  10  19  31  52  80 108 137 171 217 265 310
#     4  11  23  37  54  75 102 142 183 219 265 316
#     4  11  22  35  53  76 107 144 179 216 260 313
#     4  10  21  36  55  80 106 134 175 225 270 309
#     4   9  19  36  56  78 104 135 175 222 268 314
#     4   9  18  33  52  75 105 139 174 213 262 315
#     4  10  19  31  51  80 110 140 172 210 258 307
#     4  10  20  33  51  77 110 142 174 212 253 306
#
# _framework density 17.579231
#
# number of rings (size 3 to 8) (size 9 to 14) (size 15 to 20)
#    0.000    2.000    1.250    2.625    0.000    6.500 
#    0.000    0.000    0.000    0.750    0.000    5.250 
#    0.000    0.000    0.000    0.000    0.000    0.000 
#
# Total GULP energy -178636.596006 kJ/mol
# GULP energy per Si atom -5582.393625 kJ/mol
# Density = 1.753922 g / cm^3
# Si number density = 17.579231 Si / 1000 Ang^3
#
#
#
# Elastic Constant Matrix: (Units=GPa)
#
#
# Indices 1 2 3 4 5 6 
#
# 1 77.9796 25.5981 9.3050 0.0000 21.3215 0.0000
# 2 25.5981 40.1649 13.1783 0.0000 13.0928 0.0000
# 3 9.3050 13.1783 36.7518 0.0000 22.5639 0.0000
# 4 0.0000 0.0000 0.0000 26.2921 0.0000 -1.4492
# 5 21.3215 13.0928 22.5639 0.0000 24.4284 0.0000
# 6 0.0000 0.0000 0.0000 -1.4492 0.0000 27.9619
#
#
#
# Elastic Compliance Matrix: (Units=1/GPa)
#
#
# Indices 1 2 3 4 5 6 
#
# 1 0.021790 -0.009803 0.014897 0.000000 -0.027525 0.000000
# 2 -0.009803 0.034646 -0.008764 0.000000 -0.001918 0.000000
# 3 0.014897 -0.008764 0.073178 0.000000 -0.075898 0.000000
# 4 0.000000 0.000000 0.000000 0.038143 0.000000 0.001977
# 5 -0.027525 -0.001918 -0.075898 0.000000 0.136094 0.000000
# 6 0.000000 0.000000 0.000000 0.001977 0.000000 0.035865
#
#
# Mechanical properties :
#
#
# Convention : Reuss Voigt Hill
#
# Bulk Modulus (GPa) = 8.17823 27.89545 18.03684
# Shear Modulus (GPa) = 12.89280 22.85747 17.87514
#
# Velocity S-wave (km/s) = 2.71109 3.60982 3.19224
# Velocity P-wave (km/s) = 3.80294 5.76864 4.88567
#
# Compressibility (1/GPa) = 0.12227582
#
# Stress axis : x y z
#
# Youngs Moduli (GPa) = 45.89222 28.86372 13.66523
#
# Poissons Ratio (x) = 0.28295 -0.20357
# Poissons Ratio (y) = 0.44987 0.11976
# Poissons Ratio (z) = -0.68367 0.25295
#
# Static dielectric constant tensor:
#      x y z
#    x 1.595310 0.000000 0.038280 
#    y 0.000000 1.586220 0.000000 
#    z 0.038280 0.000000 1.596330 
# 
# From -- ./inp_files/238559.got.cif
#   From: 2010.05.17/outbox.cif.g08.bks.cpg/sg12_120_cif.got.tgz:238559.got - 2010.06.03 13:09:07.
