data_PCOD9179100
_publ_section_title
;
Structure prediction by ZEFSAII (Michael W. Deem and Ramdas Pophale) SiO2 
 PCOD9179100
Probable space group: C 2/M
;
_chemical_formula_sum "Si O2"
_cell_formula_units_Z 56
_cell_length_a 19.885817
_cell_length_b 8.629509
_cell_length_c 32.585011
_cell_angle_alpha 90.000000
_cell_angle_beta 34.429577
_cell_angle_gamma 90.000000
_cell_volume 3161.533005
_symmetry_space_group_name_H-M "C 2/M"
_symmetry_group_IT_number 12
_symmetry_cell_setting 'monoclinic'
loop_
_space_group_symop_operation_xyz
x,y,z
-x,y,-z
-x,-y,-z
x,-y,z
1/2+x,1/2+y,z
1/2-x,1/2+y,-z
1/2-x,1/2-y,-z
1/2+x,1/2-y,z
loop_
_atom_site_type_symbol
_atom_site_label
_atom_site_fract_x
_atom_site_fract_y
_atom_site_fract_z
Si Si1 0.106000 0.311774 0.917906
Si Si2 0.177483 0.685114 0.404559
Si Si3 0.931541 0.813677 0.238322
Si Si4 0.416563 0.184237 0.683537
Si Si5 0.376588 0.687589 0.792436
Si Si6 0.845548 0.314789 0.198061
Si Si7 0.531002 0.684142 0.548209
O O1 0.103834 0.500000 0.920833
O O2 0.238512 0.264033 0.864998
O O3 0.095878 0.270174 0.874987
O O4 0.000000 0.253511 0.000000
O O5 0.161405 0.500000 0.409922
O O6 0.310974 0.723425 0.324044
O O7 0.140592 0.741752 0.468262
O O8 0.084989 0.763795 0.419681
O O9 0.919940 0.736653 0.199860
O O10 0.044080 0.765715 0.208837
O O11 0.934985 0.000000 0.231395
O O12 0.427697 0.245966 0.724223
O O13 0.284599 0.236892 0.735428
O O14 0.509925 0.255593 0.604629
O O15 0.423742 0.000000 0.678806
O O16 0.379504 0.500000 0.787965
O O17 0.828139 0.500000 0.206948
O O18 0.540082 0.500000 0.542945
#
# Coordination Sequence:
#
# PCOD9179100 Si02
#       7
#     8   8   8   8   8   8   8
#     4   8  15  31  55  80 104 134 173 213 252 300
#     4  10  19  31  48  72 102 137 173 216 266 310
#     4  10  20  34  52  75 107 140 171 213 262 311
#     4  11  20  33  52  75 102 135 176 221 264 308
#     4   9  19  35  54  77 104 138 175 211 258 312
#     4  10  19  31  53  79 103 135 176 215 252 307
#     4  11  20  31  49  74 101 133 175 222 263 306
#
# _framework density 17.712926
#
# number of rings (size 3 to 8) (size 9 to 14) (size 15 to 20)
#    0.000    2.143    1.429    5.143    0.000    1.143 
#    0.000    1.429    0.000   10.714    0.000    0.000 
#    0.000    0.000    0.000    0.000    0.000    0.000 
#
# Total GULP energy -156250.997148 kJ/mol
# GULP energy per Si atom -5580.392755 kJ/mol
# Density = 1.767261 g / cm^3
# Si number density = 17.712926 Si / 1000 Ang^3
#
#
#
# Elastic Constant Matrix: (Units=GPa)
#
#
# Indices 1 2 3 4 5 6 
#
# 1 117.8194 24.2477 51.3270 -0.0010 8.7146 0.0231
# 2 24.2477 45.6336 21.1230 0.0041 1.8464 0.0110
# 3 51.3270 21.1230 120.1330 0.0036 15.7348 -0.0152
# 4 -0.0010 0.0041 0.0036 8.1542 0.0004 11.4568
# 5 8.7146 1.8464 15.7348 0.0004 16.4650 0.0002
# 6 0.0231 0.0110 -0.0152 11.4568 0.0002 -17.4109
#
#
#
# Elastic Compliance Matrix: (Units=1/GPa)
#
#
# Indices 1 2 3 4 5 6 
#
# 1 0.011113 -0.004075 -0.003796 -0.000009 -0.001797 0.000010
# 2 -0.004075 0.025383 -0.003008 -0.000016 0.002185 0.000003
# 3 -0.003796 -0.003008 0.011622 0.000011 -0.008760 -0.000010
# 4 -0.000009 -0.000016 0.000011 0.063723 -0.000006 0.041931
# 5 -0.001797 0.002185 -0.008760 -0.000006 0.069813 0.000003
# 6 0.000010 0.000003 -0.000010 0.041931 0.000003 -0.029844
#
#
# Mechanical properties :
#
#
# Convention : Reuss Voigt Hill
#
# Bulk Modulus (GPa) = 37.93702 52.99794 45.46748
# Shear Modulus (GPa) = 27.41899 13.90088 20.65994
#
# Velocity S-wave (km/s) = 3.93869 2.80444 3.41893
# Velocity P-wave (km/s) = 6.49219 6.36176 6.42731
#
# Compressibility (1/GPa) = 0.02635948
#
# Stress axis : x y z
#
# Youngs Moduli (GPa) = 89.98561 39.39636 86.04111
#
# Poissons Ratio (x) = 0.16054 0.32662
# Poissons Ratio (y) = 0.36670 0.25883
# Poissons Ratio (z) = 0.34159 0.11851
#
# Static dielectric constant tensor:
#      x y z
#    x 1.597800 0.000000 0.009130 
#    y 0.000000 1.596420 0.000000 
#    z 0.009130 0.000000 1.606830 
# 
# From -- ./inp_files/377647.got.cif
#   From: 2010.05.17/outbox.cif.g08.bks.cpg/sg12_189_cif.got.tgz:377647.got - 2010.06.03 13:09:07.
