data_PCOD9179604
_publ_section_title
;
Structure prediction by ZEFSAII (Michael W. Deem and Ramdas Pophale) SiO2 
 PCOD9179604
Probable space group: C 2/M
;
_chemical_formula_sum "Si O2"
_cell_formula_units_Z 64
_cell_length_a 20.244923
_cell_length_b 7.351214
_cell_length_c 17.302750
_cell_angle_alpha 90.000000
_cell_angle_beta 91.252561
_cell_angle_gamma 90.000000
_cell_volume 2574.462328
_symmetry_space_group_name_H-M "C 2/M"
_symmetry_group_IT_number 12
_symmetry_cell_setting 'monoclinic'
loop_
_space_group_symop_operation_xyz
x,y,z
-x,y,-z
-x,-y,-z
x,-y,z
1/2+x,1/2+y,z
1/2-x,1/2+y,-z
1/2-x,1/2-y,-z
1/2+x,1/2-y,z
loop_
_atom_site_type_symbol
_atom_site_label
_atom_site_fract_x
_atom_site_fract_y
_atom_site_fract_z
Si Si1 0.500205 0.721418 0.828555
Si Si2 0.402516 0.291518 0.951296
Si Si3 0.859805 0.778298 0.117884
Si Si4 0.611355 0.704676 0.627604
Si Si5 0.650213 0.792255 0.459584
Si Si6 0.714574 0.779802 0.168106
Si Si7 0.965834 0.779334 0.660929
Si Si8 0.252647 0.776993 0.664577
O O1 0.498217 0.500000 0.830052
O O2 0.464091 0.787037 0.905243
O O3 0.577055 0.774226 0.828901
O O4 0.461779 0.776612 0.750375
O O5 0.420647 0.500000 0.969785
O O6 0.342038 0.289334 0.889541
O O7 0.377645 0.214864 0.031717
O O8 0.787351 0.720287 0.142006
O O9 0.857168 0.000000 0.118519
O O10 0.606182 0.500000 0.660080
O O11 0.628746 0.696902 0.537342
O O12 0.538719 0.782944 0.635841
O O13 0.676977 0.785469 0.667221
O O14 0.590476 0.790292 0.396712
O O15 0.711904 0.716569 0.412827
O O16 0.664271 0.000000 0.481581
O O17 0.708438 0.724018 0.257392
O O18 0.712040 0.000000 0.165125
O O19 0.962655 0.000000 0.656180
O O20 0.251917 0.000000 0.662097
#
# Coordination Sequence:
#
# PCOD9179604 Si02
#       8
#     8   8   8   8   8   8   8   8
#     4   9  17  31  52  76 100 129 169 211 246 285
#     4  10  19  31  50  77 106 132 162 205 252 293
#     4   9  17  30  51  77 101 130 169 209 246 286
#     4  10  20  36  56  75  97 127 169 213 246 286
#     4  11  22  35  52  75 104 133 161 199 252 307
#     4  10  19  33  53  74 100 134 169 203 243 295
#     4  10  20  34  54  77  99 129 169 209 246 288
#     4   9  19  35  54  75  98 130 170 208 245 289
#
# _framework density 24.859559000000001
#
# number of rings (size 3 to 8) (size 9 to 14) (size 15 to 20)
#    0.000    2.250    0.000    3.375    0.000    6.500 
#    0.000    1.875    0.000    5.250    0.000    0.000 
#    0.000    0.000    0.000    0.000    0.000    0.000 
#
# Total GULP energy -179039.962262 kJ/mol
# GULP energy per Si atom -5594.998821 kJ/mol
# Density = 2.480298 g / cm^3
# Si number density = 24.859559 Si / 1000 Ang^3
#
#
#
# Elastic Constant Matrix: (Units=GPa)
#
#
# Indices 1 2 3 4 5 6 
#
# 1 98.8899 -5.6023 -3.4859 0.0000 -2.6712 0.0000
# 2 -5.6023 98.5712 -3.6162 0.0000 -3.6665 0.0000
# 3 -3.4859 -3.6162 86.9601 0.0000 0.5831 0.0000
# 4 0.0000 0.0000 0.0000 4.6656 0.0000 8.6171
# 5 -2.6712 -3.6665 0.5831 0.0000 47.9666 0.0000
# 6 0.0000 0.0000 0.0000 8.6171 0.0000 7.6938
#
#
#
# Elastic Compliance Matrix: (Units=1/GPa)
#
#
# Indices 1 2 3 4 5 6 
#
# 1 0.010179 0.000617 0.000430 0.000000 0.000609 0.000000
# 2 0.000617 0.010226 0.000445 0.000000 0.000811 0.000000
# 3 0.000430 0.000445 0.011536 0.000000 -0.000082 0.000000
# 4 0.000000 0.000000 0.000000 -0.200582 0.000000 0.224652
# 5 0.000609 0.000811 -0.000082 0.000000 0.020945 0.000000
# 6 0.000000 0.000000 0.000000 0.224652 0.000000 -0.121636
#
#
# Mechanical properties :
#
#
# Convention : Reuss Voigt Hill
#
# Bulk Modulus (GPa) = 28.63424 28.77915 28.70669
# Shear Modulus (GPa) = -19.18107 31.87358 6.34625
#
# Velocity S-wave (km/s) = -2.78074 3.58459 1.59949
# Velocity P-wave (km/s) = 1.11057 5.36043 3.87089
#
# Compressibility (1/GPa) = 0.03492322
#
# Stress axis : x y z
#
# Youngs Moduli (GPa) = 98.24342 97.78536 86.68673
#
# Poissons Ratio (x) = -0.06033 -0.03724
# Poissons Ratio (y) = -0.06061 -0.03854
# Poissons Ratio (z) = -0.04221 -0.04347
#
# Static dielectric constant tensor:
#      x y z
#    x 1.924530 0.000000 -0.015730 
#    y 0.000000 2.005570 0.000000 
#    z -0.015730 0.000000 1.918170 
# 
# From -- ./inp_files/281271.got.cif
#   From: 2010.05.17/outbox.cif.g08.bks.cpg/sg12_141_cif.got.tgz:281271.got - 2010.06.03 13:09:07.
