data_PCOD9179843
_publ_section_title
;
Structure prediction by ZEFSAII (Michael W. Deem and Ramdas Pophale) SiO2 
 PCOD9179843
Probable space group: C 2/M
;
_chemical_formula_sum "Si O2"
_cell_formula_units_Z 64
_cell_length_a 11.585837
_cell_length_b 30.458109
_cell_length_c 9.671119
_cell_angle_alpha 90.000000
_cell_angle_beta 80.735438
_cell_angle_gamma 90.000000
_cell_volume 3368.252503
_symmetry_space_group_name_H-M "C 2/M"
_symmetry_group_IT_number 12
_symmetry_cell_setting 'monoclinic'
loop_
_space_group_symop_operation_xyz
x,y,z
-x,y,-z
-x,-y,-z
x,-y,z
1/2+x,1/2+y,z
1/2-x,1/2+y,-z
1/2-x,1/2-y,-z
1/2+x,1/2-y,z
loop_
_atom_site_type_symbol
_atom_site_label
_atom_site_fract_x
_atom_site_fract_y
_atom_site_fract_z
Si Si1 0.586361 0.733035 0.611387
Si Si2 0.270193 0.111326 0.671929
Si Si3 0.360711 0.549453 0.505332
Si Si4 0.051623 0.839426 0.834601
Si Si5 0.448000 0.951068 0.785685
Si Si6 0.682041 0.950877 0.895680
Si Si7 0.827392 0.117473 0.752531
Si Si8 0.796321 0.320539 0.431152
O O1 0.500000 0.726377 0.500000
O O2 0.551496 0.707822 0.757833
O O3 0.700831 0.707996 0.533474
O O4 0.606106 0.784932 0.625806
O O5 0.185480 0.074520 0.620403
O O6 0.181293 0.139541 0.786996
O O7 0.379126 0.086488 0.718776
O O8 0.320635 0.141334 0.537446
O O9 0.500000 0.547809 0.500000
O O10 0.315248 0.500000 0.516304
O O11 0.322785 0.579521 0.639074
O O12 0.957312 0.867916 0.765935
O O13 0.000000 0.837563 0.000000
O O14 0.583728 0.943104 0.796438
O O15 0.437989 0.000000 0.723359
O O16 0.384972 0.953270 0.946502
O O17 0.765780 0.908765 0.887770
O O18 0.735111 0.000000 0.864003
O O19 0.759146 0.157902 0.695562
#
# Coordination Sequence:
#
# PCOD9179843 Si02
#       8
#     8   8   8   8   8   8   8   8
#     4  10  19  39  60  77 109 139 182 224 285 347
#     4  10  19  34  56  83 113 141 194 232 278 326
#     4  10  19  31  51  81 115 152 185 221 274 331
#     4  11  22  35  58  85 114 146 179 234 292 340
#     4   9  18  35  54  75 111 158 191 226 273 323
#     4   9  19  34  54  76 111 158 194 223 272 330
#     4  11  19  35  56  83 113 143 186 234 278 330
#     4   9  21  33  59  84  97 144 184 227 277 339
#
# _framework density 19.000951000000001
#
# number of rings (size 3 to 8) (size 9 to 14) (size 15 to 20)
#    0.000    2.125    2.500    2.250    0.000    1.000 
#    0.000    2.500    5.500    9.750    0.000    0.000 
#    0.000    0.000    0.000    0.000    0.000    0.000 
#
# Total GULP energy -178203.627919 kJ/mol
# GULP energy per Si atom -5568.863372 kJ/mol
# Density = 1.895770 g / cm^3
# Si number density = 19.000951 Si / 1000 Ang^3
#
#
#
# Elastic Constant Matrix: (Units=GPa)
#
#
# Indices 1 2 3 4 5 6 
#
# 1 36.8957 31.0798 2.9929 0.0000 7.5508 0.0000
# 2 31.0798 115.5946 29.9682 0.0000 9.5744 0.0000
# 3 2.9929 29.9682 45.6759 0.0000 4.1793 0.0000
# 4 0.0000 0.0000 0.0000 -11.3160 0.0000 20.1730
# 5 7.5508 9.5744 4.1793 0.0000 26.1597 0.0000
# 6 0.0000 0.0000 0.0000 20.1730 0.0000 6.1790
#
#
#
# Elastic Compliance Matrix: (Units=1/GPa)
#
#
# Indices 1 2 3 4 5 6 
#
# 1 0.037324 -0.010781 0.005331 0.000000 -0.007679 0.000000
# 2 -0.010781 0.013739 -0.008253 0.000000 -0.000598 0.000000
# 3 0.005331 -0.008253 0.027221 0.000000 -0.002867 0.000000
# 4 0.000000 0.000000 0.000000 -0.012957 0.000000 0.042303
# 5 -0.007679 -0.000598 -0.002867 0.000000 0.041120 0.000000
# 6 0.000000 0.000000 0.000000 0.042303 0.000000 0.023730
#
#
# Mechanical properties :
#
#
# Convention : Reuss Voigt Hill
#
# Bulk Modulus (GPa) = 19.65516 36.24976 27.95246
# Shear Modulus (GPa) = 28.64617 13.14621 20.89619
#
# Velocity S-wave (km/s) = 3.88702 2.63320 3.31984
# Velocity P-wave (km/s) = 5.52376 5.32581 5.42569
#
# Compressibility (1/GPa) = 0.05087723
#
# Stress axis : x y z
#
# Youngs Moduli (GPa) = 26.79207 72.78650 36.73607
#
# Poissons Ratio (x) = 0.78474 -0.19583
# Poissons Ratio (y) = 0.28885 0.30318
# Poissons Ratio (z) = -0.14282 0.60070
#
# Static dielectric constant tensor:
#      x y z
#    x 1.697440 0.000000 -0.033280 
#    y 0.000000 1.700810 0.000000 
#    z -0.033280 0.000000 1.708690 
# 
# From -- ./inp_files/54702.got.cif
#   From: 2010.05.17/outbox.cif.g08.bks.cpg/sg12_28_cif.got.tgz:54702.got - 2010.06.03 13:09:07.
