data_PCOD9179392
_publ_section_title
;
Structure prediction by ZEFSAII (Michael W. Deem and Ramdas Pophale) SiO2 
 PCOD9179392
Probable space group: C 2/M
;
_chemical_formula_sum "Si O2"
_cell_formula_units_Z 56
_cell_length_a 9.700141
_cell_length_b 25.354140
_cell_length_c 13.578485
_cell_angle_alpha 90.000000
_cell_angle_beta 86.200905
_cell_angle_gamma 90.000000
_cell_volume 3332.136949
_symmetry_space_group_name_H-M "C 2/M"
_symmetry_group_IT_number 12
_symmetry_cell_setting 'monoclinic'
loop_
_space_group_symop_operation_xyz
x,y,z
-x,y,-z
-x,-y,-z
x,-y,z
1/2+x,1/2+y,z
1/2-x,1/2+y,-z
1/2-x,1/2-y,-z
1/2+x,1/2-y,z
loop_
_atom_site_type_symbol
_atom_site_label
_atom_site_fract_x
_atom_site_fract_y
_atom_site_fract_z
Si Si1 0.653832 0.397179 0.116331
Si Si2 0.351074 0.000000 0.879401
Si Si3 0.933048 0.192996 0.406096
Si Si4 0.288845 0.187932 0.728496
Si Si5 0.329943 0.000000 0.118958
Si Si6 0.204500 0.810949 0.270194
Si Si7 0.936453 0.315755 0.402206
Si Si8 0.326362 0.602701 0.119967
O O1 0.740624 0.448098 0.146685
O O2 0.706873 0.346871 0.174207
O O3 0.488486 0.404294 0.139253
O O4 0.676657 0.390392 0.998189
O O5 0.266525 0.051651 0.850670
O O6 0.514103 0.000000 0.845893
O O7 0.344764 0.000000 0.999136
O O8 0.048845 0.190910 0.317106
O O9 0.000000 0.168716 0.500000
O O10 0.795938 0.170462 0.364987
O O11 0.903058 0.254546 0.430565
O O12 0.255122 0.249738 0.749003
O O13 0.447094 0.183493 0.688176
O O14 0.239527 0.152075 0.820210
O O15 0.298573 0.834484 0.353975
O O16 0.000000 0.339219 0.500000
#
# Coordination Sequence:
#
# PCOD9179392 Si02
#       8
#     8   4   8   8   4   8   8   8
#     4  10  20  35  53  74 103 137 171 207 248 298
#     4   9  19  35  55  77  96 123 170 219 256 293
#     4   9  16  30  49  70  99 134 173 212 249 293
#     4  10  19  31  49  76 107 137 169 205 250 305
#     4   9  19  35  55  77  96 123 170 219 256 293
#     4  10  19  31  49  76 107 137 169 205 250 305
#     4   9  18  30  47  72 103 136 169 210 253 291
#     4  10  20  35  53  74 103 137 171 207 248 298
#
# _framework density 16.806031999999998
#
# number of rings (size 3 to 8) (size 9 to 14) (size 15 to 20)
#    0.000    2.429    1.429    1.286    2.000    5.714 
#    0.000    0.000    0.000    0.000    0.000    6.000 
#    0.000    0.000    0.000    0.000    0.000    0.000 
#
# Total GULP energy -155891.757689 kJ/mol
# GULP energy per Si atom -5567.562775 kJ/mol
# Density = 1.676778 g / cm^3
# Si number density = 16.806032 Si / 1000 Ang^3
#
#
#
# Elastic Constant Matrix: (Units=GPa)
#
#
# Indices 1 2 3 4 5 6 
#
# 1 88.0181 27.4486 18.3394 0.0000 3.4720 0.0000
# 2 27.4486 80.2588 34.4795 0.0000 -0.4757 0.0000
# 3 18.3394 34.4795 43.4476 0.0000 3.9100 0.0000
# 4 0.0000 0.0000 0.0000 -3.3507 0.0000 0.7243
# 5 3.4720 -0.4757 3.9100 0.0000 26.5533 0.0000
# 6 0.0000 0.0000 0.0000 0.7243 0.0000 21.2161
#
#
#
# Elastic Compliance Matrix: (Units=1/GPa)
#
#
# Indices 1 2 3 4 5 6 
#
# 1 0.013012 -0.003263 -0.002781 0.000000 -0.001350 0.000000
# 2 -0.003263 0.019900 -0.014680 0.000000 0.002945 0.000000
# 3 -0.002781 -0.014680 0.036312 0.000000 -0.005246 0.000000
# 4 0.000000 0.000000 0.000000 -0.296259 0.000000 0.010114
# 5 -0.001350 0.002945 -0.005246 0.000000 0.038662 0.000000
# 6 0.000000 0.000000 0.000000 0.010114 0.000000 0.046789
#
#
# Mechanical properties :
#
#
# Convention : Reuss Voigt Hill
#
# Bulk Modulus (GPa) = 36.00342 41.36217 38.68280
# Shear Modulus (GPa) = -55.01816 17.64756 -18.68530
#
# Velocity S-wave (km/s) = -5.72785 3.24400 -3.33802
# Velocity P-wave (km/s) = 4.71963 6.22064 2.86544
#
# Compressibility (1/GPa) = 0.02777514
#
# Stress axis : x y z
#
# Youngs Moduli (GPa) = 76.85406 50.25225 27.53923
#
# Poissons Ratio (x) = 0.16399 0.07659
# Poissons Ratio (y) = 0.25079 0.40427
# Poissons Ratio (z) = 0.21374 0.73769
#
# Static dielectric constant tensor:
#      x y z
#    x 1.593380 0.000000 0.011670 
#    y 0.000000 1.551290 0.000000 
#    z 0.011670 0.000000 1.578820 
# 
# From -- ./inp_files/197595.got.cif
#   From: 2010.05.17/outbox.cif.g08.bks.cpg/sg12_99_cif.got.tgz:197595.got - 2010.06.03 13:09:07.
