data_PCOD9179109
_publ_section_title
;
Structure prediction by ZEFSAII (Michael W. Deem and Ramdas Pophale) SiO2 
 PCOD9179109
Probable space group: C 2/M
;
_chemical_formula_sum "Si O2"
_cell_formula_units_Z 64
_cell_length_a 31.651464
_cell_length_b 8.849349
_cell_length_c 14.696604
_cell_angle_alpha 90.000000
_cell_angle_beta 90.161729
_cell_angle_gamma 90.000000
_cell_volume 4116.426713
_symmetry_space_group_name_H-M "C 2/M"
_symmetry_group_IT_number 12
_symmetry_cell_setting 'monoclinic'
loop_
_space_group_symop_operation_xyz
x,y,z
-x,y,-z
-x,-y,-z
x,-y,z
1/2+x,1/2+y,z
1/2-x,1/2+y,-z
1/2-x,1/2-y,-z
1/2+x,1/2-y,z
loop_
_atom_site_type_symbol
_atom_site_label
_atom_site_fract_x
_atom_site_fract_y
_atom_site_fract_z
Si Si1 0.799229 0.181300 0.404519
Si Si2 0.299364 0.181199 0.594534
Si Si3 0.831996 0.181703 0.209036
Si Si4 0.911856 0.318829 0.898047
Si Si5 0.911934 0.319760 0.112002
Si Si6 0.752842 0.318964 0.100691
Si Si7 0.326405 0.182754 0.792610
Si Si8 0.999865 0.826380 0.889578
O O1 0.749900 0.227075 0.392617
O O2 0.814492 0.248937 0.499922
O O3 0.824454 0.225544 0.314331
O O4 0.800063 0.000000 0.410789
O O5 0.324253 0.223057 0.685974
O O6 0.300208 0.000000 0.586483
O O7 0.876417 0.237699 0.170522
O O8 0.794655 0.256286 0.150081
O O9 0.828618 0.000000 0.202332
O O10 0.917172 0.500000 0.894106
O O11 0.870471 0.277431 0.840689
O O12 0.954733 0.242558 0.863065
O O13 0.905734 0.279677 0.004810
O O14 0.907816 0.500000 0.120226
O O15 0.959052 0.267558 0.138843
O O16 0.754083 0.500000 0.096512
O O17 0.712283 0.262029 0.156635
O O18 0.750000 0.250000 0.000000
O O19 0.320775 0.000000 0.799814
O O20 0.003753 0.000000 0.860721
O O21 0.000000 0.822597 0.000000
#
# Coordination Sequence:
#
# PCOD9179109 Si02
#       8
#     8   8   8   8   8   8   8   8
#     4   9  18  32  49  69  94 125 161 204 248 288
#     4   9  17  31  50  70  94 125 161 203 247 290
#     4  11  21  35  51  70  98 130 165 204 247 291
#     4   9  18  31  49  70  97 129 160 199 241 286
#     4  10  19  31  48  73 100 129 166 201 240 290
#     4  12  24  35  48  67  96 134 170 202 238 284
#     4  10  19  34  51  71  99 130 164 202 247 291
#     4   9  17  30  48  69  95 127 162 201 242 282
#
# _framework density 15.547464
#
# number of rings (size 3 to 8) (size 9 to 14) (size 15 to 20)
#    0.000    2.125    1.250    3.000    0.000    5.000 
#    0.000    0.000    0.000    0.000    0.000    0.875 
#    0.000    7.000    0.000    0.000    0.000    0.000 
#
# Total GULP energy -178522.436752 kJ/mol
# GULP energy per Si atom -5578.826149 kJ/mol
# Density = 1.551208 g / cm^3
# Si number density = 15.547464 Si / 1000 Ang^3
#
#
#
# Elastic Constant Matrix: (Units=GPa)
#
#
# Indices 1 2 3 4 5 6 
#
# 1 104.8536 43.1766 56.2994 0.0000 -12.5286 0.0000
# 2 43.1766 52.8787 42.5836 0.0000 -6.4205 0.0000
# 3 56.2994 42.5836 114.6278 0.0000 -12.0495 0.0000
# 4 0.0000 0.0000 0.0000 23.1281 0.0000 -3.2644
# 5 -12.5286 -6.4205 -12.0495 0.0000 5.4691 0.0000
# 6 0.0000 0.0000 0.0000 -3.2644 0.0000 27.4401
#
#
#
# Elastic Compliance Matrix: (Units=1/GPa)
#
#
# Indices 1 2 3 4 5 6 
#
# 1 0.017666 -0.009382 -0.002726 0.000000 0.023448 0.000000
# 2 -0.009382 0.032638 -0.007481 0.000000 0.000341 0.000000
# 3 -0.002726 -0.007481 0.014657 0.000000 0.017264 0.000000
# 4 0.000000 0.000000 0.000000 0.043976 0.000000 0.005232
# 5 0.023448 0.000341 0.017264 0.000000 0.274998 0.000000
# 6 0.000000 0.000000 0.000000 0.005232 0.000000 0.037065
#
#
# Mechanical properties :
#
#
# Convention : Reuss Voigt Hill
#
# Bulk Modulus (GPa) = 38.78700 61.83103 50.30901
# Shear Modulus (GPa) = 10.66615 19.89414 15.28015
#
# Velocity S-wave (km/s) = 2.62207 3.58099 3.13838
# Velocity P-wave (km/s) = 5.84540 7.54676 6.74990
#
# Compressibility (1/GPa) = 0.02578184
#
# Stress axis : x y z
#
# Youngs Moduli (GPa) = 56.60540 30.63948 68.22727
#
# Poissons Ratio (x) = 0.28746 0.18602
# Poissons Ratio (y) = 0.53108 0.51040
# Poissons Ratio (z) = 0.15433 0.22921
#
# Static dielectric constant tensor:
#      x y z
#    x 1.498950 0.000000 0.002640 
#    y 0.000000 1.524240 0.000000 
#    z 0.002640 0.000000 1.507080 
# 
# From -- ./inp_files/248339.got.cif
#   From: 2010.05.17/outbox.cif.g08.bks.cpg/sg12_125_cif.got.tgz:248339.got - 2010.06.03 13:09:07.
