data_PCOD9179648
_publ_section_title
;
Structure prediction by ZEFSAII (Michael W. Deem and Ramdas Pophale) SiO2 
 PCOD9179648
Probable space group: C 2/M
;
_chemical_formula_sum "Si O2"
_cell_formula_units_Z 48
_cell_length_a 15.625210
_cell_length_b 28.427127
_cell_length_c 10.186745
_cell_angle_alpha 90.000000
_cell_angle_beta 153.171704
_cell_angle_gamma 90.000000
_cell_volume 2042.100952
_symmetry_space_group_name_H-M "C 2/M"
_symmetry_group_IT_number 12
_symmetry_cell_setting 'monoclinic'
loop_
_space_group_symop_operation_xyz
x,y,z
-x,y,-z
-x,-y,-z
x,-y,z
1/2+x,1/2+y,z
1/2-x,1/2+y,-z
1/2-x,1/2-y,-z
1/2+x,1/2-y,z
loop_
_atom_site_type_symbol
_atom_site_label
_atom_site_fract_x
_atom_site_fract_y
_atom_site_fract_z
Si Si1 0.263332 0.552039 0.961318
Si Si2 0.227659 0.874749 0.809869
Si Si3 0.777994 0.285797 0.719961
Si Si4 0.773746 0.948821 0.404801
Si Si5 0.232490 0.917851 0.318983
Si Si6 0.715131 0.685655 0.341750
O O1 0.206175 0.500000 0.930674
O O2 0.205628 0.596536 0.971066
O O3 0.495209 0.552491 0.280599
O O4 0.206650 0.558648 0.732583
O O5 0.263878 0.820072 0.825440
O O6 0.294235 0.906206 0.778090
O O7 0.000000 0.877407 0.500000
O O8 0.706664 0.310094 0.488216
O O9 0.695960 0.232710 0.601295
O O10 0.000000 0.279606 0.000000
O O11 0.712799 0.942845 0.471494
O O12 0.718673 0.000000 0.277558
O O13 0.301604 0.864018 0.421448
O O14 0.000000 0.917957 0.000000
O O15 0.500000 0.683142 0.000000
#
# Coordination Sequence:
#
# PCOD9179648 Si02
#       6
#     8   8   8   8   8   8
#     4   9  17  27  44  74 111 141 174 228 282 316
#     4  10  19  31  50  79 112 145 176 226 279 327
#     4  10  20  36  57  83 110 145 185 228 273 328
#     4   9  15  25  44  73 104 137 182 227 265 315
#     4   9  15  26  47  75 103 137 178 225 267 317
#     4   9  18  33  59  80 105 141 191 226 267 317
#
# _framework density 23.505205
#
# number of rings (size 3 to 8) (size 9 to 14) (size 15 to 20)
#    0.000    2.667    1.667    1.000    2.333    4.000 
#    0.000    0.833    0.000    2.000    0.000    1.167 
#    0.000    0.000    0.000    0.000    0.000    0.000 
#
# Total GULP energy -134008.816455 kJ/mol
# GULP energy per Si atom -5583.700686 kJ/mol
# Density = 2.345171 g / cm^3
# Si number density = 23.505205 Si / 1000 Ang^3
#
#
#
# Elastic Constant Matrix: (Units=GPa)
#
#
# Indices 1 2 3 4 5 6 
#
# 1 81.3157 47.9684 23.3168 0.0000 -13.9261 0.0000
# 2 47.9684 158.1611 -1.3806 0.0000 -13.8421 0.0000
# 3 23.3168 -1.3806 41.8301 0.0000 0.2245 0.0000
# 4 0.0000 0.0000 0.0000 17.2410 0.0000 -7.7421
# 5 -13.9261 -13.8421 0.2245 0.0000 34.1348 0.0000
# 6 0.0000 0.0000 0.0000 -7.7421 0.0000 13.7093
#
#
#
# Elastic Compliance Matrix: (Units=1/GPa)
#
#
# Indices 1 2 3 4 5 6 
#
# 1 0.019847 -0.005601 -0.011279 0.000000 0.005900 0.000000
# 2 -0.005601 0.008138 0.003386 0.000000 0.000993 0.000000
# 3 -0.011279 0.003386 0.030324 0.000000 -0.003428 0.000000
# 4 0.000000 0.000000 0.000000 0.077707 0.000000 0.043884
# 5 0.005900 0.000993 -0.003428 0.000000 0.032128 0.000000
# 6 0.000000 0.000000 0.000000 0.043884 0.000000 0.097726
#
#
# Mechanical properties :
#
#
# Convention : Reuss Voigt Hill
#
# Bulk Modulus (GPa) = 31.93064 46.79068 39.36066
# Shear Modulus (GPa) = 16.48539 27.11052 21.79795
#
# Velocity S-wave (km/s) = 2.65118 3.39983 3.04857
# Velocity P-wave (km/s) = 4.79433 5.94656 5.40126
#
# Compressibility (1/GPa) = 0.03131788
#
# Stress axis : x y z
#
# Youngs Moduli (GPa) = 50.38610 122.88144 32.97743
#
# Poissons Ratio (x) = 0.68831 0.37197
# Poissons Ratio (y) = 0.28223 -0.11165
# Poissons Ratio (z) = 0.56833 -0.41603
#
# Static dielectric constant tensor:
#      x y z
#    x 1.867420 0.000000 0.099630 
#    y 0.000000 1.931770 0.000000 
#    z 0.099630 0.000000 1.682250 
# 
# From -- ./inp_files/68354.got.cif
#   From: 2010.05.17/outbox.cif.g08.bks.cpg/sg12_35_cif.got.tgz:68354.got - 2010.06.03 13:09:07.
