data_PCOD9179844
_publ_section_title
;
Structure prediction by ZEFSAII (Michael W. Deem and Ramdas Pophale) SiO2 
 PCOD9179844
Probable space group: C 2/M
;
_chemical_formula_sum "Si O2"
_cell_formula_units_Z 56
_cell_length_a 20.979425
_cell_length_b 8.741890
_cell_length_c 17.203989
_cell_angle_alpha 90.000000
_cell_angle_beta 90.408481
_cell_angle_gamma 90.000000
_cell_volume 3155.128397
_symmetry_space_group_name_H-M "C 2/M"
_symmetry_group_IT_number 12
_symmetry_cell_setting 'monoclinic'
loop_
_space_group_symop_operation_xyz
x,y,z
-x,y,-z
-x,-y,-z
x,-y,z
1/2+x,1/2+y,z
1/2-x,1/2+y,-z
1/2-x,1/2-y,-z
1/2+x,1/2-y,z
loop_
_atom_site_type_symbol
_atom_site_label
_atom_site_fract_x
_atom_site_fract_y
_atom_site_fract_z
Si Si1 0.577310 0.824156 0.502453
Si Si2 0.248942 0.183854 0.912764
Si Si3 0.000494 0.686144 0.911388
Si Si4 0.926095 0.817230 0.333422
Si Si5 0.924179 0.817093 0.661931
Si Si6 0.127932 0.316194 0.821353
Si Si7 0.625014 0.815236 0.182714
O O1 0.500000 0.822200 0.500000
O O2 0.595015 0.735527 0.581014
O O3 0.597039 0.747611 0.421692
O O4 0.598166 0.000000 0.506500
O O5 0.188633 0.245363 0.864449
O O6 0.312516 0.227645 0.865411
O O7 0.246931 0.000000 0.917492
O O8 0.250000 0.250000 0.000000
O O9 0.999529 0.500000 0.912496
O O10 0.064635 0.731733 0.868213
O O11 0.937639 0.735544 0.865244
O O12 0.000000 0.739601 0.000000
O O13 0.884082 0.741017 0.266094
O O14 0.001094 0.770688 0.324331
O O15 0.923061 0.000000 0.327239
O O16 0.881956 0.753930 0.731786
O O17 0.922671 0.000000 0.660067
O O18 0.132489 0.500000 0.822782
O O19 0.623878 0.000000 0.188890
#
# Coordination Sequence:
#
# PCOD9179844 Si02
#       7
#     8   8   8   8   8   8   8
#     4   9  17  29  49  77 111 149 188 224 267 328
#     4  11  24  41  60  81 110 148 190 234 281 335
#     4   9  17  31  53  79 104 135 179 227 274 324
#     4  10  19  32  51  80 117 148 182 227 280 329
#     4  10  19  31  51  81 116 147 180 229 283 326
#     4  11  21  35  58  82 111 147 186 231 278 332
#     4  10  20  36  57  79 108 147 189 229 273 332
#
# _framework density 17.748881999999998
#
# number of rings (size 3 to 8) (size 9 to 14) (size 15 to 20)
#    0.000    2.000    1.429    3.000    0.000    6.286 
#    0.000    0.000    0.000    3.000    0.000    0.000 
#    0.000    0.000    0.000    0.000    0.000    0.000 
#
# Total GULP energy -156294.547313 kJ/mol
# GULP energy per Si atom -5581.948118 kJ/mol
# Density = 1.770848 g / cm^3
# Si number density = 17.748882 Si / 1000 Ang^3
#
#
#
# Elastic Constant Matrix: (Units=GPa)
#
#
# Indices 1 2 3 4 5 6 
#
# 1 113.3758 38.0275 75.2267 0.0000 -4.9038 0.0000
# 2 38.0275 49.3916 47.6510 0.0000 -4.3818 0.0000
# 3 75.2267 47.6510 185.6201 0.0000 -9.3415 0.0000
# 4 0.0000 0.0000 0.0000 30.7695 0.0000 3.0117
# 5 -4.9038 -4.3818 -9.3415 0.0000 24.3025 0.0000
# 6 0.0000 0.0000 0.0000 3.0117 0.0000 21.9308
#
#
#
# Elastic Compliance Matrix: (Units=1/GPa)
#
#
# Indices 1 2 3 4 5 6 
#
# 1 0.013613 -0.006853 -0.003754 0.000000 0.000068 0.000000
# 2 -0.006853 0.030481 -0.004936 0.000000 0.002216 0.000000
# 3 -0.003754 -0.004936 0.008253 0.000000 0.001525 0.000000
# 4 0.000000 0.000000 0.000000 0.032943 0.000000 -0.004524
# 5 0.000068 0.002216 0.001525 0.000000 0.042147 0.000000
# 6 0.000000 0.000000 0.000000 -0.004524 0.000000 0.046219
#
#
# Mechanical properties :
#
#
# Convention : Reuss Voigt Hill
#
# Bulk Modulus (GPa) = 47.03583 74.46644 60.75114
# Shear Modulus (GPa) = 23.60399 27.89936 25.75167
#
# Velocity S-wave (km/s) = 3.65072 3.96901 3.81319
# Velocity P-wave (km/s) = 6.65797 7.94045 7.32732
#
# Compressibility (1/GPa) = 0.02126039
#
# Stress axis : x y z
#
# Youngs Moduli (GPa) = 73.46125 32.80716 121.17167
#
# Poissons Ratio (x) = 0.22482 0.45491
# Poissons Ratio (y) = 0.50340 0.59813
# Poissons Ratio (z) = 0.27579 0.16194
#
# Static dielectric constant tensor:
#      x y z
#    x 1.589610 0.000000 -0.005210 
#    y 0.000000 1.596460 0.000000 
#    z -0.005210 0.000000 1.593600 
# 
# From -- ./inp_files/230926.got.cif
#   From: 2010.05.17/outbox.cif.g08.bks.cpg/sg12_116_cif.got.tgz:230926.got - 2010.06.03 13:09:07.
