data_PCOD9179439
_publ_section_title
;
Structure prediction by ZEFSAII (Michael W. Deem and Ramdas Pophale) SiO2 
 PCOD9179439
Probable space group: C 2/M
;
_chemical_formula_sum "Si O2"
_cell_formula_units_Z 64
_cell_length_a 24.631619
_cell_length_b 10.921044
_cell_length_c 14.191413
_cell_angle_alpha 90.000000
_cell_angle_beta 64.043037
_cell_angle_gamma 90.000000
_cell_volume 3432.431629
_symmetry_space_group_name_H-M "C 2/M"
_symmetry_group_IT_number 12
_symmetry_cell_setting 'monoclinic'
loop_
_space_group_symop_operation_xyz
x,y,z
-x,y,-z
-x,-y,-z
x,-y,z
1/2+x,1/2+y,z
1/2-x,1/2+y,-z
1/2-x,1/2-y,-z
1/2+x,1/2-y,z
loop_
_atom_site_type_symbol
_atom_site_label
_atom_site_fract_x
_atom_site_fract_y
_atom_site_fract_z
Si Si1 0.465345 0.647755 0.715244
Si Si2 0.923289 0.859224 0.948397
Si Si3 0.101409 0.858192 0.624261
Si Si4 0.122479 0.144546 0.828706
Si Si5 0.312046 0.131497 0.462761
Si Si6 0.792242 0.866758 0.957976
Si Si7 0.151335 0.861077 0.293352
Si Si8 0.242765 0.249720 0.668706
O O1 0.454764 0.500000 0.729026
O O2 0.534514 0.664193 0.635584
O O3 0.415081 0.691648 0.679242
O O4 0.453551 0.695438 0.831151
O O5 0.922449 0.808235 0.055405
O O6 0.946094 0.000000 0.936980
O O7 0.851900 0.859491 0.977005
O O8 0.097999 0.846177 0.740854
O O9 0.145912 0.750934 0.558208
O O10 0.119314 0.000000 0.590935
O O11 0.187442 0.210295 0.776656
O O12 0.131487 0.000000 0.840103
O O13 0.260890 0.143047 0.581574
O O14 0.281352 0.145816 0.383762
O O15 0.342936 0.000000 0.446539
O O16 0.817717 0.868164 0.832707
O O17 0.762703 0.000000 0.998792
O O18 0.750000 0.750000 0.000000
O O19 0.197578 0.786791 0.321479
O O20 0.145487 0.000000 0.335436
#
# Coordination Sequence:
#
# PCOD9179439 Si02
#       8
#     8   8   8   8   8   8   8   8
#     4   8  15  29  47  69  97 127 161 200 235 271
#     4   8  14  24  41  67  98 127 154 189 235 276
#     4   9  18  32  51  73  96 126 165 202 236 279
#     4   9  16  26  43  71 101 126 156 196 237 280
#     4  10  21  35  52  73  98 126 155 197 251 296
#     4   9  16  26  41  63  93 128 160 191 229 275
#     4   9  17  29  47  70  95 125 161 199 238 282
#     4  10  19  31  50  71  95 125 160 195 239 295
#
# _framework density 18.645674
#
# number of rings (size 3 to 8) (size 9 to 14) (size 15 to 20)
#    0.000    3.000    0.000    3.000    0.000    4.000 
#    0.000    3.750    0.000    7.500    0.000    3.500 
#    0.000    0.000    0.000    0.000    0.000    0.000 
#
# Total GULP energy -178147.337548 kJ/mol
# GULP energy per Si atom -5567.104298 kJ/mol
# Density = 1.860324 g / cm^3
# Si number density = 18.645674 Si / 1000 Ang^3
#
#
#
# Elastic Constant Matrix: (Units=GPa)
#
#
# Indices 1 2 3 4 5 6 
#
# 1 83.4269 29.2615 14.1474 0.0000 -8.2342 0.0000
# 2 29.2615 75.2967 4.1697 0.0000 -13.5092 0.0000
# 3 14.1474 4.1697 39.1171 0.0000 1.7522 0.0000
# 4 0.0000 0.0000 0.0000 -1.5146 0.0000 -7.1089
# 5 -8.2342 -13.5092 1.7522 0.0000 17.0119 0.0000
# 6 0.0000 0.0000 0.0000 -7.1089 0.0000 15.6803
#
#
#
# Elastic Compliance Matrix: (Units=1/GPa)
#
#
# Indices 1 2 3 4 5 6 
#
# 1 0.014920 -0.004815 -0.005058 0.000000 0.003919 0.000000
# 2 -0.004815 0.017234 -0.000607 0.000000 0.011418 0.000000
# 3 -0.005058 -0.000607 0.027718 0.000000 -0.005785 0.000000
# 4 0.000000 0.000000 0.000000 -0.211082 0.000000 -0.095697
# 5 0.003919 0.011418 -0.005785 0.000000 0.070342 0.000000
# 6 0.000000 0.000000 0.000000 -0.095697 0.000000 0.020389
#
#
# Mechanical properties :
#
#
# Convention : Reuss Voigt Hill
#
# Bulk Modulus (GPa) = 25.69978 32.55531 29.12754
# Shear Modulus (GPa) = -188.33047 16.25299 -86.03874
#
# Velocity S-wave (km/s) = -10.06102 2.95562 -6.80031
# Velocity P-wave (km/s) = 11.00693 5.39865 6.78259
#
# Compressibility (1/GPa) = 0.03891084
#
# Stress axis : x y z
#
# Youngs Moduli (GPa) = 67.02442 58.02474 36.07822
#
# Poissons Ratio (x) = 0.27938 0.18250
# Poissons Ratio (y) = 0.32271 0.02190
# Poissons Ratio (z) = 0.33903 0.03523
#
# Static dielectric constant tensor:
#      x y z
#    x 1.687700 0.000000 0.014070 
#    y 0.000000 1.641840 0.000000 
#    z 0.014070 0.000000 1.704600 
# 
# From -- ./inp_files/232439.got.cif
#   From: 2010.05.17/outbox.cif.g08.bks.cpg/sg12_117_cif.got.tgz:232439.got - 2010.06.03 13:09:07.
