data_PCOD9179927
_publ_section_title
;
Structure prediction by ZEFSAII (Michael W. Deem and Ramdas Pophale) SiO2 
 PCOD9179927
Probable space group: C 2/M
;
_chemical_formula_sum "Si O2"
_cell_formula_units_Z 64
_cell_length_a 20.698606
_cell_length_b 8.608983
_cell_length_c 20.870870
_cell_angle_alpha 90.000000
_cell_angle_beta 77.610307
_cell_angle_gamma 90.000000
_cell_volume 3632.449051
_symmetry_space_group_name_H-M "C 2/M"
_symmetry_group_IT_number 12
_symmetry_cell_setting 'monoclinic'
loop_
_space_group_symop_operation_xyz
x,y,z
-x,y,-z
-x,-y,-z
x,-y,z
1/2+x,1/2+y,z
1/2-x,1/2+y,-z
1/2-x,1/2-y,-z
1/2+x,1/2-y,z
loop_
_atom_site_type_symbol
_atom_site_label
_atom_site_fract_x
_atom_site_fract_y
_atom_site_fract_z
Si Si1 0.777146 0.686277 0.303271
Si Si2 0.253125 0.313585 0.927785
Si Si3 0.087879 0.312037 0.666733
Si Si4 0.365305 0.186833 0.680380
Si Si5 0.006657 0.689677 0.425689
Si Si6 0.021656 0.184557 0.810065
Si Si7 0.879592 0.313504 0.825355
Si Si8 0.149212 0.687039 0.844615
O O1 0.770358 0.500000 0.306496
O O2 0.835634 0.732397 0.339550
O O3 0.706145 0.760454 0.328606
O O4 0.805285 0.728302 0.226718
O O5 0.254801 0.500000 0.928216
O O6 0.318191 0.252602 0.877869
O O7 0.189080 0.266196 0.899346
O O8 0.250000 0.250000 0.000000
O O9 0.084208 0.500000 0.672706
O O10 0.047112 0.245268 0.735420
O O11 0.053803 0.264910 0.607814
O O12 0.425691 0.241022 0.623166
O O13 0.374417 0.239455 0.752099
O O14 0.367528 0.000000 0.680777
O O15 0.007455 0.500000 0.426741
O O16 0.000000 0.743632 0.500000
O O17 0.077918 0.238346 0.847965
O O18 0.949858 0.256908 0.837152
O O19 0.017220 0.000000 0.810078
O O20 0.877368 0.500000 0.826931
O O21 0.141629 0.500000 0.845365
#
# Coordination Sequence:
#
# PCOD9179927 Si02
#       8
#     8   8   8   8   8   8   8   8
#     4   9  17  30  51  76 105 139 174 219 269 323
#     4  11  23  40  60  85 116 150 185 222 274 332
#     4   9  17  33  52  75 106 142 182 222 275 330
#     4  10  19  31  52  80 106 135 179 231 270 313
#     4   9  17  32  54  77 103 141 188 229 268 325
#     4  11  21  32  54  85 112 141 182 232 278 323
#     4  11  21  36  57  82 113 146 185 231 277 324
#     4   9  19  36  56  79 111 147 181 220 272 328
#
# _framework density 17.618967000000001
#
# number of rings (size 3 to 8) (size 9 to 14) (size 15 to 20)
#    0.000    2.125    2.500    2.625    0.000    3.500 
#    0.000    1.250    0.000    5.250    0.000    0.000 
#    0.000    0.000    0.000    0.000    0.000    0.000 
#
# Total GULP energy -178565.780783 kJ/mol
# GULP energy per Si atom -5580.180649 kJ/mol
# Density = 1.757887 g / cm^3
# Si number density = 17.618967 Si / 1000 Ang^3
#
#
#
# Elastic Constant Matrix: (Units=GPa)
#
#
# Indices 1 2 3 4 5 6 
#
# 1 162.8551 34.8220 85.6734 0.0000 15.7822 0.0000
# 2 34.8220 28.4217 31.5796 0.0000 5.0810 0.0000
# 3 85.6734 31.5796 124.7252 0.0000 12.5630 0.0000
# 4 0.0000 0.0000 0.0000 15.3532 0.0000 -3.9021
# 5 15.7822 5.0810 12.5630 0.0000 27.1808 0.0000
# 6 0.0000 0.0000 0.0000 -3.9021 0.0000 30.1361
#
#
#
# Elastic Compliance Matrix: (Units=1/GPa)
#
#
# Indices 1 2 3 4 5 6 
#
# 1 0.010616 -0.006596 -0.005375 0.000000 -0.002446 0.000000
# 2 -0.006596 0.053392 -0.008777 0.000000 -0.002094 0.000000
# 3 -0.005375 -0.008777 0.014109 0.000000 -0.001760 0.000000
# 4 0.000000 0.000000 0.000000 0.067350 0.000000 0.008721
# 5 -0.002446 -0.002094 -0.001760 0.000000 0.039416 0.000000
# 6 0.000000 0.000000 0.000000 0.008721 0.000000 0.034312
#
#
# Mechanical properties :
#
#
# Convention : Reuss Voigt Hill
#
# Bulk Modulus (GPa) = 27.30693 68.90578 48.10636
# Shear Modulus (GPa) = 18.32184 25.46249 21.89216
#
# Velocity S-wave (km/s) = 3.22824 3.80567 3.52878
# Velocity P-wave (km/s) = 5.42472 7.64883 6.63069
#
# Compressibility (1/GPa) = 0.03662074
#
# Stress axis : x y z
#
# Youngs Moduli (GPa) = 94.19922 18.72929 70.87495
#
# Poissons Ratio (x) = 0.12355 0.38098
# Poissons Ratio (y) = 0.62138 0.62204
# Poissons Ratio (z) = 0.50636 0.16438
#
# Static dielectric constant tensor:
#      x y z
#    x 1.602220 0.000000 0.019750 
#    y 0.000000 1.597630 0.000000 
#    z 0.019750 0.000000 1.581840 
# 
# From -- ./inp_files/319122.got.cif
#   From: 2010.05.17/outbox.cif.g08.bks.cpg/sg12_160_cif.got.tgz:319122.got - 2010.06.03 13:09:07.
