data_PCOD9179657
_publ_section_title
;
Structure prediction by ZEFSAII (Michael W. Deem and Ramdas Pophale) SiO2 
 PCOD9179657
Probable space group: C 2/M
;
_chemical_formula_sum "Si O2"
_cell_formula_units_Z 48
_cell_length_a 19.823210
_cell_length_b 19.971902
_cell_length_c 8.638704
_cell_angle_alpha 90.000000
_cell_angle_beta 41.151152
_cell_angle_gamma 90.000000
_cell_volume 2250.605654
_symmetry_space_group_name_H-M "C 2/M"
_symmetry_group_IT_number 12
_symmetry_cell_setting 'monoclinic'
loop_
_space_group_symop_operation_xyz
x,y,z
-x,y,-z
-x,-y,-z
x,-y,z
1/2+x,1/2+y,z
1/2-x,1/2+y,-z
1/2-x,1/2-y,-z
1/2+x,1/2-y,z
loop_
_atom_site_type_symbol
_atom_site_label
_atom_site_fract_x
_atom_site_fract_y
_atom_site_fract_z
Si Si1 0.082394 0.352758 0.675431
Si Si2 0.474465 0.275117 0.721318
Si Si3 0.066546 0.424091 0.241841
Si Si4 0.718054 0.707809 0.781496
Si Si5 0.908441 0.871565 0.259270
Si Si6 0.713716 0.138275 0.751954
O O1 0.007826 0.290350 0.762414
O O2 0.182987 0.338682 0.396372
O O3 0.126042 0.356659 0.771973
O O4 0.020313 0.418557 0.739939
O O5 0.500000 0.265678 0.500000
O O6 0.534109 0.335439 0.699313
O O7 0.354331 0.290873 0.945522
O O8 0.093651 0.500000 0.234542
O O9 0.000000 0.394450 0.500000
O O10 0.164947 0.388344 0.995517
O O11 0.643060 0.681812 0.772642
O O12 0.750424 0.784699 0.703317
O O13 0.807873 0.903537 0.513768
O O14 0.000000 0.905740 0.000000
#
# Coordination Sequence:
#
# PCOD9179657 Si02
#       6
#     8   8   8   8   8   8
#     4  11  20  34  53  79 111 144 188 228 269 331
#     4  11  20  28  45  77 115 146 176 216 272 336
#     4  11  26  42  55  79 114 151 190 234 278 323
#     4  10  19  31  50  80 110 148 180 227 280 330
#     4   9  18  33  50  77 114 144 172 222 278 328
#     4  11  19  34  59  77 107 149 188 229 272 335
#
# _framework density 21.327593
#
# number of rings (size 3 to 8) (size 9 to 14) (size 15 to 20)
#    0.000    1.500    5.000    2.000    0.000    3.333 
#    0.000    0.000    0.000    0.500    0.000    3.500 
#    0.000   25.333    0.000    0.000    0.000    0.000 
#
# Total GULP energy -133734.185049 kJ/mol
# GULP energy per Si atom -5572.257710 kJ/mol
# Density = 2.127905 g / cm^3
# Si number density = 21.327593 Si / 1000 Ang^3
#
#
#
# Elastic Constant Matrix: (Units=GPa)
#
#
# Indices 1 2 3 4 5 6 
#
# 1 34.5438 -3.3394 16.6510 0.0000 -4.1635 0.0000
# 2 -3.3394 18.8754 14.0080 0.0000 1.0483 0.0000
# 3 16.6510 14.0080 213.4977 0.0000 1.9450 0.0000
# 4 0.0000 0.0000 0.0000 12.1519 0.0000 1.1563
# 5 -4.1635 1.0483 1.9450 0.0000 31.1969 0.0000
# 6 0.0000 0.0000 0.0000 1.1563 0.0000 9.3645
#
#
#
# Elastic Compliance Matrix: (Units=1/GPa)
#
#
# Indices 1 2 3 4 5 6 
#
# 1 0.031631 0.007594 -0.003003 0.000000 0.004153 0.000000
# 2 0.007594 0.057598 -0.004365 0.000000 -0.000650 0.000000
# 3 -0.003003 -0.004365 0.005210 0.000000 -0.000579 0.000000
# 4 0.000000 0.000000 0.000000 0.083270 0.000000 -0.010282
# 5 0.004153 -0.000650 -0.000579 0.000000 0.032667 0.000000
# 6 0.000000 0.000000 0.000000 -0.010282 0.000000 0.108056
#
#
# Mechanical properties :
#
#
# Convention : Reuss Voigt Hill
#
# Bulk Modulus (GPa) = 10.53850 35.72846 23.13348
# Shear Modulus (GPa) = 14.30163 26.51583 20.40873
#
# Velocity S-wave (km/s) = 2.59234 3.52982 3.09676
# Velocity P-wave (km/s) = 3.72992 5.77940 4.86383
#
# Compressibility (1/GPa) = 0.09489013
#
# Stress axis : x y z
#
# Youngs Moduli (GPa) = 31.61455 17.36163 191.94579
#
# Poissons Ratio (x) = -0.13185 0.57642
# Poissons Ratio (y) = -0.24008 0.83794
# Poissons Ratio (z) = 0.09494 0.07579
#
# Static dielectric constant tensor:
#      x y z
#    x 1.778830 0.000000 -0.002720 
#    y 0.000000 1.766560 0.000000 
#    z -0.002720 0.000000 1.915640 
# 
# From -- ./inp_files/89416.got.cif
#   From: 2010.05.17/outbox.cif.g08.bks.cpg/sg12_45_cif.got.tgz:89416.got - 2010.06.03 13:09:07.
