data_PCOD9179804
_publ_section_title
;
Structure prediction by ZEFSAII (Michael W. Deem and Ramdas Pophale) SiO2 
 PCOD9179804
Probable space group: C 2/M
;
_chemical_formula_sum "Si O2"
_cell_formula_units_Z 48
_cell_length_a 19.002756
_cell_length_b 13.464021
_cell_length_c 22.116648
_cell_angle_alpha 90.000000
_cell_angle_beta 155.979689
_cell_angle_gamma 90.000000
_cell_volume 2303.401266
_symmetry_space_group_name_H-M "C 2/M"
_symmetry_group_IT_number 12
_symmetry_cell_setting 'monoclinic'
loop_
_space_group_symop_operation_xyz
x,y,z
-x,y,-z
-x,-y,-z
x,-y,z
1/2+x,1/2+y,z
1/2-x,1/2+y,-z
1/2-x,1/2-y,-z
1/2+x,1/2-y,z
loop_
_atom_site_type_symbol
_atom_site_label
_atom_site_fract_x
_atom_site_fract_y
_atom_site_fract_z
Si Si1 0.548747 0.112301 0.235820
Si Si2 0.845338 0.181304 0.690372
Si Si3 0.366082 0.615119 0.568793
Si Si4 0.007687 0.252288 0.572176
Si Si5 0.202682 0.883758 0.019580
Si Si6 0.705919 0.616864 0.155523
O O1 0.634496 0.205038 0.270349
O O2 0.665524 0.110524 0.388646
O O3 0.351695 0.147912 0.090432
O O4 0.555819 0.000000 0.216583
O O5 0.875641 0.165315 0.642111
O O6 0.643723 0.163297 0.542745
O O7 0.003527 0.126110 0.845700
O O8 0.425409 0.500000 0.619137
O O9 0.467020 0.677318 0.596068
O O10 0.187211 0.310419 0.718539
O O11 0.000000 0.203332 0.500000
O O12 0.242637 0.843188 0.116812
O O13 0.238841 0.000000 0.053565
O O14 0.753809 0.500000 0.200256
O O15 0.500000 0.621279 0.000000
#
# Coordination Sequence:
#
# PCOD9179804 Si02
#       6
#     8   8   8   8   8   8
#     4   9  18  32  50  75 108 144 180 222 277 333
#     4  11  20  34  57  85 112 145 192 239 282 330
#     4  10  21  38  59  83 113 149 191 237 282 333
#     4  11  23  38  58  84 114 151 193 235 283 337
#     4  10  19  31  51  79 110 143 180 229 284 334
#     4  10  21  37  55  78 112 151 187 227 283 344
#
# _framework density 20.838749
#
# number of rings (size 3 to 8) (size 9 to 14) (size 15 to 20)
#    0.000    1.833    0.000    6.000    0.000    3.333 
#    0.000    0.000    0.000    0.500    0.000    0.000 
#    0.000    0.000    0.000    0.000    0.000    0.000 
#
# Total GULP energy -133617.363109 kJ/mol
# GULP energy per Si atom -5567.390130 kJ/mol
# Density = 2.079132 g / cm^3
# Si number density = 20.838749 Si / 1000 Ang^3
#
#
#
# Elastic Constant Matrix: (Units=GPa)
#
#
# Indices 1 2 3 4 5 6 
#
# 1 73.7882 19.1352 4.8591 0.0008 -6.8418 -0.0004
# 2 19.1352 61.5713 36.4233 -0.0006 10.3267 0.0011
# 3 4.8591 36.4233 56.8394 -0.0003 6.0023 0.0002
# 4 0.0008 -0.0006 -0.0003 34.1212 0.0002 3.3692
# 5 -6.8418 10.3267 6.0023 0.0002 25.1047 0.0001
# 6 -0.0004 0.0011 0.0002 3.3692 0.0001 13.0809
#
#
#
# Elastic Compliance Matrix: (Units=1/GPa)
#
#
# Indices 1 2 3 4 5 6 
#
# 1 0.016046 -0.007897 0.002958 -0.000001 0.006914 0.000001
# 2 -0.007897 0.031272 -0.018239 0.000001 -0.010655 -0.000003
# 3 0.002958 -0.018239 0.028880 0.000000 0.001404 0.000001
# 4 -0.000001 0.000001 0.000000 0.030072 -0.000001 -0.007746
# 5 0.006914 -0.010655 0.001404 -0.000001 0.045765 0.000001
# 6 0.000001 -0.000003 0.000001 -0.007746 0.000001 0.078442
#
#
# Mechanical properties :
#
#
# Convention : Reuss Voigt Hill
#
# Bulk Modulus (GPa) = 33.50801 34.78156 34.14478
# Shear Modulus (GPa) = 17.43493 23.24677 20.34085
#
# Velocity S-wave (km/s) = 2.89564 3.34362 3.12766
# Velocity P-wave (km/s) = 5.22439 5.62436 5.42806
#
# Compressibility (1/GPa) = 0.02984361
#
# Stress axis : x y z
#
# Youngs Moduli (GPa) = 62.31945 31.97739 34.62584
#
# Poissons Ratio (x) = 0.25251 -0.10243
# Poissons Ratio (y) = 0.49211 0.63155
# Poissons Ratio (z) = -0.18436 0.58324
#
# Static dielectric constant tensor:
#      x y z
#    x 1.864490 0.000000 0.061770 
#    y 0.000000 1.762840 0.000000 
#    z 0.061770 0.000000 1.792580 
# 
# From -- ./inp_files/111504.got.cif
#   From: 2010.05.17/outbox.cif.g08.bks.cpg/sg12_56_cif.got.tgz:111504.got - 2010.06.03 13:09:07.
