data_PCOD9179087
_publ_section_title
;
Structure prediction by ZEFSAII (Michael W. Deem and Ramdas Pophale) SiO2 
 PCOD9179087
Probable space group: C 2/M
;
_chemical_formula_sum "Si O2"
_cell_formula_units_Z 48
_cell_length_a 19.949702
_cell_length_b 10.996005
_cell_length_c 24.336565
_cell_angle_alpha 90.000000
_cell_angle_beta 22.726436
_cell_angle_gamma 90.000000
_cell_volume 2062.485559
_symmetry_space_group_name_H-M "C 2/M"
_symmetry_group_IT_number 12
_symmetry_cell_setting 'monoclinic'
loop_
_space_group_symop_operation_xyz
x,y,z
-x,y,-z
-x,-y,-z
x,-y,z
1/2+x,1/2+y,z
1/2-x,1/2+y,-z
1/2-x,1/2-y,-z
1/2+x,1/2-y,z
loop_
_atom_site_type_symbol
_atom_site_label
_atom_site_fract_x
_atom_site_fract_y
_atom_site_fract_z
Si Si1 0.934823 0.863965 0.487227
Si Si2 0.934292 0.500000 0.957627
Si Si3 0.553183 0.743583 0.101287
Si Si4 0.528039 0.861261 0.601930
Si Si5 0.759733 0.000000 0.781957
Si Si6 0.636378 0.359736 0.851675
Si Si7 0.423640 0.858663 0.805463
O O1 0.866439 0.742570 0.510481
O O2 0.110924 0.887930 0.319634
O O3 0.000000 0.845497 0.500000
O O4 0.847165 0.000000 0.551128
O O5 0.889659 0.378719 0.959694
O O6 0.135397 0.500000 0.823538
O O7 0.839439 0.500000 0.087158
O O8 0.393821 0.708364 0.182797
O O9 0.520175 0.762500 0.190482
O O10 0.713952 0.656754 0.964638
O O11 0.332367 0.862486 0.724707
O O12 0.503531 0.834196 0.685143
O O13 0.595934 0.000000 0.544515
O O14 0.584076 0.500000 0.882590
O O15 0.500000 0.306996 0.000000
O O16 0.464405 0.000000 0.787522
#
# Coordination Sequence:
#
# PCOD9179087 Si02
#       7
#     8   4   8   8   4   8   8
#     4   9  19  35  52  76 109 134 173 220 269 313
#     4  11  20  28  46  80 108 129 173 204 252 314
#     4  11  20  29  45  68 103 146 174 208 245 312
#     4  10  19  33  54  75 103 137 176 223 259 313
#     4   9  19  30  48  74 109 137 158 216 264 310
#     4  10  19  31  48  71  99 138 174 208 258 309
#     4  10  20  34  44  66 106 145 179 207 253 309
#
# _framework density 23.272891000000001
#
# number of rings (size 3 to 8) (size 9 to 14) (size 15 to 20)
#    0.500    1.500    2.500    2.500    2.333    0.333 
#    0.000    0.000    0.000    0.000    0.000    4.667 
#    0.000    0.000    0.000    0.000    0.000    0.000 
#
# Total GULP energy -133989.805591 kJ/mol
# GULP energy per Si atom -5582.908566 kJ/mol
# Density = 2.321992 g / cm^3
# Si number density = 23.272891 Si / 1000 Ang^3
#
#
#
# Elastic Constant Matrix: (Units=GPa)
#
#
# Indices 1 2 3 4 5 6 
#
# 1 98.8301 33.8499 20.6332 -0.0001 27.3785 -0.0011
# 2 33.8499 134.5874 20.5059 0.0012 32.4260 -0.0040
# 3 20.6332 20.5059 48.7928 0.0017 -1.3419 -0.0028
# 4 -0.0001 0.0012 0.0017 -27.2604 -0.0014 41.7926
# 5 27.3785 32.4260 -1.3419 -0.0014 33.5194 0.0011
# 6 -0.0011 -0.0040 -0.0028 41.7926 0.0011 14.1853
#
#
#
# Elastic Compliance Matrix: (Units=1/GPa)
#
#
# Indices 1 2 3 4 5 6 
#
# 1 0.014988 0.000378 -0.006851 0.000000 -0.012882 0.000000
# 2 0.000378 0.010709 -0.004959 0.000001 -0.010867 0.000000
# 3 -0.006851 -0.004959 0.025790 0.000001 0.011426 0.000000
# 4 0.000000 0.000001 0.000001 -0.006649 -0.000002 0.019590
# 5 -0.012882 -0.010867 0.011426 -0.000002 0.051325 0.000000
# 6 0.000000 0.000000 0.000000 0.019590 0.000000 0.012778
#
#
# Mechanical properties :
#
#
# Convention : Reuss Voigt Hill
#
# Bulk Modulus (GPa) = 34.93784 48.02093 41.47939
# Shear Modulus (GPa) = 35.37410 17.90361 26.63886
#
# Velocity S-wave (km/s) = 3.90291 2.77662 3.38691
# Velocity P-wave (km/s) = 5.94602 5.56400 5.75818
#
# Compressibility (1/GPa) = 0.02862226
#
# Stress axis : x y z
#
# Youngs Moduli (GPa) = 66.72053 93.38171 38.77413
#
# Poissons Ratio (x) = -0.03529 0.26564
# Poissons Ratio (y) = -0.02521 0.19229
# Poissons Ratio (z) = 0.45711 0.46309
#
# Static dielectric constant tensor:
#      x y z
#    x 1.899730 0.000000 -0.014810 
#    y 0.000000 1.930920 0.000000 
#    z -0.014810 0.000000 1.871380 
# 
# From -- ./inp_files/346761.got.cif
#   From: 2010.05.17/outbox.cif.g08.bks.cpg/sg12_174_cif.got.tgz:346761.got - 2010.06.03 13:09:07.
