data_PCOD9179793
_publ_section_title
;
Structure prediction by ZEFSAII (Michael W. Deem and Ramdas Pophale) SiO2 
 PCOD9179793
Probable space group: C 2/M
;
_chemical_formula_sum "Si O2"
_cell_formula_units_Z 48
_cell_length_a 9.469695
_cell_length_b 27.833392
_cell_length_c 7.022821
_cell_angle_alpha 90.000000
_cell_angle_beta 91.395810
_cell_angle_gamma 90.000000
_cell_volume 1850.481898
_symmetry_space_group_name_H-M "C 2/M"
_symmetry_group_IT_number 12
_symmetry_cell_setting 'monoclinic'
loop_
_space_group_symop_operation_xyz
x,y,z
-x,y,-z
-x,-y,-z
x,-y,z
1/2+x,1/2+y,z
1/2-x,1/2+y,-z
1/2-x,1/2-y,-z
1/2+x,1/2-y,z
loop_
_atom_site_type_symbol
_atom_site_label
_atom_site_fract_x
_atom_site_fract_y
_atom_site_fract_z
Si Si1 0.441298 0.626049 0.243384
Si Si2 0.878506 0.783651 0.632842
Si Si3 0.183046 0.686623 0.280922
Si Si4 0.190687 0.055986 0.137563
Si Si5 0.746686 0.552992 0.680507
Si Si6 0.521273 0.102509 0.773701
O O1 0.542849 0.670590 0.282881
O O2 0.299471 0.655672 0.165404
O O3 0.552764 0.587219 0.170048
O O4 0.357361 0.594142 0.397488
O O5 0.838874 0.741941 0.779035
O O6 0.754736 0.803385 0.491033
O O7 0.000000 0.761167 0.500000
O O8 0.040291 0.655183 0.280223
O O9 0.321548 0.082530 0.244875
O O10 0.175866 0.000000 0.191047
O O11 0.219031 0.054740 0.909762
O O12 0.715856 0.500000 0.611712
O O13 0.908827 0.567359 0.670497
O O14 0.500000 0.099498 0.000000
#
# Coordination Sequence:
#
# PCOD9179793 Si02
#       6
#     8   8   8   8   8   8
#     4  10  19  31  52  79 103 129 172 219 256 296
#     4   9  19  36  58  77  95 131 179 217 254 309
#     4   9  19  36  56  77 102 134 172 212 260 313
#     4  10  19  31  51  79 109 142 176 208 250 307
#     4   9  17  32  53  76 106 143 178 209 247 303
#     4   9  18  32  53  81 109 137 171 213 257 298
#
# _framework density 25.939188999999999
#
# number of rings (size 3 to 8) (size 9 to 14) (size 15 to 20)
#    0.000    2.667    0.000    1.500    0.000    7.333 
#    0.000    1.667    0.000   48.000    0.000    0.000 
#    0.000    0.000    0.000    0.000    0.000    0.000 
#
# Total GULP energy -133828.010577 kJ/mol
# GULP energy per Si atom -5576.167107 kJ/mol
# Density = 2.588015 g / cm^3
# Si number density = 25.939189 Si / 1000 Ang^3
#
#
#
# Elastic Constant Matrix: (Units=GPa)
#
#
# Indices 1 2 3 4 5 6 
#
# 1 196.3648 101.6834 33.5577 0.0000 2.6048 0.0000
# 2 101.6834 249.2324 22.4591 0.0000 3.1773 0.0000
# 3 33.5577 22.4591 77.9286 0.0000 -10.5250 0.0000
# 4 0.0000 0.0000 0.0000 -14.6767 0.0000 -20.1345
# 5 2.6048 3.1773 -10.5250 0.0000 33.4158 0.0000
# 6 0.0000 0.0000 0.0000 -20.1345 0.0000 47.9899
#
#
#
# Elastic Compliance Matrix: (Units=1/GPa)
#
#
# Indices 1 2 3 4 5 6 
#
# 1 0.006834 -0.002564 -0.002343 0.000000 -0.001027 0.000000
# 2 -0.002564 0.005102 -0.000423 0.000000 -0.000418 0.000000
# 3 -0.002343 -0.000423 0.014615 0.000000 0.004826 0.000000
# 4 0.000000 0.000000 0.000000 -0.043245 0.000000 -0.018144
# 5 -0.001027 -0.000418 0.004826 0.000000 0.031566 0.000000
# 6 0.000000 0.000000 0.000000 -0.018144 0.000000 0.013225
#
#
# Mechanical properties :
#
#
# Convention : Reuss Voigt Hill
#
# Bulk Modulus (GPa) = 62.92537 93.21402 78.06969
# Shear Modulus (GPa) = 113.49723 37.73417 75.61570
#
# Velocity S-wave (km/s) = 6.62194 3.81821 5.40504
# Velocity P-wave (km/s) = 9.09826 7.44661 8.31355
#
# Compressibility (1/GPa) = 0.01589184
#
# Stress axis : x y z
#
# Youngs Moduli (GPa) = 146.32063 196.00679 68.42421
#
# Poissons Ratio (x) = 0.50258 0.16030
# Poissons Ratio (y) = 0.37518 0.02892
# Poissons Ratio (z) = 0.34279 0.08285
#
# Static dielectric constant tensor:
#      x y z
#    x 2.000200 0.000000 0.025960 
#    y 0.000000 2.054380 0.000000 
#    z 0.025960 0.000000 2.277360 
# 
# From -- ./inp_files/123104.got.cif
#   From: 2010.05.17/outbox.cif.g08.bks.cpg/sg12_62_cif.got.tgz:123104.got - 2010.06.03 13:09:07.
