data_PCOD9179344
_publ_section_title
;
Structure prediction by ZEFSAII (Michael W. Deem and Ramdas Pophale) SiO2 
 PCOD9179344
Probable space group: C 2/M
;
_chemical_formula_sum "Si O2"
_cell_formula_units_Z 64
_cell_length_a 31.739273
_cell_length_b 9.049317
_cell_length_c 14.684466
_cell_angle_alpha 90.000000
_cell_angle_beta 62.875881
_cell_angle_gamma 90.000000
_cell_volume 3753.800345
_symmetry_space_group_name_H-M "C 2/M"
_symmetry_group_IT_number 12
_symmetry_cell_setting 'monoclinic'
loop_
_space_group_symop_operation_xyz
x,y,z
-x,y,-z
-x,-y,-z
x,-y,z
1/2+x,1/2+y,z
1/2-x,1/2+y,-z
1/2-x,1/2-y,-z
1/2+x,1/2-y,z
loop_
_atom_site_type_symbol
_atom_site_label
_atom_site_fract_x
_atom_site_fract_y
_atom_site_fract_z
Si Si1 0.466378 0.673338 0.676889
Si Si2 0.426501 0.175490 0.217691
Si Si3 0.066186 0.676022 0.578741
Si Si4 0.195007 0.825244 0.151983
Si Si5 0.525899 0.327188 0.114902
Si Si6 0.618599 0.824193 0.347292
Si Si7 0.192669 0.324922 0.961809
Si Si8 0.618351 0.676379 0.904226
O O1 0.462788 0.500000 0.657634
O O2 0.518378 0.735523 0.603076
O O3 0.461060 0.688839 0.791451
O O4 0.426092 0.764665 0.666007
O O5 0.419612 0.210485 0.331477
O O6 0.479628 0.230278 0.142347
O O7 0.390647 0.258438 0.186652
O O8 0.422893 0.000000 0.208824
O O9 0.055504 0.500000 0.585120
O O10 0.106030 0.707599 0.464774
O O11 0.164564 0.755670 0.262642
O O12 0.251193 0.802129 0.108896
O O13 0.185896 0.000000 0.154180
O O14 0.180858 0.748503 0.070762
O O15 0.513599 0.500000 0.111307
O O16 0.570763 0.289716 0.009136
O O17 0.623087 0.000000 0.331460
O O18 0.183676 0.500000 0.974721
O O19 0.161735 0.250478 0.914055
O O20 0.623891 0.500000 0.896474
#
# Coordination Sequence:
#
# PCOD9179344 Si02
#       8
#     8   8   8   8   8   8   8   8
#     4  10  19  31  49  74 104 137 172 211 256 306
#     4  10  20  34  51  71  99 135 175 216 254 296
#     4   9  20  36  50  69 101 139 176 216 259 301
#     4  10  21  37  56  80 108 133 162 205 253 301
#     4   9  19  33  47  69 103 137 167 203 250 301
#     4  11  21  33  52  75 101 136 175 212 255 308
#     4  10  21  37  57  80 106 135 165 200 248 306
#     4  11  21  33  52  76 104 136 170 210 253 300
#
# _framework density 17.049389000000001
#
# number of rings (size 3 to 8) (size 9 to 14) (size 15 to 20)
#    0.000    2.000    0.000    3.750    0.000    8.500 
#    0.000    0.000    0.000    0.750    0.000    0.000 
#    0.000    0.000    0.000    0.000    0.000    0.000 
#
# Total GULP energy -178755.160280 kJ/mol
# GULP energy per Si atom -5586.098759 kJ/mol
# Density = 1.701058 g / cm^3
# Si number density = 17.049389 Si / 1000 Ang^3
#
#
#
# Elastic Constant Matrix: (Units=GPa)
#
#
# Indices 1 2 3 4 5 6 
#
# 1 86.7226 58.3662 38.5170 0.0000 14.9063 0.0000
# 2 58.3662 76.0362 55.3999 0.0000 2.3331 0.0000
# 3 38.5170 55.3999 95.3191 0.0000 -5.8908 0.0000
# 4 0.0000 0.0000 0.0000 27.3052 0.0000 -1.2632
# 5 14.9063 2.3331 -5.8908 0.0000 14.2123 0.0000
# 6 0.0000 0.0000 0.0000 -1.2632 0.0000 31.4954
#
#
#
# Elastic Compliance Matrix: (Units=1/GPa)
#
#
# Indices 1 2 3 4 5 6 
#
# 1 0.033812 -0.023491 -0.002015 0.000000 -0.032442 0.000000
# 2 -0.023491 0.040449 -0.013244 0.000000 0.012509 0.000000
# 3 -0.002015 -0.013244 0.019774 0.000000 0.012483 0.000000
# 4 0.000000 0.000000 0.000000 0.036691 0.000000 0.001472
# 5 -0.032442 0.012509 0.012483 0.000000 0.107508 0.000000
# 6 0.000000 0.000000 0.000000 0.001472 0.000000 0.031810
#
#
# Mechanical properties :
#
#
# Convention : Reuss Voigt Hill
#
# Bulk Modulus (GPa) = 60.47405 62.51601 61.49503
# Shear Modulus (GPa) = 14.16203 21.65557 17.90880
#
# Velocity S-wave (km/s) = 2.88522 3.56781 3.24451
# Velocity P-wave (km/s) = 6.82981 7.32936 7.08399
#
# Compressibility (1/GPa) = 0.01653602
#
# Stress axis : x y z
#
# Youngs Moduli (GPa) = 29.57511 24.72223 50.57129
#
# Poissons Ratio (x) = 0.58076 0.10189
# Poissons Ratio (y) = 0.69476 0.66976
# Poissons Ratio (z) = 0.05958 0.32742
#
# Static dielectric constant tensor:
#      x y z
#    x 1.551970 0.000000 0.011050 
#    y 0.000000 1.566940 0.000000 
#    z 0.011050 0.000000 1.582530 
# 
# From -- ./inp_files/249010.got.cif
#   From: 2010.05.17/outbox.cif.g08.bks.cpg/sg12_125_cif.got.tgz:249010.got - 2010.06.03 13:09:07.
