data_PCOD9179713
_publ_section_title
;
Structure prediction by ZEFSAII (Michael W. Deem and Ramdas Pophale) SiO2 
 PCOD9179713
Probable space group: C 2/M
;
_chemical_formula_sum "Si O2"
_cell_formula_units_Z 56
_cell_length_a 15.622229
_cell_length_b 7.730716
_cell_length_c 29.323611
_cell_angle_alpha 90.000000
_cell_angle_beta 144.692593
_cell_angle_gamma 90.000000
_cell_volume 2046.823057
_symmetry_space_group_name_H-M "C 2/M"
_symmetry_group_IT_number 12
_symmetry_cell_setting 'monoclinic'
loop_
_space_group_symop_operation_xyz
x,y,z
-x,y,-z
-x,-y,-z
x,-y,z
1/2+x,1/2+y,z
1/2-x,1/2+y,-z
1/2-x,1/2-y,-z
1/2+x,1/2-y,z
loop_
_atom_site_type_symbol
_atom_site_label
_atom_site_fract_x
_atom_site_fract_y
_atom_site_fract_z
Si Si1 0.712613 0.706304 0.620434
Si Si2 0.258229 0.704810 0.950787
Si Si3 0.520956 0.296235 0.347604
Si Si4 0.613539 0.288829 0.482434
Si Si5 0.198953 0.205845 0.245813
Si Si6 0.401207 0.698587 0.203763
Si Si7 0.577523 0.289859 0.099740
O O1 0.712301 0.500000 0.617651
O O2 0.550201 0.758564 0.568982
O O3 0.718928 0.770336 0.570500
O O4 0.821324 0.754790 0.709282
O O5 0.261005 0.500000 0.946320
O O6 0.125673 0.764707 0.861026
O O7 0.250000 0.750000 0.000000
O O8 0.423942 0.771077 0.011317
O O9 0.554826 0.500000 0.359911
O O10 0.613800 0.216639 0.430626
O O11 0.353984 0.287849 0.296673
O O12 0.495409 0.213597 0.286058
O O13 0.616925 0.500000 0.482072
O O14 0.085255 0.259059 0.156797
O O15 0.214463 0.000000 0.249432
O O16 0.443178 0.500000 0.225278
O O17 0.230836 0.724695 0.146121
O O18 0.580561 0.500000 0.097515
#
# Coordination Sequence:
#
# PCOD9179713 Si02
#       7
#     8   8   8   8   8   8   8
#     4   8  12  19  31  48  74 110 147 178 212 254
#     4  11  23  38  53  69  93 122 153 190 234 282
#     4   8  14  25  39  56  81 114 149 181 213 256
#     4   7  10  18  32  48  72 110 148 176 207 252
#     4   9  15  23  36  56  82 111 145 182 220 261
#     4  10  19  31  51  76  97 120 155 194 229 271
#     4   9  19  34  50  68  93 126 157 188 230 278
#
# _framework density 27.359473000000001
#
# number of rings (size 3 to 8) (size 9 to 14) (size 15 to 20)
#    0.000    3.143    0.000    3.429    0.000    4.000 
#    0.000    5.714    0.000    0.000    0.000    0.000 
#    0.000    1.143    0.000    2.286    0.000   10.571 
#
# Total GULP energy -156459.086157 kJ/mol
# GULP energy per Si atom -5587.824506 kJ/mol
# Density = 2.729720 g / cm^3
# Si number density = 27.359473 Si / 1000 Ang^3
#
#
#
# Elastic Constant Matrix: (Units=GPa)
#
#
# Indices 1 2 3 4 5 6 
#
# 1 97.8603 -9.8639 49.2327 0.0000 -50.9637 0.0000
# 2 -9.8639 47.0596 15.0542 0.0001 -10.3655 -0.0001
# 3 49.2327 15.0542 293.3170 0.0001 -37.4954 0.0000
# 4 0.0000 0.0001 0.0001 21.6362 0.0000 -4.2544
# 5 -50.9637 -10.3655 -37.4954 0.0000 55.3831 0.0000
# 6 0.0000 -0.0001 0.0000 -4.2544 0.0000 32.1278
#
#
#
# Elastic Compliance Matrix: (Units=1/GPa)
#
#
# Indices 1 2 3 4 5 6 
#
# 1 0.024167 0.010686 -0.001649 0.000000 0.023122 0.000000
# 2 0.010686 0.027007 -0.001398 0.000000 0.013942 0.000000
# 3 -0.001649 -0.001398 0.003865 0.000000 0.000838 0.000000
# 4 0.000000 0.000000 0.000000 0.047455 0.000000 0.006284
# 5 0.023122 0.013942 0.000838 0.000000 0.042509 0.000000
# 6 0.000000 0.000000 0.000000 0.006284 0.000000 0.031958
#
#
# Mechanical properties :
#
#
# Convention : Reuss Voigt Hill
#
# Bulk Modulus (GPa) = 14.22124 60.78698 37.50411
# Shear Modulus (GPa) = 27.00935 47.41701 37.21318
#
# Velocity S-wave (km/s) = 3.14539 4.16758 3.69203
# Velocity P-wave (km/s) = 4.28958 6.73977 5.64911
#
# Compressibility (1/GPa) = 0.07031738
#
# Stress axis : x y z
#
# Youngs Moduli (GPa) = 41.37920 37.02701 258.74123
#
# Poissons Ratio (x) = -0.39566 0.42668
# Poissons Ratio (y) = -0.44217 0.36160
# Poissons Ratio (z) = 0.06824 0.05175
#
# Static dielectric constant tensor:
#      x y z
#    x 2.321710 0.000000 -0.016000 
#    y 0.000000 1.966900 0.000000 
#    z -0.016000 0.000000 2.183440 
# 
# From -- ./inp_files/377719.got.cif
#   From: 2010.05.17/outbox.cif.g08.bks.cpg/sg12_189_cif.got.tgz:377719.got - 2010.06.03 13:09:07.
