data_PCOD9179455
_publ_section_title
;
Structure prediction by ZEFSAII (Michael W. Deem and Ramdas Pophale) SiO2 
 PCOD9179455
Probable space group: C 2/M
;
_chemical_formula_sum "Si O2"
_cell_formula_units_Z 64
_cell_length_a 22.854074
_cell_length_b 18.393132
_cell_length_c 9.013580
_cell_angle_alpha 90.000000
_cell_angle_beta 96.743294
_cell_angle_gamma 90.000000
_cell_volume 3762.719423
_symmetry_space_group_name_H-M "C 2/M"
_symmetry_group_IT_number 12
_symmetry_cell_setting 'monoclinic'
loop_
_space_group_symop_operation_xyz
x,y,z
-x,y,-z
-x,-y,-z
x,-y,z
1/2+x,1/2+y,z
1/2-x,1/2+y,-z
1/2-x,1/2-y,-z
1/2+x,1/2-y,z
loop_
_atom_site_type_symbol
_atom_site_label
_atom_site_fract_x
_atom_site_fract_y
_atom_site_fract_z
Si Si1 0.695293 0.914615 0.267487
Si Si2 0.889758 0.710868 0.691246
Si Si3 0.968587 0.920450 0.831786
Si Si4 0.510088 0.278786 0.677934
Si Si5 0.195190 0.085212 0.477299
Si Si6 0.842653 0.145992 0.831434
Si Si7 0.724798 0.317803 0.904268
Si Si8 0.862722 0.213336 0.375798
O O1 0.637181 0.867414 0.282725
O O2 0.743318 0.907497 0.415406
O O3 0.727716 0.875587 0.139392
O O4 0.684486 0.000000 0.241183
O O5 0.960745 0.721728 0.720753
O O6 0.861873 0.771904 0.792053
O O7 0.868207 0.733951 0.519208
O O8 0.993510 0.855582 0.742288
O O9 0.900107 0.903910 0.834983
O O10 0.977458 0.000000 0.767794
O O11 0.000000 0.918183 0.000000
O O12 0.500000 0.281864 0.500000
O O13 0.580236 0.270860 0.709233
O O14 0.199615 0.117607 0.312855
O O15 0.145638 0.133617 0.548676
O O16 0.179763 0.000000 0.469797
O O17 0.818122 0.144135 0.989770
O O18 0.692458 0.284930 0.750193
O O19 0.750000 0.250000 0.000000
#
# Coordination Sequence:
#
# PCOD9179455 Si02
#       8
#     8   8   8   8   8   8   8   8
#     4  10  21  36  53  76 104 135 171 211 262 310
#     4   9  18  34  54  73  99 132 174 216 252 297
#     4  10  20  31  45  68 105 143 169 200 246 298
#     4   9  18  33  51  75  95 129 176 213 248 294
#     4   9  19  32  50  76 107 142 170 203 252 307
#     4  10  19  31  50  73 102 134 176 207 245 302
#     4  11  21  32  52  79 105 134 167 205 260 306
#     4   9  19  32  53  75 104 132 170 215 250 301
#
# _framework density 17.008975
#
# number of rings (size 3 to 8) (size 9 to 14) (size 15 to 20)
#    0.000    2.375    1.250    1.875    1.750    3.250 
#    0.000    2.500    0.000    3.375    0.000    0.875 
#    0.000    0.000    0.000    0.000    0.000    0.000 
#
# Total GULP energy -178216.447797 kJ/mol
# GULP energy per Si atom -5569.263994 kJ/mol
# Density = 1.697026 g / cm^3
# Si number density = 17.008975 Si / 1000 Ang^3
#
#
#
# Elastic Constant Matrix: (Units=GPa)
#
#
# Indices 1 2 3 4 5 6 
#
# 1 59.7694 45.3698 8.4929 0.0000 -13.6441 0.0000
# 2 45.3698 97.0453 9.6831 0.0000 -2.6195 0.0000
# 3 8.4929 9.6831 24.4137 0.0000 -7.5445 0.0000
# 4 0.0000 0.0000 0.0000 14.2247 0.0000 -10.5154
# 5 -13.6441 -2.6195 -7.5445 0.0000 24.5245 0.0000
# 6 0.0000 0.0000 0.0000 -10.5154 0.0000 -10.6701
#
#
#
# Elastic Compliance Matrix: (Units=1/GPa)
#
#
# Indices 1 2 3 4 5 6 
#
# 1 0.031010 -0.014037 -0.000389 0.000000 0.015633 0.000000
# 2 -0.014037 0.017084 -0.004135 0.000000 -0.007257 0.000000
# 3 -0.000389 -0.004135 0.047001 0.000000 0.013801 0.000000
# 4 0.000000 0.000000 0.000000 0.040671 0.000000 -0.040081
# 5 0.015633 -0.007257 0.013801 0.000000 0.052943 0.000000
# 6 0.000000 0.000000 0.000000 -0.040081 0.000000 -0.054220
#
#
# Mechanical properties :
#
#
# Convention : Reuss Voigt Hill
#
# Bulk Modulus (GPa) = 17.24969 34.25780 25.75374
# Shear Modulus (GPa) = 26.18689 13.46133 19.82411
#
# Velocity S-wave (km/s) = 3.92802 2.81628 3.41766
# Velocity P-wave (km/s) = 5.54401 5.54617 5.54509
#
# Compressibility (1/GPa) = 0.05797207
#
# Stress axis : x y z
#
# Youngs Moduli (GPa) = 32.24769 58.53591 21.27621
#
# Poissons Ratio (x) = 0.82165 0.00828
# Poissons Ratio (y) = 0.45265 0.08798
# Poissons Ratio (z) = 0.01255 0.24206
#
# Static dielectric constant tensor:
#      x y z
#    x 1.635370 0.000000 0.004080 
#    y 0.000000 1.559960 0.000000 
#    z 0.004080 0.000000 1.600490 
# 
# From -- ./inp_files/97731.got.cif
#   From: 2010.05.17/outbox.cif.g08.bks.cpg/sg12_49_cif.got.tgz:97731.got - 2010.06.03 13:09:07.
