data_PCOD9179734
_publ_section_title
;
Structure prediction by ZEFSAII (Michael W. Deem and Ramdas Pophale) SiO2 
 PCOD9179734
Probable space group: C 2/M
;
_chemical_formula_sum "Si O2"
_cell_formula_units_Z 56
_cell_length_a 10.692159
_cell_length_b 27.467931
_cell_length_c 20.093123
_cell_angle_alpha 90.000000
_cell_angle_beta 34.269609
_cell_angle_gamma 90.000000
_cell_volume 3322.881912
_symmetry_space_group_name_H-M "C 2/M"
_symmetry_group_IT_number 12
_symmetry_cell_setting 'monoclinic'
loop_
_space_group_symop_operation_xyz
x,y,z
-x,y,-z
-x,-y,-z
x,-y,z
1/2+x,1/2+y,z
1/2-x,1/2+y,-z
1/2-x,1/2-y,-z
1/2+x,1/2-y,z
loop_
_atom_site_type_symbol
_atom_site_label
_atom_site_fract_x
_atom_site_fract_y
_atom_site_fract_z
Si Si1 0.559839 0.790641 0.850039
Si Si2 0.735155 0.555236 0.600824
Si Si3 0.247416 0.703396 0.619158
Si Si4 0.782389 0.367435 0.475201
Si Si5 0.934383 0.181465 0.951344
Si Si6 0.974135 0.203209 0.314288
Si Si7 0.197431 0.137037 0.721663
O O1 0.667743 0.793953 0.729576
O O2 0.506089 0.735717 0.896424
O O3 0.764098 0.807013 0.806532
O O4 0.329452 0.819665 0.947025
O O5 0.652244 0.500000 0.638370
O O6 0.705903 0.581896 0.542249
O O7 0.640294 0.590715 0.700016
O O8 0.000000 0.553748 0.500000
O O9 0.500000 0.721423 0.500000
O O10 0.238244 0.649300 0.591943
O O11 0.081001 0.739897 0.653743
O O12 0.639006 0.326815 0.576957
O O13 0.041011 0.363626 0.379729
O O14 0.063025 0.143051 0.848705
O O15 0.000000 0.176213 0.000000
O O16 0.857815 0.183795 0.299082
#
# Coordination Sequence:
#
# PCOD9179734 Si02
#       7
#     8   8   8   8   8   8   8
#     4  11  23  34  47  69 101 148 179 212 244 290
#     4   8  16  32  55  83 106 124 160 215 269 316
#     4  12  21  32  48  73 109 138 176 210 250 300
#     4  10  19  31  51  77 105 131 164 210 258 310
#     4  11  23  37  48  65 103 145 188 211 244 297
#     4  11  20  31  47  74 103 136 175 212 251 293
#     4  10  19  33  53  75 100 137 174 209 258 300
#
# _framework density 16.852841000000002
#
# number of rings (size 3 to 8) (size 9 to 14) (size 15 to 20)
#    0.000    1.571    2.857    5.143    2.000    0.000 
#    0.000    0.000    0.000    0.857    0.000    9.000 
#    0.000    0.000    0.000    0.000    0.000    0.000 
#
# Total GULP energy -156069.900066 kJ/mol
# GULP energy per Si atom -5573.925002 kJ/mol
# Density = 1.681448 g / cm^3
# Si number density = 16.852841 Si / 1000 Ang^3
#
#
#
# Elastic Constant Matrix: (Units=GPa)
#
#
# Indices 1 2 3 4 5 6 
#
# 1 44.2490 21.2484 29.6477 0.0004 -4.3380 0.0000
# 2 21.2484 81.1370 24.9335 -0.0003 10.6159 0.0002
# 3 29.6477 24.9335 98.9206 -0.0056 -6.3909 0.0050
# 4 0.0004 -0.0003 -0.0056 11.0617 0.0007 3.9767
# 5 -4.3380 10.6159 -6.3909 0.0007 38.3271 -0.0008
# 6 0.0000 0.0002 0.0050 3.9767 -0.0008 14.8787
#
#
#
# Elastic Compliance Matrix: (Units=1/GPa)
#
#
# Indices 1 2 3 4 5 6 
#
# 1 0.031037 -0.006371 -0.007435 -0.000007 0.004038 0.000005
# 2 -0.006371 0.015410 -0.002322 0.000000 -0.005377 0.000000
# 3 -0.007435 -0.002322 0.013051 0.000009 0.001978 -0.000007
# 4 -0.000007 0.000000 0.000009 0.100012 -0.000002 -0.026731
# 5 0.004038 -0.005377 0.001978 -0.000002 0.028367 0.000001
# 6 0.000005 0.000000 -0.000007 -0.026731 0.000001 0.074354
#
#
# Mechanical properties :
#
#
# Convention : Reuss Voigt Hill
#
# Bulk Modulus (GPa) = 36.71040 41.77397 39.24218
# Shear Modulus (GPa) = 16.47074 22.75197 19.61136
#
# Velocity S-wave (km/s) = 3.12962 3.67827 3.41498
# Velocity P-wave (km/s) = 5.90674 6.54835 6.23580
#
# Compressibility (1/GPa) = 0.02724024
#
# Stress axis : x y z
#
# Youngs Moduli (GPa) = 32.22011 64.89095 76.62484
#
# Poissons Ratio (x) = 0.41345 0.56972
# Poissons Ratio (y) = 0.20529 0.17793
# Poissons Ratio (z) = 0.23956 0.15068
#
# Static dielectric constant tensor:
#      x y z
#    x 1.646910 0.000000 0.015580 
#    y 0.000000 1.554680 0.000000 
#    z 0.015580 0.000000 1.593660 
# 
# From -- ./inp_files/170513.got.cif
#   From: 2010.05.17/outbox.cif.g08.bks.cpg/sg12_86_cif.got.tgz:170513.got - 2010.06.03 13:09:07.
