data_PCOD9179404
_publ_section_title
;
Structure prediction by ZEFSAII (Michael W. Deem and Ramdas Pophale) SiO2 
 PCOD9179404
Probable space group: C 2/M
;
_chemical_formula_sum "Si O2"
_cell_formula_units_Z 64
_cell_length_a 30.989045
_cell_length_b 8.756975
_cell_length_c 16.448765
_cell_angle_alpha 90.000000
_cell_angle_beta 134.289007
_cell_angle_gamma 90.000000
_cell_volume 3195.240150
_symmetry_space_group_name_H-M "C 2/M"
_symmetry_group_IT_number 12
_symmetry_cell_setting 'monoclinic'
loop_
_space_group_symop_operation_xyz
x,y,z
-x,y,-z
-x,-y,-z
x,-y,z
1/2+x,1/2+y,z
1/2-x,1/2+y,-z
1/2-x,1/2-y,-z
1/2+x,1/2-y,z
loop_
_atom_site_type_symbol
_atom_site_label
_atom_site_fract_x
_atom_site_fract_y
_atom_site_fract_z
Si Si1 0.682716 0.683284 0.187614
Si Si2 0.689056 0.173162 0.947105
Si Si3 0.691063 0.678665 0.677825
Si Si4 0.191123 0.681505 0.378573
Si Si5 0.903435 0.821076 0.061643
Si Si6 0.881397 0.180053 0.577621
Si Si7 0.597831 0.171780 0.676203
Si Si8 0.006769 0.683363 0.690136
O O1 0.684049 0.500000 0.191484
O O2 0.744892 0.738568 0.226355
O O3 0.683507 0.750480 0.278963
O O4 0.621309 0.728693 0.059102
O O5 0.656026 0.288399 0.963697
O O6 0.645871 0.160063 0.812553
O O7 0.696397 0.000000 0.989792
O O8 0.750000 0.250000 0.000000
O O9 0.699398 0.500000 0.704803
O O10 0.671354 0.699867 0.558280
O O11 0.634527 0.737023 0.656617
O O12 0.197039 0.500000 0.381639
O O13 0.250000 0.750000 0.500000
O O14 0.136006 0.730089 0.364200
O O15 0.954097 0.731600 0.179033
O O16 0.919092 0.000000 0.080732
O O17 0.941976 0.243381 0.617066
O O18 0.887260 0.000000 0.602382
O O19 0.539597 0.234078 0.648875
O O20 0.584188 0.000000 0.627653
O O21 0.004410 0.500000 0.683776
#
# Coordination Sequence:
#
# PCOD9179404 Si02
#       8
#     8   8   8   8   8   8   8   8
#     4  11  23  39  62  91 125 159 195 246 305 361
#     4  10  19  31  49  76 111 154 200 247 297 351
#     4  11  23  36  57  89 122 158 202 251 303 356
#     4  12  24  41  66  94 123 156 195 242 300 360
#     4  10  21  37  58  85 117 157 198 244 300 355
#     4  11  24  42  63  89 121 158 200 250 303 358
#     4   9  20  36  53  78 116 158 201 247 297 351
#     4  10  22  41  63  87 118 162 208 250 298 354
#
# _framework density 20.029793000000002
#
# number of rings (size 3 to 8) (size 9 to 14) (size 15 to 20)
#    0.000    1.500    1.250    4.875    0.000   10.000 
#    0.000    3.125    0.000    3.750    0.000    0.000 
#    0.000    0.000    0.000    0.000    0.000    0.000 
#
# Total GULP energy -178683.078019 kJ/mol
# GULP energy per Si atom -5583.846188 kJ/mol
# Density = 1.998420 g / cm^3
# Si number density = 20.029793 Si / 1000 Ang^3
#
#
#
# Elastic Constant Matrix: (Units=GPa)
#
#
# Indices 1 2 3 4 5 6 
#
# 1 76.6627 15.1332 8.0098 0.0000 -5.0733 0.0000
# 2 15.1332 64.6022 26.6486 0.0000 -5.1594 0.0000
# 3 8.0098 26.6486 65.6986 0.0000 -11.5494 0.0000
# 4 0.0000 0.0000 0.0000 26.3608 0.0000 -1.5465
# 5 -5.0733 -5.1594 -11.5494 0.0000 32.0221 0.0000
# 6 0.0000 0.0000 0.0000 -1.5465 0.0000 33.4330
#
#
#
# Elastic Compliance Matrix: (Units=1/GPa)
#
#
# Indices 1 2 3 4 5 6 
#
# 1 0.013767 -0.003027 -0.000163 0.000000 0.001635 0.000000
# 2 -0.003027 0.019258 -0.007454 0.000000 -0.000065 0.000000
# 3 -0.000163 -0.007454 0.019270 0.000000 0.005723 0.000000
# 4 0.000000 0.000000 0.000000 0.038038 0.000000 0.001760
# 5 0.001635 -0.000065 0.005723 0.000000 0.033541 0.000000
# 6 0.000000 0.000000 0.000000 0.001760 0.000000 0.029992
#
#
# Mechanical properties :
#
#
# Convention : Reuss Voigt Hill
#
# Bulk Modulus (GPa) = 32.25063 34.06075 33.15569
# Shear Modulus (GPa) = 26.95552 28.84131 27.89842
#
# Velocity S-wave (km/s) = 3.67246 3.79875 3.73613
# Velocity P-wave (km/s) = 5.84113 6.02350 5.93302
#
# Compressibility (1/GPa) = 0.03100715
#
# Stress axis : x y z
#
# Youngs Moduli (GPa) = 72.63795 51.92661 51.89282
#
# Poissons Ratio (x) = 0.15718 0.00847
# Poissons Ratio (y) = 0.21988 0.38680
# Poissons Ratio (z) = 0.01186 0.38705
#
# Static dielectric constant tensor:
#      x y z
#    x 1.667100 0.000000 -0.013000 
#    y 0.000000 1.685620 0.000000 
#    z -0.013000 0.000000 1.740500 
# 
# From -- ./inp_files/249914.got.cif
#   From: 2010.05.17/outbox.cif.g08.bks.cpg/sg12_125_cif.got.tgz:249914.got - 2010.06.03 13:09:07.
