data_PCOD9179363
_publ_section_title
;
Structure prediction by ZEFSAII (Michael W. Deem and Ramdas Pophale) SiO2 
 PCOD9179363
Probable space group: C 2/M
;
_chemical_formula_sum "Si O2"
_cell_formula_units_Z 64
_cell_length_a 15.264664
_cell_length_b 9.398163
_cell_length_c 31.848069
_cell_angle_alpha 90.000000
_cell_angle_beta 136.259781
_cell_angle_gamma 90.000000
_cell_volume 3158.902723
_symmetry_space_group_name_H-M "C 2/M"
_symmetry_group_IT_number 12
_symmetry_cell_setting 'monoclinic'
loop_
_space_group_symop_operation_xyz
x,y,z
-x,y,-z
-x,-y,-z
x,-y,z
1/2+x,1/2+y,z
1/2-x,1/2+y,-z
1/2-x,1/2-y,-z
1/2+x,1/2-y,z
loop_
_atom_site_type_symbol
_atom_site_label
_atom_site_fract_x
_atom_site_fract_y
_atom_site_fract_z
Si Si1 0.332166 0.671934 0.149956
Si Si2 0.925268 0.836459 0.519151
Si Si3 0.288736 0.337041 0.594219
Si Si4 0.277877 0.162036 0.746920
Si Si5 0.456653 0.827217 0.939256
Si Si6 0.858745 0.339289 0.368358
Si Si7 0.552122 0.168451 0.884496
Si Si8 0.463791 0.667345 0.276866
O O1 0.340359 0.500000 0.149936
O O2 0.191332 0.707644 0.117059
O O3 0.356590 0.742195 0.113626
O O4 0.433885 0.723615 0.219976
O O5 0.793870 0.755414 0.466080
O O6 0.000000 0.833956 0.500000
O O7 0.016518 0.757036 0.583518
O O8 0.907263 0.000000 0.524352
O O9 0.304414 0.500000 0.584484
O O10 0.206654 0.343710 0.608663
O O11 0.422450 0.272674 0.655791
O O12 0.241287 0.271025 0.698047
O O13 0.412096 0.183841 0.815608
O O14 0.166503 0.173599 0.742692
O O15 0.274904 0.000000 0.729121
O O16 0.539192 0.780351 0.928039
O O17 0.464377 0.000000 0.941730
O O18 0.500000 0.776993 0.000000
O O19 0.891243 0.500000 0.367315
O O20 0.583614 0.000000 0.894744
O O21 0.497246 0.500000 0.283028
#
# Coordination Sequence:
#
# PCOD9179363 Si02
#       8
#     8   8   8   8   8   8   8   8
#     4  10  19  35  59  84 111 150 195 233 276 335
#     4   9  17  30  48  70  98 132 170 214 265 326
#     4   9  17  30  49  71  95 126 168 219 270 321
#     4  10  19  33  52  73 101 138 178 222 272 328
#     4   9  18  35  59  85 116 155 195 230 270 332
#     4  10  19  31  49  75 102 130 169 220 274 326
#     4  10  20  35  56  84 115 148 188 236 284 329
#     4   9  17  32  53  74  99 136 181 223 269 328
#
# _framework density 20.260200999999999
#
# number of rings (size 3 to 8) (size 9 to 14) (size 15 to 20)
#    0.000    2.500    1.250    1.500    0.000    4.000 
#    0.000    3.125    0.000    0.750    0.000    0.000 
#    0.000    0.000    0.000    0.000    0.000    0.000 
#
# Total GULP energy -178595.726047 kJ/mol
# GULP energy per Si atom -5581.116439 kJ/mol
# Density = 2.021409 g / cm^3
# Si number density = 20.260201 Si / 1000 Ang^3
#
#
#
# Elastic Constant Matrix: (Units=GPa)
#
#
# Indices 1 2 3 4 5 6 
#
# 1 49.5000 0.8069 -2.8875 0.0000 -16.0541 0.0000
# 2 0.8069 54.5425 18.4984 0.0000 -11.3955 0.0000
# 3 -2.8875 18.4984 44.6525 0.0000 -11.6750 0.0000
# 4 0.0000 0.0000 0.0000 17.6655 0.0000 -2.9416
# 5 -16.0541 -11.3955 -11.6750 0.0000 28.1444 0.0000
# 6 0.0000 0.0000 0.0000 -2.9416 0.0000 10.5746
#
#
#
# Elastic Compliance Matrix: (Units=1/GPa)
#
#
# Indices 1 2 3 4 5 6 
#
# 1 0.026367 0.001396 0.005841 0.000000 0.018028 0.000000
# 2 0.001396 0.022215 -0.007350 0.000000 0.006742 0.000000
# 3 0.005841 -0.007350 0.029063 0.000000 0.012411 0.000000
# 4 0.000000 0.000000 0.000000 0.059357 0.000000 0.016511
# 5 0.018028 0.006742 0.012411 0.000000 0.053693 0.000000
# 6 0.000000 0.000000 0.000000 0.016511 0.000000 0.099159
#
#
# Mechanical properties :
#
#
# Convention : Reuss Voigt Hill
#
# Bulk Modulus (GPa) = 12.91706 20.17008 16.54357
# Shear Modulus (GPa) = 15.82843 20.09538 17.96191
#
# Velocity S-wave (km/s) = 2.79813 3.15281 2.98075
# Velocity P-wave (km/s) = 4.10229 4.81982 4.47546
#
# Compressibility (1/GPa) = 0.07741697
#
# Stress axis : x y z
#
# Youngs Moduli (GPa) = 37.92630 45.01439 34.40801
#
# Poissons Ratio (x) = -0.06282 -0.20096
# Poissons Ratio (y) = -0.05293 0.25291
# Poissons Ratio (z) = -0.22151 0.33086
#
# Static dielectric constant tensor:
#      x y z
#    x 1.736480 0.000000 -0.009300 
#    y 0.000000 1.687180 0.000000 
#    z -0.009300 0.000000 1.737850 
# 
# From -- ./inp_files/375589.got.cif
#   From: 2010.05.17/outbox.cif.g08.bks.cpg/sg12_188_cif.got.tgz:375589.got - 2010.06.03 13:09:07.
