data_PCOD9179438
_publ_section_title
;
Structure prediction by ZEFSAII (Michael W. Deem and Ramdas Pophale) SiO2 
 PCOD9179438
Probable space group: C 2/M
;
_chemical_formula_sum "Si O2"
_cell_formula_units_Z 56
_cell_length_a 25.739129
_cell_length_b 19.012221
_cell_length_c 15.859730
_cell_angle_alpha 90.000000
_cell_angle_beta 18.487954
_cell_angle_gamma 90.000000
_cell_volume 2461.081250
_symmetry_space_group_name_H-M "C 2/M"
_symmetry_group_IT_number 12
_symmetry_cell_setting 'monoclinic'
loop_
_space_group_symop_operation_xyz
x,y,z
-x,y,-z
-x,-y,-z
x,-y,z
1/2+x,1/2+y,z
1/2-x,1/2+y,-z
1/2-x,1/2-y,-z
1/2+x,1/2-y,z
loop_
_atom_site_type_symbol
_atom_site_label
_atom_site_fract_x
_atom_site_fract_y
_atom_site_fract_z
Si Si1 0.280095 0.079289 0.213401
Si Si2 0.313904 0.343355 0.797736
Si Si3 0.130117 0.423796 0.375426
Si Si4 0.114544 0.078843 0.157237
Si Si5 0.259551 0.188041 0.370169
Si Si6 0.196468 0.723776 0.318328
Si Si7 0.548387 0.318463 0.841590
O O1 0.297434 0.110351 0.092840
O O2 0.355071 0.133259 0.164688
O O3 0.082983 0.081391 0.537607
O O4 0.337112 0.000000 0.132054
O O5 0.500000 0.370973 0.500000
O O6 0.297725 0.361130 0.920836
O O7 0.317047 0.266657 0.748595
O O8 0.120584 0.500000 0.433966
O O9 0.107988 0.350949 0.457692
O O10 0.000000 0.425085 0.500000
O O11 0.306004 0.417915 0.057445
O O12 0.157934 0.000000 0.124297
O O13 0.144049 0.227329 0.477857
O O14 0.357100 0.251061 0.264472
O O15 0.163440 0.149937 0.593102
O O16 0.386536 0.708874 0.044538
O O17 0.500000 0.361584 0.000000
#
# Coordination Sequence:
#
# PCOD9179438 Si02
#       7
#     8   8   8   8   8   8   8
#     4   9  16  28  49  74  98 125 155 189 232 280
#     4   9  17  28  45  72  99 123 158 197 230 270
#     4  10  21  34  46  65  97 133 163 193 231 273
#     4   9  17  29  45  67  99 134 162 191 229 271
#     4   9  18  32  51  72  94 119 153 196 240 280
#     4  10  19  31  50  71  92 122 161 197 233 280
#     4   9  18  33  52  70  91 118 151 193 243 285
#
# _framework density 22.754227
#
# number of rings (size 3 to 8) (size 9 to 14) (size 15 to 20)
#    0.000    2.714    0.000    1.714    0.000    3.429 
#    0.000    0.000    0.000   23.571    0.000    0.000 
#    0.000    0.000    0.000    0.000    0.000    0.000 
#
# Total GULP energy -155959.691402 kJ/mol
# GULP energy per Si atom -5569.988979 kJ/mol
# Density = 2.270244 g / cm^3
# Si number density = 22.754227 Si / 1000 Ang^3
#
#
#
# Elastic Constant Matrix: (Units=GPa)
#
#
# Indices 1 2 3 4 5 6 
#
# 1 74.9082 48.1705 -9.3628 0.0012 -3.1051 -0.0006
# 2 48.1705 138.1900 -23.0756 0.0003 2.3804 -0.0013
# 3 -9.3628 -23.0756 12.0422 0.0011 5.4392 -0.0032
# 4 0.0012 0.0003 0.0011 10.0263 -0.0021 3.4751
# 5 -3.1051 2.3804 5.4392 -0.0021 25.9680 0.0027
# 6 -0.0006 -0.0013 -0.0032 3.4751 0.0027 16.4129
#
#
#
# Elastic Compliance Matrix: (Units=1/GPa)
#
#
# Indices 1 2 3 4 5 6 
#
# 1 0.017394 -0.005921 0.001096 -0.000002 0.002393 0.000000
# 2 -0.005921 0.013510 0.024480 -0.000007 -0.007074 0.000008
# 3 0.001096 0.024480 0.145524 -0.000038 -0.032594 0.000044
# 4 -0.000002 -0.000007 -0.000038 0.107637 0.000020 -0.022790
# 5 0.002393 -0.007074 -0.032594 0.000020 0.046270 -0.000019
# 6 0.000000 0.000008 0.000044 -0.022790 -0.000019 0.065753
#
#
# Mechanical properties :
#
#
# Convention : Reuss Voigt Hill
#
# Bulk Modulus (GPa) = 4.63529 28.51164 16.57346
# Shear Modulus (GPa) = 11.66342 24.44200 18.05271
#
# Velocity S-wave (km/s) = 2.26648 3.28101 2.81975
# Velocity P-wave (km/s) = 2.98174 5.18757 4.23094
#
# Compressibility (1/GPa) = 0.21573630
#
# Stress axis : x y z
#
# Youngs Moduli (GPa) = 57.49236 74.01904 6.87172
#
# Poissons Ratio (x) = 0.43829 -0.00753
# Poissons Ratio (y) = 0.34043 -0.16822
# Poissons Ratio (z) = -0.06301 -1.81196
#
# Static dielectric constant tensor:
#      x y z
#    x 1.885300 0.000000 0.036960 
#    y 0.000000 1.899930 0.000000 
#    z 0.036960 0.000000 1.944750 
# 
# From -- ./inp_files/296892.got.cif
#   From: 2010.05.17/outbox.cif.g08.bks.cpg/sg12_149_cif.got.tgz:296892.got - 2010.06.03 13:09:07.
