data_PCOD9179605
_publ_section_title
;
Structure prediction by ZEFSAII (Michael W. Deem and Ramdas Pophale) SiO2 
 PCOD9179605
Probable space group: C 2/M
;
_chemical_formula_sum "Si O2"
_cell_formula_units_Z 64
_cell_length_a 20.740872
_cell_length_b 7.744875
_cell_length_c 23.780982
_cell_angle_alpha 90.000000
_cell_angle_beta 135.962996
_cell_angle_gamma 90.000000
_cell_volume 2655.417084
_symmetry_space_group_name_H-M "C 2/M"
_symmetry_group_IT_number 12
_symmetry_cell_setting 'monoclinic'
loop_
_space_group_symop_operation_xyz
x,y,z
-x,y,-z
-x,-y,-z
x,-y,z
1/2+x,1/2+y,z
1/2-x,1/2+y,-z
1/2-x,1/2-y,-z
1/2+x,1/2-y,z
loop_
_atom_site_type_symbol
_atom_site_label
_atom_site_fract_x
_atom_site_fract_y
_atom_site_fract_z
Si Si1 0.436009 0.702425 0.737776
Si Si2 0.822622 0.796759 0.822866
Si Si3 0.533632 0.296666 0.685373
Si Si4 0.935711 0.201219 0.514249
Si Si5 0.237672 0.799356 0.658127
Si Si6 0.720480 0.798097 0.865099
Si Si7 0.873078 0.298008 0.084274
Si Si8 0.521713 0.202604 0.952533
O O1 0.436539 0.500000 0.754596
O O2 0.454080 0.714237 0.682697
O O3 0.338448 0.779575 0.694029
O O4 0.526669 0.786053 0.822476
O O5 0.745993 0.772112 0.726579
O O6 0.793198 0.722745 0.865455
O O7 0.918693 0.716335 0.861675
O O8 0.837109 0.000000 0.838219
O O9 0.558245 0.500000 0.693474
O O10 0.492744 0.223405 0.602120
O O11 0.624520 0.212791 0.769550
O O12 0.839012 0.278365 0.431709
O O13 0.000000 0.202159 0.500000
O O14 0.918027 0.000000 0.519802
O O15 0.213654 0.000000 0.650179
O O16 0.697857 0.722580 0.913271
O O17 0.740785 0.000000 0.885668
O O18 0.851461 0.500000 0.064227
O O19 0.899694 0.222207 0.039557
O O20 0.542819 0.000000 0.972487
O O21 0.500000 0.282037 0.000000
#
# Coordination Sequence:
#
# PCOD9179605 Si02
#       8
#     8   8   8   8   8   8   8   8
#     4  10  19  31  50  77 106 135 173 223 271 312
#     4  11  22  36  55  81 112 140 176 224 271 319
#     4   9  18  33  52  75 104 139 181 226 267 312
#     4   9  18  32  49  70  98 135 179 225 271 316
#     4  11  21  33  53  76 101 138 182 222 266 322
#     4   9  19  34  54  80 108 143 181 220 267 316
#     4   9  17  34  57  78 106 143 180 213 256 316
#     4  10  21  37  59  85 110 140 179 220 261 313
#
# _framework density 24.101673999999999
#
# number of rings (size 3 to 8) (size 9 to 14) (size 15 to 20)
#    0.000    2.250    1.250    1.875    0.000    3.250 
#    0.000    1.875    0.000    3.375    0.000    0.000 
#    0.000    0.000    0.000    0.000    0.000    0.000 
#
# Total GULP energy -178749.356198 kJ/mol
# GULP energy per Si atom -5585.917381 kJ/mol
# Density = 2.404682 g / cm^3
# Si number density = 24.101674 Si / 1000 Ang^3
#
#
#
# Elastic Constant Matrix: (Units=GPa)
#
#
# Indices 1 2 3 4 5 6 
#
# 1 159.9460 9.8512 32.7775 0.0000 -11.5176 0.0000
# 2 9.8512 65.4904 26.9959 0.0000 -5.2819 0.0001
# 3 32.7775 26.9959 111.6742 0.0000 -13.3323 0.0000
# 4 0.0000 0.0000 0.0000 17.6913 0.0000 -3.7966
# 5 -11.5176 -5.2819 -13.3323 0.0000 43.1532 0.0000
# 6 0.0000 0.0001 0.0000 -3.7966 0.0000 11.3364
#
#
#
# Elastic Compliance Matrix: (Units=1/GPa)
#
#
# Indices 1 2 3 4 5 6 
#
# 1 0.006716 -0.000177 -0.001783 0.000000 0.001220 0.000000
# 2 -0.000177 0.016993 -0.003959 0.000000 0.000810 0.000000
# 3 -0.001783 -0.003959 0.010716 0.000000 0.002350 0.000000
# 4 0.000000 0.000000 0.000000 0.060902 0.000000 0.020396
# 5 0.001220 0.000810 0.002350 0.000000 0.024324 0.000000
# 6 0.000000 0.000000 0.000000 0.020396 0.000000 0.095042
#
#
# Mechanical properties :
#
#
# Convention : Reuss Voigt Hill
#
# Bulk Modulus (GPa) = 44.27346 52.92888 48.60117
# Shear Modulus (GPa) = 21.36198 32.26857 26.81528
#
# Velocity S-wave (km/s) = 2.98036 3.66300 3.33917
# Velocity P-wave (km/s) = 5.50024 6.31652 5.92246
#
# Compressibility (1/GPa) = 0.02258689
#
# Stress axis : x y z
#
# Youngs Moduli (GPa) = 148.89319 58.84636 93.32189
#
# Poissons Ratio (x) = 0.01041 0.16638
# Poissons Ratio (y) = 0.02635 0.36950
# Poissons Ratio (z) = 0.26545 0.23299
#
# Static dielectric constant tensor:
#      x y z
#    x 1.953090 0.000000 -0.020660 
#    y 0.000000 1.900070 0.000000 
#    z -0.020660 0.000000 2.007930 
# 
# From -- ./inp_files/346154.got.cif
#   From: 2010.05.17/outbox.cif.g08.bks.cpg/sg12_174_cif.got.tgz:346154.got - 2010.06.03 13:09:07.
