data_PCOD9179256
_publ_section_title
;
Structure prediction by ZEFSAII (Michael W. Deem and Ramdas Pophale) SiO2 
 PCOD9179256
Probable space group: C 2/M
;
_chemical_formula_sum "Si O2"
_cell_formula_units_Z 56
_cell_length_a 20.516550
_cell_length_b 12.995276
_cell_length_c 7.997587
_cell_angle_alpha 90.000000
_cell_angle_beta 92.108759
_cell_angle_gamma 90.000000
_cell_volume 2130.858451
_symmetry_space_group_name_H-M "C 2/M"
_symmetry_group_IT_number 12
_symmetry_cell_setting 'monoclinic'
loop_
_space_group_symop_operation_xyz
x,y,z
-x,y,-z
-x,-y,-z
x,-y,z
1/2+x,1/2+y,z
1/2-x,1/2+y,-z
1/2-x,1/2-y,-z
1/2+x,1/2-y,z
loop_
_atom_site_type_symbol
_atom_site_label
_atom_site_fract_x
_atom_site_fract_y
_atom_site_fract_z
Si Si1 0.661009 0.159226 0.053850
Si Si2 0.153866 0.882099 0.618705
Si Si3 0.098703 0.679102 0.701648
Si Si4 0.720016 0.119317 0.536527
Si Si5 0.210264 0.886836 0.095023
Si Si6 0.546977 0.612617 0.342210
Si Si7 0.032755 0.328692 0.184276
O O1 0.669766 0.282791 0.069198
O O2 0.605817 0.126981 0.181188
O O3 0.629310 0.132314 0.871737
O O4 0.733903 0.116533 0.044551
O O5 0.110776 0.802444 0.720031
O O6 0.226589 0.838529 0.589944
O O7 0.118156 0.886007 0.434747
O O8 0.153944 0.000000 0.680264
O O9 0.145887 0.655649 0.551362
O O10 0.024235 0.643189 0.690075
O O11 0.752734 0.123551 0.723791
O O12 0.716939 0.000000 0.490755
O O13 0.178475 0.000000 0.087870
O O14 0.500000 0.624515 0.500000
O O15 0.533777 0.500000 0.268929
O O16 0.539684 0.707071 0.219346
O O17 0.000000 0.345233 0.000000
#
# Coordination Sequence:
#
# PCOD9179256 Si02
#       7
#     8   8   8   8   8   8   8
#     4   9  19  32  49  74 100 127 167 206 244 301
#     4  10  19  31  49  72  98 128 167 205 242 296
#     4  10  19  32  48  70 101 133 161 203 252 295
#     4   9  18  32  51  72  93 124 170 213 248 290
#     4   9  17  33  53  72  97 128 163 208 253 291
#     4  10  19  32  49  71 100 133 169 203 241 298
#     4  10  20  33  49  73 104 133 164 203 248 296
#
# _framework density 26.280487000000001
#
# number of rings (size 3 to 8) (size 9 to 14) (size 15 to 20)
#    0.000    2.429    1.429    1.286    0.000    2.571 
#    0.000    3.571    0.000    4.286    0.000    2.000 
#    0.000    0.000    0.000    0.000    0.000    0.000 
#
# Total GULP energy -156375.830365 kJ/mol
# GULP energy per Si atom -5584.851084 kJ/mol
# Density = 2.622067 g / cm^3
# Si number density = 26.280487 Si / 1000 Ang^3
#
#
#
# Elastic Constant Matrix: (Units=GPa)
#
#
# Indices 1 2 3 4 5 6 
#
# 1 165.6392 10.4413 29.2713 0.0000 -69.0300 0.0000
# 2 10.4413 67.0574 2.1363 0.0000 -2.9949 0.0000
# 3 29.2713 2.1363 73.6426 0.0000 0.1079 0.0000
# 4 0.0000 0.0000 0.0000 9.0061 0.0000 -2.1391
# 5 -69.0300 -2.9949 0.1079 0.0000 40.2457 0.0000
# 6 0.0000 0.0000 0.0000 -2.1391 0.0000 -5.3823
#
#
#
# Elastic Compliance Matrix: (Units=1/GPa)
#
#
# Indices 1 2 3 4 5 6 
#
# 1 0.028442 -0.001894 -0.011321 0.000000 0.048673 0.000000
# 2 -0.001894 0.015102 0.000318 0.000000 -0.002126 0.000000
# 3 -0.011321 0.000318 0.018098 0.000000 -0.019443 0.000000
# 4 0.000000 0.000000 0.000000 0.101459 0.000000 -0.040323
# 5 0.048673 -0.002126 -0.019443 0.000000 0.108226 0.000000
# 6 0.000000 0.000000 0.000000 -0.040323 0.000000 -0.169768
#
#
# Mechanical properties :
#
#
# Convention : Reuss Voigt Hill
#
# Bulk Modulus (GPa) = 27.89603 43.33747 35.61675
# Shear Modulus (GPa) = 35.89290 26.40658 31.14974
#
# Velocity S-wave (km/s) = 3.69963 3.17329 3.44652
# Velocity P-wave (km/s) = 5.37471 5.47289 5.42402
#
# Compressibility (1/GPa) = 0.03584739
#
# Stress axis : x y z
#
# Youngs Moduli (GPa) = 35.15960 66.21437 55.25361
#
# Poissons Ratio (x) = 0.12542 0.62555
# Poissons Ratio (y) = 0.06660 -0.01756
# Poissons Ratio (z) = 0.39805 -0.02105
#
# Static dielectric constant tensor:
#      x y z
#    x 2.138110 0.000000 -0.036720 
#    y 0.000000 2.095030 0.000000 
#    z -0.036720 0.000000 2.049470 
# 
# From -- ./inp_files/86316.got.cif
#   From: 2010.05.17/outbox.cif.g08.bks.cpg/sg12_44_cif.got.tgz:86316.got - 2010.06.03 13:09:07.
