data_PCOD9179030
_publ_section_title
;
Structure prediction by ZEFSAII (Michael W. Deem and Ramdas Pophale) SiO2 
 PCOD9179030
Probable space group: C 2/M
;
_chemical_formula_sum "Si O2"
_cell_formula_units_Z 64
_cell_length_a 19.432518
_cell_length_b 8.654968
_cell_length_c 21.734341
_cell_angle_alpha 90.000000
_cell_angle_beta 93.221672
_cell_angle_gamma 90.000000
_cell_volume 3649.674309
_symmetry_space_group_name_H-M "C 2/M"
_symmetry_group_IT_number 12
_symmetry_cell_setting 'monoclinic'
loop_
_space_group_symop_operation_xyz
x,y,z
-x,y,-z
-x,-y,-z
x,-y,z
1/2+x,1/2+y,z
1/2-x,1/2+y,-z
1/2-x,1/2-y,-z
1/2+x,1/2-y,z
loop_
_atom_site_type_symbol
_atom_site_label
_atom_site_fract_x
_atom_site_fract_y
_atom_site_fract_z
Si Si1 0.282095 0.686856 0.623284
Si Si2 0.505604 0.684340 0.352224
Si Si3 0.173517 0.316036 0.008766
Si Si4 0.405243 0.688200 0.875915
Si Si5 0.875764 0.685847 0.399350
Si Si6 0.544424 0.321235 0.938888
Si Si7 0.118497 0.812458 0.262613
Si Si8 0.894197 0.684987 0.540267
O O1 0.288011 0.500000 0.617542
O O2 0.202624 0.729929 0.617681
O O3 0.319487 0.732565 0.688791
O O4 0.323648 0.762958 0.569464
O O5 0.506311 0.500000 0.353173
O O6 0.428954 0.746156 0.353621
O O7 0.549198 0.736412 0.295038
O O8 0.546424 0.744529 0.414234
O O9 0.177425 0.500000 0.011224
O O10 0.141772 0.252520 0.071393
O O11 0.250000 0.250000 0.000000
O O12 0.115618 0.266741 0.955219
O O13 0.404158 0.500000 0.880329
O O14 0.485856 0.735177 0.888467
O O15 0.379286 0.738732 0.807593
O O16 0.880275 0.500000 0.398287
O O17 0.895283 0.736490 0.469626
O O18 0.561285 0.500000 0.926348
O O19 0.500000 0.318037 0.000000
O O20 0.118257 0.000000 0.260746
O O21 0.900170 0.500000 0.541731
#
# Coordination Sequence:
#
# PCOD9179030 Si02
#       8
#     8   8   8   8   8   8   8   8
#     4   9  18  33  51  71  98 130 164 201 244 296
#     4  10  20  33  50  71  95 126 164 204 245 293
#     4  11  21  33  51  77 108 135 162 198 240 283
#     4   9  17  33  56  76  99 132 165 198 239 287
#     4  10  20  32  47  70  99 128 158 202 256 299
#     4   8  15  29  50  75 101 130 161 193 234 280
#     4   8  16  33  54  72  93 128 168 200 237 288
#     4  10  19  31  48  70  96 126 162 203 251 302
#
# _framework density 17.535812
#
# number of rings (size 3 to 8) (size 9 to 14) (size 15 to 20)
#    0.000    2.625    0.000    4.125    0.000    5.250 
#    0.000    4.375    0.000    3.000    0.000    0.000 
#    0.000    0.000    0.000    0.000    0.000    0.000 
#
# Total GULP energy -178366.872677 kJ/mol
# GULP energy per Si atom -5573.964771 kJ/mol
# Density = 1.749590 g / cm^3
# Si number density = 17.535812 Si / 1000 Ang^3
#
#
#
# Elastic Constant Matrix: (Units=GPa)
#
#
# Indices 1 2 3 4 5 6 
#
# 1 109.0725 28.7223 22.4815 0.0000 -20.7686 0.0000
# 2 28.7223 32.6640 13.3540 0.0000 -4.7658 0.0000
# 3 22.4815 13.3540 73.5928 0.0000 -9.2700 0.0000
# 4 0.0000 0.0000 0.0000 14.5478 0.0000 -3.0740
# 5 -20.7686 -4.7658 -9.2700 0.0000 6.6738 0.0000
# 6 0.0000 0.0000 0.0000 -3.0740 0.0000 30.8789
#
#
#
# Elastic Compliance Matrix: (Units=1/GPa)
#
#
# Indices 1 2 3 4 5 6 
#
# 1 0.027547 -0.014103 0.004452 0.000000 0.081839 0.000000
# 2 -0.014103 0.042290 -0.006169 0.000000 -0.022255 0.000000
# 3 0.004452 -0.006169 0.017621 0.000000 0.033926 0.000000
# 4 0.000000 0.000000 0.000000 0.070216 0.000000 0.006990
# 5 0.081839 -0.022255 0.033926 0.000000 0.435747 0.000000
# 6 0.000000 0.000000 0.000000 0.006990 0.000000 0.033080
#
#
# Mechanical properties :
#
#
# Convention : Reuss Voigt Hill
#
# Bulk Modulus (GPa) = 17.91473 38.27164 28.09318
# Shear Modulus (GPa) = 7.38829 20.47155 13.92992
#
# Velocity S-wave (km/s) = 2.05485 3.42045 2.82151
# Velocity P-wave (km/s) = 3.98348 6.12140 5.16428
#
# Compressibility (1/GPa) = 0.05581999
#
# Stress axis : x y z
#
# Youngs Moduli (GPa) = 36.30146 23.64602 56.75044
#
# Poissons Ratio (x) = 0.33347 -0.25268
# Poissons Ratio (y) = 0.51194 0.35010
# Poissons Ratio (z) = -0.16163 0.14588
#
# Static dielectric constant tensor:
#      x y z
#    x 1.606930 0.000000 0.021460 
#    y 0.000000 1.594740 0.000000 
#    z 0.021460 0.000000 1.600060 
# 
# From -- ./inp_files/341984.got.cif
#   From: 2010.05.17/outbox.cif.g08.bks.cpg/sg12_171_cif.got.tgz:341984.got - 2010.06.03 13:09:07.
