data_PCOD9179128
_publ_section_title
;
Structure prediction by ZEFSAII (Michael W. Deem and Ramdas Pophale) SiO2 
 PCOD9179128
Probable space group: C 2/M
;
_chemical_formula_sum "Si O2"
_cell_formula_units_Z 56
_cell_length_a 29.167504
_cell_length_b 15.018737
_cell_length_c 9.584009
_cell_angle_alpha 90.000000
_cell_angle_beta 129.852209
_cell_angle_gamma 90.000000
_cell_volume 3223.082255
_symmetry_space_group_name_H-M "C 2/M"
_symmetry_group_IT_number 12
_symmetry_cell_setting 'monoclinic'
loop_
_space_group_symop_operation_xyz
x,y,z
-x,y,-z
-x,-y,-z
x,-y,z
1/2+x,1/2+y,z
1/2-x,1/2+y,-z
1/2-x,1/2-y,-z
1/2+x,1/2-y,z
loop_
_atom_site_type_symbol
_atom_site_label
_atom_site_fract_x
_atom_site_fract_y
_atom_site_fract_z
Si Si1 0.547117 0.166771 0.985170
Si Si2 0.829890 0.604357 0.889407
Si Si3 0.686971 0.102225 0.558806
Si Si4 0.968378 0.732599 0.575964
Si Si5 0.109087 0.227676 0.328295
Si Si6 0.632986 0.895979 0.740332
Si Si7 0.720789 0.394066 0.486446
O O1 0.515023 0.188977 0.776421
O O2 0.500000 0.121695 0.000000
O O3 0.607795 0.115560 0.069518
O O4 0.567617 0.254003 0.113337
O O5 0.817583 0.500000 0.882266
O O6 0.773426 0.639616 0.693146
O O7 0.841332 0.641881 0.065644
O O8 0.640790 0.176600 0.417308
O O9 0.682944 0.107022 0.717274
O O10 0.750277 0.119658 0.609892
O O11 0.670024 0.000000 0.485437
O O12 0.928298 0.791880 0.603650
O O13 0.924000 0.657999 0.425838
O O14 0.000000 0.772863 0.500000
O O15 0.160432 0.157897 0.396125
O O16 0.616159 0.000000 0.727161
O O17 0.712332 0.500000 0.488333
#
# Coordination Sequence:
#
# PCOD9179128 Si02
#       7
#     8   8   8   8   8   8   8
#     4  10  20  31  47  71 103 135 173 213 250 302
#     4  10  19  31  48  73 106 139 169 208 254 306
#     4   9  17  30  49  74 103 135 167 201 246 308
#     4  10  19  33  50  72 101 136 177 209 249 309
#     4  10  20  34  53  74 104 138 170 218 265 299
#     4   9  18  31  46  70 108 143 168 199 244 303
#     4  10  20  35  55  76 100 134 179 220 259 306
#
# _framework density 17.374672
#
# number of rings (size 3 to 8) (size 9 to 14) (size 15 to 20)
#    0.000    2.286    2.857    0.429    0.000    1.143 
#    0.000    5.714    0.000    4.286    0.000    0.000 
#    0.000    0.000    0.000    0.000    0.000    0.000 
#
# Total GULP energy -155870.868282 kJ/mol
# GULP energy per Si atom -5566.816724 kJ/mol
# Density = 1.733513 g / cm^3
# Si number density = 17.374672 Si / 1000 Ang^3
#
#
#
# Elastic Constant Matrix: (Units=GPa)
#
#
# Indices 1 2 3 4 5 6 
#
# 1 108.3092 26.2393 36.0952 0.0000 -12.8348 0.0000
# 2 26.2393 27.1750 11.9363 0.0000 0.5583 0.0000
# 3 36.0952 11.9363 56.7129 0.0000 -14.6498 0.0000
# 4 0.0000 0.0000 0.0000 6.0236 0.0000 1.9967
# 5 -12.8348 0.5583 -14.6498 0.0000 30.1477 0.0000
# 6 0.0000 0.0000 0.0000 1.9967 0.0000 15.7742
#
#
#
# Elastic Compliance Matrix: (Units=1/GPa)
#
#
# Indices 1 2 3 4 5 6 
#
# 1 0.014342 -0.011355 -0.005840 0.000000 0.003478 0.000000
# 2 -0.011355 0.050380 -0.005565 0.000000 -0.008471 0.000000
# 3 -0.005840 -0.005565 0.025049 0.000000 0.009789 0.000000
# 4 0.000000 0.000000 0.000000 0.173285 0.000000 -0.021934
# 5 0.003478 -0.008471 0.009789 0.000000 0.039565 0.000000
# 6 0.000000 0.000000 0.000000 -0.021934 0.000000 0.066171
#
#
# Mechanical properties :
#
#
# Convention : Reuss Voigt Hill
#
# Bulk Modulus (GPa) = 22.59730 37.85986 30.22858
# Shear Modulus (GPa) = 11.65332 18.25085 14.95208
#
# Velocity S-wave (km/s) = 2.59261 3.24455 2.93673
# Velocity P-wave (km/s) = 4.69002 5.98946 5.37912
#
# Compressibility (1/GPa) = 0.04425308
#
# Stress axis : x y z
#
# Youngs Moduli (GPa) = 69.72557 19.84896 39.92112
#
# Poissons Ratio (x) = 0.22538 0.23313
# Poissons Ratio (y) = 0.79170 0.22217
# Poissons Ratio (z) = 0.40718 0.11046
#
# Static dielectric constant tensor:
#      x y z
#    x 1.636850 0.000000 -0.022920 
#    y 0.000000 1.577600 0.000000 
#    z -0.022920 0.000000 1.617440 
# 
# From -- ./inp_files/111709.got.cif
#   From: 2010.05.17/outbox.cif.g08.bks.cpg/sg12_56_cif.got.tgz:111709.got - 2010.06.03 13:09:07.
