data_PCOD9179748
_publ_section_title
;
Structure prediction by ZEFSAII (Michael W. Deem and Ramdas Pophale) SiO2 
 PCOD9179748
Probable space group: C 2/M
;
_chemical_formula_sum "Si O2"
_cell_formula_units_Z 64
_cell_length_a 22.155745
_cell_length_b 10.257741
_cell_length_c 22.251659
_cell_angle_alpha 90.000000
_cell_angle_beta 130.110115
_cell_angle_gamma 90.000000
_cell_volume 3867.699470
_symmetry_space_group_name_H-M "C 2/M"
_symmetry_group_IT_number 12
_symmetry_cell_setting 'monoclinic'
loop_
_space_group_symop_operation_xyz
x,y,z
-x,y,-z
-x,-y,-z
x,-y,z
1/2+x,1/2+y,z
1/2-x,1/2+y,-z
1/2-x,1/2-y,-z
1/2+x,1/2-y,z
loop_
_atom_site_type_symbol
_atom_site_label
_atom_site_fract_x
_atom_site_fract_y
_atom_site_fract_z
Si Si1 0.299908 0.142922 0.066117
Si Si2 0.468526 0.847724 0.217478
Si Si3 0.932563 0.349665 0.407066
Si Si4 0.751542 0.271919 0.164385
Si Si5 0.746606 0.144225 0.697367
Si Si6 0.583772 0.347160 0.712497
Si Si7 0.876125 0.648656 0.760761
Si Si8 0.414936 0.847698 0.926189
O O1 0.393944 0.164536 0.124570
O O2 0.277959 0.149076 0.122806
O O3 0.281640 0.000000 0.030031
O O4 0.250000 0.250000 0.000000
O O5 0.454921 0.737834 0.258864
O O6 0.550831 0.828932 0.236529
O O7 0.465279 0.000000 0.237445
O O8 0.936986 0.500000 0.385355
O O9 0.844737 0.337823 0.378251
O O10 0.937495 0.237007 0.360309
O O11 0.000000 0.336327 0.500000
O O12 0.751402 0.345193 0.228314
O O13 0.821004 0.164996 0.217458
O O14 0.663641 0.218225 0.098255
O O15 0.804461 0.252030 0.708392
O O16 0.772789 0.000000 0.696605
O O17 0.562240 0.500000 0.696820
O O18 0.848380 0.500000 0.735253
O O19 0.906726 0.660789 0.848904
O O20 0.413143 0.000000 0.942505
O O21 0.500000 0.793173 0.000000
#
# Coordination Sequence:
#
# PCOD9179748 Si02
#       8
#     8   8   8   8   8   8   8   8
#     4  10  21  33  48  67  91 124 164 210 257 300
#     4   9  19  35  51  67  94 134 173 204 242 301
#     4   9  18  33  54  80 108 136 162 189 233 297
#     4   9  18  32  48  64  95 127 162 196 249 300
#     4   9  17  31  53  75  97 126 159 197 241 287
#     4  10  19  31  51  78 102 127 162 207 251 286
#     4   9  18  32  49  70  95 127 169 206 243 293
#     4   9  17  27  45  67  89 120 161 205 245 287
#
# _framework density 16.547305000000001
#
# number of rings (size 3 to 8) (size 9 to 14) (size 15 to 20)
#    0.000    2.750    0.000    1.125    1.750    9.250 
#    0.000    0.000    0.000    2.625    0.000    0.000 
#    0.000    0.000    0.000    0.000    0.000    0.000 
#
# Total GULP energy -178217.432754 kJ/mol
# GULP energy per Si atom -5569.294774 kJ/mol
# Density = 1.650964 g / cm^3
# Si number density = 16.547305 Si / 1000 Ang^3
#
#
#
# Elastic Constant Matrix: (Units=GPa)
#
#
# Indices 1 2 3 4 5 6 
#
# 1 83.5704 59.2513 30.1692 0.0000 19.2992 0.0000
# 2 59.2513 143.4102 52.2739 0.0000 11.5720 0.0000
# 3 30.1692 52.2739 67.1387 0.0000 25.2302 0.0000
# 4 0.0000 0.0000 0.0000 17.5529 0.0000 2.1490
# 5 19.2992 11.5720 25.2302 0.0000 20.8533 0.0000
# 6 0.0000 0.0000 0.0000 2.1490 0.0000 19.6991
#
#
#
# Elastic Compliance Matrix: (Units=1/GPa)
#
#
# Indices 1 2 3 4 5 6 
#
# 1 0.021388 -0.009133 0.005564 0.000000 -0.021458 0.000000
# 2 -0.009133 0.014212 -0.013155 0.000000 0.016482 0.000000
# 3 0.005564 -0.013155 0.040028 0.000000 -0.046279 0.000000
# 4 0.000000 0.000000 0.000000 0.057742 0.000000 -0.006299
# 5 -0.021458 0.016482 -0.046279 0.000000 0.114658 0.000000
# 6 0.000000 0.000000 0.000000 -0.006299 0.000000 0.051451
#
#
# Mechanical properties :
#
#
# Convention : Reuss Voigt Hill
#
# Bulk Modulus (GPa) = 23.70854 64.16759 43.93806
# Shear Modulus (GPa) = 14.40976 21.78273 18.09625
#
# Velocity S-wave (km/s) = 2.95417 3.63215 3.31056
# Velocity P-wave (km/s) = 5.09853 7.51348 6.42057
#
# Compressibility (1/GPa) = 0.04217889
#
# Stress axis : x y z
#
# Youngs Moduli (GPa) = 46.75485 70.36503 24.98255
#
# Poissons Ratio (x) = 0.64267 -0.13900
# Poissons Ratio (y) = 0.42703 0.32864
# Poissons Ratio (z) = -0.26014 0.92565
#
# Static dielectric constant tensor:
#      x y z
#    x 1.557490 0.000000 -0.001970 
#    y 0.000000 1.564280 0.000000 
#    z -0.001970 0.000000 1.548280 
# 
# From -- ./inp_files/348593.got.cif
#   From: 2010.05.17/outbox.cif.g08.bks.cpg/sg12_175_cif.got.tgz:348593.got - 2010.06.03 13:09:07.
