data_PCOD9179673
_publ_section_title
;
Structure prediction by ZEFSAII (Michael W. Deem and Ramdas Pophale) SiO2 
 PCOD9179673
Probable space group: C 2/M
;
_chemical_formula_sum "Si O2"
_cell_formula_units_Z 48
_cell_length_a 9.925739
_cell_length_b 14.577753
_cell_length_c 14.200094
_cell_angle_alpha 90.000000
_cell_angle_beta 74.432763
_cell_angle_gamma 90.000000
_cell_volume 1979.308612
_symmetry_space_group_name_H-M "C 2/M"
_symmetry_group_IT_number 12
_symmetry_cell_setting 'monoclinic'
loop_
_space_group_symop_operation_xyz
x,y,z
-x,y,-z
-x,-y,-z
x,-y,z
1/2+x,1/2+y,z
1/2-x,1/2+y,-z
1/2-x,1/2-y,-z
1/2+x,1/2-y,z
loop_
_atom_site_type_symbol
_atom_site_label
_atom_site_fract_x
_atom_site_fract_y
_atom_site_fract_z
Si Si1 0.158702 0.888229 0.979886
Si Si2 0.693375 0.340961 0.462341
Si Si3 0.752991 0.605804 0.160652
Si Si4 0.250499 0.888444 0.752776
Si Si5 0.985655 0.860738 0.340285
Si Si6 0.057183 0.393680 0.712918
O O1 0.231679 0.871100 0.867165
O O2 0.152357 0.000000 0.991052
O O3 0.228081 0.852123 0.062841
O O4 0.000000 0.855302 0.000000
O O5 0.750000 0.250000 0.500000
O O6 0.586886 0.314223 0.398778
O O7 0.618187 0.400321 0.557899
O O8 0.824213 0.388507 0.388255
O O9 0.793561 0.500000 0.137427
O O10 0.607150 0.602297 0.247340
O O11 0.873257 0.645980 0.205177
O O12 0.134674 0.836460 0.712483
O O13 0.409324 0.857290 0.705270
O O14 0.229611 0.000000 0.740237
O O15 0.026844 0.500000 0.738543
#
# Coordination Sequence:
#
# PCOD9179673 Si02
#       6
#     8   8   8   8   8   8
#     4   9  15  25  47  78 115 154 187 226 271 331
#     4  10  23  41  57  78 106 146 195 240 287 350
#     4   9  16  30  51  80 116 149 184 225 273 332
#     4  10  19  31  50  84 120 150 187 231 287 340
#     4  10  20  34  56  77  98 140 187 233 280 334
#     4   9  20  35  53  82 120 152 184 237 292 335
#
# _framework density 24.250893000000001
#
# number of rings (size 3 to 8) (size 9 to 14) (size 15 to 20)
#    0.000    2.500    1.667    0.500    0.000    6.000 
#    0.000   10.833    0.000    0.000    0.000   21.000 
#    0.000    0.000    0.000    0.000    0.000    0.000 
#
# Total GULP energy -133609.115220 kJ/mol
# GULP energy per Si atom -5567.046468 kJ/mol
# Density = 2.419570 g / cm^3
# Si number density = 24.250893 Si / 1000 Ang^3
#
#
#
# Elastic Constant Matrix: (Units=GPa)
#
#
# Indices 1 2 3 4 5 6 
#
# 1 164.8561 31.3543 36.4239 0.0000 31.0315 0.0000
# 2 31.3543 53.6057 40.9585 0.0000 21.7849 0.0000
# 3 36.4239 40.9585 133.6962 0.0000 26.8968 0.0000
# 4 0.0000 0.0000 0.0000 6.5243 0.0000 7.7255
# 5 31.0315 21.7849 26.8968 0.0000 48.8963 0.0000
# 6 0.0000 0.0000 0.0000 7.7255 0.0000 -12.3063
#
#
#
# Elastic Compliance Matrix: (Units=1/GPa)
#
#
# Indices 1 2 3 4 5 6 
#
# 1 0.007270 -0.002528 -0.000567 0.000000 -0.003175 0.000000
# 2 -0.002528 0.028025 -0.006418 0.000000 -0.007351 0.000000
# 3 -0.000567 -0.006418 0.010067 0.000000 -0.002318 0.000000
# 4 0.000000 0.000000 0.000000 0.087919 0.000000 0.055193
# 5 -0.003175 -0.007351 -0.002318 0.000000 0.027017 0.000000
# 6 0.000000 0.000000 0.000000 0.055193 0.000000 -0.046611
#
#
# Mechanical properties :
#
#
# Convention : Reuss Voigt Hill
#
# Bulk Modulus (GPa) = 37.97328 63.29238 50.63283
# Shear Modulus (GPa) = 35.33804 24.85094 30.09449
#
# Velocity S-wave (km/s) = 3.82145 3.20463 3.52655
# Velocity P-wave (km/s) = 5.92991 6.31257 6.12423
#
# Compressibility (1/GPa) = 0.02633431
#
# Stress axis : x y z
#
# Youngs Moduli (GPa) = 137.55590 35.68296 99.33785
#
# Poissons Ratio (x) = 0.09022 0.05634
# Poissons Ratio (y) = 0.34779 0.63753
# Poissons Ratio (z) = 0.07802 0.22901
#
# Static dielectric constant tensor:
#      x y z
#    x 1.945120 0.000000 -0.019330 
#    y 0.000000 2.123480 0.000000 
#    z -0.019330 0.000000 1.914070 
# 
# From -- ./inp_files/196506.got.cif
#   From: 2010.05.17/outbox.cif.g08.bks.cpg/sg12_99_cif.got.tgz:196506.got - 2010.06.03 13:09:07.
