data_PCOD9179654
_publ_section_title
;
Structure prediction by ZEFSAII (Michael W. Deem and Ramdas Pophale) SiO2 
 PCOD9179654
Probable space group: C 2/M
;
_chemical_formula_sum "Si O2"
_cell_formula_units_Z 40
_cell_length_a 26.972834
_cell_length_b 13.161060
_cell_length_c 18.192543
_cell_angle_alpha 90.000000
_cell_angle_beta 17.805340
_cell_angle_gamma 90.000000
_cell_volume 1974.811632
_symmetry_space_group_name_H-M "C 2/M"
_symmetry_group_IT_number 12
_symmetry_cell_setting 'monoclinic'
loop_
_space_group_symop_operation_xyz
x,y,z
-x,y,-z
-x,-y,-z
x,-y,z
1/2+x,1/2+y,z
1/2-x,1/2+y,-z
1/2-x,1/2-y,-z
1/2+x,1/2-y,z
loop_
_atom_site_type_symbol
_atom_site_label
_atom_site_fract_x
_atom_site_fract_y
_atom_site_fract_z
Si Si1 0.180935 0.892891 0.274844
Si Si2 0.375988 0.217936 0.885660
Si Si3 0.988212 0.806856 0.869548
Si Si4 0.230279 0.738756 0.335524
Si Si5 0.679023 0.119010 0.654273
O O1 0.190913 0.806001 0.320159
O O2 0.000000 0.894131 0.500000
O O3 0.220451 0.000000 0.255279
O O4 0.294478 0.872788 0.045312
O O5 0.400379 0.305706 0.913994
O O6 0.558058 0.193037 0.602471
O O7 0.250000 0.250000 0.000000
O O8 0.153044 0.870220 0.628566
O O9 0.046951 0.689261 0.799772
O O10 0.872637 0.831872 0.101545
O O11 0.290884 0.815822 0.313492
O O12 0.639959 0.000000 0.719986
#
# Coordination Sequence:
#
# PCOD9179654 Si02
#       5
#     8   8   8   8   8
#     4  10  19  31  50  80 108 133 178 225 259 308
#     4  10  19  34  52  76 108 145 175 213 268 320
#     4   9  21  34  53  83 110 138 182 227 267 323
#     4  10  19  34  57  80 108 143 181 218 269 323
#     4  10  20  37  58  80 109 143 180 225 275 324
#
# _framework density 20.255096999999999
#
# number of rings (size 3 to 8) (size 9 to 14) (size 15 to 20)
#    0.000    2.200    2.000    1.200    0.000    4.800 
#    0.000    1.000    0.000   15.600    0.000    5.600 
#    0.000    0.000    0.000    0.000    0.000    0.000 
#
# Total GULP energy -111438.968239 kJ/mol
# GULP energy per Si atom -5571.948412 kJ/mol
# Density = 2.020900 g / cm^3
# Si number density = 20.255097 Si / 1000 Ang^3
#
#
#
# Elastic Constant Matrix: (Units=GPa)
#
#
# Indices 1 2 3 4 5 6 
#
# 1 99.3314 5.6904 35.3701 -0.0002 -8.1447 0.0001
# 2 5.6904 21.2556 4.9382 -0.0002 -4.2794 0.0001
# 3 35.3701 4.9382 158.0196 -0.0003 20.8118 0.0002
# 4 -0.0002 -0.0002 -0.0003 6.6229 0.0003 4.3907
# 5 -8.1447 -4.2794 20.8118 0.0003 37.3447 -0.0001
# 6 0.0001 0.0001 0.0002 4.3907 -0.0001 12.2778
#
#
#
# Elastic Compliance Matrix: (Units=1/GPa)
#
#
# Indices 1 2 3 4 5 6 
#
# 1 0.011587 -0.001568 -0.003080 0.000000 0.004064 0.000000
# 2 -0.001568 0.049234 -0.002035 0.000002 0.006434 -0.000001
# 3 -0.003080 -0.002035 0.007771 0.000001 -0.005235 0.000000
# 4 0.000000 0.000002 0.000001 0.197913 -0.000002 -0.070776
# 5 0.004064 0.006434 -0.005235 -0.000002 0.031319 0.000001
# 6 0.000000 -0.000001 0.000000 -0.070776 0.000001 0.106758
#
#
# Mechanical properties :
#
#
# Convention : Reuss Voigt Hill
#
# Bulk Modulus (GPa) = 18.10736 41.17822 29.64279
# Shear Modulus (GPa) = 11.45852 26.75627 19.10739
#
# Velocity S-wave (km/s) = 2.38105 3.63845 3.07471
# Velocity P-wave (km/s) = 4.06426 6.16644 5.22223
#
# Compressibility (1/GPa) = 0.05522617
#
# Stress axis : x y z
#
# Youngs Moduli (GPa) = 86.30367 20.31100 128.68689
#
# Poissons Ratio (x) = 0.03185 0.39632
# Poissons Ratio (y) = 0.13535 0.26187
# Poissons Ratio (z) = 0.26579 0.04133
#
# Static dielectric constant tensor:
#      x y z
#    x 1.742960 0.000000 0.012310 
#    y 0.000000 1.684640 0.000000 
#    z 0.012310 0.000000 1.832050 
# 
# From -- ./inp_files/141430.got.cif
#   From: 2010.05.17/outbox.cif.g08.bks.cpg/sg12_71_cif.got.tgz:141430.got - 2010.06.03 13:09:07.
