data_PCOD9179740
_publ_section_title
;
Structure prediction by ZEFSAII (Michael W. Deem and Ramdas Pophale) SiO2 
 PCOD9179740
Probable space group: C 2/M
;
_chemical_formula_sum "Si O2"
_cell_formula_units_Z 56
_cell_length_a 20.891221
_cell_length_b 7.511310
_cell_length_c 27.853555
_cell_angle_alpha 90.000000
_cell_angle_beta 144.258913
_cell_angle_gamma 90.000000
_cell_volume 2553.081940
_symmetry_space_group_name_H-M "C 2/M"
_symmetry_group_IT_number 12
_symmetry_cell_setting 'monoclinic'
loop_
_space_group_symop_operation_xyz
x,y,z
-x,y,-z
-x,-y,-z
x,-y,z
1/2+x,1/2+y,z
1/2-x,1/2+y,-z
1/2-x,1/2-y,-z
1/2+x,1/2-y,z
loop_
_atom_site_type_symbol
_atom_site_label
_atom_site_fract_x
_atom_site_fract_y
_atom_site_fract_z
Si Si1 0.432967 0.782147 0.221163
Si Si2 0.457704 0.782191 0.347032
Si Si3 0.509866 0.282133 0.061648
Si Si4 0.696126 0.212036 0.518809
Si Si5 0.851837 0.295915 0.700702
Si Si6 0.718701 0.287052 0.035639
Si Si7 0.772549 0.795088 0.755130
O O1 0.453526 0.728940 0.288570
O O2 0.532355 0.721370 0.247577
O O3 0.316112 0.722336 0.129602
O O4 0.434989 0.000000 0.221983
O O5 0.570861 0.722921 0.440120
O O6 0.346693 0.719704 0.305141
O O7 0.461683 0.000000 0.350437
O O8 0.511012 0.500000 0.065034
O O9 0.623122 0.216877 0.153569
O O10 0.500000 0.234284 0.000000
O O11 0.401654 0.219987 0.023816
O O12 0.750000 0.250000 0.500000
O O13 0.769224 0.290443 0.605640
O O14 0.695891 0.000000 0.526001
O O15 0.871018 0.500000 0.726468
O O16 0.800286 0.206894 0.715872
O O17 0.715614 0.500000 0.039971
O O18 0.750000 0.250000 0.000000
O O19 0.765880 0.000000 0.767641
#
# Coordination Sequence:
#
# PCOD9179740 Si02
#       7
#     8   8   8   8   8   8   8
#     4   9  17  32  54  77 101 141 185 218 262 322
#     4   9  18  34  57  80 104 138 182 222 262 325
#     4   9  17  31  54  83 109 138 181 231 271 310
#     4  11  21  37  60  85 110 139 181 226 273 325
#     4  11  22  37  56  79 113 149 183 223 272 326
#     4  10  19  31  51  77 107 138 175 221 267 316
#     4  10  20  35  56  82 111 143 183 227 272 322
#
# _framework density 21.934273999999998
#
# number of rings (size 3 to 8) (size 9 to 14) (size 15 to 20)
#    0.000    2.143    1.429    2.571    0.000    4.000 
#    0.000    5.000    0.000    3.429    0.000    0.000 
#    0.000    0.000    0.000    0.000    0.000    0.000 
#
# Total GULP energy -156489.967224 kJ/mol
# GULP energy per Si atom -5588.927401 kJ/mol
# Density = 2.188435 g / cm^3
# Si number density = 21.934274 Si / 1000 Ang^3
#
#
#
# Elastic Constant Matrix: (Units=GPa)
#
#
# Indices 1 2 3 4 5 6 
#
# 1 126.8948 -8.0692 42.7518 -0.0001 33.7089 0.0006
# 2 -8.0692 59.6563 -4.6764 0.0002 8.1982 0.0026
# 3 42.7518 -4.6764 129.2880 -0.0001 29.7841 0.0000
# 4 -0.0001 0.0002 -0.0001 7.0925 0.0000 -2.6573
# 5 33.7089 8.1982 29.7841 0.0000 46.3647 0.0000
# 6 0.0006 0.0026 0.0000 -2.6573 0.0000 17.8226
#
#
#
# Elastic Compliance Matrix: (Units=1/GPa)
#
#
# Indices 1 2 3 4 5 6 
#
# 1 0.010440 0.002209 -0.001800 0.000000 -0.006825 -0.000001
# 2 0.002209 0.017917 0.001194 -0.000002 -0.005541 -0.000003
# 3 -0.001800 0.001194 0.009531 0.000000 -0.005025 0.000000
# 4 0.000000 -0.000002 0.000000 0.149336 0.000001 0.022265
# 5 -0.006825 -0.005541 -0.005025 0.000001 0.030738 0.000001
# 6 -0.000001 -0.000003 0.000000 0.022265 0.000001 0.059428
#
#
# Mechanical properties :
#
#
# Convention : Reuss Voigt Hill
#
# Bulk Modulus (GPa) = 24.33484 41.76129 33.04807
# Shear Modulus (GPa) = 17.36825 33.31150 25.33987
#
# Velocity S-wave (km/s) = 2.81700 3.90127 3.40260
# Velocity P-wave (km/s) = 4.65824 6.27486 5.52599
#
# Compressibility (1/GPa) = 0.04109335
#
# Stress axis : x y z
#
# Youngs Moduli (GPa) = 95.78095 55.81434 104.92422
#
# Poissons Ratio (x) = -0.12329 0.18889
# Poissons Ratio (y) = -0.21158 -0.12529
# Poissons Ratio (z) = 0.17243 -0.06665
#
# Static dielectric constant tensor:
#      x y z
#    x 1.733310 0.000000 0.046870 
#    y 0.000000 1.899520 0.000000 
#    z 0.046870 0.000000 1.778790 
# 
# From -- ./inp_files/363199.got.cif
#   From: 2010.05.17/outbox.cif.g08.bks.cpg/sg12_182_cif.got.tgz:363199.got - 2010.06.03 13:09:07.
