data_PCOD9179991
_publ_section_title
;
Structure prediction by ZEFSAII (Michael W. Deem and Ramdas Pophale) SiO2 
 PCOD9179991
Probable space group: C 2/M
;
_chemical_formula_sum "Si O2"
_cell_formula_units_Z 64
_cell_length_a 29.132223
_cell_length_b 20.121345
_cell_length_c 19.043233
_cell_angle_alpha 90.000000
_cell_angle_beta 163.727337
_cell_angle_gamma 90.000000
_cell_volume 3127.900881
_symmetry_space_group_name_H-M "C 2/M"
_symmetry_group_IT_number 12
_symmetry_cell_setting 'monoclinic'
loop_
_space_group_symop_operation_xyz
x,y,z
-x,y,-z
-x,-y,-z
x,-y,z
1/2+x,1/2+y,z
1/2-x,1/2+y,-z
1/2-x,1/2-y,-z
1/2+x,1/2-y,z
loop_
_atom_site_type_symbol
_atom_site_label
_atom_site_fract_x
_atom_site_fract_y
_atom_site_fract_z
Si Si1 0.089620 0.274824 0.922811
Si Si2 0.933880 0.212449 0.476206
Si Si3 0.619610 0.345513 0.452045
Si Si4 0.675532 0.574172 0.963072
Si Si5 0.604566 0.165989 0.794939
Si Si6 0.194848 0.422401 0.696032
Si Si7 0.044009 0.078321 0.146434
Si Si8 0.312760 0.824855 0.607097
O O1 0.113051 0.320819 0.889462
O O2 0.985872 0.213027 0.740492
O O3 0.993531 0.317622 0.840411
O O4 0.264768 0.250679 0.207167
O O5 0.878087 0.169540 0.461662
O O6 0.000000 0.181746 0.500000
O O7 0.066492 0.265613 0.698292
O O8 0.508915 0.411187 0.282642
O O9 0.783787 0.343772 0.646302
O O10 0.689814 0.500000 0.955609
O O11 0.733521 0.629842 0.994393
O O12 0.796125 0.580570 0.206596
O O13 0.450437 0.119217 0.550467
O O14 0.176842 0.500000 0.649555
O O15 0.375061 0.400578 0.935635
O O16 0.195180 0.124208 0.392008
O O17 0.075530 0.000000 0.207639
O O18 0.000000 0.084800 0.000000
O O19 0.250000 0.750000 0.500000
#
# Coordination Sequence:
#
# PCOD9179991 Si02
#       8
#     8   8   8   8   8   8   8   8
#     4  10  22  38  56  85 116 153 196 244 301 353
#     4  11  22  36  59  83 114 155 192 242 299 360
#     4  10  21  38  58  84 115 155 197 243 302 352
#     4  11  21  35  58  85 116 151 193 242 291 358
#     4  11  21  34  56  84 119 152 188 241 296 358
#     4  10  19  31  52  83 116 150 186 230 291 356
#     4  10  20  35  58  86 120 161 199 247 312 372
#     4  10  21  38  56  86 123 157 206 252 298 366
#
# _framework density 20.461006000000001
#
# number of rings (size 3 to 8) (size 9 to 14) (size 15 to 20)
#    0.000    1.625    1.250    4.500    1.750    3.500 
#    0.000    0.625    0.000    4.875    0.000    1.750 
#    0.000    0.000    0.000    0.000    0.000    0.000 
#
# Total GULP energy -178642.751245 kJ/mol
# GULP energy per Si atom -5582.585976 kJ/mol
# Density = 2.041444 g / cm^3
# Si number density = 20.461006 Si / 1000 Ang^3
#
#
#
# Elastic Constant Matrix: (Units=GPa)
#
#
# Indices 1 2 3 4 5 6 
#
# 1 138.1570 23.2024 26.9740 0.0000 10.8687 0.0000
# 2 23.2024 66.7045 15.7087 0.0000 5.0648 0.0000
# 3 26.9740 15.7087 55.8162 0.0000 10.5372 0.0000
# 4 0.0000 0.0000 0.0000 34.7975 0.0000 2.5024
# 5 10.8687 5.0648 10.5372 0.0000 26.5644 0.0000
# 6 0.0000 0.0000 0.0000 2.5024 0.0000 23.3058
#
#
#
# Elastic Compliance Matrix: (Units=1/GPa)
#
#
# Indices 1 2 3 4 5 6 
#
# 1 0.008328 -0.002027 -0.003117 0.000000 -0.001784 0.000000
# 2 -0.002027 0.016595 -0.003513 0.000000 -0.000941 0.000000
# 3 -0.003117 -0.003513 0.021666 0.000000 -0.006649 0.000000
# 4 0.000000 0.000000 0.000000 0.028961 0.000000 -0.003110
# 5 -0.001784 -0.000941 -0.006649 0.000000 0.041191 0.000000
# 6 0.000000 0.000000 0.000000 -0.003110 0.000000 0.043242
#
#
# Mechanical properties :
#
#
# Convention : Reuss Voigt Hill
#
# Bulk Modulus (GPa) = 34.15952 43.60534 38.88243
# Shear Modulus (GPa) = 26.72989 29.91971 28.32480
#
# Velocity S-wave (km/s) = 3.61831 3.82812 3.72470
# Velocity P-wave (km/s) = 5.84700 6.39508 6.12717
#
# Compressibility (1/GPa) = 0.02927442
#
# Stress axis : x y z
#
# Youngs Moduli (GPa) = 120.08369 60.25756 46.15457
#
# Poissons Ratio (x) = 0.12215 0.14387
# Poissons Ratio (y) = 0.24342 0.16215
# Poissons Ratio (z) = 0.37431 0.21170
#
# Static dielectric constant tensor:
#      x y z
#    x 1.801650 0.000000 0.031290 
#    y 0.000000 1.720830 0.000000 
#    z 0.031290 0.000000 1.733340 
# 
# From -- ./inp_files/135416.got.cif
#   From: 2010.05.17/outbox.cif.g08.bks.cpg/sg12_68_cif.got.tgz:135416.got - 2010.06.03 13:09:07.
