data_PCOD9179585
_publ_section_title
;
Structure prediction by ZEFSAII (Michael W. Deem and Ramdas Pophale) SiO2 
 PCOD9179585
Probable space group: C 2/M
;
_chemical_formula_sum "Si O2"
_cell_formula_units_Z 48
_cell_length_a 28.364824
_cell_length_b 12.966449
_cell_length_c 11.045740
_cell_angle_alpha 90.000000
_cell_angle_beta 34.495408
_cell_angle_gamma 90.000000
_cell_volume 2300.770732
_symmetry_space_group_name_H-M "C 2/M"
_symmetry_group_IT_number 12
_symmetry_cell_setting 'monoclinic'
loop_
_space_group_symop_operation_xyz
x,y,z
-x,y,-z
-x,-y,-z
x,-y,z
1/2+x,1/2+y,z
1/2-x,1/2+y,-z
1/2-x,1/2-y,-z
1/2+x,1/2-y,z
loop_
_atom_site_type_symbol
_atom_site_label
_atom_site_fract_x
_atom_site_fract_y
_atom_site_fract_z
Si Si1 0.469871 0.678216 0.834215
Si Si2 0.382449 0.383149 0.778239
Si Si3 0.696961 0.342909 0.666300
Si Si4 0.218366 0.332836 0.266805
Si Si5 0.447627 0.822088 0.501438
Si Si6 0.157008 0.889293 0.485497
O O1 0.435543 0.618425 0.789754
O O2 0.490502 0.791266 0.737691
O O3 0.557568 0.632280 0.691579
O O4 0.394929 0.681041 0.087260
O O5 0.387860 0.500000 0.719100
O O6 0.414565 0.288514 0.627652
O O7 0.290152 0.353446 0.017566
O O8 0.750000 0.250000 0.500000
O O9 0.749315 0.379347 0.673538
O O10 0.681247 0.399377 0.574171
O O11 0.132599 0.372345 0.389979
O O12 0.202535 0.210585 0.330439
O O13 0.500000 0.871182 0.500000
O O14 0.177111 0.000000 0.384984
#
# Coordination Sequence:
#
# PCOD9179585 Si02
#       6
#     8   8   8   8   8   8
#     4   9  18  30  47  75 107 134 161 200 251 307
#     4  10  19  31  50  76 106 138 168 202 249 304
#     4   9  18  31  46  68 102 137 167 198 239 297
#     4   9  19  34  48  70 104 138 171 206 250 304
#     4   9  18  31  49  72 100 133 169 208 253 300
#     4  10  19  31  50  77 107 136 166 205 254 305
#
# _framework density 20.862573000000001
#
# number of rings (size 3 to 8) (size 9 to 14) (size 15 to 20)
#    0.000    2.667    0.000    1.500    0.000    9.667 
#    0.000    0.000    0.000    0.500    0.000   56.000 
#    0.000  140.000    0.000    0.000    0.000    0.000 
#
# Total GULP energy -133617.999477 kJ/mol
# GULP energy per Si atom -5567.416645 kJ/mol
# Density = 2.081509 g / cm^3
# Si number density = 20.862573 Si / 1000 Ang^3
#
#
#
# Elastic Constant Matrix: (Units=GPa)
#
#
# Indices 1 2 3 4 5 6 
#
# 1 137.2606 15.3986 9.4779 0.0000 -19.3638 0.0000
# 2 15.3986 71.5926 27.6029 0.0000 -5.5727 0.0000
# 3 9.4779 27.6029 57.2042 0.0000 -4.9906 0.0000
# 4 0.0000 0.0000 0.0000 -2.2469 0.0000 8.6017
# 5 -19.3638 -5.5727 -4.9906 0.0000 39.2731 0.0000
# 6 0.0000 0.0000 0.0000 8.6017 0.0000 -14.5439
#
#
#
# Elastic Compliance Matrix: (Units=1/GPa)
#
#
# Indices 1 2 3 4 5 6 
#
# 1 0.007978 -0.001281 -0.000381 0.000000 0.003703 0.000000
# 2 -0.001281 0.017442 -0.008134 0.000000 0.000810 0.000000
# 3 -0.000381 -0.008134 0.021591 0.000000 0.001402 0.000000
# 4 0.000000 0.000000 0.000000 0.352057 0.000000 0.208218
# 5 0.003703 0.000810 0.001402 0.000000 0.027582 0.000000
# 6 0.000000 0.000000 0.000000 0.208218 0.000000 0.054389
#
#
# Mechanical properties :
#
#
# Convention : Reuss Voigt Hill
#
# Bulk Modulus (GPa) = 36.46808 41.22402 38.84605
# Shear Modulus (GPa) = 9.80834 18.73501 14.27167
#
# Velocity S-wave (km/s) = 2.17062 2.99995 2.61833
# Velocity P-wave (km/s) = 4.87855 5.63935 5.27269
#
# Compressibility (1/GPa) = 0.02742124
#
# Stress axis : x y z
#
# Youngs Moduli (GPa) = 125.34712 57.33143 46.31483
#
# Poissons Ratio (x) = 0.07344 0.01763
# Poissons Ratio (y) = 0.16056 0.37671
# Poissons Ratio (z) = 0.04771 0.46631
#
# Static dielectric constant tensor:
#      x y z
#    x 1.814380 0.000000 -0.006070 
#    y 0.000000 1.781730 0.000000 
#    z -0.006070 0.000000 1.740410 
# 
# From -- ./inp_files/189353.got.cif
#   From: 2010.05.17/outbox.cif.g08.bks.cpg/sg12_95_cif.got.tgz:189353.got - 2010.06.03 13:09:07.
