data_PCOD9179069
_publ_section_title
;
Structure prediction by ZEFSAII (Michael W. Deem and Ramdas Pophale) SiO2 
 PCOD9179069
Probable space group: C 2/M
;
_chemical_formula_sum "Si O2"
_cell_formula_units_Z 40
_cell_length_a 7.720776
_cell_length_b 28.663462
_cell_length_c 8.975863
_cell_angle_alpha 90.000000
_cell_angle_beta 51.606970
_cell_angle_gamma 90.000000
_cell_volume 1556.875561
_symmetry_space_group_name_H-M "C 2/M"
_symmetry_group_IT_number 12
_symmetry_cell_setting 'monoclinic'
loop_
_space_group_symop_operation_xyz
x,y,z
-x,y,-z
-x,-y,-z
x,-y,z
1/2+x,1/2+y,z
1/2-x,1/2+y,-z
1/2-x,1/2-y,-z
1/2+x,1/2-y,z
loop_
_atom_site_type_symbol
_atom_site_label
_atom_site_fract_x
_atom_site_fract_y
_atom_site_fract_z
Si Si1 0.110935 0.900878 0.274704
Si Si2 0.919732 0.000000 0.709948
Si Si3 0.882333 0.801393 0.725344
Si Si4 0.238864 0.000000 0.799709
Si Si5 0.807352 0.398997 0.723696
Si Si6 0.791903 0.700353 0.724943
O O1 0.236917 0.851541 0.203719
O O2 0.000000 0.901480 0.500000
O O3 0.922084 0.900490 0.246428
O O4 0.211177 0.951972 0.196243
O O5 0.000000 0.000000 0.500000
O O6 0.157515 0.000000 0.670916
O O7 0.774148 0.751073 0.807859
O O8 0.000000 0.799838 0.500000
O O9 0.077723 0.803810 0.738750
O O10 0.341481 0.050418 0.780035
O O11 0.000000 0.000000 0.000000
O O12 0.811157 0.348629 0.803600
O O13 0.000000 0.396010 0.500000
O O14 0.000000 0.702118 0.500000
#
# Coordination Sequence:
#
# PCOD9179069 Si02
#       6
#     8   4   8   4   8   8
#     4   8  14  23  38  61  87 117 150 184 224 270
#     4   8  14  27  44  65  88 114 149 190 223 261
#     4   9  14  20  31  52  84 116 141 176 226 268
#     4  10  19  31  48  71  95 122 153 190 234 283
#     4   9  17  28  43  66  92 116 148 192 233 268
#     4   9  15  22  34  55  85 115 143 180 225 266
#
# _framework density 25.692484
#
# number of rings (size 3 to 8) (size 9 to 14) (size 15 to 20)
#    0.000    3.200    0.000    2.700    0.000    1.600 
#    0.000    0.000    0.000    0.000    0.000   57.400 
#    0.000    0.000    0.000    0.000    0.000    0.000 
#
# Total GULP energy -111432.002153 kJ/mol
# GULP energy per Si atom -5571.600108 kJ/mol
# Density = 2.563401 g / cm^3
# Si number density = 25.692484 Si / 1000 Ang^3
#
#
#
# Elastic Constant Matrix: (Units=GPa)
#
#
# Indices 1 2 3 4 5 6 
#
# 1 47.3033 19.3221 4.2774 0.0000 6.8797 0.0000
# 2 19.3221 415.1790 18.8995 0.0000 -4.0578 0.0000
# 3 4.2774 18.8995 60.1513 0.0000 7.9407 0.0000
# 4 0.0000 0.0000 0.0000 15.2353 0.0000 -70.1867
# 5 6.8797 -4.0578 7.9407 0.0000 24.3408 0.0000
# 6 0.0000 0.0000 0.0000 -70.1867 0.0000 106.5018
#
#
#
# Elastic Compliance Matrix: (Units=1/GPa)
#
#
# Indices 1 2 3 4 5 6 
#
# 1 0.022559 -0.001094 -0.000412 0.000000 -0.006424 0.000000
# 2 -0.001094 0.002508 -0.000842 0.000000 0.001002 0.000000
# 3 -0.000412 -0.000842 0.017683 0.000000 -0.005793 0.000000
# 4 0.000000 0.000000 0.000000 -0.032238 0.000000 -0.021246
# 5 -0.006424 0.001002 -0.005793 0.000000 0.044956 0.000000
# 6 0.000000 0.000000 0.000000 -0.021246 0.000000 -0.004612
#
#
# Mechanical properties :
#
#
# Convention : Reuss Voigt Hill
#
# Bulk Modulus (GPa) = 26.27966 67.51463 46.89715
# Shear Modulus (GPa) = 73.27400 61.22455 67.24927
#
# Velocity S-wave (km/s) = 5.34617 4.88687 5.12167
# Velocity P-wave (km/s) = 6.95410 7.62738 7.29851
#
# Compressibility (1/GPa) = 0.03805224
#
# Stress axis : x y z
#
# Youngs Moduli (GPa) = 44.32910 398.78014 56.54998
#
# Poissons Ratio (x) = 0.43621 0.02332
# Poissons Ratio (y) = 0.04849 0.04764
# Poissons Ratio (z) = 0.01828 0.33593
#
# Static dielectric constant tensor:
#      x y z
#    x 1.896570 0.000000 -0.088970 
#    y 0.000000 2.197750 0.000000 
#    z -0.088970 0.000000 1.848360 
# 
# From -- ./inp_files/124724.got.cif
#   From: 2010.05.17/outbox.cif.g08.bks.cpg/sg12_63_cif.got.tgz:124724.got - 2010.06.03 13:09:07.
