data_PCOD9179966
_publ_section_title
;
Structure prediction by ZEFSAII (Michael W. Deem and Ramdas Pophale) SiO2 
 PCOD9179966
Probable space group: C 2/M
;
_chemical_formula_sum "Si O2"
_cell_formula_units_Z 56
_cell_length_a 36.047925
_cell_length_b 9.047102
_cell_length_c 23.678987
_cell_angle_alpha 90.000000
_cell_angle_beta 156.947772
_cell_angle_gamma 90.000000
_cell_volume 3023.864638
_symmetry_space_group_name_H-M "C 2/M"
_symmetry_group_IT_number 12
_symmetry_cell_setting 'monoclinic'
loop_
_space_group_symop_operation_xyz
x,y,z
-x,y,-z
-x,-y,-z
x,-y,z
1/2+x,1/2+y,z
1/2-x,1/2+y,-z
1/2-x,1/2-y,-z
1/2+x,1/2-y,z
loop_
_atom_site_type_symbol
_atom_site_label
_atom_site_fract_x
_atom_site_fract_y
_atom_site_fract_z
Si Si1 0.806669 0.675415 0.708615
Si Si2 0.339910 0.677208 0.157334
Si Si3 0.548729 0.823883 0.779325
Si Si4 0.317022 0.323868 0.839444
Si Si5 0.540447 0.676641 0.150901
Si Si6 0.766778 0.675710 0.883887
Si Si7 0.385249 0.323285 0.621417
O O1 0.815755 0.500000 0.727574
O O2 0.780317 0.747615 0.731341
O O3 0.903308 0.743559 0.819989
O O4 0.722536 0.707607 0.546539
O O5 0.337658 0.500000 0.147194
O O6 0.428231 0.745949 0.248005
O O7 0.320415 0.709215 0.195927
O O8 0.250000 0.750000 0.000000
O O9 0.455431 0.760951 0.677715
O O10 0.544885 0.000000 0.766684
O O11 0.636865 0.791636 0.945552
O O12 0.307473 0.500000 0.822603
O O13 0.269495 0.263488 0.829645
O O14 0.429501 0.287368 0.999356
O O15 0.548872 0.500000 0.154589
O O16 0.588669 0.717405 0.278054
O O17 0.766672 0.500000 0.872474
O O18 0.401289 0.500000 0.638263
#
# Coordination Sequence:
#
# PCOD9179966 Si02
#       7
#     8   8   8   8   8   8   8
#     4  11  24  38  55  79 109 145 182 224 273 325
#     4   9  17  29  48  77 112 144 176 221 270 318
#     4  10  19  31  52  82 111 142 179 222 270 321
#     4  11  22  36  57  80 108 145 180 224 273 320
#     4  10  21  38  58  80 105 138 184 229 273 322
#     4   9  18  32  51  79 110 140 178 220 265 316
#     4  10  21  38  57  79 109 145 182 223 272 323
#
# _framework density 18.519348000000001
#
# number of rings (size 3 to 8) (size 9 to 14) (size 15 to 20)
#    0.000    2.000    1.429    3.429    0.000    7.429 
#    0.000    0.000    0.000    0.857    0.000    6.000 
#    0.000    0.000    0.000    0.000    0.000    0.000 
#
# Total GULP energy -156310.575384 kJ/mol
# GULP energy per Si atom -5582.520549 kJ/mol
# Density = 1.847720 g / cm^3
# Si number density = 18.519348 Si / 1000 Ang^3
#
#
#
# Elastic Constant Matrix: (Units=GPa)
#
#
# Indices 1 2 3 4 5 6 
#
# 1 105.1765 31.8488 1.4334 0.0000 5.2925 0.0000
# 2 31.8488 23.9596 9.7402 0.0000 -0.1412 0.0000
# 3 1.4334 9.7402 21.9329 0.0000 -10.3066 0.0000
# 4 0.0000 0.0000 0.0000 19.2899 0.0000 1.8158
# 5 5.2925 -0.1412 -10.3066 0.0000 24.4801 0.0000
# 6 0.0000 0.0000 0.0000 1.8158 0.0000 39.4110
#
#
#
# Elastic Compliance Matrix: (Units=1/GPa)
#
#
# Indices 1 2 3 4 5 6 
#
# 1 0.018050 -0.028932 0.012163 0.000000 0.001051 0.000000
# 2 -0.028932 0.100045 -0.049027 0.000000 -0.013809 0.000000
# 3 0.012163 -0.049027 0.081284 0.000000 0.031310 0.000000
# 4 0.000000 0.000000 0.000000 0.052066 0.000000 -0.002399
# 5 0.001051 -0.013809 0.031310 0.000000 0.053725 0.000000
# 6 0.000000 0.000000 0.000000 -0.002399 0.000000 0.025484
#
#
# Mechanical properties :
#
#
# Convention : Reuss Voigt Hill
#
# Bulk Modulus (GPa) = 14.75221 26.34599 20.54910
# Shear Modulus (GPa) = 10.31263 23.83929 17.07596
#
# Velocity S-wave (km/s) = 2.36234 3.59174 3.03984
# Velocity P-wave (km/s) = 3.92734 5.60873 4.84158
#
# Compressibility (1/GPa) = 0.06778645
#
# Stress axis : x y z
#
# Youngs Moduli (GPa) = 55.40138 9.99553 12.30251
#
# Poissons Ratio (x) = 0.28919 -0.14963
# Poissons Ratio (y) = 1.60286 0.60316
# Poissons Ratio (z) = -0.67383 0.49005
#
# Static dielectric constant tensor:
#      x y z
#    x 1.639050 0.000000 -0.004830 
#    y 0.000000 1.613110 0.000000 
#    z -0.004830 0.000000 1.631840 
# 
# From -- ./inp_files/275118.got.cif
#   From: 2010.05.17/outbox.cif.g08.bks.cpg/sg12_138_cif.got.tgz:275118.got - 2010.06.03 13:09:07.
