data_PCOD9179631
_publ_section_title
;
Structure prediction by ZEFSAII (Michael W. Deem and Ramdas Pophale) SiO2 
 PCOD9179631
Probable space group: C 2/M
;
_chemical_formula_sum "Si O2"
_cell_formula_units_Z 64
_cell_length_a 20.812261
_cell_length_b 14.890495
_cell_length_c 10.845155
_cell_angle_alpha 90.000000
_cell_angle_beta 80.653014
_cell_angle_gamma 90.000000
_cell_volume 3316.342311
_symmetry_space_group_name_H-M "C 2/M"
_symmetry_group_IT_number 12
_symmetry_cell_setting 'monoclinic'
loop_
_space_group_symop_operation_xyz
x,y,z
-x,y,-z
-x,-y,-z
x,-y,z
1/2+x,1/2+y,z
1/2-x,1/2+y,-z
1/2-x,1/2-y,-z
1/2+x,1/2-y,z
loop_
_atom_site_type_symbol
_atom_site_label
_atom_site_fract_x
_atom_site_fract_y
_atom_site_fract_z
Si Si1 0.473587 0.101566 0.650384
Si Si2 0.891394 0.098995 0.257246
Si Si3 0.750268 0.398105 0.578740
Si Si4 0.930086 0.895578 0.977265
Si Si5 0.711722 0.103976 0.720457
Si Si6 0.136917 0.724718 0.394677
Si Si7 0.590449 0.210402 0.690492
Si Si8 0.149139 0.106360 0.237931
O O1 0.500000 0.101476 0.500000
O O2 0.411110 0.164400 0.671302
O O3 0.530822 0.142503 0.714486
O O4 0.458110 0.000000 0.688090
O O5 0.823535 0.106440 0.351345
O O6 0.931054 0.188016 0.276433
O O7 0.919817 0.000000 0.275791
O O8 0.884118 0.104358 0.111918
O O9 0.774616 0.500000 0.599293
O O10 0.758823 0.387513 0.428514
O O11 0.791864 0.320259 0.630476
O O12 0.891086 0.863274 0.869920
O O13 0.944407 0.000000 0.942860
O O14 0.000000 0.856296 0.000000
O O15 0.651800 0.172773 0.748408
O O16 0.772258 0.116988 0.793739
O O17 0.688936 0.000000 0.737091
O O18 0.114986 0.712796 0.542074
O O19 0.130600 0.826594 0.353548
O O20 0.138040 0.000000 0.266123
#
# Coordination Sequence:
#
# PCOD9179631 Si02
#       8
#     8   8   8   8   8   8   8   8
#     4   9  18  32  49  72 103 138 175 206 235 289
#     4  10  20  33  52  76 100 130 172 213 256 308
#     4   9  17  31  52  77 108 142 170 203 250 302
#     4   9  20  38  55  68  92 135 178 217 257 303
#     4   9  17  31  52  77 108 142 170 203 250 302
#     4  10  19  31  50  78 109 139 169 204 251 304
#     4  10  19  31  50  78 109 139 169 204 251 304
#     4  10  20  33  52  76 100 130 172 213 256 308
#
# _framework density 19.298369000000001
#
# number of rings (size 3 to 8) (size 9 to 14) (size 15 to 20)
#    0.000    2.500    0.000    2.250    1.750    6.500 
#    0.000    2.500    0.000    2.250    0.000    3.500 
#    0.000    0.000    0.000    0.000    0.000    0.000 
#
# Total GULP energy -178262.540104 kJ/mol
# GULP energy per Si atom -5570.704378 kJ/mol
# Density = 1.925445 g / cm^3
# Si number density = 19.298369 Si / 1000 Ang^3
#
#
#
# Elastic Constant Matrix: (Units=GPa)
#
#
# Indices 1 2 3 4 5 6 
#
# 1 83.7542 39.0376 11.6008 0.0000 23.7079 0.0000
# 2 39.0376 107.9346 2.1186 0.0000 8.7867 0.0000
# 3 11.6008 2.1186 13.4031 0.0000 4.9771 0.0000
# 4 0.0000 0.0000 0.0000 8.7293 0.0000 8.0588
# 5 23.7079 8.7867 4.9771 0.0000 18.5843 0.0000
# 6 0.0000 0.0000 0.0000 8.0588 0.0000 25.0123
#
#
#
# Elastic Compliance Matrix: (Units=1/GPa)
#
#
# Indices 1 2 3 4 5 6 
#
# 1 0.022879 -0.006158 -0.010074 0.000000 -0.023577 0.000000
# 2 -0.006158 0.011293 0.002899 0.000000 0.001740 0.000000
# 3 -0.010074 0.002899 0.087288 0.000000 -0.011896 0.000000
# 4 0.000000 0.000000 0.000000 0.163058 0.000000 -0.052536
# 5 -0.023577 0.001740 -0.011896 0.000000 0.086250 0.000000
# 6 0.000000 0.000000 0.000000 -0.052536 0.000000 0.056907
#
#
# Mechanical properties :
#
#
# Convention : Reuss Voigt Hill
#
# Bulk Modulus (GPa) = 10.54915 34.51178 22.53046
# Shear Modulus (GPa) = 10.28932 20.62082 15.45507
#
# Velocity S-wave (km/s) = 2.31155 3.27238 2.83300
# Velocity P-wave (km/s) = 3.55001 5.67451 4.73300
#
# Compressibility (1/GPa) = 0.09479436
#
# Stress axis : x y z
#
# Youngs Moduli (GPa) = 43.70795 88.54661 11.45631
#
# Poissons Ratio (x) = 0.54525 0.11541
# Poissons Ratio (y) = 0.26914 -0.03321
# Poissons Ratio (z) = 0.44032 -0.25667
#
# Static dielectric constant tensor:
#      x y z
#    x 1.708240 0.000000 0.001530 
#    y 0.000000 1.711950 0.000000 
#    z 0.001530 0.000000 1.663050 
# 
# From -- ./inp_files/167255.got.cif
#   From: 2010.05.17/outbox.cif.g08.bks.cpg/sg12_84_cif.got.tgz:167255.got - 2010.06.03 13:09:07.
