data_PCOD9179330
_publ_section_title
;
Structure prediction by ZEFSAII (Michael W. Deem and Ramdas Pophale) SiO2 
 PCOD9179330
Probable space group: C 2/M
;
_chemical_formula_sum "Si O2"
_cell_formula_units_Z 64
_cell_length_a 21.300884
_cell_length_b 14.554838
_cell_length_c 10.129428
_cell_angle_alpha 90.000000
_cell_angle_beta 111.673644
_cell_angle_gamma 90.000000
_cell_volume 2918.415054
_symmetry_space_group_name_H-M "C 2/M"
_symmetry_group_IT_number 12
_symmetry_cell_setting 'monoclinic'
loop_
_space_group_symop_operation_xyz
x,y,z
-x,y,-z
-x,-y,-z
x,-y,z
1/2+x,1/2+y,z
1/2-x,1/2+y,-z
1/2-x,1/2-y,-z
1/2+x,1/2-y,z
loop_
_atom_site_type_symbol
_atom_site_label
_atom_site_fract_x
_atom_site_fract_y
_atom_site_fract_z
Si Si1 0.097778 0.401625 0.731652
Si Si2 0.288339 0.641557 0.222676
Si Si3 0.570959 0.693756 0.736638
Si Si4 0.715273 0.606916 0.480245
Si Si5 0.648194 0.901871 0.063943
Si Si6 0.115168 0.802488 0.076400
Si Si7 0.738365 0.154954 0.752475
Si Si8 0.437442 0.390721 0.710836
O O1 0.064186 0.500000 0.668797
O O2 0.070719 0.298537 0.679713
O O3 0.173892 0.404917 0.734159
O O4 0.106077 0.401269 0.896557
O O5 0.368281 0.628854 0.270351
O O6 0.265837 0.617928 0.353619
O O7 0.228391 0.599255 0.090029
O O8 0.280882 0.749541 0.194583
O O9 0.497575 0.649694 0.670988
O O10 0.588665 0.696448 0.907208
O O11 0.723456 0.500000 0.447818
O O12 0.755272 0.663466 0.401191
O O13 0.636058 0.629585 0.407014
O O14 0.632528 0.804785 0.121793
O O15 0.634509 0.000000 0.122265
O O16 0.184884 0.861883 0.141060
O O17 0.065917 0.843428 0.147863
O O18 0.445127 0.500000 0.730633
#
# Coordination Sequence:
#
# PCOD9179330 Si02
#       8
#     8   8   8   8   8   8   8   8
#     4   9  17  31  52  77 102 127 157 196 245 297
#     4  10  19  31  49  74 102 130 159 194 241 293
#     4  10  20  33  50  73  99 130 164 203 245 287
#     4  10  20  33  48  69  96 127 166 204 238 283
#     4   9  17  30  50  77 106 130 153 191 246 300
#     4   9  18  33  51  73 100 126 163 205 241 288
#     4   9  17  31  51  73  98 128 158 196 244 291
#     4  10  22  37  51  68  94 132 173 208 240 279
#
# _framework density 21.929711999999999
#
# number of rings (size 3 to 8) (size 9 to 14) (size 15 to 20)
#    0.000    2.500    0.000    2.250    0.000    6.000 
#    0.000    1.875    0.000    3.000    0.000    7.875 
#    0.000    0.000    0.000    0.000    0.000    0.000 
#
# Total GULP energy -178281.648742 kJ/mol
# GULP energy per Si atom -5571.301523 kJ/mol
# Density = 2.187980 g / cm^3
# Si number density = 21.929712 Si / 1000 Ang^3
#
#
#
# Elastic Constant Matrix: (Units=GPa)
#
#
# Indices 1 2 3 4 5 6 
#
# 1 67.9816 24.1738 -6.0894 0.0000 -3.1995 0.0000
# 2 24.1738 99.1939 -4.1440 0.0000 -1.2515 0.0000
# 3 -6.0894 -4.1440 34.2199 0.0000 -5.0020 0.0000
# 4 0.0000 0.0000 0.0000 3.6041 0.0000 2.2482
# 5 -3.1995 -1.2515 -5.0020 0.0000 12.5909 0.0000
# 6 0.0000 0.0000 0.0000 2.2482 0.0000 7.2651
#
#
#
# Elastic Compliance Matrix: (Units=1/GPa)
#
#
# Indices 1 2 3 4 5 6 
#
# 1 0.016609 -0.003848 0.003239 0.000000 0.005125 0.000000
# 2 -0.003848 0.011054 0.000713 0.000000 0.000404 0.000000
# 3 0.003239 0.000713 0.031867 0.000000 0.013554 0.000000
# 4 0.000000 0.000000 0.000000 0.343840 0.000000 -0.106403
# 5 0.005125 0.000404 0.013554 0.000000 0.086149 0.000000
# 6 0.000000 0.000000 0.000000 -0.106403 0.000000 0.170571
#
#
# Mechanical properties :
#
#
# Convention : Reuss Voigt Hill
#
# Bulk Modulus (GPa) = 16.73983 25.47517 21.10750
# Shear Modulus (GPa) = 7.35517 17.18902 12.27209
#
# Velocity S-wave (km/s) = 1.83337 2.80272 2.36817
# Velocity P-wave (km/s) = 3.48305 4.70272 4.13807
#
# Compressibility (1/GPa) = 0.05973776
#
# Stress axis : x y z
#
# Youngs Moduli (GPa) = 60.20680 90.46608 31.38084
#
# Poissons Ratio (x) = 0.34810 -0.10164
# Poissons Ratio (y) = 0.23166 -0.02237
# Poissons Ratio (z) = -0.19500 -0.06450
#
# Static dielectric constant tensor:
#      x y z
#    x 1.821910 0.000000 0.011340 
#    y 0.000000 1.848000 0.000000 
#    z 0.011340 0.000000 1.824330 
# 
# From -- ./inp_files/167311.got.cif
#   From: 2010.05.17/outbox.cif.g08.bks.cpg/sg12_84_cif.got.tgz:167311.got - 2010.06.03 13:09:07.
