data_PCOD9179922
_publ_section_title
;
Structure prediction by ZEFSAII (Michael W. Deem and Ramdas Pophale) SiO2 
 PCOD9179922
Probable space group: C 2/M
;
_chemical_formula_sum "Si O2"
_cell_formula_units_Z 56
_cell_length_a 11.266232
_cell_length_b 17.296434
_cell_length_c 26.510340
_cell_angle_alpha 90.000000
_cell_angle_beta 149.017655
_cell_angle_gamma 90.000000
_cell_volume 2659.298582
_symmetry_space_group_name_H-M "C 2/M"
_symmetry_group_IT_number 12
_symmetry_cell_setting 'monoclinic'
loop_
_space_group_symop_operation_xyz
x,y,z
-x,y,-z
-x,-y,-z
x,-y,z
1/2+x,1/2+y,z
1/2-x,1/2+y,-z
1/2-x,1/2-y,-z
1/2+x,1/2-y,z
loop_
_atom_site_type_symbol
_atom_site_label
_atom_site_fract_x
_atom_site_fract_y
_atom_site_fract_z
Si Si1 0.639404 0.414332 0.463081
Si Si2 0.680623 0.292420 0.606025
Si Si3 0.946765 0.912787 0.281030
Si Si4 0.133916 0.588114 0.632868
Si Si5 0.127820 0.289948 0.210346
Si Si6 0.734716 0.914011 0.887525
Si Si7 0.321839 0.856505 0.243258
O O1 0.684773 0.500000 0.500748
O O2 0.466257 0.369196 0.434853
O O3 0.528026 0.421531 0.367957
O O4 0.883196 0.373628 0.540855
O O5 0.500000 0.252011 0.500000
O O6 0.744760 0.270773 0.688686
O O7 0.926740 0.313551 0.670055
O O8 0.757427 0.847531 0.218704
O O9 0.159225 0.880880 0.325497
O O10 0.883484 0.000000 0.239728
O O11 0.104681 0.500000 0.602933
O O12 0.191830 0.590734 0.712548
O O13 0.128221 0.208855 0.181784
O O14 0.904034 0.340195 0.142136
O O15 0.712461 0.904544 0.819518
O O16 0.640956 0.000000 0.867979
O O17 0.000000 0.911030 0.000000
#
# Coordination Sequence:
#
# PCOD9179922 Si02
#       7
#     8   8   8   8   8   8   8
#     4   9  17  31  50  76 110 161 221 260 290 335
#     4  10  20  36  50  81 119 171 210 247 285 343
#     4   9  18  33  53  78 114 161 205 246 294 355
#     4  10  19  31  52  79 116 161 205 254 298 348
#     4  10  23  38  61  89 124 159 200 250 305 363
#     4  10  23  46  74  96 116 150 198 254 314 378
#     4  11  23  37  59  91 123 157 202 250 309 356
#
# _framework density 21.058185000000002
#
# number of rings (size 3 to 8) (size 9 to 14) (size 15 to 20)
#    0.000    2.143    1.429    1.286    4.000    7.143 
#    0.000    0.000    0.000    0.000    0.000    4.000 
#    0.000    0.000    0.000    0.000    0.000    0.000 
#
# Total GULP energy -155944.217243 kJ/mol
# GULP energy per Si atom -5569.436330 kJ/mol
# Density = 2.101026 g / cm^3
# Si number density = 21.058185 Si / 1000 Ang^3
#
#
#
# Elastic Constant Matrix: (Units=GPa)
#
#
# Indices 1 2 3 4 5 6 
#
# 1 73.2562 14.3359 -13.7485 0.0000 5.7593 -0.0001
# 2 14.3359 71.2509 6.9517 0.0002 15.6876 -0.0001
# 3 -13.7485 6.9517 37.1019 0.0003 6.1636 0.0033
# 4 0.0000 0.0002 0.0003 17.7675 0.0001 2.2794
# 5 5.7593 15.6876 6.1636 0.0001 11.3029 0.0008
# 6 -0.0001 -0.0001 0.0033 2.2794 0.0008 56.6088
#
#
#
# Elastic Compliance Matrix: (Units=1/GPa)
#
#
# Indices 1 2 3 4 5 6 
#
# 1 0.016327 -0.001831 0.008086 0.000000 -0.010187 0.000000
# 2 -0.001831 0.020448 0.000055 0.000000 -0.027477 0.000000
# 3 0.008086 0.000055 0.033688 0.000000 -0.022567 -0.000002
# 4 0.000000 0.000000 0.000000 0.056575 -0.000001 -0.002278
# 5 -0.010187 -0.027477 -0.022567 -0.000001 0.144106 -0.000001
# 6 0.000000 0.000000 -0.000002 -0.002278 -0.000001 0.017757
#
#
# Mechanical properties :
#
#
# Convention : Reuss Voigt Hill
#
# Bulk Modulus (GPa) = 12.03626 21.85414 16.94520
# Shear Modulus (GPa) = 16.44869 28.74048 22.59459
#
# Velocity S-wave (km/s) = 2.79786 3.69835 3.27916
# Velocity P-wave (km/s) = 4.02063 5.35140 4.73302
#
# Compressibility (1/GPa) = 0.08308231
#
# Stress axis : x y z
#
# Youngs Moduli (GPa) = 61.24640 48.90521 29.68442
#
# Poissons Ratio (x) = 0.08955 -0.24002
# Poissons Ratio (y) = 0.11214 -0.00163
# Poissons Ratio (z) = -0.49523 -0.00269
#
# Static dielectric constant tensor:
#      x y z
#    x 1.757720 0.000000 0.007680 
#    y 0.000000 1.931210 0.000000 
#    z 0.007680 0.000000 1.760670 
# 
# From -- ./inp_files/358924.got.cif
#   From: 2010.05.17/outbox.cif.g08.bks.cpg/sg12_180_cif.got.tgz:358924.got - 2010.06.03 13:09:07.
