data_PCOD9179274
_publ_section_title
;
Structure prediction by ZEFSAII (Michael W. Deem and Ramdas Pophale) SiO2 
 PCOD9179274
Probable space group: C 2/M
;
_chemical_formula_sum "Si O2"
_cell_formula_units_Z 56
_cell_length_a 14.216748
_cell_length_b 14.781956
_cell_length_c 18.336982
_cell_angle_alpha 90.000000
_cell_angle_beta 144.456518
_cell_angle_gamma 90.000000
_cell_volume 2240.143092
_symmetry_space_group_name_H-M "C 2/M"
_symmetry_group_IT_number 12
_symmetry_cell_setting 'monoclinic'
loop_
_space_group_symop_operation_xyz
x,y,z
-x,y,-z
-x,-y,-z
x,-y,z
1/2+x,1/2+y,z
1/2-x,1/2+y,-z
1/2-x,1/2-y,-z
1/2+x,1/2-y,z
loop_
_atom_site_type_symbol
_atom_site_label
_atom_site_fract_x
_atom_site_fract_y
_atom_site_fract_z
Si Si1 0.674515 0.109143 0.205850
Si Si2 0.084148 0.605366 0.432486
Si Si3 0.248518 0.342344 0.953541
Si Si4 0.873633 0.895644 0.716159
Si Si5 0.393757 0.805043 0.695139
Si Si6 0.785426 0.107095 0.822373
Si Si7 0.804292 0.602540 0.934054
O O1 0.713553 0.165729 0.303045
O O2 0.759995 0.139993 0.183772
O O3 0.689820 0.000000 0.230762
O O4 0.485764 0.133803 0.068931
O O5 0.085155 0.500000 0.411960
O O6 0.185788 0.611365 0.570408
O O7 0.169986 0.661075 0.422167
O O8 0.897155 0.633617 0.315932
O O9 0.331456 0.344479 0.927236
O O10 0.062332 0.360085 0.813225
O O11 0.250000 0.250000 0.000000
O O12 0.293520 0.402424 0.051778
O O13 0.937633 0.800978 0.723704
O O14 0.883873 0.884493 0.809778
O O15 0.916673 0.000000 0.721513
O O16 0.788697 0.000000 0.843512
O O17 0.831205 0.500000 0.928872
#
# Coordination Sequence:
#
# PCOD9179274 Si02
#       7
#     8   8   8   8   8   8   8
#     4   8  14  25  44  69  91 112 145 195 248 284
#     4   9  17  32  55  79  99 121 159 211 263 300
#     4  10  20  31  46  68  95 130 170 203 240 287
#     4  10  20  33  50  74 103 134 164 200 247 302
#     4  10  19  31  49  73 100 129 161 203 247 294
#     4   9  18  33  52  73  98 127 164 209 252 294
#     4   8  14  26  43  63  86 114 149 196 245 280
#
# _framework density 24.998401999999999
#
# number of rings (size 3 to 8) (size 9 to 14) (size 15 to 20)
#    0.000    2.857    0.000    2.571    2.000    5.143 
#    0.000    1.429    0.000    1.714    0.000    0.000 
#    0.000   10.000    0.000    0.000    0.000    0.000 
#
# Total GULP energy -155937.508144 kJ/mol
# GULP energy per Si atom -5569.196719 kJ/mol
# Density = 2.494150 g / cm^3
# Si number density = 24.998402 Si / 1000 Ang^3
#
#
#
# Elastic Constant Matrix: (Units=GPa)
#
#
# Indices 1 2 3 4 5 6 
#
# 1 112.2694 24.6567 32.5061 0.0006 -43.2900 0.0005
# 2 24.6567 93.6455 26.2726 0.0005 -22.5727 0.0004
# 3 32.5061 26.2726 111.4748 0.0013 -25.7562 0.0011
# 4 0.0006 0.0005 0.0013 33.1329 0.0007 -12.0255
# 5 -43.2900 -22.5727 -25.7562 0.0007 46.2592 0.0006
# 6 0.0005 0.0004 0.0011 -12.0255 0.0006 13.2262
#
#
#
# Elastic Compliance Matrix: (Units=1/GPa)
#
#
# Indices 1 2 3 4 5 6 
#
# 1 0.014092 -0.000410 -0.001161 -0.000001 0.012341 -0.000002
# 2 -0.000410 0.012404 -0.001715 -0.000001 0.004714 -0.000001
# 3 -0.001161 -0.001715 0.010637 -0.000001 0.003999 -0.000002
# 4 -0.000001 -0.000001 -0.000001 0.045047 -0.000003 0.040957
# 5 0.012341 0.004714 0.003999 -0.000003 0.037693 -0.000006
# 6 -0.000002 -0.000001 -0.000002 0.040957 -0.000006 0.112847
#
#
# Mechanical properties :
#
#
# Convention : Reuss Voigt Hill
#
# Bulk Modulus (GPa) = 32.72071 53.80672 43.26372
# Shear Modulus (GPa) = 20.04180 34.12060 27.08120
#
# Velocity S-wave (km/s) = 2.83454 3.69848 3.29495
# Velocity P-wave (km/s) = 4.88164 6.30945 5.64090
#
# Compressibility (1/GPa) = 0.03056168
#
# Stress axis : x y z
#
# Youngs Moduli (GPa) = 70.96283 80.61976 94.00794
#
# Poissons Ratio (x) = 0.03305 0.10917
# Poissons Ratio (y) = 0.02909 0.16118
# Poissons Ratio (z) = 0.08241 0.13823
#
# Static dielectric constant tensor:
#      x y z
#    x 2.181120 0.000000 -0.015740 
#    y 0.000000 2.142120 0.000000 
#    z -0.015740 0.000000 1.997690 
# 
# From -- ./inp_files/224268.got.cif
#   From: 2010.05.17/outbox.cif.g08.bks.cpg/sg12_113_cif.got.tgz:224268.got - 2010.06.03 13:09:07.
