data_PCOD9179108
_publ_section_title
;
Structure prediction by ZEFSAII (Michael W. Deem and Ramdas Pophale) SiO2 
 PCOD9179108
Probable space group: C 2/M
;
_chemical_formula_sum "Si O2"
_cell_formula_units_Z 64
_cell_length_a 25.805910
_cell_length_b 7.818171
_cell_length_c 16.963321
_cell_angle_alpha 90.000000
_cell_angle_beta 69.357356
_cell_angle_gamma 90.000000
_cell_volume 3202.705916
_symmetry_space_group_name_H-M "C 2/M"
_symmetry_group_IT_number 12
_symmetry_cell_setting 'monoclinic'
loop_
_space_group_symop_operation_xyz
x,y,z
-x,y,-z
-x,-y,-z
x,-y,z
1/2+x,1/2+y,z
1/2-x,1/2+y,-z
1/2-x,1/2-y,-z
1/2+x,1/2-y,z
loop_
_atom_site_type_symbol
_atom_site_label
_atom_site_fract_x
_atom_site_fract_y
_atom_site_fract_z
Si Si1 0.598048 0.703424 0.737708
Si Si2 0.518072 0.306798 0.250029
Si Si3 0.306679 0.709192 0.206742
Si Si4 0.367629 0.699696 0.752344
Si Si5 0.349081 0.196922 0.455301
Si Si6 0.699893 0.795433 0.362588
Si Si7 0.026315 0.301534 0.566236
Si Si8 0.259372 0.795785 0.904811
O O1 0.590794 0.500000 0.750496
O O2 0.535489 0.775788 0.764361
O O3 0.635521 0.770078 0.788787
O O4 0.634559 0.726397 0.638131
O O5 0.526460 0.500000 0.214012
O O6 0.578275 0.224614 0.232644
O O7 0.494225 0.310992 0.351234
O O8 0.307406 0.500000 0.209023
O O9 0.256125 0.765695 0.290529
O O10 0.290106 0.759830 0.127315
O O11 0.379638 0.500000 0.733985
O O12 0.348551 0.766937 0.676622
O O13 0.315294 0.720852 0.837753
O O14 0.309035 0.274349 0.543851
O O15 0.407739 0.198318 0.469856
O O16 0.333232 0.000000 0.448300
O O17 0.704002 0.000000 0.369614
O O18 0.008972 0.500000 0.589194
O O19 0.000000 0.242150 0.500000
O O20 0.264081 0.000000 0.895265
O O21 0.250000 0.750000 0.000000
#
# Coordination Sequence:
#
# PCOD9179108 Si02
#       8
#     8   8   8   8   8   8   8   8
#     4   9  17  31  47  64  91 129 167 198 232 274
#     4   9  18  29  43  64  91 123 158 195 231 271
#     4   8  16  31  51  71  92 121 156 192 232 281
#     4  10  19  31  48  73 100 124 155 195 237 280
#     4   9  17  27  39  60  91 125 165 209 244 276
#     4   9  17  30  46  65  92 127 165 206 249 285
#     4   9  16  25  38  56  81 119 164 204 241 279
#     4  10  20  36  58  82 102 120 144 180 230 284
#
# _framework density 19.983101000000001
#
# number of rings (size 3 to 8) (size 9 to 14) (size 15 to 20)
#    0.000    2.875    0.000    2.250    0.000    3.250 
#    0.000    5.625    0.000    0.750    0.000    5.250 
#    0.000    0.000    0.000    0.000    0.000    0.000 
#
# Total GULP energy -178182.704518 kJ/mol
# GULP energy per Si atom -5568.209516 kJ/mol
# Density = 1.993762 g / cm^3
# Si number density = 19.983101 Si / 1000 Ang^3
#
#
#
# Elastic Constant Matrix: (Units=GPa)
#
#
# Indices 1 2 3 4 5 6 
#
# 1 126.6902 -0.9464 22.6000 0.0000 29.5789 0.0000
# 2 -0.9464 25.0906 -11.8460 0.0000 -1.0891 0.0000
# 3 22.6000 -11.8460 41.4878 0.0000 10.9302 0.0000
# 4 0.0000 0.0000 0.0000 18.5570 0.0000 1.8130
# 5 29.5789 -1.0891 10.9302 0.0000 21.6184 0.0000
# 6 0.0000 0.0000 0.0000 1.8130 0.0000 18.7385
#
#
#
# Elastic Compliance Matrix: (Units=1/GPa)
#
#
# Indices 1 2 3 4 5 6 
#
# 1 0.011878 -0.001628 -0.003036 0.000000 -0.014798 0.000000
# 2 -0.001628 0.046761 0.015033 0.000000 -0.003018 0.000000
# 3 -0.003036 0.015033 0.033175 0.000000 -0.011861 0.000000
# 4 0.000000 0.000000 0.000000 0.054402 0.000000 -0.005264
# 5 -0.014798 -0.003018 -0.011861 0.000000 0.072349 0.000000
# 6 0.000000 0.000000 0.000000 -0.005264 0.000000 0.053875
#
#
# Mechanical properties :
#
#
# Convention : Reuss Voigt Hill
#
# Bulk Modulus (GPa) = 8.88478 23.65375 16.26926
# Shear Modulus (GPa) = 17.28790 24.01351 20.65071
#
# Velocity S-wave (km/s) = 2.94449 3.47030 3.21815
# Velocity P-wave (km/s) = 4.00198 5.28393 4.68699
#
# Compressibility (1/GPa) = 0.11255209
#
# Stress axis : x y z
#
# Youngs Moduli (GPa) = 84.19068 21.38541 30.14318
#
# Poissons Ratio (x) = 0.03481 0.09153
# Poissons Ratio (y) = 0.13705 -0.45316
# Poissons Ratio (z) = 0.25564 -0.32150
#
# Static dielectric constant tensor:
#      x y z
#    x 1.792290 0.000000 0.045490 
#    y 0.000000 1.764250 0.000000 
#    z 0.045490 0.000000 1.435010 
# 
# From -- ./inp_files/287597.got.cif
#   From: 2010.05.17/outbox.cif.g08.bks.cpg/sg12_144_cif.got.tgz:287597.got - 2010.06.03 13:09:07.
