data_PCOD9179975
_publ_section_title
;
Structure prediction by ZEFSAII (Michael W. Deem and Ramdas Pophale) SiO2 
 PCOD9179975
Probable space group: C 2/M
;
_chemical_formula_sum "Si O2"
_cell_formula_units_Z 64
_cell_length_a 22.409987
_cell_length_b 8.568163
_cell_length_c 22.398969
_cell_angle_alpha 90.000000
_cell_angle_beta 130.657236
_cell_angle_gamma 90.000000
_cell_volume 3262.737379
_symmetry_space_group_name_H-M "C 2/M"
_symmetry_group_IT_number 12
_symmetry_cell_setting 'monoclinic'
loop_
_space_group_symop_operation_xyz
x,y,z
-x,y,-z
-x,-y,-z
x,-y,z
1/2+x,1/2+y,z
1/2-x,1/2+y,-z
1/2-x,1/2-y,-z
1/2+x,1/2-y,z
loop_
_atom_site_type_symbol
_atom_site_label
_atom_site_fract_x
_atom_site_fract_y
_atom_site_fract_z
Si Si1 0.465941 0.679581 0.661198
Si Si2 0.088384 0.689700 0.043603
Si Si3 0.737352 0.682847 0.659850
Si Si4 0.681930 0.184506 0.499433
Si Si5 0.127640 0.684910 0.808046
Si Si6 0.748080 0.812176 0.201177
Si Si7 0.095446 0.179384 0.243377
Si Si8 0.430166 0.811853 0.101086
O O1 0.485374 0.500000 0.659997
O O2 0.401879 0.745101 0.574000
O O3 0.546100 0.775036 0.721199
O O4 0.424636 0.683546 0.699283
O O5 0.086398 0.500000 0.047333
O O6 0.159054 0.746124 0.131580
O O7 0.107416 0.727389 0.987001
O O8 0.000000 0.745121 0.000000
O O9 0.718520 0.500000 0.641173
O O10 0.702355 0.772437 0.580718
O O11 0.715673 0.741045 0.712055
O O12 0.831312 0.708648 0.719446
O O13 0.750000 0.250000 0.500000
O O14 0.680345 0.000000 0.490572
O O15 0.139940 0.500000 0.816383
O O16 0.197961 0.765318 0.818840
O O17 0.115683 0.738345 0.869045
O O18 0.744435 0.000000 0.202454
O O19 0.016792 0.237652 0.159997
O O20 0.114486 0.000000 0.240099
O O21 0.438971 0.000000 0.109842
#
# Coordination Sequence:
#
# PCOD9179975 Si02
#       8
#     8   8   8   8   8   8   8   8
#     4  10  20  36  58  84 115 150 189 236 284 338
#     4   9  17  33  58  86 115 148 191 239 287 347
#     4  11  22  36  56  81 113 151 192 238 290 347
#     4  12  23  36  57  88 122 152 186 232 286 345
#     4  10  21  37  57  82 114 153 196 242 290 339
#     4  10  22  39  59  82 110 152 199 241 288 345
#     4  10  19  31  52  82 115 148 184 231 288 346
#     4   9  18  33  55  82 112 150 195 238 284 340
#
# _framework density 19.61543
#
# number of rings (size 3 to 8) (size 9 to 14) (size 15 to 20)
#    0.000    1.875    1.250    3.375    0.000    5.000 
#    0.000    1.250    0.000    5.250    0.000    0.000 
#    0.000    0.000    0.000    0.000    0.000    0.000 
#
# Total GULP energy -178679.475562 kJ/mol
# GULP energy per Si atom -5583.733611 kJ/mol
# Density = 1.957078 g / cm^3
# Si number density = 19.615430 Si / 1000 Ang^3
#
#
#
# Elastic Constant Matrix: (Units=GPa)
#
#
# Indices 1 2 3 4 5 6 
#
# 1 62.8150 -8.6728 20.8288 0.0000 -5.6670 0.0000
# 2 -8.6728 18.8232 3.4128 0.0000 -9.5795 0.0000
# 3 20.8288 3.4128 106.5513 0.0000 -16.7877 0.0000
# 4 0.0000 0.0000 0.0000 17.9803 0.0000 1.6370
# 5 -5.6670 -9.5795 -16.7877 0.0000 17.4920 0.0000
# 6 0.0000 0.0000 0.0000 1.6370 0.0000 26.4202
#
#
#
# Elastic Compliance Matrix: (Units=1/GPa)
#
#
# Indices 1 2 3 4 5 6 
#
# 1 0.020185 0.016495 -0.002381 0.000000 0.013288 0.000000
# 2 0.016495 0.089193 0.002894 0.000000 0.056969 0.000000
# 3 -0.002381 0.002894 0.011647 0.000000 0.011992 0.000000
# 4 0.000000 0.000000 0.000000 0.055932 0.000000 -0.003465
# 5 0.013288 0.056969 0.011992 0.000000 0.104182 0.000000
# 6 0.000000 0.000000 0.000000 -0.003465 0.000000 0.038065
#
#
# Mechanical properties :
#
#
# Convention : Reuss Voigt Hill
#
# Bulk Modulus (GPa) = 6.44984 24.36970 15.40977
# Shear Modulus (GPa) = 14.84259 23.88655 19.36457
#
# Velocity S-wave (km/s) = 2.75376 3.49340 3.14540
# Velocity P-wave (km/s) = 3.66145 5.35934 4.58960
#
# Compressibility (1/GPa) = 0.15504266
#
# Stress axis : x y z
#
# Youngs Moduli (GPa) = 49.54102 11.21160 85.85732
#
# Poissons Ratio (x) = -0.18493 0.20439
# Poissons Ratio (y) = -0.81715 -0.24851
# Poissons Ratio (z) = 0.11794 -0.03245
#
# Static dielectric constant tensor:
#      x y z
#    x 1.688740 0.000000 -0.024850 
#    y 0.000000 1.666970 0.000000 
#    z -0.024850 0.000000 1.694790 
# 
# From -- ./inp_files/324333.got.cif
#   From: 2010.05.17/outbox.cif.g08.bks.cpg/sg12_163_cif.got.tgz:324333.got - 2010.06.03 13:09:07.
