data_PCOD9179691
_publ_section_title
;
Structure prediction by ZEFSAII (Michael W. Deem and Ramdas Pophale) SiO2 
 PCOD9179691
Probable space group: C 2/M
;
_chemical_formula_sum "Si O2"
_cell_formula_units_Z 48
_cell_length_a 19.315901
_cell_length_b 14.134307
_cell_length_c 16.998585
_cell_angle_alpha 90.000000
_cell_angle_beta 36.766174
_cell_angle_gamma 90.000000
_cell_volume 2777.814563
_symmetry_space_group_name_H-M "C 2/M"
_symmetry_group_IT_number 12
_symmetry_cell_setting 'monoclinic'
loop_
_space_group_symop_operation_xyz
x,y,z
-x,y,-z
-x,-y,-z
x,-y,z
1/2+x,1/2+y,z
1/2-x,1/2+y,-z
1/2-x,1/2-y,-z
1/2+x,1/2-y,z
loop_
_atom_site_type_symbol
_atom_site_label
_atom_site_fract_x
_atom_site_fract_y
_atom_site_fract_z
Si Si1 0.724068 0.700725 0.142958
Si Si2 0.571267 0.108958 0.605892
Si Si3 0.473152 0.704919 0.433850
Si Si4 0.314122 0.892395 0.903471
Si Si5 0.368812 0.111883 0.146708
Si Si6 0.763804 0.386620 0.406620
O O1 0.587848 0.682531 0.279220
O O2 0.736328 0.810680 0.107100
O O3 0.787136 0.673563 0.165675
O O4 0.777525 0.638109 0.024295
O O5 0.552315 0.183211 0.553562
O O6 0.452866 0.110525 0.764976
O O7 0.675784 0.142335 0.566939
O O8 0.589519 0.000000 0.564675
O O9 0.500000 0.681296 0.500000
O O10 0.361587 0.652929 0.500655
O O11 0.276996 0.000000 0.920566
O O12 0.347002 0.137023 0.257252
O O13 0.340163 0.000000 0.163024
O O14 0.500000 0.124750 0.000000
O O15 0.756697 0.500000 0.416812
#
# Coordination Sequence:
#
# PCOD9179691 Si02
#       6
#     8   8   8   8   8   8
#     4  10  19  32  51  77 103 134 170 210 258 308
#     4   9  19  36  56  76 100 135 179 218 250 292
#     4  11  21  34  51  77 110 140 167 205 258 313
#     4   9  18  33  54  76 100 132 174 217 255 296
#     4  10  19  31  51  75 100 131 169 215 260 300
#     4  10  20  33  50  75 107 137 168 210 258 307
#
# _framework density 17.279772000000001
#
# number of rings (size 3 to 8) (size 9 to 14) (size 15 to 20)
#    0.000    2.167    1.667    2.000    0.000    4.667 
#    0.000    0.000    0.000    0.500    0.000    0.000 
#    0.000    0.000    0.000    0.000    0.000    0.000 
#
# Total GULP energy -133802.929673 kJ/mol
# GULP energy per Si atom -5575.122070 kJ/mol
# Density = 1.724044 g / cm^3
# Si number density = 17.279772 Si / 1000 Ang^3
#
#
#
# Elastic Constant Matrix: (Units=GPa)
#
#
# Indices 1 2 3 4 5 6 
#
# 1 41.1071 2.6031 -11.6945 0.0000 -14.0923 0.0000
# 2 2.6031 28.0444 4.3794 0.0000 -9.9278 0.0000
# 3 -11.6945 4.3794 27.8074 0.0000 -4.9849 0.0000
# 4 0.0000 0.0000 0.0000 22.0889 0.0000 -3.5043
# 5 -14.0923 -9.9278 -4.9849 0.0000 20.0580 0.0000
# 6 0.0000 0.0000 0.0000 -3.5043 0.0000 22.9998
#
#
#
# Elastic Compliance Matrix: (Units=1/GPa)
#
#
# Indices 1 2 3 4 5 6 
#
# 1 0.045359 0.006467 0.025479 0.000000 0.041402 0.000000
# 2 0.006467 0.044414 0.000503 0.000000 0.026652 0.000000
# 3 0.025479 0.000503 0.052176 0.000000 0.031117 0.000000
# 4 0.000000 0.000000 0.000000 0.046393 0.000000 0.007069
# 5 0.041402 0.026652 0.031117 0.000000 0.099868 0.000000
# 6 0.000000 0.000000 0.000000 0.007069 0.000000 0.044556
#
#
# Mechanical properties :
#
#
# Convention : Reuss Voigt Hill
#
# Bulk Modulus (GPa) = 4.83447 9.72609 7.28028
# Shear Modulus (GPa) = 14.84489 19.80740 17.32614
#
# Velocity S-wave (km/s) = 2.93420 3.38934 3.16995
# Velocity P-wave (km/s) = 3.77932 4.57796 4.19767
#
# Compressibility (1/GPa) = 0.20684792
#
# Stress axis : x y z
#
# Youngs Moduli (GPa) = 22.04632 22.51558 19.16578
#
# Poissons Ratio (x) = -0.14561 -0.48833
# Poissons Ratio (y) = -0.14258 -0.00964
# Poissons Ratio (z) = -0.56173 -0.01132
#
# Static dielectric constant tensor:
#      x y z
#    x 1.567990 0.000000 0.004200 
#    y 0.000000 1.592350 0.000000 
#    z 0.004200 0.000000 1.585360 
# 
# From -- ./inp_files/104953.got.cif
#   From: 2010.05.17/outbox.cif.g08.bks.cpg/sg12_53_cif.got.tgz:104953.got - 2010.06.03 13:09:07.
