data_PCOD9179569
_publ_section_title
;
Structure prediction by ZEFSAII (Michael W. Deem and Ramdas Pophale) SiO2 
 PCOD9179569
Probable space group: C 2/M
;
_chemical_formula_sum "Si O2"
_cell_formula_units_Z 56
_cell_length_a 18.514343
_cell_length_b 8.015449
_cell_length_c 23.922011
_cell_angle_alpha 90.000000
_cell_angle_beta 125.982335
_cell_angle_gamma 90.000000
_cell_volume 2872.689865
_symmetry_space_group_name_H-M "C 2/M"
_symmetry_group_IT_number 12
_symmetry_cell_setting 'monoclinic'
loop_
_space_group_symop_operation_xyz
x,y,z
-x,y,-z
-x,-y,-z
x,-y,z
1/2+x,1/2+y,z
1/2-x,1/2+y,-z
1/2-x,1/2-y,-z
1/2+x,1/2-y,z
loop_
_atom_site_type_symbol
_atom_site_label
_atom_site_fract_x
_atom_site_fract_y
_atom_site_fract_z
Si Si1 0.393900 0.199711 0.796496
Si Si2 0.562435 0.296554 0.351068
Si Si3 0.665082 0.298643 0.499802
Si Si4 0.906177 0.202519 0.930502
Si Si5 0.731216 0.196396 0.352465
Si Si6 0.747625 0.805643 0.935012
Si Si7 0.937165 0.196398 0.200014
O O1 0.395125 0.240699 0.861935
O O2 0.305050 0.262641 0.723197
O O3 0.480966 0.273794 0.805505
O O4 0.398138 0.000000 0.790969
O O5 0.569008 0.500000 0.350514
O O6 0.580169 0.247390 0.423528
O O7 0.643848 0.220604 0.352065
O O8 0.473427 0.246776 0.277347
O O9 0.662528 0.500000 0.502169
O O10 0.750000 0.250000 0.500000
O O11 0.688109 0.233804 0.572521
O O12 0.825745 0.269277 0.932266
O O13 0.905867 0.000000 0.929479
O O14 0.000000 0.255785 0.000000
O O15 0.749559 0.000000 0.353112
O O16 0.651784 0.778286 0.863456
O O17 0.766367 0.000000 0.945176
O O18 0.750000 0.750000 0.000000
O O19 0.919701 0.000000 0.195238
#
# Coordination Sequence:
#
# PCOD9179569 Si02
#       7
#     8   8   8   8   8   8   8
#     4  10  19  31  50  76 103 132 167 204 245 292
#     4   8  14  23  38  61  89 126 165 197 233 279
#     4   8  12  20  34  55  87 123 158 195 236 279
#     4  10  22  39  56  74  97 125 157 197 246 296
#     4   8  14  23  37  61  93 125 156 197 243 282
#     4  11  23  38  57  79 101 126 158 197 244 297
#     4  10  19  32  50  73 104 137 168 203 242 286
#
# _framework density 19.493925999999998
#
# number of rings (size 3 to 8) (size 9 to 14) (size 15 to 20)
#    0.000    2.714    0.000    2.143    0.000    3.714 
#    0.000    0.000    0.000    0.000    0.000    1.000 
#    0.000    8.000    0.000    0.000    0.000    0.571 
#
# Total GULP energy -155890.945368 kJ/mol
# GULP energy per Si atom -5567.533763 kJ/mol
# Density = 1.944956 g / cm^3
# Si number density = 19.493926 Si / 1000 Ang^3
#
#
#
# Elastic Constant Matrix: (Units=GPa)
#
#
# Indices 1 2 3 4 5 6 
#
# 1 42.7513 -7.8942 45.2505 0.0000 -1.1873 0.0000
# 2 -7.8942 13.9016 -5.5732 0.0000 -1.1233 0.0000
# 3 45.2505 -5.5732 208.0124 0.0000 -4.4190 0.0000
# 4 0.0000 0.0000 0.0000 1.5302 0.0000 -5.6934
# 5 -1.1873 -1.1233 -4.4190 0.0000 14.7756 0.0000
# 6 0.0000 0.0000 0.0000 -5.6934 0.0000 11.1280
#
#
#
# Elastic Compliance Matrix: (Units=1/GPa)
#
#
# Indices 1 2 3 4 5 6 
#
# 1 0.033768 0.016580 -0.006861 0.000000 0.001922 0.000000
# 2 0.016580 0.081416 -0.001274 0.000000 0.007141 0.000000
# 3 -0.006861 -0.001274 0.006292 0.000000 0.001234 0.000000
# 4 0.000000 0.000000 0.000000 -0.723196 0.000000 -0.370009
# 5 0.001922 0.007141 0.001234 0.000000 0.068745 0.000000
# 6 0.000000 0.000000 0.000000 -0.370009 0.000000 -0.099444
#
#
# Mechanical properties :
#
#
# Convention : Reuss Voigt Hill
#
# Bulk Modulus (GPa) = 7.22713 36.47017 21.84865
# Shear Modulus (GPa) = -8.28929 21.01223 6.36147
#
# Velocity S-wave (km/s) = -2.06433 3.28668 1.80842
# Velocity P-wave (km/s) = 1.40234 5.75779 3.94877
#
# Compressibility (1/GPa) = 0.13836760
#
# Stress axis : x y z
#
# Youngs Moduli (GPa) = 29.61388 12.28259 158.93323
#
# Poissons Ratio (x) = -0.20365 1.09040
# Poissons Ratio (y) = -0.49101 0.20245
# Poissons Ratio (z) = 0.20317 0.01565
#
# Static dielectric constant tensor:
#      x y z
#    x 1.721350 0.000000 -0.023450 
#    y 0.000000 1.796520 0.000000 
#    z -0.023450 0.000000 1.781770 
# 
# From -- ./inp_files/314352.got.cif
#   From: 2010.05.17/outbox.cif.g08.bks.cpg/sg12_158_cif.got.tgz:314352.got - 2010.06.03 13:09:07.
