data_PCOD9179171
_publ_section_title
;
Structure prediction by ZEFSAII (Michael W. Deem and Ramdas Pophale) SiO2 
 PCOD9179171
Probable space group: C 2/M
;
_chemical_formula_sum "Si O2"
_cell_formula_units_Z 64
_cell_length_a 19.045511
_cell_length_b 18.469275
_cell_length_c 22.167985
_cell_angle_alpha 90.000000
_cell_angle_beta 31.314888
_cell_angle_gamma 90.000000
_cell_volume 4052.805622
_symmetry_space_group_name_H-M "C 2/M"
_symmetry_group_IT_number 12
_symmetry_cell_setting 'monoclinic'
loop_
_space_group_symop_operation_xyz
x,y,z
-x,y,-z
-x,-y,-z
x,-y,z
1/2+x,1/2+y,z
1/2-x,1/2+y,-z
1/2-x,1/2-y,-z
1/2+x,1/2-y,z
loop_
_atom_site_type_symbol
_atom_site_label
_atom_site_fract_x
_atom_site_fract_y
_atom_site_fract_z
Si Si1 0.469691 0.215851 0.847042
Si Si2 0.596365 0.262143 0.874281
Si Si3 0.771825 0.156147 0.031921
Si Si4 0.507449 0.915124 0.565473
Si Si5 0.527784 0.420036 0.874985
Si Si6 0.677964 0.418686 0.636262
Si Si7 0.857212 0.707728 0.747247
Si Si8 0.395540 0.273627 0.369510
O O1 0.554699 0.217185 0.845845
O O2 0.362753 0.152277 0.910179
O O3 0.564917 0.229376 0.720003
O O4 0.373161 0.286543 0.925894
O O5 0.569152 0.348331 0.881668
O O6 0.750140 0.254938 0.781859
O O7 0.500000 0.240891 0.000000
O O8 0.720881 0.188153 0.133310
O O9 0.869342 0.089289 0.974627
O O10 0.500000 0.896229 0.500000
O O11 0.661844 0.905852 0.473855
O O12 0.411716 0.864531 0.675092
O O13 0.471319 0.000000 0.597449
O O14 0.552640 0.500000 0.883663
O O15 0.612783 0.415570 0.750691
O O16 0.657529 0.500000 0.627945
O O17 0.612975 0.357125 0.643261
O O18 0.986065 0.755651 0.670478
O O19 0.250000 0.250000 0.500000
#
# Coordination Sequence:
#
# PCOD9179171 Si02
#       8
#     8   8   8   8   8   8   8   8
#     4   9  18  32  49  66 101 128 163 211 261 289
#     4  11  19  31  45  72 104 137 165 203 248 304
#     4   9  17  32  47  68  96 134 164 214 253 283
#     4  10  21  34  47  68 107 146 169 202 252 302
#     4  10  19  31  49  70 102 142 175 199 235 299
#     4  10  19  34  51  69  96 136 170 206 260 305
#     4  11  21  30  50  75  98 134 180 210 254 302
#     4  11  20  34  53  74  94 131 176 224 251 297
#
# _framework density 15.79153
#
# number of rings (size 3 to 8) (size 9 to 14) (size 15 to 20)
#    0.000    1.875    6.250    0.750    0.000    2.250 
#    0.000    0.000    0.000    0.000    0.000    0.875 
#    0.000    6.500    0.000    0.000    0.000    0.000 
#
# Total GULP energy -178300.987152 kJ/mol
# GULP energy per Si atom -5571.905849 kJ/mol
# Density = 1.575559 g / cm^3
# Si number density = 15.791530 Si / 1000 Ang^3
#
#
#
# Elastic Constant Matrix: (Units=GPa)
#
#
# Indices 1 2 3 4 5 6 
#
# 1 104.9506 10.8809 31.4872 0.0000 -14.3163 0.0000
# 2 10.8809 16.7352 4.4038 -0.0009 -1.6177 0.0008
# 3 31.4872 4.4038 97.1497 -0.0018 -5.9113 0.0018
# 4 0.0000 -0.0009 -0.0018 9.3267 0.0010 7.6920
# 5 -14.3163 -1.6177 -5.9113 0.0010 23.9710 -0.0007
# 6 0.0000 0.0008 0.0018 7.6920 -0.0007 11.9549
#
#
#
# Elastic Compliance Matrix: (Units=1/GPa)
#
#
# Indices 1 2 3 4 5 6 
#
# 1 0.011964 -0.006357 -0.003229 -0.000006 0.005920 0.000005
# 2 -0.006357 0.064137 -0.000827 0.000020 0.000328 -0.000017
# 3 -0.003229 -0.000827 0.011428 0.000007 0.000834 -0.000006
# 4 -0.000006 0.000020 0.000007 0.228439 -0.000014 -0.146981
# 5 0.005920 0.000328 0.000834 -0.000014 0.045480 0.000012
# 6 0.000005 -0.000017 -0.000006 -0.146981 0.000012 0.178218
#
#
# Mechanical properties :
#
#
# Convention : Reuss Voigt Hill
#
# Bulk Modulus (GPa) = 14.99189 34.70882 24.85036
# Shear Modulus (GPa) = 8.58037 20.52141 14.55089
#
# Velocity S-wave (km/s) = 2.33352 3.60880 3.03881
# Velocity P-wave (km/s) = 4.09569 6.27628 5.29935
#
# Compressibility (1/GPa) = 0.06670273
#
# Stress axis : x y z
#
# Youngs Moduli (GPa) = 83.58640 15.59170 87.50253
#
# Poissons Ratio (x) = 0.09911 0.28256
# Poissons Ratio (y) = 0.53133 0.07238
# Poissons Ratio (z) = 0.26992 0.01290
#
# Static dielectric constant tensor:
#      x y z
#    x 1.551910 0.000000 -0.015080 
#    y 0.000000 1.523320 0.000000 
#    z -0.015080 0.000000 1.537360 
# 
# From -- ./inp_files/317791.got.cif
#   From: 2010.05.17/outbox.cif.g08.bks.cpg/sg12_159_cif.got.tgz:317791.got - 2010.06.03 13:09:07.
