data_PCOD9179535
_publ_section_title
;
Structure prediction by ZEFSAII (Michael W. Deem and Ramdas Pophale) SiO2 
 PCOD9179535
Probable space group: C 2/M
;
_chemical_formula_sum "Si O2"
_cell_formula_units_Z 36
_cell_length_a 25.289153
_cell_length_b 14.364756
_cell_length_c 6.110411
_cell_angle_alpha 90.000000
_cell_angle_beta 111.856676
_cell_angle_gamma 90.000000
_cell_volume 2060.184740
_symmetry_space_group_name_H-M "C 2/M"
_symmetry_group_IT_number 12
_symmetry_cell_setting 'monoclinic'
loop_
_space_group_symop_operation_xyz
x,y,z
-x,y,-z
-x,-y,-z
x,-y,z
1/2+x,1/2+y,z
1/2-x,1/2+y,-z
1/2-x,1/2-y,-z
1/2+x,1/2-y,z
loop_
_atom_site_type_symbol
_atom_site_label
_atom_site_fract_x
_atom_site_fract_y
_atom_site_fract_z
Si Si1 0.243300 0.106245 0.370034
Si Si2 0.639766 0.605410 0.871507
Si Si3 0.833489 0.758829 0.464185
Si Si4 0.527596 0.500000 0.297608
Si Si5 0.436017 0.324126 0.863051
O O1 0.211179 0.165520 0.507065
O O2 0.299508 0.163054 0.391388
O O3 0.254399 0.000000 0.453933
O O4 0.197569 0.104607 0.103759
O O5 0.634249 0.500000 0.770676
O O6 0.645287 0.693602 0.723770
O O7 0.587643 0.624848 0.956719
O O8 0.887333 0.753382 0.710673
O O9 0.500000 0.500000 0.500000
O O10 0.560674 0.402992 0.321014
O O11 0.500000 0.500000 0.000000
O O12 0.500000 0.288219 0.000000
#
# Coordination Sequence:
#
# PCOD9179535 Si02
#       5
#     8   8   8   4   8
#     4   9  19  36  49  75 103 128 173 221 271 318
#     4  10  19  31  50  75 103 133 170 211 266 323
#     4  10  20  31  54  73  99 140 171 214 266 330
#     4  10  22  34  50  76 116 154 184 220 273 334
#     4  10  22  32  46  75 108 140 174 217 260 323
#
# _framework density 17.474160999999999
#
# number of rings (size 3 to 8) (size 9 to 14) (size 15 to 20)
#    0.000    2.222    1.111    1.333    9.333    0.000 
#    0.000    0.000    0.000    0.667    0.000    1.556 
#    0.000    0.000    0.000    0.000    0.000    0.000 
#
# Total GULP energy -100247.340170 kJ/mol
# GULP energy per Si atom -5569.296676 kJ/mol
# Density = 1.743439 g / cm^3
# Si number density = 17.474161 Si / 1000 Ang^3
#
#
#
# Elastic Constant Matrix: (Units=GPa)
#
#
# Indices 1 2 3 4 5 6 
#
# 1 112.0830 42.0803 32.8914 0.0000 6.5486 0.0000
# 2 42.0803 77.9343 21.8724 0.0000 11.4754 0.0000
# 3 32.8914 21.8724 40.7423 0.0000 -4.2587 0.0000
# 4 0.0000 0.0000 0.0000 8.6075 0.0000 -3.5538
# 5 6.5486 11.4754 -4.2587 0.0000 31.8569 0.0000
# 6 0.0000 0.0000 0.0000 -3.5538 0.0000 23.4261
#
#
#
# Elastic Compliance Matrix: (Units=1/GPa)
#
#
# Indices 1 2 3 4 5 6 
#
# 1 0.013214 -0.004403 -0.008542 0.000000 -0.002272 0.000000
# 2 -0.004403 0.018089 -0.006838 0.000000 -0.006525 0.000000
# 3 -0.008542 -0.006838 0.036056 0.000000 0.009039 0.000000
# 4 0.000000 0.000000 0.000000 0.123940 0.000000 0.018802
# 5 -0.002272 -0.006525 0.009039 0.000000 0.035416 0.000000
# 6 0.000000 0.000000 0.000000 0.018802 0.000000 0.045540
#
#
# Mechanical properties :
#
#
# Convention : Reuss Voigt Hill
#
# Bulk Modulus (GPa) = 35.98015 47.16086 41.57051
# Shear Modulus (GPa) = 15.57213 21.70579 18.63896
#
# Velocity S-wave (km/s) = 2.98845 3.52826 3.26952
# Velocity P-wave (km/s) = 5.70465 6.60649 6.17206
#
# Compressibility (1/GPa) = 0.02779310
#
# Stress axis : x y z
#
# Youngs Moduli (GPa) = 75.67447 55.28294 27.73450
#
# Poissons Ratio (x) = 0.24343 0.23690
# Poissons Ratio (y) = 0.33322 0.18965
# Poissons Ratio (z) = 0.64639 0.37803
#
# Static dielectric constant tensor:
#      x y z
#    x 1.627480 0.000000 0.016590 
#    y 0.000000 1.582920 0.000000 
#    z 0.016590 0.000000 1.675420 
# 
# From -- ./inp_files/23883.got.cif
#   From: 2010.05.17/outbox.cif.g08.bks.cpg/sg12_12_cif.got.tgz:23883.got - 2010.06.03 13:09:07.
