data_PCOD9179204
_publ_section_title
;
Structure prediction by ZEFSAII (Michael W. Deem and Ramdas Pophale) SiO2 
 PCOD9179204
Probable space group: C 2/M
;
_chemical_formula_sum "Si O2"
_cell_formula_units_Z 48
_cell_length_a 28.972991
_cell_length_b 8.605922
_cell_length_c 11.712874
_cell_angle_alpha 90.000000
_cell_angle_beta 102.089385
_cell_angle_gamma 90.000000
_cell_volume 2855.709572
_symmetry_space_group_name_H-M "C 2/M"
_symmetry_group_IT_number 12
_symmetry_cell_setting 'monoclinic'
loop_
_space_group_symop_operation_xyz
x,y,z
-x,y,-z
-x,-y,-z
x,-y,z
1/2+x,1/2+y,z
1/2-x,1/2+y,-z
1/2-x,1/2-y,-z
1/2+x,1/2-y,z
loop_
_atom_site_type_symbol
_atom_site_label
_atom_site_fract_x
_atom_site_fract_y
_atom_site_fract_z
Si Si1 0.953517 0.188036 0.904810
Si Si2 0.024678 0.189204 0.339635
Si Si3 0.141265 0.685893 0.031662
Si Si4 0.738903 0.686387 0.120737
Si Si5 0.927361 0.187366 0.403189
Si Si6 0.840666 0.313047 0.221645
O O1 0.959731 0.240976 0.777141
O O2 0.906584 0.253007 0.938161
O O3 0.950893 0.000000 0.904475
O O4 0.000000 0.233199 0.000000
O O5 0.058647 0.237238 0.461347
O O6 0.971405 0.236771 0.345658
O O7 0.024498 0.000000 0.338748
O O8 0.142186 0.500000 0.032736
O O9 0.187587 0.747056 0.122152
O O10 0.145674 0.737469 0.900822
O O11 0.736409 0.500000 0.116601
O O12 0.785948 0.731811 0.214954
O O13 0.750000 0.750000 0.000000
O O14 0.878491 0.248589 0.329288
O O15 0.926304 0.000000 0.401582
O O16 0.842723 0.500000 0.224095
#
# Coordination Sequence:
#
# PCOD9179204 Si02
#       6
#     8   8   8   8   8   8
#     4  10  19  31  49  71  95 125 158 189 228 282
#     4   8  16  30  46  69  96 120 153 193 229 267
#     4  10  20  32  46  68  98 127 155 192 235 276
#     4   9  17  30  47  68  95 124 153 191 236 278
#     4   9  16  29  50  69  90 122 156 191 227 271
#     4   9  18  30  45  69  97 119 147 191 235 272
#
# _framework density 16.808432
#
# number of rings (size 3 to 8) (size 9 to 14) (size 15 to 20)
#    0.000    2.833    0.000    4.000    0.000    5.667 
#    0.000    3.333    0.000    1.000    0.000    0.000 
#    0.000    0.000    0.000    0.000    0.000    0.000 
#
# Total GULP energy -133708.844294 kJ/mol
# GULP energy per Si atom -5571.201846 kJ/mol
# Density = 1.677018 g / cm^3
# Si number density = 16.808432 Si / 1000 Ang^3
#
#
#
# Elastic Constant Matrix: (Units=GPa)
#
#
# Indices 1 2 3 4 5 6 
#
# 1 167.7133 33.3592 77.1041 0.0000 26.8028 0.0000
# 2 33.3592 16.4000 21.7828 0.0000 4.9120 0.0000
# 3 77.1041 21.7828 88.7156 0.0000 16.1120 0.0000
# 4 0.0000 0.0000 0.0000 17.7982 0.0000 5.3793
# 5 26.8028 4.9120 16.1120 0.0000 32.7144 0.0000
# 6 0.0000 0.0000 0.0000 5.3793 0.0000 30.6178
#
#
#
# Elastic Compliance Matrix: (Units=1/GPa)
#
#
# Indices 1 2 3 4 5 6 
#
# 1 0.012924 -0.016437 -0.006284 0.000000 -0.005026 0.000000
# 2 -0.016437 0.111643 -0.013758 0.000000 0.003480 0.000000
# 3 -0.006284 -0.013758 0.020648 0.000000 -0.002955 0.000000
# 4 0.000000 0.000000 0.000000 0.059336 0.000000 -0.010425
# 5 -0.005026 0.003480 -0.002955 0.000000 0.035618 0.000000
# 6 0.000000 0.000000 0.000000 -0.010425 0.000000 0.034492
#
#
# Mechanical properties :
#
#
# Convention : Reuss Voigt Hill
#
# Bulk Modulus (GPa) = 13.83966 59.70235 36.77100
# Shear Modulus (GPa) = 13.45146 25.59825 19.52486
#
# Velocity S-wave (km/s) = 2.83199 3.90672 3.41194
# Velocity P-wave (km/s) = 4.35261 7.47973 6.11930
#
# Compressibility (1/GPa) = 0.07225611
#
# Stress axis : x y z
#
# Youngs Moduli (GPa) = 77.37412 8.95713 48.43022
#
# Poissons Ratio (x) = 0.14723 0.30433
# Poissons Ratio (y) = 1.27183 0.66632
# Poissons Ratio (z) = 0.48621 0.12323
#
# Static dielectric constant tensor:
#      x y z
#    x 1.566990 0.000000 0.016710 
#    y 0.000000 1.572940 0.000000 
#    z 0.016710 0.000000 1.560670 
# 
# From -- ./inp_files/179194.got.cif
#   From: 2010.05.17/outbox.cif.g08.bks.cpg/sg12_90_cif.got.tgz:179194.got - 2010.06.03 13:09:07.
