data_PCOD9179488
_publ_section_title
;
Structure prediction by ZEFSAII (Michael W. Deem and Ramdas Pophale) SiO2 
 PCOD9179488
Probable space group: C 2/M
;
_chemical_formula_sum "Si O2"
_cell_formula_units_Z 64
_cell_length_a 23.804816
_cell_length_b 9.027014
_cell_length_c 17.136885
_cell_angle_alpha 90.000000
_cell_angle_beta 96.025181
_cell_angle_gamma 90.000000
_cell_volume 3662.141095
_symmetry_space_group_name_H-M "C 2/M"
_symmetry_group_IT_number 12
_symmetry_cell_setting 'monoclinic'
loop_
_space_group_symop_operation_xyz
x,y,z
-x,y,-z
-x,-y,-z
x,-y,z
1/2+x,1/2+y,z
1/2-x,1/2+y,-z
1/2-x,1/2-y,-z
1/2+x,1/2-y,z
loop_
_atom_site_type_symbol
_atom_site_label
_atom_site_fract_x
_atom_site_fract_y
_atom_site_fract_z
Si Si1 0.388321 0.670692 0.169277
Si Si2 0.526921 0.670164 0.668754
Si Si3 0.520560 0.822000 0.917265
Si Si4 0.297323 0.825817 0.255321
Si Si5 0.618557 0.174352 0.583797
Si Si6 0.691135 0.322738 0.463800
Si Si7 0.559460 0.824829 0.239021
Si Si8 0.814705 0.675894 0.704918
O O1 0.374119 0.500000 0.151887
O O2 0.431186 0.673704 0.249804
O O3 0.422502 0.743708 0.103526
O O4 0.334434 0.762494 0.189977
O O5 0.519882 0.500000 0.643619
O O6 0.559456 0.763649 0.607932
O O7 0.469286 0.738901 0.693301
O O8 0.473096 0.785984 0.845378
O O9 0.528717 0.000000 0.917614
O O10 0.500000 0.778117 0.000000
O O11 0.335475 0.807763 0.339381
O O12 0.239722 0.736882 0.258352
O O13 0.286516 0.000000 0.244612
O O14 0.642485 0.265270 0.514556
O O15 0.614782 0.000000 0.565297
O O16 0.695475 0.500000 0.466232
O O17 0.750000 0.250000 0.500000
O O18 0.681327 0.262966 0.375769
O O19 0.626005 0.799296 0.243123
O O20 0.550135 0.000000 0.251365
O O21 0.808304 0.500000 0.689402
#
# Coordination Sequence:
#
# PCOD9179488 Si02
#       8
#     8   8   8   8   8   8   8   8
#     4   9  17  29  48  76 107 134 167 210 255 302
#     4   9  17  30  50  74 100 133 170 213 259 305
#     4   9  17  32  56  83 109 136 168 207 252 305
#     4  10  19  31  50  74 101 134 174 215 257 305
#     4  10  19  32  51  74 100 131 170 219 266 308
#     4  12  23  35  51  73 102 134 174 220 263 308
#     4   9  19  35  53  76 105 138 172 207 255 311
#     4  11  22  35  52  73 103 139 174 214 259 310
#
# _framework density 17.476115
#
# number of rings (size 3 to 8) (size 9 to 14) (size 15 to 20)
#    0.000    2.125    1.250    3.000    0.000    5.250 
#    0.000    0.625    0.000    4.500    0.000    0.000 
#    0.000    0.000    0.000    0.000    0.000    0.000 
#
# Total GULP energy -178596.036015 kJ/mol
# GULP energy per Si atom -5581.126125 kJ/mol
# Density = 1.743634 g / cm^3
# Si number density = 17.476115 Si / 1000 Ang^3
#
#
#
# Elastic Constant Matrix: (Units=GPa)
#
#
# Indices 1 2 3 4 5 6 
#
# 1 94.3461 65.1972 42.5148 0.0000 -26.4823 0.0000
# 2 65.1972 111.1483 45.9709 0.0000 -19.6123 0.0000
# 3 42.5148 45.9709 70.6230 0.0000 -30.3414 0.0000
# 4 0.0000 0.0000 0.0000 21.1755 0.0000 -10.5246
# 5 -26.4823 -19.6123 -30.3414 0.0000 29.6464 0.0000
# 6 0.0000 0.0000 0.0000 -10.5246 0.0000 30.8117
#
#
#
# Elastic Compliance Matrix: (Units=1/GPa)
#
#
# Indices 1 2 3 4 5 6 
#
# 1 0.021146 -0.009787 -0.001830 0.000000 0.010542 0.000000
# 2 -0.009787 0.016841 -0.007211 0.000000 -0.004981 0.000000
# 3 -0.001830 -0.007211 0.030704 0.000000 0.025018 0.000000
# 4 0.000000 0.000000 0.000000 0.056881 0.000000 0.019429
# 5 0.010542 -0.004981 0.025018 0.000000 0.065457 0.000000
# 6 0.000000 0.000000 0.000000 0.019429 0.000000 0.039092
#
#
# Mechanical properties :
#
#
# Convention : Reuss Voigt Hill
#
# Bulk Modulus (GPa) = 32.22162 64.83148 48.52655
# Shear Modulus (GPa) = 17.97770 24.48902 21.23336
#
# Velocity S-wave (km/s) = 3.21082 3.74744 3.48946
# Velocity P-wave (km/s) = 5.67656 7.47677 6.63797
#
# Compressibility (1/GPa) = 0.03103506
#
# Stress axis : x y z
#
# Youngs Moduli (GPa) = 47.29003 59.37832 32.56915
#
# Poissons Ratio (x) = 0.58112 0.05962
# Poissons Ratio (y) = 0.46281 0.23485
# Poissons Ratio (z) = 0.08656 0.42817
#
# Static dielectric constant tensor:
#      x y z
#    x 1.594830 0.000000 0.009140 
#    y 0.000000 1.584380 0.000000 
#    z 0.009140 0.000000 1.576930 
# 
# From -- ./inp_files/281353.got.cif
#   From: 2010.05.17/outbox.cif.g08.bks.cpg/sg12_141_cif.got.tgz:281353.got - 2010.06.03 13:09:07.
