data_PCOD9179555
_publ_section_title
;
Structure prediction by ZEFSAII (Michael W. Deem and Ramdas Pophale) SiO2 
 PCOD9179555
Probable space group: C 2/M
;
_chemical_formula_sum "Si O2"
_cell_formula_units_Z 48
_cell_length_a 5.164177
_cell_length_b 14.649048
_cell_length_c 30.486132
_cell_angle_alpha 90.000000
_cell_angle_beta 84.906979
_cell_angle_gamma 90.000000
_cell_volume 2297.178849
_symmetry_space_group_name_H-M "C 2/M"
_symmetry_group_IT_number 12
_symmetry_cell_setting 'monoclinic'
loop_
_space_group_symop_operation_xyz
x,y,z
-x,y,-z
-x,-y,-z
x,-y,z
1/2+x,1/2+y,z
1/2-x,1/2+y,-z
1/2-x,1/2-y,-z
1/2+x,1/2-y,z
loop_
_atom_site_type_symbol
_atom_site_label
_atom_site_fract_x
_atom_site_fract_y
_atom_site_fract_z
Si Si1 0.236682 0.109780 0.526632
Si Si2 0.929235 0.611883 0.951983
Si Si3 0.147780 0.188557 0.810671
Si Si4 0.546068 0.391183 0.097041
Si Si5 0.699290 0.312930 0.714582
Si Si6 0.872195 0.189904 0.377452
O O1 0.500000 0.142684 0.500000
O O2 0.202403 0.139083 0.577154
O O3 0.000000 0.141380 0.500000
O O4 0.239367 0.000000 0.525743
O O5 0.920832 0.500000 0.952749
O O6 0.162005 0.641624 0.916254
O O7 0.654164 0.642947 0.936998
O O8 0.000000 0.640818 0.000000
O O9 0.434004 0.230461 0.812315
O O10 0.065898 0.130507 0.853652
O O11 0.141245 0.141969 0.762542
O O12 0.556758 0.500000 0.092194
O O13 0.485311 0.231414 0.713708
O O14 0.666840 0.362471 0.668344
O O15 0.666124 0.273528 0.376936
#
# Coordination Sequence:
#
# PCOD9179555 Si02
#       6
#     8   8   8   8   8   8
#     4  10  21  35  49  69 101 135 161 191 240 295
#     4   9  17  30  49  71  95 125 159 195 237 282
#     4  10  19  33  52  71  97 131 160 187 236 298
#     4  10  19  31  50  75  97 119 158 205 236 270
#     4   8  16  30  48  70  94 123 157 194 235 282
#     4  10  19  32  52  75  96 121 163 209 238 270
#
# _framework density 20.895197
#
# number of rings (size 3 to 8) (size 9 to 14) (size 15 to 20)
#    0.000    2.500    0.000    2.500    0.000    4.000 
#    0.000    0.833    0.000   10.000    0.000   21.000 
#    0.000    0.000    0.000    0.000    0.000    0.000 
#
# Total GULP energy -133881.227069 kJ/mol
# GULP energy per Si atom -5578.384461 kJ/mol
# Density = 2.084764 g / cm^3
# Si number density = 20.895197 Si / 1000 Ang^3
#
#
#
# Elastic Constant Matrix: (Units=GPa)
#
#
# Indices 1 2 3 4 5 6 
#
# 1 85.9193 -4.6040 5.1579 0.0000 1.0068 0.0000
# 2 -4.6040 26.5962 -0.0780 0.0000 4.0165 0.0000
# 3 5.1579 -0.0780 116.2819 0.0000 -3.1822 0.0000
# 4 0.0000 0.0000 0.0000 74.9642 0.0000 -18.6793
# 5 1.0068 4.0165 -3.1822 0.0000 33.9680 0.0000
# 6 0.0000 0.0000 0.0000 -18.6793 0.0000 -12.4895
#
#
#
# Elastic Compliance Matrix: (Units=1/GPa)
#
#
# Indices 1 2 3 4 5 6 
#
# 1 0.011793 0.002139 -0.000540 0.000000 -0.000653 0.000000
# 2 0.002139 0.038672 -0.000196 0.000000 -0.004654 0.000000
# 3 -0.000540 -0.000196 0.008647 0.000000 0.000849 0.000000
# 4 0.000000 0.000000 0.000000 0.009718 0.000000 -0.014534
# 5 -0.000653 -0.004654 0.000849 0.000000 0.030089 0.000000
# 6 0.000000 0.000000 0.000000 -0.014534 0.000000 -0.058330
#
#
# Mechanical properties :
#
#
# Convention : Reuss Voigt Hill
#
# Bulk Modulus (GPa) = 16.15052 25.52769 20.83911
# Shear Modulus (GPa) = 85.58283 34.50998 60.04641
#
# Velocity S-wave (km/s) = 6.40680 4.06837 5.36650
# Velocity P-wave (km/s) = 7.90414 5.85767 6.95657
#
# Compressibility (1/GPa) = 0.06191751
#
# Stress axis : x y z
#
# Youngs Moduli (GPa) = 84.79276 25.85863 115.64930
#
# Poissons Ratio (x) = -0.05530 0.06240
# Poissons Ratio (y) = -0.18133 0.02270
# Poissons Ratio (z) = 0.04575 0.00508
#
# Static dielectric constant tensor:
#      x y z
#    x 1.729390 0.000000 -0.002440 
#    y 0.000000 1.739660 0.000000 
#    z -0.002440 0.000000 1.788240 
# 
# From -- ./inp_files/330981.got.cif
#   From: 2010.05.17/outbox.cif.g08.bks.cpg/sg12_166_cif.got.tgz:330981.got - 2010.06.03 13:09:07.
