data_PCOD9179794
_publ_section_title
;
Structure prediction by ZEFSAII (Michael W. Deem and Ramdas Pophale) SiO2 
 PCOD9179794
Probable space group: C 2/M
;
_chemical_formula_sum "Si O2"
_cell_formula_units_Z 48
_cell_length_a 22.585098
_cell_length_b 23.446162
_cell_length_c 10.109134
_cell_angle_alpha 90.000000
_cell_angle_beta 154.602822
_cell_angle_gamma 90.000000
_cell_volume 2295.906847
_symmetry_space_group_name_H-M "C 2/M"
_symmetry_group_IT_number 12
_symmetry_cell_setting 'monoclinic'
loop_
_space_group_symop_operation_xyz
x,y,z
-x,y,-z
-x,-y,-z
x,-y,z
1/2+x,1/2+y,z
1/2-x,1/2+y,-z
1/2-x,1/2-y,-z
1/2+x,1/2-y,z
loop_
_atom_site_type_symbol
_atom_site_label
_atom_site_fract_x
_atom_site_fract_y
_atom_site_fract_z
Si Si1 0.213974 0.433503 0.015690
Si Si2 0.056846 0.933068 0.292765
Si Si3 0.737587 0.655000 0.535532
Si Si4 0.989311 0.366121 0.220655
Si Si5 0.108902 0.265284 0.341889
Si Si6 0.762175 0.932099 0.806466
O O1 0.166634 0.500000 0.925749
O O2 0.341226 0.428201 0.374254
O O3 0.093572 0.391970 0.823533
O O4 0.259483 0.421020 0.958516
O O5 0.130960 0.896365 0.329029
O O6 0.051615 0.000000 0.248191
O O7 0.906183 0.912882 0.034094
O O8 0.773352 0.692187 0.478738
O O9 0.674261 0.704278 0.503515
O O10 0.881075 0.631277 0.881571
O O11 0.036612 0.300092 0.313370
O O12 0.125075 0.403608 0.472697
O O13 0.000000 0.257599 0.000000
O O14 0.754446 0.000000 0.772543
#
# Coordination Sequence:
#
# PCOD9179794 Si02
#       6
#     8   8   8   8   8   8
#     4   9  17  32  53  76 106 143 178 209 247 303
#     4   9  18  32  53  81 109 137 171 213 257 298
#     4   9  19  36  56  77 102 134 172 213 261 313
#     4  10  19  31  52  79 103 129 172 219 256 297
#     4   9  19  36  58  77  95 131 179 217 255 310
#     4  10  19  31  51  79 109 142 176 208 250 307
#
# _framework density 20.906770999999999
#
# number of rings (size 3 to 8) (size 9 to 14) (size 15 to 20)
#    0.000    2.667    0.000    1.500    0.000    8.000 
#    0.000    1.667    0.000   30.000    0.000    0.000 
#    0.000    0.000    0.000    0.000    0.000    0.000 
#
# Total GULP energy -133933.335041 kJ/mol
# GULP energy per Si atom -5580.555627 kJ/mol
# Density = 2.085919 g / cm^3
# Si number density = 20.906771 Si / 1000 Ang^3
#
#
#
# Elastic Constant Matrix: (Units=GPa)
#
#
# Indices 1 2 3 4 5 6 
#
# 1 76.7018 55.2924 39.2624 0.0000 14.4876 0.0000
# 2 55.2924 67.8706 43.1725 0.0000 13.5611 0.0000
# 3 39.2624 43.1725 119.9348 0.0000 24.2649 0.0000
# 4 0.0000 0.0000 0.0000 31.4083 0.0000 10.5782
# 5 14.4876 13.5611 24.2649 0.0000 30.8807 0.0000
# 6 0.0000 0.0000 0.0000 10.5782 0.0000 29.3300
#
#
#
# Elastic Compliance Matrix: (Units=1/GPa)
#
#
# Indices 1 2 3 4 5 6 
#
# 1 0.032072 -0.024907 -0.000835 0.000000 -0.003452 0.000000
# 2 -0.024907 0.038786 -0.005619 0.000000 -0.000932 0.000000
# 3 -0.000835 -0.005619 0.011956 0.000000 -0.006535 0.000000
# 4 0.000000 0.000000 0.000000 0.036241 0.000000 -0.013071
# 5 -0.003452 -0.000932 -0.006535 0.000000 0.039547 0.000000
# 6 0.000000 0.000000 0.000000 -0.013071 0.000000 0.038809
#
#
# Mechanical properties :
#
#
# Convention : Reuss Voigt Hill
#
# Bulk Modulus (GPa) = 49.77351 59.99576 54.88463
# Shear Modulus (GPa) = 18.73844 26.77580 22.75712
#
# Velocity S-wave (km/s) = 2.99705 3.58260 3.30283
# Velocity P-wave (km/s) = 5.98627 6.77292 6.39171
#
# Compressibility (1/GPa) = 0.02009101
#
# Stress axis : x y z
#
# Youngs Moduli (GPa) = 31.17969 25.78251 83.63900
#
# Poissons Ratio (x) = 0.64218 0.06984
# Poissons Ratio (y) = 0.77661 0.46999
# Poissons Ratio (z) = 0.02603 0.14488
#
# Static dielectric constant tensor:
#      x y z
#    x 1.762560 0.000000 0.004430 
#    y 0.000000 1.751520 0.000000 
#    z 0.004430 0.000000 1.792590 
# 
# From -- ./inp_files/184843.got.cif
#   From: 2010.05.17/outbox.cif.g08.bks.cpg/sg12_93_cif.got.tgz:184843.got - 2010.06.03 13:09:07.
