data_PCOD9179763
_publ_section_title
;
Structure prediction by ZEFSAII (Michael W. Deem and Ramdas Pophale) SiO2 
 PCOD9179763
Probable space group: C 2/M
;
_chemical_formula_sum "Si O2"
_cell_formula_units_Z 56
_cell_length_a 5.607569
_cell_length_b 25.446228
_cell_length_c 17.211730
_cell_angle_alpha 90.000000
_cell_angle_beta 70.817386
_cell_angle_gamma 90.000000
_cell_volume 2319.602384
_symmetry_space_group_name_H-M "C 2/M"
_symmetry_group_IT_number 12
_symmetry_cell_setting 'monoclinic'
loop_
_space_group_symop_operation_xyz
x,y,z
-x,y,-z
-x,-y,-z
x,-y,z
1/2+x,1/2+y,z
1/2-x,1/2+y,-z
1/2-x,1/2-y,-z
1/2+x,1/2-y,z
loop_
_atom_site_type_symbol
_atom_site_label
_atom_site_fract_x
_atom_site_fract_y
_atom_site_fract_z
Si Si1 0.279925 0.234141 0.617223
Si Si2 0.250895 0.078075 0.999126
Si Si3 0.516183 0.267484 0.802269
Si Si4 0.439008 0.389808 0.815096
Si Si5 0.067244 0.436230 0.179132
Si Si6 0.602948 0.560579 0.399435
Si Si7 0.399026 0.112802 0.598947
O O1 0.549619 0.263062 0.580396
O O2 0.144426 0.255700 0.709964
O O3 0.358711 0.173933 0.619126
O O4 0.165422 0.110050 0.083874
O O5 0.500000 0.049728 0.000000
O O6 0.345054 0.098534 0.905986
O O7 0.000000 0.049733 0.000000
O O8 0.237569 0.242634 0.841594
O O9 0.478102 0.329187 0.791657
O O10 0.707618 0.420160 0.786885
O O11 0.224542 0.418644 0.786574
O O12 0.076392 0.500000 0.167165
O O13 0.500000 0.561282 0.500000
O O14 0.643555 0.500000 0.373058
O O15 0.375105 0.585591 0.374615
O O16 0.874384 0.589188 0.373616
O O17 0.500000 0.107999 0.500000
#
# Coordination Sequence:
#
# PCOD9179763 Si02
#       7
#     8   8   8   8   8   8   8
#     4  10  21  36  54  76 100 129 168 211 257 311
#     4   8  16  27  44  69 100 126 156 193 237 285
#     4  10  21  38  58  74  92 129 177 217 254 296
#     4  10  19  32  52  74  99 129 168 210 241 286
#     4  10  19  31  51  78 107 136 163 195 245 306
#     4   9  17  30  49  74 103 136 172 201 230 285
#     4  10  19  31  51  78 106 135 166 206 257 303
#
# _framework density 24.142071000000001
#
# number of rings (size 3 to 8) (size 9 to 14) (size 15 to 20)
#    0.000    2.429    0.000    2.571    0.000    7.429 
#    0.000    0.000    0.000   28.286    0.000    0.000 
#    0.000    0.000    0.000    0.000    0.000    0.000 
#
# Total GULP energy -155953.126249 kJ/mol
# GULP energy per Si atom -5569.754509 kJ/mol
# Density = 2.408712 g / cm^3
# Si number density = 24.142071 Si / 1000 Ang^3
#
#
#
# Elastic Constant Matrix: (Units=GPa)
#
#
# Indices 1 2 3 4 5 6 
#
# 1 299.1194 101.7622 29.3667 0.0000 -17.8303 0.0000
# 2 101.7622 129.2103 -5.9355 0.0000 -7.0891 0.0000
# 3 29.3667 -5.9355 82.5102 0.0000 -8.4031 0.0000
# 4 0.0000 0.0000 0.0000 34.4536 0.0000 -5.2654
# 5 -17.8303 -7.0891 -8.4031 0.0000 40.8241 0.0000
# 6 0.0000 0.0000 0.0000 -5.2654 0.0000 48.8618
#
#
#
# Elastic Compliance Matrix: (Units=1/GPa)
#
#
# Indices 1 2 3 4 5 6 
#
# 1 0.004926 -0.003909 -0.001925 0.000000 0.001077 0.000000
# 2 -0.003909 0.010957 0.002247 0.000000 0.000658 0.000000
# 3 -0.001925 0.002247 0.013197 0.000000 0.002266 0.000000
# 4 0.000000 0.000000 0.000000 0.029511 0.000000 0.003180
# 5 0.001077 0.000658 0.002266 0.000000 0.025546 0.000000
# 6 0.000000 0.000000 0.000000 0.003180 0.000000 0.020809
#
#
# Mechanical properties :
#
#
# Convention : Reuss Voigt Hill
#
# Bulk Modulus (GPa) = 45.65003 84.58075 65.11539
# Shear Modulus (GPa) = 41.86807 50.53766 46.20286
#
# Velocity S-wave (km/s) = 4.16893 4.58027 4.37943
# Velocity P-wave (km/s) = 6.49025 7.94245 7.25279
#
# Compressibility (1/GPa) = 0.02190579
#
# Stress axis : x y z
#
# Youngs Moduli (GPa) = 202.99675 91.26347 75.77380
#
# Poissons Ratio (x) = 0.35676 0.14586
# Poissons Ratio (y) = 0.79353 -0.17023
# Poissons Ratio (z) = 0.39074 -0.20503
#
# Static dielectric constant tensor:
#      x y z
#    x 1.995120 0.000000 0.018510 
#    y 0.000000 1.796320 0.000000 
#    z 0.018510 0.000000 2.067160 
# 
# From -- ./inp_files/331252.got.cif
#   From: 2010.05.17/outbox.cif.g08.bks.cpg/sg12_166_cif.got.tgz:331252.got - 2010.06.03 13:09:07.
