data_PCOD9179495
_publ_section_title
;
Structure prediction by ZEFSAII (Michael W. Deem and Ramdas Pophale) SiO2 
 PCOD9179495
Probable space group: C 2/M
;
_chemical_formula_sum "Si O2"
_cell_formula_units_Z 48
_cell_length_a 24.062649
_cell_length_b 8.920948
_cell_length_c 15.105823
_cell_angle_alpha 90.000000
_cell_angle_beta 119.515479
_cell_angle_gamma 90.000000
_cell_volume 2821.819362
_symmetry_space_group_name_H-M "C 2/M"
_symmetry_group_IT_number 12
_symmetry_cell_setting 'monoclinic'
loop_
_space_group_symop_operation_xyz
x,y,z
-x,y,-z
-x,-y,-z
x,-y,z
1/2+x,1/2+y,z
1/2-x,1/2+y,-z
1/2-x,1/2-y,-z
1/2+x,1/2-y,z
loop_
_atom_site_type_symbol
_atom_site_label
_atom_site_fract_x
_atom_site_fract_y
_atom_site_fract_z
Si Si1 0.438953 0.177251 0.640330
Si Si2 0.429895 0.676265 0.249966
Si Si3 0.692296 0.322376 0.398014
Si Si4 0.902741 0.173501 0.436104
Si Si5 0.772087 0.676149 0.294467
Si Si6 0.294409 0.178326 0.109092
O O1 0.504365 0.247829 0.728231
O O2 0.374978 0.247843 0.631609
O O3 0.435052 0.221456 0.533555
O O4 0.438850 0.000000 0.650979
O O5 0.429675 0.500000 0.229334
O O6 0.426132 0.691678 0.354065
O O7 0.365555 0.752800 0.163806
O O8 0.689646 0.500000 0.414937
O O9 0.750000 0.250000 0.500000
O O10 0.711565 0.302939 0.310117
O O11 0.828517 0.219227 0.374887
O O12 0.911919 0.000000 0.469314
O O13 0.791728 0.500000 0.318761
O O14 0.765954 0.706916 0.185405
O O15 0.298106 0.000000 0.100242
O O16 0.250000 0.250000 0.000000
#
# Coordination Sequence:
#
# PCOD9179495 Si02
#       6
#     8   8   8   8   8   8
#     4  12  23  33  48  73 108 149 182 216 262 316
#     4  10  21  36  53  77 105 137 178 224 271 319
#     4  11  21  34  52  76 107 147 186 222 258 307
#     4  10  19  31  50  74 104 140 179 221 263 311
#     4   9  19  34  53  77 107 140 179 219 263 314
#     4  10  20  37  60  85 108 135 171 219 273 326
#
# _framework density 17.010300999999998
#
# number of rings (size 3 to 8) (size 9 to 14) (size 15 to 20)
#    0.000    1.667    1.667    4.000    0.000    5.333 
#    0.000    0.000    0.000    1.000    0.000    7.000 
#    0.000    0.000    0.000    0.000    0.000    0.000 
#
# Total GULP energy -133996.642971 kJ/mol
# GULP energy per Si atom -5583.193457 kJ/mol
# Density = 1.697159 g / cm^3
# Si number density = 17.010301 Si / 1000 Ang^3
#
#
#
# Elastic Constant Matrix: (Units=GPa)
#
#
# Indices 1 2 3 4 5 6 
#
# 1 111.0820 70.1436 61.8193 0.0000 29.4356 0.0000
# 2 70.1436 122.7413 65.6750 0.0000 18.4217 0.0000
# 3 61.8193 65.6750 106.1063 0.0000 16.8282 0.0000
# 4 0.0000 0.0000 0.0000 29.7528 0.0000 3.1237
# 5 29.4356 18.4217 16.8282 0.0000 18.6774 0.0000
# 6 0.0000 0.0000 0.0000 3.1237 0.0000 24.7130
#
#
#
# Elastic Compliance Matrix: (Units=1/GPa)
#
#
# Indices 1 2 3 4 5 6 
#
# 1 0.022343 -0.006313 -0.005265 0.000000 -0.024242 0.000000
# 2 -0.006313 0.014590 -0.005423 0.000000 0.000445 0.000000
# 3 -0.005265 -0.005423 0.015966 0.000000 -0.000738 0.000000
# 4 0.000000 0.000000 0.000000 0.034062 0.000000 -0.004305
# 5 -0.024242 0.000445 -0.000738 0.000000 0.091972 0.000000
# 6 0.000000 0.000000 0.000000 -0.004305 0.000000 0.041009
#
#
# Mechanical properties :
#
#
# Convention : Reuss Voigt Hill
#
# Bulk Modulus (GPa) = 52.92069 81.68948 67.30508
# Shear Modulus (GPa) = 19.21293 24.11476 21.66384
#
# Velocity S-wave (km/s) = 3.36443 3.76926 3.57259
# Velocity P-wave (km/s) = 6.80228 8.18968 7.52801
#
# Compressibility (1/GPa) = 0.01889620
#
# Stress axis : x y z
#
# Youngs Moduli (GPa) = 44.75773 68.54177 62.63379
#
# Poissons Ratio (x) = 0.43268 0.32978
# Poissons Ratio (y) = 0.28254 0.33967
# Poissons Ratio (z) = 0.23566 0.37171
#
# Static dielectric constant tensor:
#      x y z
#    x 1.597630 0.000000 -0.008170 
#    y 0.000000 1.567230 0.000000 
#    z -0.008170 0.000000 1.551550 
# 
# From -- ./inp_files/280755.got.cif
#   From: 2010.05.17/outbox.cif.g08.bks.cpg/sg12_141_cif.got.tgz:280755.got - 2010.06.03 13:09:07.
