data_PCOD9179068
_publ_section_title
;
Structure prediction by ZEFSAII (Michael W. Deem and Ramdas Pophale) SiO2 
 PCOD9179068
Probable space group: C 2/M
;
_chemical_formula_sum "Si O2"
_cell_formula_units_Z 64
_cell_length_a 23.273673
_cell_length_b 7.438918
_cell_length_c 17.721946
_cell_angle_alpha 90.000000
_cell_angle_beta 100.967570
_cell_angle_gamma 90.000000
_cell_volume 3012.176350
_symmetry_space_group_name_H-M "C 2/M"
_symmetry_group_IT_number 12
_symmetry_cell_setting 'monoclinic'
loop_
_space_group_symop_operation_xyz
x,y,z
-x,y,-z
-x,-y,-z
x,-y,z
1/2+x,1/2+y,z
1/2-x,1/2+y,-z
1/2-x,1/2-y,-z
1/2+x,1/2-y,z
loop_
_atom_site_type_symbol
_atom_site_label
_atom_site_fract_x
_atom_site_fract_y
_atom_site_fract_z
Si Si1 0.441575 0.290209 0.269881
Si Si2 0.593255 0.780591 0.041510
Si Si3 0.975856 0.779942 0.575955
Si Si4 0.725778 0.785056 0.077183
Si Si5 0.513622 0.216829 0.883244
Si Si6 0.343084 0.285254 0.543408
Si Si7 0.765489 0.785173 0.384526
Si Si8 0.808673 0.220671 0.232461
O O1 0.433677 0.500000 0.286629
O O2 0.481476 0.215420 0.346966
O O3 0.473706 0.277259 0.197814
O O4 0.375891 0.216919 0.245995
O O5 0.659328 0.716856 0.067609
O O6 0.547968 0.725261 0.095568
O O7 0.593688 0.000000 0.041475
O O8 0.564324 0.725601 0.954570
O O9 0.908944 0.718391 0.568901
O O10 0.000000 0.729096 0.500000
O O11 0.975213 0.000000 0.578262
O O12 0.770061 0.717519 0.152153
O O13 0.722538 0.000000 0.085822
O O14 0.750000 0.750000 0.000000
O O15 0.513687 0.000000 0.882838
O O16 0.347040 0.500000 0.535592
O O17 0.299779 0.251019 0.602296
O O18 0.309895 0.215174 0.460165
O O19 0.780678 0.721462 0.304902
O O20 0.772575 0.000000 0.384696
O O21 0.808712 0.000000 0.230349
#
# Coordination Sequence:
#
# PCOD9179068 Si02
#       8
#     8   8   8   8   8   8   8   8
#     4  10  19  31  48  71  95 118 152 197 235 266
#     4   8  16  31  50  68  90 124 159 185 217 277
#     4   9  17  30  49  69  91 124 160 189 223 274
#     4  10  19  32  49  69  93 121 154 191 231 273
#     4   9  17  32  51  69  91 122 157 188 225 275
#     4   9  17  30  49  72  95 120 154 193 228 266
#     4   9  17  31  50  70  94 125 156 185 225 276
#     4   9  18  31  48  69  93 122 155 190 228 275
#
# _framework density 21.247097
#
# number of rings (size 3 to 8) (size 9 to 14) (size 15 to 20)
#    0.000    2.875    0.000    2.250    0.000    4.000 
#    0.000    5.000    0.000    3.000    0.000    0.000 
#    0.000    0.000    0.000    0.000    0.000    0.000 
#
# Total GULP energy -178681.480528 kJ/mol
# GULP energy per Si atom -5583.796266 kJ/mol
# Density = 2.119874 g / cm^3
# Si number density = 21.247097 Si / 1000 Ang^3
#
#
#
# Elastic Constant Matrix: (Units=GPa)
#
#
# Indices 1 2 3 4 5 6 
#
# 1 219.9527 3.6525 135.6172 0.0000 16.6493 0.0000
# 2 3.6525 64.3569 -2.7426 0.0000 6.9524 0.0000
# 3 135.6172 -2.7426 197.1067 0.0000 2.1496 0.0000
# 4 0.0000 0.0000 0.0000 11.5623 0.0000 -8.8833
# 5 16.6493 6.9524 2.1496 0.0000 23.7131 0.0000
# 6 0.0000 0.0000 0.0000 -8.8833 0.0000 7.6641
#
#
#
# Elastic Compliance Matrix: (Units=1/GPa)
#
#
# Indices 1 2 3 4 5 6 
#
# 1 0.008554 -0.000147 -0.005828 0.000000 -0.005434 0.000000
# 2 -0.000147 0.016064 0.000375 0.000000 -0.004641 0.000000
# 3 -0.005828 0.000375 0.009054 0.000000 0.003161 0.000000
# 4 0.000000 0.000000 0.000000 0.789950 0.000000 0.915610
# 5 -0.005434 -0.004641 0.003161 0.000000 0.047060 0.000000
# 6 0.000000 0.000000 0.000000 0.915610 0.000000 1.191739
#
#
# Mechanical properties :
#
#
# Convention : Reuss Voigt Hill
#
# Bulk Modulus (GPa) = 44.49916 83.83006 64.16461
# Shear Modulus (GPa) = 2.40256 31.58049 16.99153
#
# Velocity S-wave (km/s) = 1.06453 3.85950 2.83098
# Velocity P-wave (km/s) = 4.74342 7.70723 6.39928
#
# Compressibility (1/GPa) = 0.02247233
#
# Stress axis : x y z
#
# Youngs Moduli (GPa) = 116.90970 62.25100 110.44808
#
# Poissons Ratio (x) = 0.00914 0.64369
# Poissons Ratio (y) = 0.01716 -0.04143
# Poissons Ratio (z) = 0.68135 -0.02335
#
# Static dielectric constant tensor:
#      x y z
#    x 1.744380 0.000000 0.013500 
#    y 0.000000 1.844180 0.000000 
#    z 0.013500 0.000000 1.721630 
# 
# From -- ./inp_files/281427.got.cif
#   From: 2010.05.17/outbox.cif.g08.bks.cpg/sg12_141_cif.got.tgz:281427.got - 2010.06.03 13:09:07.
