data_PCOD9179523
_publ_section_title
;
Structure prediction by ZEFSAII (Michael W. Deem and Ramdas Pophale) SiO2 
 PCOD9179523
Probable space group: C 2/M
;
_chemical_formula_sum "Si O2"
_cell_formula_units_Z 64
_cell_length_a 22.400226
_cell_length_b 7.753606
_cell_length_c 20.322200
_cell_angle_alpha 90.000000
_cell_angle_beta 60.467089
_cell_angle_gamma 90.000000
_cell_volume 3071.018217
_symmetry_space_group_name_H-M "C 2/M"
_symmetry_group_IT_number 12
_symmetry_cell_setting 'monoclinic'
loop_
_space_group_symop_operation_xyz
x,y,z
-x,y,-z
-x,-y,-z
x,-y,z
1/2+x,1/2+y,z
1/2-x,1/2+y,-z
1/2-x,1/2-y,-z
1/2+x,1/2-y,z
loop_
_atom_site_type_symbol
_atom_site_label
_atom_site_fract_x
_atom_site_fract_y
_atom_site_fract_z
Si Si1 0.533654 0.296053 0.742365
Si Si2 0.111909 0.205050 0.828762
Si Si3 0.229480 0.791153 0.122733
Si Si4 0.596577 0.797782 0.122535
Si Si5 0.730153 0.299766 0.265295
Si Si6 0.388462 0.208403 0.027250
Si Si7 0.220033 0.789662 0.415587
Si Si8 0.358909 0.294849 0.415917
O O1 0.547130 0.500000 0.734253
O O2 0.566753 0.229104 0.792543
O O3 0.452901 0.274003 0.794433
O O4 0.573858 0.224259 0.657392
O O5 0.186921 0.290169 0.783009
O O6 0.082787 0.238247 0.917570
O O7 0.121649 0.000000 0.816881
O O8 0.175498 0.731790 0.098224
O O9 0.207042 0.726424 0.207604
O O10 0.308125 0.736874 0.069798
O O11 0.229522 0.000000 0.123256
O O12 0.583887 0.000000 0.127243
O O13 0.580935 0.725446 0.058103
O O14 0.709233 0.500000 0.277092
O O15 0.708827 0.225650 0.347427
O O16 0.390441 0.000000 0.024991
O O17 0.294727 0.734458 0.401646
O O18 0.165592 0.727358 0.499799
O O19 0.220230 0.000000 0.414553
O O20 0.367311 0.500000 0.420618
#
# Coordination Sequence:
#
# PCOD9179523 Si02
#       8
#     8   8   8   8   8   8   8   8
#     4  10  21  35  49  69 104 140 167 199 242 293
#     4  10  19  31  50  75 101 132 166 200 242 294
#     4   9  18  34  54  73  98 127 158 203 255 299
#     4  11  23  36  52  73  95 127 172 211 247 294
#     4   9  17  30  50  77 105 131 160 200 250 296
#     4   9  20  37  54  74  99 125 158 208 258 297
#     4   9  16  27  49  77 103 131 163 199 241 289
#     4   9  17  30  47  72 105 135 164 199 238 286
#
# _framework density 20.839994000000001
#
# number of rings (size 3 to 8) (size 9 to 14) (size 15 to 20)
#    0.000    2.500    1.250    1.875    0.000    5.000 
#    0.000    2.500    0.000    0.750    0.000    5.250 
#    0.000    0.000    0.000    0.000    0.000    0.000 
#
# Total GULP energy -178466.631193 kJ/mol
# GULP energy per Si atom -5577.082225 kJ/mol
# Density = 2.079256 g / cm^3
# Si number density = 20.839994 Si / 1000 Ang^3
#
#
#
# Elastic Constant Matrix: (Units=GPa)
#
#
# Indices 1 2 3 4 5 6 
#
# 1 22.3283 -7.6028 2.8386 0.0002 3.9607 0.0015
# 2 -7.6028 24.6535 7.9371 0.0002 1.2777 0.0029
# 3 2.8386 7.9371 135.4083 0.0001 7.8664 0.0001
# 4 0.0002 0.0002 0.0001 13.5640 0.0000 0.2330
# 5 3.9607 1.2777 7.8664 0.0000 29.3209 0.0002
# 6 0.0015 0.0029 0.0001 0.2330 0.0002 15.4556
#
#
#
# Elastic Compliance Matrix: (Units=1/GPa)
#
#
# Indices 1 2 3 4 5 6 
#
# 1 0.052077 0.016974 -0.001661 -0.000001 -0.007329 -0.000008
# 2 0.016974 0.046915 -0.002899 -0.000001 -0.003560 -0.000010
# 3 -0.001661 -0.002899 0.007689 0.000000 -0.001712 0.000001
# 4 -0.000001 -0.000001 0.000000 0.073744 0.000000 -0.001112
# 5 -0.007329 -0.003560 -0.001712 0.000000 0.035710 0.000001
# 6 -0.000008 -0.000010 0.000001 -0.001112 0.000001 0.064718
#
#
# Mechanical properties :
#
#
# Convention : Reuss Voigt Hill
#
# Bulk Modulus (GPa) = 7.60398 20.97066 14.28732
# Shear Modulus (GPa) = 16.67442 23.61592 20.14517
#
# Velocity S-wave (km/s) = 2.83170 3.36996 3.11249
# Velocity P-wave (km/s) = 3.78788 5.02262 4.44830
#
# Compressibility (1/GPa) = 0.13151002
#
# Stress axis : x y z
#
# Youngs Moduli (GPa) = 19.20227 21.31532 130.05105
#
# Poissons Ratio (x) = -0.36181 0.21600
# Poissons Ratio (y) = -0.32595 0.37702
# Poissons Ratio (z) = 0.03189 0.06179
#
# Static dielectric constant tensor:
#      x y z
#    x 1.721500 0.000000 0.013210 
#    y 0.000000 1.747560 0.000000 
#    z 0.013210 0.000000 1.823230 
# 
# From -- ./inp_files/319854.got.cif
#   From: 2010.05.17/outbox.cif.g08.bks.cpg/sg12_160_cif.got.tgz:319854.got - 2010.06.03 13:09:07.
