data_PCOD9179132
_publ_section_title
;
Structure prediction by ZEFSAII (Michael W. Deem and Ramdas Pophale) SiO2 
 PCOD9179132
Probable space group: C 2/M
;
_chemical_formula_sum "Si O2"
_cell_formula_units_Z 56
_cell_length_a 21.075644
_cell_length_b 7.439188
_cell_length_c 17.869495
_cell_angle_alpha 90.000000
_cell_angle_beta 75.843384
_cell_angle_gamma 90.000000
_cell_volume 2716.596129
_symmetry_space_group_name_H-M "C 2/M"
_symmetry_group_IT_number 12
_symmetry_cell_setting 'monoclinic'
loop_
_space_group_symop_operation_xyz
x,y,z
-x,y,-z
-x,-y,-z
x,-y,z
1/2+x,1/2+y,z
1/2-x,1/2+y,-z
1/2-x,1/2-y,-z
1/2+x,1/2-y,z
loop_
_atom_site_type_symbol
_atom_site_label
_atom_site_fract_x
_atom_site_fract_y
_atom_site_fract_z
Si Si1 0.430087 0.283691 0.327534
Si Si2 0.687268 0.720350 0.744433
Si Si3 0.171844 0.710793 0.348175
Si Si4 0.649637 0.290313 0.077229
Si Si5 0.704564 0.718292 0.908821
Si Si6 0.427770 0.213149 0.501349
Si Si7 0.574595 0.718326 0.240026
O O1 0.431647 0.500000 0.322419
O O2 0.373945 0.220665 0.287431
O O3 0.415119 0.237117 0.417546
O O4 0.502574 0.219497 0.284441
O O5 0.687828 0.500000 0.744498
O O6 0.756157 0.783634 0.689794
O O7 0.683989 0.775514 0.832144
O O8 0.182063 0.500000 0.361206
O O9 0.129069 0.787698 0.428763
O O10 0.127239 0.726881 0.287195
O O11 0.633234 0.500000 0.072790
O O12 0.721243 0.276233 0.094750
O O13 0.598347 0.215865 0.151878
O O14 0.659755 0.216314 0.990725
O O15 0.704896 0.500000 0.910593
O O16 0.500000 0.286895 0.500000
O O17 0.430678 0.000000 0.516612
O O18 0.574498 0.500000 0.238873
#
# Coordination Sequence:
#
# PCOD9179132 Si02
#       7
#     8   8   8   8   8   8   8
#     4  10  21  35  51  71 101 135 163 197 246 300
#     4   9  18  33  51  73  99 131 167 198 239 296
#     4  10  19  33  54  73  95 128 167 205 241 289
#     4   9  17  28  46  75 102 123 159 206 243 278
#     4   9  16  29  50  72  97 130 163 197 239 287
#     4  10  20  34  52  75  99 124 163 211 249 285
#     4  10  19  31  48  74 103 128 160 203 246 286
#
# _framework density 20.61403
#
# number of rings (size 3 to 8) (size 9 to 14) (size 15 to 20)
#    0.000    2.429    2.857    0.000    0.000    1.429 
#    0.000    2.143    0.000    4.286    0.000    0.000 
#    0.000    6.857    0.000    0.000    0.000    0.000 
#
# Total GULP energy -156289.722729 kJ/mol
# GULP energy per Si atom -5581.775812 kJ/mol
# Density = 2.056711 g / cm^3
# Si number density = 20.614030 Si / 1000 Ang^3
#
#
#
# Elastic Constant Matrix: (Units=GPa)
#
#
# Indices 1 2 3 4 5 6 
#
# 1 60.0317 -24.0527 22.7493 0.0000 -1.7782 0.0000
# 2 -24.0527 57.5585 -17.6159 0.0000 -5.5758 0.0000
# 3 22.7493 -17.6159 156.4432 0.0000 -11.7303 0.0000
# 4 0.0000 0.0000 0.0000 -41.2589 0.0000 10.0229
# 5 -1.7782 -5.5758 -11.7303 0.0000 32.9963 0.0000
# 6 0.0000 0.0000 0.0000 10.0229 0.0000 8.4546
#
#
#
# Elastic Compliance Matrix: (Units=1/GPa)
#
#
# Indices 1 2 3 4 5 6 
#
# 1 0.020759 0.008253 -0.001953 0.000000 0.001819 0.000000
# 2 0.008253 0.021768 0.001603 0.000000 0.004693 0.000000
# 3 -0.001953 0.001603 0.007057 0.000000 0.002674 0.000000
# 4 0.000000 0.000000 0.000000 -0.018818 0.000000 0.022309
# 5 0.001819 0.004693 0.002674 0.000000 0.032148 0.000000
# 6 0.000000 0.000000 0.000000 0.022309 0.000000 0.091833
#
#
# Mechanical properties :
#
#
# Convention : Reuss Voigt Hill
#
# Bulk Modulus (GPa) = 15.29295 26.24386 20.76841
# Shear Modulus (GPa) = 31.10680 19.56858 25.33769
#
# Velocity S-wave (km/s) = 3.88881 3.08439 3.50972
# Velocity P-wave (km/s) = 5.25344 5.04414 5.14985
#
# Compressibility (1/GPa) = 0.06538960
#
# Stress axis : x y z
#
# Youngs Moduli (GPa) = 48.17281 45.93970 141.70140
#
# Poissons Ratio (x) = -0.37915 0.27673
# Poissons Ratio (y) = -0.39758 -0.22712
# Poissons Ratio (z) = 0.09408 -0.07363
#
# Static dielectric constant tensor:
#      x y z
#    x 1.684120 0.000000 -0.028060 
#    y 0.000000 1.767770 0.000000 
#    z -0.028060 0.000000 1.743890 
# 
# From -- ./inp_files/275222.got.cif
#   From: 2010.05.17/outbox.cif.g08.bks.cpg/sg12_138_cif.got.tgz:275222.got - 2010.06.03 13:09:07.
