data_PCOD9179622
_publ_section_title
;
Structure prediction by ZEFSAII (Michael W. Deem and Ramdas Pophale) SiO2 
 PCOD9179622
Probable space group: C 2/M
;
_chemical_formula_sum "Si O2"
_cell_formula_units_Z 56
_cell_length_a 25.943395
_cell_length_b 8.795857
_cell_length_c 15.328509
_cell_angle_alpha 90.000000
_cell_angle_beta 74.913935
_cell_angle_gamma 90.000000
_cell_volume 3377.328730
_symmetry_space_group_name_H-M "C 2/M"
_symmetry_group_IT_number 12
_symmetry_cell_setting 'monoclinic'
loop_
_space_group_symop_operation_xyz
x,y,z
-x,y,-z
-x,-y,-z
x,-y,z
1/2+x,1/2+y,z
1/2-x,1/2+y,-z
1/2-x,1/2-y,-z
1/2+x,1/2-y,z
loop_
_atom_site_type_symbol
_atom_site_label
_atom_site_fract_x
_atom_site_fract_y
_atom_site_fract_z
Si Si1 0.216863 0.317370 0.391939
Si Si2 0.619628 0.816974 0.091965
Si Si3 0.105932 0.182083 0.770342
Si Si4 0.993592 0.183233 0.901798
Si Si5 0.703368 0.816613 0.199684
Si Si6 0.318699 0.817714 0.112976
Si Si7 0.828582 0.318882 0.405522
O O1 0.226079 0.500000 0.390633
O O2 0.196678 0.277575 0.304633
O O3 0.177634 0.279894 0.489427
O O4 0.273033 0.236246 0.386490
O O5 0.560877 0.748210 0.112651
O O6 0.654581 0.768522 0.159775
O O7 0.615361 0.000000 0.095189
O O8 0.651995 0.774723 0.989984
O O9 0.147274 0.250227 0.822288
O O10 0.124022 0.240317 0.667993
O O11 0.046475 0.228363 0.825409
O O12 0.109565 0.000000 0.772124
O O13 0.990663 0.000000 0.902995
O O14 0.000000 0.232738 0.000000
O O15 0.758879 0.745653 0.143091
O O16 0.707908 0.000000 0.191507
O O17 0.317671 0.000000 0.120084
O O18 0.832946 0.500000 0.394986
#
# Coordination Sequence:
#
# PCOD9179622 Si02
#       7
#     8   8   8   8   8   8   8
#     4   9  18  32  51  74 105 139 168 205 255 310
#     4  10  22  36  52  76 106 138 174 214 254 301
#     4  11  21  34  53  75 103 137 171 212 261 310
#     4  10  21  37  55  74  98 135 179 216 256 306
#     4  10  20  35  53  75 106 143 173 202 253 312
#     4  11  21  32  49  78 108 137 171 209 253 303
#     4  10  19  31  50  78 105 131 170 214 257 306
#
# _framework density 16.581153
#
# number of rings (size 3 to 8) (size 9 to 14) (size 15 to 20)
#    0.000    1.857    2.857    1.714    0.000    3.143 
#    0.000    0.000    0.000    0.857    0.000    6.000 
#    0.000    0.000    0.000    0.000    0.000    0.000 
#
# Total GULP energy -156296.657930 kJ/mol
# GULP energy per Si atom -5582.023497 kJ/mol
# Density = 1.654341 g / cm^3
# Si number density = 16.581153 Si / 1000 Ang^3
#
#
#
# Elastic Constant Matrix: (Units=GPa)
#
#
# Indices 1 2 3 4 5 6 
#
# 1 134.0636 30.0325 67.6320 0.0000 -11.9228 0.0000
# 2 30.0325 20.9610 35.1001 0.0000 -5.3964 0.0000
# 3 67.6320 35.1001 120.6650 0.0000 -21.3905 0.0000
# 4 0.0000 0.0000 0.0000 23.3794 0.0000 -4.4839
# 5 -11.9228 -5.3964 -21.3905 0.0000 22.1344 0.0000
# 6 0.0000 0.0000 0.0000 -4.4839 0.0000 28.2424
#
#
#
# Elastic Compliance Matrix: (Units=1/GPa)
#
#
# Indices 1 2 3 4 5 6 
#
# 1 0.011608 -0.011221 -0.003160 0.000000 0.000463 0.000000
# 2 -0.011221 0.104186 -0.024842 0.000000 -0.004650 0.000000
# 3 -0.003160 -0.024842 0.019198 0.000000 0.010795 0.000000
# 4 0.000000 0.000000 0.000000 0.044116 0.000000 0.007004
# 5 0.000463 -0.004650 0.010795 0.000000 0.054726 0.000000
# 6 0.000000 0.000000 0.000000 0.007004 0.000000 0.036520
#
#
# Mechanical properties :
#
#
# Convention : Reuss Voigt Hill
#
# Bulk Modulus (GPa) = 17.68436 60.13543 38.90989
# Shear Modulus (GPa) = 13.59991 24.27957 18.93974
#
# Velocity S-wave (km/s) = 2.86703 3.83075 3.38338
# Velocity P-wave (km/s) = 4.65277 7.47745 6.22738
#
# Compressibility (1/GPa) = 0.05654715
#
# Stress axis : x y z
#
# Youngs Moduli (GPa) = 86.14556 9.59821 52.08748
#
# Poissons Ratio (x) = 0.10770 0.16461
# Poissons Ratio (y) = 0.96663 1.29394
# Poissons Ratio (z) = 0.27224 0.23844
#
# Static dielectric constant tensor:
#      x y z
#    x 1.518320 0.000000 -0.000220 
#    y 0.000000 1.557870 0.000000 
#    z -0.000220 0.000000 1.576710 
# 
# From -- ./inp_files/237827.got.cif
#   From: 2010.05.17/outbox.cif.g08.bks.cpg/sg12_119_cif.got.tgz:237827.got - 2010.06.03 13:09:07.
