data_PCOD9179234
_publ_section_title
;
Structure prediction by ZEFSAII (Michael W. Deem and Ramdas Pophale) SiO2 
 PCOD9179234
Probable space group: C 2/M
;
_chemical_formula_sum "Si O2"
_cell_formula_units_Z 64
_cell_length_a 29.626607
_cell_length_b 7.443559
_cell_length_c 14.698035
_cell_angle_alpha 90.000000
_cell_angle_beta 120.358549
_cell_angle_gamma 90.000000
_cell_volume 2796.868184
_symmetry_space_group_name_H-M "C 2/M"
_symmetry_group_IT_number 12
_symmetry_cell_setting 'monoclinic'
loop_
_space_group_symop_operation_xyz
x,y,z
-x,y,-z
-x,-y,-z
x,-y,z
1/2+x,1/2+y,z
1/2-x,1/2+y,-z
1/2-x,1/2-y,-z
1/2+x,1/2-y,z
loop_
_atom_site_type_symbol
_atom_site_label
_atom_site_fract_x
_atom_site_fract_y
_atom_site_fract_z
Si Si1 0.049199 0.219140 0.609461
Si Si2 0.808998 0.195352 0.041197
Si Si3 0.728762 0.790254 0.179173
Si Si4 0.555756 0.719210 0.016574
Si Si5 0.838422 0.219588 0.355195
Si Si6 0.851551 0.783626 0.756240
Si Si7 0.309560 0.284839 0.528585
Si Si8 0.078262 0.779228 0.834125
O O1 0.105177 0.275262 0.624522
O O2 0.045790 0.271857 0.712054
O O3 0.000000 0.279668 0.500000
O O4 0.049388 0.000000 0.607583
O O5 0.807948 0.192040 0.930424
O O6 0.813779 0.000000 0.088161
O O7 0.750000 0.250000 0.000000
O O8 0.862398 0.288891 0.121985
O O9 0.788515 0.725487 0.243034
O O10 0.702749 0.767332 0.250484
O O11 0.727356 0.000000 0.153514
O O12 0.557649 0.500000 0.017786
O O13 0.601808 0.781268 0.131248
O O14 0.500000 0.772411 0.000000
O O15 0.561559 0.778284 0.917756
O O16 0.825517 0.281180 0.444811
O O17 0.837415 0.000000 0.353874
O O18 0.847549 0.719975 0.648421
O O19 0.854830 0.000000 0.757564
O O20 0.314616 0.500000 0.529087
O O21 0.250000 0.250000 0.500000
O O22 0.079104 0.000000 0.837805
#
# Coordination Sequence:
#
# PCOD9179234 Si02
#       8
#     8   8   8   8   8   8   8   8
#     4   9  17  29  46  68  99 135 171 210 258 311
#     4  11  21  34  52  77 110 142 178 217 263 315
#     4  11  20  32  52  75 106 142 172 211 268 321
#     4   9  17  30  49  74 104 136 171 214 267 317
#     4   9  18  31  46  71 104 137 173 217 265 314
#     4  10  19  32  50  75 104 137 175 220 263 313
#     4  10  19  31  49  72 104 140 176 216 263 313
#     4   9  17  30  48  71 101 136 170 214 261 306
#
# _framework density 22.882739999999998
#
# number of rings (size 3 to 8) (size 9 to 14) (size 15 to 20)
#    0.000    2.250    2.500    1.500    0.000    3.000 
#    0.000    5.000    0.000    0.375    0.000    0.000 
#    0.000   20.750    0.000    0.000    0.000    0.000 
#
# Total GULP energy -178676.199305 kJ/mol
# GULP energy per Si atom -5583.631228 kJ/mol
# Density = 2.283066 g / cm^3
# Si number density = 22.882740 Si / 1000 Ang^3
#
#
#
# Elastic Constant Matrix: (Units=GPa)
#
#
# Indices 1 2 3 4 5 6 
#
# 1 114.8417 -1.4577 67.8463 0.0000 10.4653 0.0000
# 2 -1.4577 68.7164 4.2863 0.0000 0.6579 0.0000
# 3 67.8463 4.2863 191.1787 0.0000 6.6770 0.0000
# 4 0.0000 0.0000 0.0000 1.5376 0.0000 -0.2777
# 5 10.4653 0.6579 6.6770 0.0000 39.9315 0.0000
# 6 0.0000 0.0000 0.0000 -0.2777 0.0000 10.5007
#
#
#
# Elastic Compliance Matrix: (Units=1/GPa)
#
#
# Indices 1 2 3 4 5 6 
#
# 1 0.011239 0.000505 -0.003920 0.000000 -0.002298 0.000000
# 2 0.000505 0.014597 -0.000496 0.000000 -0.000290 0.000000
# 3 -0.003920 -0.000496 0.006635 0.000000 -0.000074 0.000000
# 4 0.000000 0.000000 0.000000 0.653465 0.000000 0.017283
# 5 -0.002298 -0.000290 -0.000074 0.000000 0.025662 0.000000
# 6 0.000000 0.000000 0.000000 0.017283 0.000000 0.095689
#
#
# Mechanical properties :
#
#
# Convention : Reuss Voigt Hill
#
# Bulk Modulus (GPa) = 40.56880 57.34296 48.95588
# Shear Modulus (GPa) = 6.07292 30.66475 18.36884
#
# Velocity S-wave (km/s) = 1.63086 3.66468 2.83634
# Velocity P-wave (km/s) = 4.61668 6.55900 5.67160
#
# Compressibility (1/GPa) = 0.02464948
#
# Stress axis : x y z
#
# Youngs Moduli (GPa) = 88.97462 68.50721 150.70581
#
# Poissons Ratio (x) = -0.03459 0.59071
# Poissons Ratio (y) = -0.04492 0.07480
# Poissons Ratio (z) = 0.34875 0.03400
#
# Static dielectric constant tensor:
#      x y z
#    x 1.841500 0.000000 -0.032790 
#    y 0.000000 1.943250 0.000000 
#    z -0.032790 0.000000 1.874190 
# 
# From -- ./inp_files/249207.got.cif
#   From: 2010.05.17/outbox.cif.g08.bks.cpg/sg12_125_cif.got.tgz:249207.got - 2010.06.03 13:09:07.
