data_PCOD9179370
_publ_section_title
;
Structure prediction by ZEFSAII (Michael W. Deem and Ramdas Pophale) SiO2 
 PCOD9179370
Probable space group: C 2/M
;
_chemical_formula_sum "Si O2"
_cell_formula_units_Z 48
_cell_length_a 20.151430
_cell_length_b 9.021204
_cell_length_c 15.537366
_cell_angle_alpha 90.000000
_cell_angle_beta 102.096250
_cell_angle_gamma 90.000000
_cell_volume 2761.826868
_symmetry_space_group_name_H-M "C 2/M"
_symmetry_group_IT_number 12
_symmetry_cell_setting 'monoclinic'
loop_
_space_group_symop_operation_xyz
x,y,z
-x,y,-z
-x,-y,-z
x,-y,z
1/2+x,1/2+y,z
1/2-x,1/2+y,-z
1/2-x,1/2-y,-z
1/2+x,1/2-y,z
loop_
_atom_site_type_symbol
_atom_site_label
_atom_site_fract_x
_atom_site_fract_y
_atom_site_fract_z
Si Si1 0.199224 0.825852 0.764588
Si Si2 0.341795 0.328951 0.596420
Si Si3 0.682755 0.176995 0.940897
Si Si4 0.821706 0.328902 0.417150
Si Si5 0.861568 0.674075 0.777976
Si Si6 0.920438 0.827457 0.959365
O O1 0.176566 0.736369 0.842191
O O2 0.168415 0.759341 0.668694
O O3 0.281247 0.811637 0.778759
O O4 0.183802 0.000000 0.769100
O O5 0.363546 0.500000 0.601327
O O6 0.259887 0.328170 0.588204
O O7 0.354201 0.249748 0.508805
O O8 0.371411 0.241551 0.685857
O O9 0.688374 0.000000 0.944527
O O10 0.750000 0.250000 0.000000
O O11 0.620939 0.233077 0.982283
O O12 0.842647 0.500000 0.415447
O O13 0.878090 0.500000 0.784187
O O14 0.902460 0.762844 0.861036
O O15 0.899099 0.000000 0.958256
O O16 0.000000 0.818755 0.000000
#
# Coordination Sequence:
#
# PCOD9179370 Si02
#       6
#     8   8   8   8   8   8
#     4  10  19  31  49  75 105 138 175 217 265 317
#     4   9  16  26  42  65  98 136 172 213 261 315
#     4  12  23  36  56  80 107 141 180 223 269 321
#     4   9  16  26  41  66 100 135 171 213 261 314
#     4  10  19  31  50  74 102 138 177 219 265 317
#     4  11  24  40  57  78 107 142 181 225 271 321
#
# _framework density 17.379799999999999
#
# number of rings (size 3 to 8) (size 9 to 14) (size 15 to 20)
#    0.000    1.833    1.667    4.000    0.000    6.667 
#    0.000    0.000    0.000    0.000    0.000    1.167 
#    0.000    9.333    0.000    0.000    0.000    0.000 
#
# Total GULP energy -133990.238479 kJ/mol
# GULP energy per Si atom -5582.926603 kJ/mol
# Density = 1.734024 g / cm^3
# Si number density = 17.379800 Si / 1000 Ang^3
#
#
#
# Elastic Constant Matrix: (Units=GPa)
#
#
# Indices 1 2 3 4 5 6 
#
# 1 27.4413 34.4689 30.2178 0.0000 -5.8913 0.0000
# 2 34.4689 179.4715 96.8066 0.0000 -8.4406 0.0000
# 3 30.2178 96.8066 174.5626 0.0000 -20.3196 0.0000
# 4 0.0000 0.0000 0.0000 38.3267 0.0000 -4.5562
# 5 -5.8913 -8.4406 -20.3196 0.0000 10.9964 0.0000
# 6 0.0000 0.0000 0.0000 -4.5562 0.0000 17.2089
#
#
#
# Elastic Compliance Matrix: (Units=1/GPa)
#
#
# Indices 1 2 3 4 5 6 
#
# 1 0.053136 -0.007868 -0.002833 0.000000 0.017192 0.000000
# 2 -0.007868 0.009174 -0.004327 0.000000 -0.005170 0.000000
# 3 -0.002833 -0.004327 0.010263 0.000000 0.014125 0.000000
# 4 0.000000 0.000000 0.000000 0.026939 0.000000 0.007132
# 5 0.017192 -0.005170 0.014125 0.000000 0.122281 0.000000
# 6 0.000000 0.000000 0.000000 0.007132 0.000000 0.059998
#
#
# Mechanical properties :
#
#
# Convention : Reuss Voigt Hill
#
# Bulk Modulus (GPa) = 23.52127 78.27357 50.89742
# Shear Modulus (GPa) = 15.33642 27.97186 21.65414
#
# Velocity S-wave (km/s) = 2.97379 4.01614 3.53361
# Velocity P-wave (km/s) = 5.03531 8.16338 6.78215
#
# Compressibility (1/GPa) = 0.04251470
#
# Stress axis : x y z
#
# Youngs Moduli (GPa) = 18.81975 109.00201 97.43617
#
# Poissons Ratio (x) = 0.85765 0.27608
# Poissons Ratio (y) = 0.14808 0.42165
# Poissons Ratio (z) = 0.05332 0.47170
#
# Static dielectric constant tensor:
#      x y z
#    x 1.564810 0.000000 -0.003470 
#    y 0.000000 1.581540 0.000000 
#    z -0.003470 0.000000 1.579620 
# 
# From -- ./inp_files/229844.got.cif
#   From: 2010.05.17/outbox.cif.g08.bks.cpg/sg12_115_cif.got.tgz:229844.got - 2010.06.03 13:09:07.
