data_PCOD9179343
_publ_section_title
;
Structure prediction by ZEFSAII (Michael W. Deem and Ramdas Pophale) SiO2 
 PCOD9179343
Probable space group: C 2/M
;
_chemical_formula_sum "Si O2"
_cell_formula_units_Z 64
_cell_length_a 29.855157
_cell_length_b 8.937986
_cell_length_c 16.031630
_cell_angle_alpha 90.000000
_cell_angle_beta 62.440648
_cell_angle_gamma 90.000000
_cell_volume 3792.548517
_symmetry_space_group_name_H-M "C 2/M"
_symmetry_group_IT_number 12
_symmetry_cell_setting 'monoclinic'
loop_
_space_group_symop_operation_xyz
x,y,z
-x,y,-z
-x,-y,-z
x,-y,z
1/2+x,1/2+y,z
1/2-x,1/2+y,-z
1/2-x,1/2-y,-z
1/2+x,1/2-y,z
loop_
_atom_site_type_symbol
_atom_site_label
_atom_site_fract_x
_atom_site_fract_y
_atom_site_fract_z
Si Si1 0.588569 0.679174 0.445434
Si Si2 0.036685 0.321118 0.649308
Si Si3 0.686417 0.820435 0.436414
Si Si4 0.932353 0.820063 0.727971
Si Si5 0.294796 0.321452 0.266886
Si Si6 0.674443 0.320009 0.100001
Si Si7 0.276797 0.821241 0.103696
Si Si8 0.138700 0.321073 0.653844
O O1 0.586583 0.500000 0.455059
O O2 0.553239 0.752015 0.546170
O O3 0.644889 0.737304 0.416255
O O4 0.572901 0.719583 0.365291
O O5 0.035429 0.500000 0.643092
O O6 0.081799 0.282186 0.674556
O O7 0.982349 0.257182 0.719783
O O8 0.742645 0.781793 0.359829
O O9 0.673540 0.782589 0.543430
O O10 0.679263 0.000000 0.433939
O O11 0.880500 0.777654 0.818686
O O12 0.937538 0.000000 0.728579
O O13 0.297397 0.500000 0.258283
O O14 0.291841 0.250833 0.178057
O O15 0.340494 0.260247 0.283109
O O16 0.675579 0.500000 0.087452
O O17 0.718814 0.283455 0.128096
O O18 0.689431 0.241086 0.001099
O O19 0.280895 0.000000 0.104844
O O20 0.141404 0.500000 0.663375
#
# Coordination Sequence:
#
# PCOD9179343 Si02
#       8
#     8   8   8   8   8   8   8   8
#     4  10  19  31  49  74 104 137 171 205 246 297
#     4  10  21  35  50  71 101 136 173 212 251 292
#     4   9  19  33  48  72 105 136 168 207 249 295
#     4  10  20  33  51  75 102 133 169 208 250 297
#     4  11  21  32  51  77 102 132 170 208 249 299
#     4   9  19  36  55  77 105 133 164 203 247 298
#     4  10  20  35  55  78 105 135 164 199 248 300
#     4   9  19  35  50  68  99 135 171 211 250 290
#
# _framework density 16.875195999999999
#
# number of rings (size 3 to 8) (size 9 to 14) (size 15 to 20)
#    0.000    2.250    0.000    3.750    0.000    8.000 
#    0.000    0.000    0.000    0.750    0.000    5.250 
#    0.000    0.000    0.000    0.000    0.000    0.000 
#
# Total GULP energy -178641.766029 kJ/mol
# GULP energy per Si atom -5582.555188 kJ/mol
# Density = 1.683679 g / cm^3
# Si number density = 16.875196 Si / 1000 Ang^3
#
#
#
# Elastic Constant Matrix: (Units=GPa)
#
#
# Indices 1 2 3 4 5 6 
#
# 1 137.9889 55.9746 95.2065 0.0000 -0.1808 0.0000
# 2 55.9746 36.7275 45.0323 0.0000 3.4595 0.0000
# 3 95.2065 45.0323 94.0558 0.0000 5.6605 0.0000
# 4 0.0000 0.0000 0.0000 25.0456 0.0000 -0.4907
# 5 -0.1808 3.4595 5.6605 0.0000 30.2376 0.0000
# 6 0.0000 0.0000 0.0000 -0.4907 0.0000 30.9664
#
#
#
# Elastic Compliance Matrix: (Units=1/GPa)
#
#
# Indices 1 2 3 4 5 6 
#
# 1 0.030197 -0.021010 -0.020898 0.000000 0.006496 0.000000
# 2 -0.021010 0.080633 -0.016967 0.000000 -0.006175 0.000000
# 3 -0.020898 -0.016967 0.040253 0.000000 -0.005719 0.000000
# 4 0.000000 0.000000 0.000000 0.039940 0.000000 0.000633
# 5 0.006496 -0.006175 -0.005719 0.000000 0.034887 0.000000
# 6 0.000000 0.000000 0.000000 0.000633 0.000000 0.032303
#
#
# Mechanical properties :
#
#
# Convention : Reuss Voigt Hill
#
# Bulk Modulus (GPa) = 30.00014 73.46655 51.73335
# Shear Modulus (GPa) = 12.91741 22.08716 17.50229
#
# Velocity S-wave (km/s) = 2.76971 3.62173 3.22399
# Velocity P-wave (km/s) = 5.29572 7.81786 6.67696
#
# Compressibility (1/GPa) = 0.03333317
#
# Stress axis : x y z
#
# Youngs Moduli (GPa) = 33.11599 12.40186 24.84264
#
# Poissons Ratio (x) = 0.26056 0.51916
# Poissons Ratio (y) = 0.69577 0.42150
# Poissons Ratio (z) = 0.69206 0.21042
#
# Static dielectric constant tensor:
#      x y z
#    x 1.567620 0.000000 -0.010410 
#    y 0.000000 1.560590 0.000000 
#    z -0.010410 0.000000 1.546050 
# 
# From -- ./inp_files/243741.got.cif
#   From: 2010.05.17/outbox.cif.g08.bks.cpg/sg12_122_cif.got.tgz:243741.got - 2010.06.03 13:09:07.
