data_PCOD9179300
_publ_section_title
;
Structure prediction by ZEFSAII (Michael W. Deem and Ramdas Pophale) SiO2 
 PCOD9179300
Probable space group: C 2/M
;
_chemical_formula_sum "Si O2"
_cell_formula_units_Z 56
_cell_length_a 8.175217
_cell_length_b 24.097221
_cell_length_c 15.481065
_cell_angle_alpha 90.000000
_cell_angle_beta 70.800578
_cell_angle_gamma 90.000000
_cell_volume 2880.140814
_symmetry_space_group_name_H-M "C 2/M"
_symmetry_group_IT_number 12
_symmetry_cell_setting 'monoclinic'
loop_
_space_group_symop_operation_xyz
x,y,z
-x,y,-z
-x,-y,-z
x,-y,z
1/2+x,1/2+y,z
1/2-x,1/2+y,-z
1/2-x,1/2-y,-z
1/2+x,1/2-y,z
loop_
_atom_site_type_symbol
_atom_site_label
_atom_site_fract_x
_atom_site_fract_y
_atom_site_fract_z
Si Si1 0.759196 0.565928 0.131789
Si Si2 0.382634 0.103279 0.607203
Si Si3 0.500780 0.217073 0.603394
Si Si4 0.127013 0.829476 0.396453
Si Si5 0.696360 0.567719 0.955976
Si Si6 0.992189 0.935784 0.681788
Si Si7 0.468534 0.066362 0.776169
O O1 0.793718 0.500000 0.119353
O O2 0.568777 0.570536 0.207752
O O3 0.887840 0.588369 0.182305
O O4 0.782750 0.586888 0.030879
O O5 0.500000 0.098748 0.500000
O O6 0.361074 0.168128 0.635474
O O7 0.195924 0.074821 0.631909
O O8 0.479780 0.080087 0.674121
O O9 0.500000 0.225298 0.500000
O O10 0.683507 0.191851 0.604607
O O11 0.449954 0.277747 0.645830
O O12 0.000000 0.837190 0.500000
O O13 0.111564 0.888505 0.352102
O O14 0.698374 0.500000 0.955133
O O15 0.790917 0.585372 0.852489
O O16 0.500000 0.585425 0.000000
O O17 0.949809 0.000000 0.665251
O O18 0.475303 0.000000 0.778826
#
# Coordination Sequence:
#
# PCOD9179300 Si02
#       7
#     8   8   8   8   8   8   8
#     4   9  18  32  48  71 103 138 180 226 273 328
#     4  11  22  37  53  76 108 148 192 231 272 324
#     4  10  20  36  58  78  99 134 185 240 280 316
#     4  11  20  36  57  78 104 136 183 234 280 326
#     4   9  16  28  48  72  98 133 177 225 275 326
#     4  11  23  36  52  77 112 150 183 220 273 337
#     4  10  19  31  49  73 104 142 181 225 278 333
#
# _framework density 19.443494000000001
#
# number of rings (size 3 to 8) (size 9 to 14) (size 15 to 20)
#    0.000    1.857    0.000    6.857    0.000    5.429 
#    0.000    2.143    0.000    0.429    0.000    1.000 
#    0.000    0.000    0.000    0.000    0.000    0.000 
#
# Total GULP energy -155932.764281 kJ/mol
# GULP energy per Si atom -5569.027296 kJ/mol
# Density = 1.939924 g / cm^3
# Si number density = 19.443494 Si / 1000 Ang^3
#
#
#
# Elastic Constant Matrix: (Units=GPa)
#
#
# Indices 1 2 3 4 5 6 
#
# 1 98.9871 21.0779 31.5707 0.0000 8.9849 0.0000
# 2 21.0779 93.6020 12.2360 0.0000 4.8401 0.0000
# 3 31.5707 12.2360 90.8276 0.0000 8.8358 0.0000
# 4 0.0000 0.0000 0.0000 -7.1027 0.0000 4.2779
# 5 8.9849 4.8401 8.8358 0.0000 27.3256 0.0000
# 6 0.0000 0.0000 0.0000 4.2779 0.0000 23.6164
#
#
#
# Elastic Compliance Matrix: (Units=1/GPa)
#
#
# Indices 1 2 3 4 5 6 
#
# 1 0.011920 -0.002087 -0.003631 0.000000 -0.002376 0.000000
# 2 -0.002087 0.011300 -0.000691 0.000000 -0.001092 0.000000
# 3 -0.003631 -0.000691 0.012634 0.000000 -0.002769 0.000000
# 4 0.000000 0.000000 0.000000 -0.126942 0.000000 0.022994
# 5 -0.002376 -0.001092 -0.002769 0.000000 0.038466 0.000000
# 6 0.000000 0.000000 0.000000 0.022994 0.000000 0.038178
#
#
# Mechanical properties :
#
#
# Convention : Reuss Voigt Hill
#
# Bulk Modulus (GPa) = 43.40712 45.90953 44.65832
# Shear Modulus (GPa) = 825.92046 23.33664 424.62855
#
# Velocity S-wave (km/s) = 20.63255 3.46819 14.79409
# Velocity P-wave (km/s) = 24.28942 6.30086 17.74369
#
# Compressibility (1/GPa) = 0.02303770
#
# Stress axis : x y z
#
# Youngs Moduli (GPa) = 83.88950 88.49384 79.14859
#
# Poissons Ratio (x) = 0.18467 0.28740
# Poissons Ratio (y) = 0.17506 0.05467
# Poissons Ratio (z) = 0.30462 0.06113
#
# Static dielectric constant tensor:
#      x y z
#    x 1.787200 0.000000 0.001190 
#    y 0.000000 1.739890 0.000000 
#    z 0.001190 0.000000 1.722490 
# 
# From -- ./inp_files/198372.got.cif
#   From: 2010.05.17/outbox.cif.g08.bks.cpg/sg12_100_cif.got.tgz:198372.got - 2010.06.03 13:09:07.
