data_PCOD9179384
_publ_section_title
;
Structure prediction by ZEFSAII (Michael W. Deem and Ramdas Pophale) SiO2 
 PCOD9179384
Probable space group: C 2/M
;
_chemical_formula_sum "Si O2"
_cell_formula_units_Z 64
_cell_length_a 31.309503
_cell_length_b 17.116678
_cell_length_c 6.306527
_cell_angle_alpha 90.000000
_cell_angle_beta 94.895118
_cell_angle_gamma 90.000000
_cell_volume 3367.432969
_symmetry_space_group_name_H-M "C 2/M"
_symmetry_group_IT_number 12
_symmetry_cell_setting 'monoclinic'
loop_
_space_group_symop_operation_xyz
x,y,z
-x,y,-z
-x,-y,-z
x,-y,z
1/2+x,1/2+y,z
1/2-x,1/2+y,-z
1/2-x,1/2-y,-z
1/2+x,1/2-y,z
loop_
_atom_site_type_symbol
_atom_site_label
_atom_site_fract_x
_atom_site_fract_y
_atom_site_fract_z
Si Si1 0.872962 0.300639 0.690089
Si Si2 0.853762 0.915446 0.363213
Si Si3 0.240387 0.136006 0.659899
Si Si4 0.821818 0.589410 0.956362
Si Si5 0.595772 0.315001 0.939083
Si Si6 0.931642 0.089068 0.701482
Si Si7 0.952544 0.246476 0.467891
Si Si8 0.202094 0.700629 0.672757
O O1 0.856660 0.378412 0.802048
O O2 0.916877 0.297570 0.575167
O O3 0.834698 0.277392 0.514021
O O4 0.880895 0.238080 0.878424
O O5 0.803919 0.908383 0.386603
O O6 0.869977 0.851212 0.206452
O O7 0.883431 0.910222 0.583418
O O8 0.862905 0.000000 0.268993
O O9 0.275488 0.095975 0.822877
O O10 0.226511 0.220501 0.748821
O O11 0.263188 0.151041 0.444878
O O12 0.830100 0.500000 0.021901
O O13 0.818700 0.649043 0.151997
O O14 0.563239 0.266919 0.778317
O O15 0.571217 0.382699 0.057841
O O16 0.953484 0.160012 0.580475
O O17 0.948047 0.000000 0.684326
O O18 0.000000 0.279767 0.500000
#
# Coordination Sequence:
#
# PCOD9179384 Si02
#       8
#     8   8   8   8   8   8   8   8
#     4  10  21  38  59  80 105 141 182 222 267 326
#     4  10  19  31  49  75 110 149 188 230 267 302
#     4  10  20  34  52  79 109 143 187 227 262 307
#     4  11  23  37  56  81 109 144 181 222 275 326
#     4  10  19  35  55  77 106 144 187 221 264 320
#     4   9  19  33  50  76 112 153 190 224 266 315
#     4  10  21  36  57  84 109 135 175 227 276 325
#     4  10  21  37  56  77 108 146 182 224 267 313
#
# _framework density 19.005575
#
# number of rings (size 3 to 8) (size 9 to 14) (size 15 to 20)
#    0.000    2.000    0.000    4.875    0.000    8.250 
#    0.000    1.875    0.000    0.375    0.000    3.500 
#    0.000    0.000    0.000    0.000    0.000    0.000 
#
# Total GULP energy -178547.812966 kJ/mol
# GULP energy per Si atom -5579.619155 kJ/mol
# Density = 1.896232 g / cm^3
# Si number density = 19.005575 Si / 1000 Ang^3
#
#
#
# Elastic Constant Matrix: (Units=GPa)
#
#
# Indices 1 2 3 4 5 6 
#
# 1 96.6644 6.5751 22.2020 0.0000 1.0167 0.0000
# 2 6.5751 60.3225 22.4602 0.0000 -2.8305 0.0000
# 3 22.2020 22.4602 72.0581 0.0000 -0.2042 0.0000
# 4 0.0000 0.0000 0.0000 9.7630 0.0000 -4.2441
# 5 1.0167 -2.8305 -0.2042 0.0000 9.8989 0.0000
# 6 0.0000 0.0000 0.0000 -4.2441 0.0000 13.1510
#
#
#
# Elastic Compliance Matrix: (Units=1/GPa)
#
#
# Indices 1 2 3 4 5 6 
#
# 1 0.011148 0.000009 -0.003441 0.000000 -0.001213 0.000000
# 2 0.000009 0.019030 -0.005919 0.000000 0.005318 0.000000
# 3 -0.003441 -0.005919 0.016780 0.000000 -0.000993 0.000000
# 4 0.000000 0.000000 0.000000 0.119142 0.000000 0.038449
# 5 -0.001213 0.005318 -0.000993 0.000000 0.102646 0.000000
# 6 0.000000 0.000000 0.000000 0.038449 0.000000 0.088448
#
#
# Mechanical properties :
#
#
# Convention : Reuss Voigt Hill
#
# Bulk Modulus (GPa) = 35.39139 36.83550 36.11344
# Shear Modulus (GPa) = 12.97641 18.41643 15.69642
#
# Velocity S-wave (km/s) = 2.61582 3.11626 2.87694
# Velocity P-wave (km/s) = 5.27118 5.68960 5.48438
#
# Compressibility (1/GPa) = 0.02825546
#
# Stress axis : x y z
#
# Youngs Moduli (GPa) = 89.70593 52.54831 59.59428
#
# Poissons Ratio (x) = -0.00048 0.20506
# Poissons Ratio (y) = -0.00083 0.35276
# Poissons Ratio (z) = 0.30868 0.31105
#
# Static dielectric constant tensor:
#      x y z
#    x 1.653330 0.000000 -0.008130 
#    y 0.000000 1.692190 0.000000 
#    z -0.008130 0.000000 1.663910 
# 
# From -- ./inp_files/32037.got.cif
#   From: 2010.05.17/outbox.cif.g08.bks.cpg/sg12_17_cif.got.tgz:32037.got - 2010.06.03 13:09:07.
