data_PCOD9179901
_publ_section_title
;
Structure prediction by ZEFSAII (Michael W. Deem and Ramdas Pophale) SiO2 
 PCOD9179901
Probable space group: C 2/M
;
_chemical_formula_sum "Si O2"
_cell_formula_units_Z 48
_cell_length_a 31.003383
_cell_length_b 7.522112
_cell_length_c 10.434507
_cell_angle_alpha 90.000000
_cell_angle_beta 98.588177
_cell_angle_gamma 90.000000
_cell_volume 2406.155324
_symmetry_space_group_name_H-M "C 2/M"
_symmetry_group_IT_number 12
_symmetry_cell_setting 'monoclinic'
loop_
_space_group_symop_operation_xyz
x,y,z
-x,y,-z
-x,-y,-z
x,-y,z
1/2+x,1/2+y,z
1/2-x,1/2+y,-z
1/2-x,1/2-y,-z
1/2+x,1/2-y,z
loop_
_atom_site_type_symbol
_atom_site_label
_atom_site_fract_x
_atom_site_fract_y
_atom_site_fract_z
Si Si1 0.536308 0.218136 0.618004
Si Si2 0.273237 0.213749 0.376955
Si Si3 0.219990 0.212697 0.109509
Si Si4 0.633186 0.711823 0.944582
Si Si5 0.466146 0.213118 0.090288
Si Si6 0.866747 0.295426 0.351450
O O1 0.500000 0.272655 0.500000
O O2 0.527048 0.276261 0.760195
O O3 0.585104 0.280998 0.603401
O O4 0.537242 0.000000 0.620031
O O5 0.250000 0.250000 0.500000
O O6 0.243960 0.283023 0.246317
O O7 0.322791 0.284404 0.390695
O O8 0.276552 0.000000 0.362110
O O9 0.216746 0.000000 0.123369
O O10 0.250000 0.250000 0.000000
O O11 0.171385 0.277761 0.054816
O O12 0.638009 0.500000 0.931520
O O13 0.584067 0.748985 0.967075
O O14 0.638881 0.791995 0.805267
O O15 0.471064 0.000000 0.096829
O O16 0.500000 0.282498 0.000000
O O17 0.869056 0.500000 0.395912
#
# Coordination Sequence:
#
# PCOD9179901 Si02
#       6
#     8   8   8   8   8   8
#     4   8  14  27  49  72  93 120 159 203 244 288
#     4  10  21  36  51  73 105 137 171 211 256 305
#     4  10  20  34  54  77 102 133 173 215 253 302
#     4  10  19  31  52  79 101 130 169 207 254 303
#     4   9  18  33  51  73 100 131 164 205 252 295
#     4   9  17  32  53  73  98 133 169 209 252 295
#
# _framework density 19.948837999999999
#
# number of rings (size 3 to 8) (size 9 to 14) (size 15 to 20)
#    0.000    2.667    1.667    1.500    0.000    2.333 
#    3.000    0.000    0.000    8.000    0.000    0.000 
#    0.000    0.000    0.000    0.000    0.000    0.000 
#
# Total GULP energy -133862.323829 kJ/mol
# GULP energy per Si atom -5577.596826 kJ/mol
# Density = 1.990343 g / cm^3
# Si number density = 19.948838 Si / 1000 Ang^3
#
#
#
# Elastic Constant Matrix: (Units=GPa)
#
#
# Indices 1 2 3 4 5 6 
#
# 1 224.4933 0.5129 122.5692 0.0000 4.6367 0.0000
# 2 0.5129 50.8173 -2.4141 0.0000 3.5484 0.0000
# 3 122.5692 -2.4141 130.7004 0.0000 12.2171 0.0000
# 4 0.0000 0.0000 0.0000 13.1991 0.0000 -2.2026
# 5 4.6367 3.5484 12.2171 0.0000 37.7947 0.0000
# 6 0.0000 0.0000 0.0000 -2.2026 0.0000 11.4957
#
#
#
# Elastic Compliance Matrix: (Units=1/GPa)
#
#
# Indices 1 2 3 4 5 6 
#
# 1 0.009256 -0.000639 -0.008859 0.000000 0.001788 0.000000
# 2 -0.000639 0.019892 0.001169 0.000000 -0.002167 0.000000
# 3 -0.008859 0.001169 0.016384 0.000000 -0.004319 0.000000
# 4 0.000000 0.000000 0.000000 0.078265 0.000000 0.014996
# 5 0.001788 -0.002167 -0.004319 0.000000 0.027839 0.000000
# 6 0.000000 0.000000 0.000000 0.014996 0.000000 0.089862
#
#
# Mechanical properties :
#
#
# Convention : Reuss Voigt Hill
#
# Bulk Modulus (GPa) = 34.63293 71.92746 53.28020
# Shear Modulus (GPa) = 18.67201 31.52076 25.09638
#
# Velocity S-wave (km/s) = 3.06272 3.97933 3.55073
# Velocity P-wave (km/s) = 5.46860 7.56622 6.60126
#
# Compressibility (1/GPa) = 0.02887425
#
# Stress axis : x y z
#
# Youngs Moduli (GPa) = 108.03998 50.27231 61.03428
#
# Poissons Ratio (x) = 0.03213 0.54070
# Poissons Ratio (y) = 0.06905 -0.07137
# Poissons Ratio (z) = 0.95712 -0.05879
#
# Static dielectric constant tensor:
#      x y z
#    x 1.714530 0.000000 0.016150 
#    y 0.000000 1.731550 0.000000 
#    z 0.016150 0.000000 1.660680 
# 
# From -- ./inp_files/108779.got.cif
#   From: 2010.05.17/outbox.cif.g08.bks.cpg/sg12_55_cif.got.tgz:108779.got - 2010.06.03 13:09:07.
