data_PCOD9179760
_publ_section_title
;
Structure prediction by ZEFSAII (Michael W. Deem and Ramdas Pophale) SiO2 
 PCOD9179760
Probable space group: C 2/M
;
_chemical_formula_sum "Si O2"
_cell_formula_units_Z 56
_cell_length_a 20.997680
_cell_length_b 9.048753
_cell_length_c 16.105111
_cell_angle_alpha 90.000000
_cell_angle_beta 89.119870
_cell_angle_gamma 90.000000
_cell_volume 3059.655483
_symmetry_space_group_name_H-M "C 2/M"
_symmetry_group_IT_number 12
_symmetry_cell_setting 'monoclinic'
loop_
_space_group_symop_operation_xyz
x,y,z
-x,y,-z
-x,-y,-z
x,-y,z
1/2+x,1/2+y,z
1/2-x,1/2+y,-z
1/2-x,1/2-y,-z
1/2+x,1/2-y,z
loop_
_atom_site_type_symbol
_atom_site_label
_atom_site_fract_x
_atom_site_fract_y
_atom_site_fract_z
Si Si1 0.443999 0.822151 0.937819
Si Si2 0.038107 0.175223 0.416404
Si Si3 0.281736 0.668246 0.372767
Si Si4 0.692567 0.670609 0.047926
Si Si5 0.845202 0.332901 0.512353
Si Si6 0.198355 0.171285 0.244302
Si Si7 0.560825 0.176565 0.252968
O O1 0.376192 0.748470 0.960380
O O2 0.460348 0.786840 0.840897
O O3 0.436576 0.000000 0.942747
O O4 0.500000 0.778247 0.000000
O O5 0.109206 0.224170 0.438797
O O6 0.021612 0.254535 0.330113
O O7 0.000000 0.219816 0.500000
O O8 0.032546 0.000000 0.405905
O O9 0.303293 0.500000 0.357224
O O10 0.220895 0.660097 0.435916
O O11 0.332391 0.765664 0.421948
O O12 0.254659 0.748142 0.292229
O O13 0.687668 0.500000 0.021794
O O14 0.708461 0.673763 0.145568
O O15 0.750000 0.750000 0.000000
O O16 0.871040 0.500000 0.508604
O O17 0.132069 0.257288 0.259152
O O18 0.192429 0.000000 0.271537
O O19 0.563132 0.000000 0.261679
#
# Coordination Sequence:
#
# PCOD9179760 Si02
#       7
#     8   8   8   8   8   8   8
#     4   9  19  37  61  87 115 148 187 232 284 345
#     4  11  23  37  53  74 105 145 185 227 274 323
#     4  10  19  31  51  78 105 134 170 215 264 312
#     4  10  21  36  56  84 115 150 187 230 283 337
#     4  10  20  33  51  75 103 136 173 215 263 311
#     4  10  19  32  53  79 108 141 180 224 270 325
#     4  10  19  33  55  81 106 139 184 229 274 326
#
# _framework density 18.302714999999999
#
# number of rings (size 3 to 8) (size 9 to 14) (size 15 to 20)
#    0.000    2.000    1.429    2.571    0.000    4.857 
#    0.000    1.429    0.000    5.143    0.000    0.000 
#    0.000    0.000    0.000    0.000    0.000    0.000 
#
# Total GULP energy -156178.026519 kJ/mol
# GULP energy per Si atom -5577.786661 kJ/mol
# Density = 1.826106 g / cm^3
# Si number density = 18.302715 Si / 1000 Ang^3
#
#
#
# Elastic Constant Matrix: (Units=GPa)
#
#
# Indices 1 2 3 4 5 6 
#
# 1 43.1682 26.9893 55.9945 0.0000 3.4622 0.0000
# 2 26.9893 70.3024 54.6055 0.0000 -7.6044 0.0000
# 3 55.9945 54.6055 122.4598 0.0000 6.6406 0.0000
# 4 0.0000 0.0000 0.0000 27.6245 0.0000 -4.2825
# 5 3.4622 -7.6044 6.6406 0.0000 32.2451 0.0000
# 6 0.0000 0.0000 0.0000 -4.2825 0.0000 18.2275
#
#
#
# Elastic Compliance Matrix: (Units=1/GPa)
#
#
# Indices 1 2 3 4 5 6 
#
# 1 0.057310 -0.002919 -0.024809 0.000000 -0.001732 0.000000
# 2 -0.002919 0.023704 -0.009663 0.000000 0.007894 0.000000
# 3 -0.024809 -0.009663 0.024067 0.000000 -0.004571 0.000000
# 4 0.000000 0.000000 0.000000 0.037568 0.000000 0.008827
# 5 -0.001732 0.007894 -0.004571 0.000000 0.034002 0.000000
# 6 0.000000 0.000000 0.000000 0.008827 0.000000 0.056936
#
#
# Mechanical properties :
#
#
# Convention : Reuss Voigt Hill
#
# Bulk Modulus (GPa) = 33.00545 56.78990 44.89767
# Shear Modulus (GPa) = 15.70008 22.17546 18.93777
#
# Velocity S-wave (km/s) = 2.93200 3.48457 3.22016
# Velocity P-wave (km/s) = 5.43456 6.87642 6.19756
#
# Compressibility (1/GPa) = 0.03029803
#
# Stress axis : x y z
#
# Youngs Moduli (GPa) = 17.44894 42.18628 41.55094
#
# Poissons Ratio (x) = 0.12314 1.03086
# Poissons Ratio (y) = 0.05093 0.40152
# Poissons Ratio (z) = 0.43290 0.40766
#
# Static dielectric constant tensor:
#      x y z
#    x 1.623870 0.000000 -0.011340 
#    y 0.000000 1.628610 0.000000 
#    z -0.011340 0.000000 1.657550 
# 
# From -- ./inp_files/231059.got.cif
#   From: 2010.05.17/outbox.cif.g08.bks.cpg/sg12_116_cif.got.tgz:231059.got - 2010.06.03 13:09:07.
