data_PCOD9179846
_publ_section_title
;
Structure prediction by ZEFSAII (Michael W. Deem and Ramdas Pophale) SiO2 
 PCOD9179846
Probable space group: C 2/M
;
_chemical_formula_sum "Si O2"
_cell_formula_units_Z 32
_cell_length_a 5.622663
_cell_length_b 24.269722
_cell_length_c 9.959479
_cell_angle_alpha 90.000000
_cell_angle_beta 67.061118
_cell_angle_gamma 90.000000
_cell_volume 1251.601032
_symmetry_space_group_name_H-M "C 2/M"
_symmetry_group_IT_number 12
_symmetry_cell_setting 'monoclinic'
loop_
_space_group_symop_operation_xyz
x,y,z
-x,y,-z
-x,-y,-z
x,-y,z
1/2+x,1/2+y,z
1/2-x,1/2+y,-z
1/2-x,1/2-y,-z
1/2+x,1/2-y,z
loop_
_atom_site_type_symbol
_atom_site_label
_atom_site_fract_x
_atom_site_fract_y
_atom_site_fract_z
Si Si1 0.119793 0.770848 0.166085
Si Si2 0.245767 0.641743 0.505782
Si Si3 0.480127 0.937108 0.215491
Si Si4 0.999343 0.100583 0.812007
O O1 0.337141 0.757546 0.230354
O O2 0.073265 0.835490 0.158283
O O3 0.250000 0.750000 0.000000
O O4 0.500000 0.672915 0.500000
O O5 0.136931 0.605322 0.650560
O O6 0.350994 0.600687 0.365976
O O7 0.000000 0.673072 0.500000
O O8 0.776861 0.917843 0.134945
O O9 0.266222 0.932701 0.145239
O O10 0.486612 0.000000 0.261130
#
# Coordination Sequence:
#
# PCOD9179846 Si02
#       4
#     8   8   8   8
#     4  10  21  38  60  83  99 129 184 239 289 325
#     4   8  16  27  44  69 108 147 176 205 245 298
#     4  10  19  31  51  81 118 154 179 203 252 322
#     4  10  19  32  52  79 111 140 182 228 260 314
#
# _framework density 25.567253000000001
#
# number of rings (size 3 to 8) (size 9 to 14) (size 15 to 20)
#    0.000    2.500    0.000    2.250    0.000    9.000 
#    0.000    0.000    0.000   40.500    0.000   70.000 
#    0.000    0.000    0.000    0.000    0.000    0.000 
#
# Total GULP energy -89368.675644 kJ/mol
# GULP energy per Si atom -5585.542228 kJ/mol
# Density = 2.550906 g / cm^3
# Si number density = 25.567253 Si / 1000 Ang^3
#
#
#
# Elastic Constant Matrix: (Units=GPa)
#
#
# Indices 1 2 3 4 5 6 
#
# 1 341.4590 40.2188 34.6136 0.0000 -18.8307 0.0000
# 2 40.2188 108.8430 11.1754 0.0000 -16.2050 0.0000
# 3 34.6136 11.1754 77.4120 0.0000 -10.6348 0.0000
# 4 0.0000 0.0000 0.0000 -9.1001 0.0000 4.8298
# 5 -18.8307 -16.2050 -10.6348 0.0000 38.2229 0.0000
# 6 0.0000 0.0000 0.0000 4.8298 0.0000 41.4015
#
#
#
# Elastic Compliance Matrix: (Units=1/GPa)
#
#
# Indices 1 2 3 4 5 6 
#
# 1 0.003206 -0.000936 -0.001181 0.000000 0.000854 0.000000
# 2 -0.000936 0.010138 -0.000538 0.000000 0.003687 0.000000
# 3 -0.001181 -0.000538 0.013945 0.000000 0.003070 0.000000
# 4 0.000000 0.000000 0.000000 -0.103482 0.000000 0.012072
# 5 0.000854 0.003687 0.003070 0.000000 0.029000 0.000000
# 6 0.000000 0.000000 0.000000 0.012072 0.000000 0.022745
#
#
# Mechanical properties :
#
#
# Convention : Reuss Voigt Hill
#
# Bulk Modulus (GPa) = 45.50047 77.74774 61.62411
# Shear Modulus (GPa) = -423.34727 43.55194 -189.89766
#
# Velocity S-wave (km/s) = -12.88182 4.13174 -8.62757
# Velocity P-wave (km/s) = 14.26254 7.29635 8.66554
#
# Compressibility (1/GPa) = 0.02197779
#
# Stress axis : x y z
#
# Youngs Moduli (GPa) = 311.94709 98.64189 71.70817
#
# Poissons Ratio (x) = 0.09234 0.08468
# Poissons Ratio (y) = 0.29203 0.03861
# Poissons Ratio (z) = 0.36839 0.05311
#
# Static dielectric constant tensor:
#      x y z
#    x 2.242100 0.000000 0.105550 
#    y 0.000000 1.858560 0.000000 
#    z 0.105550 0.000000 2.100620 
# 
# From -- ./inp_files/114506.got.cif
#   From: 2010.05.17/outbox.cif.g08.bks.cpg/sg12_58_cif.got.tgz:114506.got - 2010.06.03 13:09:07.
