data_PCOD9179529
_publ_section_title
;
Structure prediction by ZEFSAII (Michael W. Deem and Ramdas Pophale) SiO2 
 PCOD9179529
Probable space group: C 2/M
;
_chemical_formula_sum "Si O2"
_cell_formula_units_Z 48
_cell_length_a 15.410847
_cell_length_b 9.498879
_cell_length_c 16.611422
_cell_angle_alpha 90.000000
_cell_angle_beta 106.790395
_cell_angle_gamma 90.000000
_cell_volume 2328.008459
_symmetry_space_group_name_H-M "C 2/M"
_symmetry_group_IT_number 12
_symmetry_cell_setting 'monoclinic'
loop_
_space_group_symop_operation_xyz
x,y,z
-x,y,-z
-x,-y,-z
x,-y,z
1/2+x,1/2+y,z
1/2-x,1/2+y,-z
1/2-x,1/2-y,-z
1/2+x,1/2-y,z
loop_
_atom_site_type_symbol
_atom_site_label
_atom_site_fract_x
_atom_site_fract_y
_atom_site_fract_z
Si Si1 0.703700 0.160091 0.234541
Si Si2 0.002326 0.340592 0.593467
Si Si3 0.377888 0.838354 0.087257
Si Si4 0.586959 0.341424 0.754948
Si Si5 0.837943 0.161576 0.923747
Si Si6 0.792914 0.340432 0.582673
O O1 0.804725 0.148245 0.225974
O O2 0.652105 0.261032 0.159159
O O3 0.715111 0.215678 0.328496
O O4 0.665672 0.000000 0.228613
O O5 0.041869 0.500000 0.607910
O O6 0.899202 0.348358 0.594109
O O7 0.000000 0.295825 0.500000
O O8 0.051871 0.234176 0.665570
O O9 0.429121 0.756981 0.172318
O O10 0.270198 0.841027 0.082501
O O11 0.407055 0.000000 0.086965
O O12 0.384088 0.752086 0.006356
O O13 0.550914 0.500000 0.754578
O O14 0.868601 0.000000 0.930273
O O15 0.754660 0.500000 0.571764
O O16 0.750000 0.250000 0.500000
#
# Coordination Sequence:
#
# PCOD9179529 Si02
#       6
#     8   8   8   8   8   8
#     4   9  18  32  49  72 102 134 168 206 250 297
#     4  10  21  36  53  74 101 132 166 205 251 302
#     4   9  16  27  45  70 102 136 167 203 247 293
#     4  10  19  31  50  75 102 132 168 209 249 293
#     4   9  16  26  44  72 102 132 168 207 246 290
#     4  10  21  36  54  75 100 131 167 207 250 299
#
# _framework density 20.618482
#
# number of rings (size 3 to 8) (size 9 to 14) (size 15 to 20)
#    0.000    2.500    0.000    2.500    0.000    6.333 
#    0.000    0.000    0.000    1.000    0.000    7.000 
#    0.000    0.000    0.000    0.000    0.000    0.000 
#
# Total GULP energy -133971.731552 kJ/mol
# GULP energy per Si atom -5582.155481 kJ/mol
# Density = 2.057155 g / cm^3
# Si number density = 20.618482 Si / 1000 Ang^3
#
#
#
# Elastic Constant Matrix: (Units=GPa)
#
#
# Indices 1 2 3 4 5 6 
#
# 1 13.5226 1.7762 -4.7542 0.0000 -5.1742 0.0000
# 2 1.7762 178.3549 135.3163 0.0000 5.8134 0.0000
# 3 -4.7542 135.3163 200.3430 0.0000 -13.0562 0.0000
# 4 0.0000 0.0000 0.0000 156.9419 0.0000 45.8704
# 5 -5.1742 5.8134 -13.0562 0.0000 16.9091 0.0000
# 6 0.0000 0.0000 0.0000 45.8704 0.0000 25.4316
#
#
#
# Elastic Compliance Matrix: (Units=1/GPa)
#
#
# Indices 1 2 3 4 5 6 
#
# 1 0.098203 -0.013317 0.014301 0.000000 0.045671 0.000000
# 2 -0.013317 0.015388 -0.011919 0.000000 -0.018569 0.000000
# 3 0.014301 -0.011919 0.014672 0.000000 0.019803 0.000000
# 4 0.000000 0.000000 0.000000 0.013476 0.000000 -0.024306
# 5 0.045671 -0.018569 0.019803 0.000000 0.094790 0.000000
# 6 0.000000 0.000000 0.000000 -0.024306 0.000000 0.083162
#
#
# Mechanical properties :
#
#
# Convention : Reuss Voigt Hill
#
# Bulk Modulus (GPa) = 9.39915 72.98856 41.19385
# Shear Modulus (GPa) = 13.26175 57.18201 35.22188
#
# Velocity S-wave (km/s) = 2.53888 5.27196 4.13760
# Velocity P-wave (km/s) = 3.62810 8.51672 6.54590
#
# Compressibility (1/GPa) = 0.10639262
#
# Stress axis : x y z
#
# Youngs Moduli (GPa) = 10.18301 64.98641 68.15692
#
# Poissons Ratio (x) = 0.86541 -0.97473
# Poissons Ratio (y) = 0.13561 0.81239
# Poissons Ratio (z) = -0.14563 0.77460
#
# Static dielectric constant tensor:
#      x y z
#    x 1.762150 0.000000 -0.012070 
#    y 0.000000 1.745200 0.000000 
#    z -0.012070 0.000000 1.724280 
# 
# From -- ./inp_files/229843.got.cif
#   From: 2010.05.17/outbox.cif.g08.bks.cpg/sg12_115_cif.got.tgz:229843.got - 2010.06.03 13:09:07.
