data_PCOD9179303
_publ_section_title
;
Structure prediction by ZEFSAII (Michael W. Deem and Ramdas Pophale) SiO2 
 PCOD9179303
Probable space group: C 2/M
;
_chemical_formula_sum "Si O2"
_cell_formula_units_Z 64
_cell_length_a 14.960569
_cell_length_b 7.544467
_cell_length_c 25.949168
_cell_angle_alpha 90.000000
_cell_angle_beta 114.185951
_cell_angle_gamma 90.000000
_cell_volume 2671.775660
_symmetry_space_group_name_H-M "C 2/M"
_symmetry_group_IT_number 12
_symmetry_cell_setting 'monoclinic'
loop_
_space_group_symop_operation_xyz
x,y,z
-x,y,-z
-x,-y,-z
x,-y,z
1/2+x,1/2+y,z
1/2-x,1/2+y,-z
1/2-x,1/2-y,-z
1/2+x,1/2-y,z
loop_
_atom_site_type_symbol
_atom_site_label
_atom_site_fract_x
_atom_site_fract_y
_atom_site_fract_z
Si Si1 0.082932 0.714661 0.219601
Si Si2 0.810566 0.214881 0.584856
Si Si3 0.938653 0.708274 0.902544
Si Si4 0.299055 0.716212 0.257477
Si Si5 0.491668 0.705771 0.691056
Si Si6 0.104021 0.208262 0.504614
Si Si7 0.646007 0.709225 0.950384
Si Si8 0.727814 0.716188 0.867386
O O1 0.077844 0.500000 0.219273
O O2 0.195876 0.769799 0.257576
O O3 0.059735 0.778072 0.156145
O O4 0.014584 0.784238 0.248633
O O5 0.854828 0.278346 0.540245
O O6 0.698101 0.274141 0.564196
O O7 0.890692 0.279992 0.644804
O O8 0.806230 0.000000 0.584001
O O9 0.921339 0.500000 0.893233
O O10 0.045422 0.727964 0.951791
O O11 0.839760 0.775267 0.905828
O O12 0.300262 0.500000 0.258862
O O13 0.403885 0.780756 0.302573
O O14 0.292651 0.769048 0.195801
O O15 0.492360 0.500000 0.675631
O O16 0.000000 0.281815 0.500000
O O17 0.086978 0.000000 0.491542
O O18 0.636387 0.500000 0.946024
O O19 0.656227 0.783708 0.894609
O O20 0.750000 0.750000 0.000000
O O21 0.722460 0.500000 0.867669
#
# Coordination Sequence:
#
# PCOD9179303 Si02
#       8
#     8   8   8   8   8   8   8   8
#     4   9  18  32  52  76 100 128 165 205 243 284
#     4   9  19  33  48  73 104 131 162 203 252 296
#     4   9  18  35  55  74  97 127 165 207 245 286
#     4   8  15  30  51  73  96 128 166 198 234 287
#     4  10  19  31  49  73 105 137 163 197 241 294
#     4   9  18  34  55  74  93 125 171 215 249 287
#     4  11  22  35  52  75 100 128 163 203 248 298
#     4   8  16  32  53  72  94 129 167 196 234 293
#
# _framework density 23.954108000000002
#
# number of rings (size 3 to 8) (size 9 to 14) (size 15 to 20)
#    0.000    2.875    0.000    2.625    0.000    3.750 
#    0.000    6.875    0.000    2.250    0.000    0.000 
#    0.000    0.000    0.000    0.000    0.000    0.000 
#
# Total GULP energy -178557.494593 kJ/mol
# GULP energy per Si atom -5579.921706 kJ/mol
# Density = 2.389959 g / cm^3
# Si number density = 23.954108 Si / 1000 Ang^3
#
#
#
# Elastic Constant Matrix: (Units=GPa)
#
#
# Indices 1 2 3 4 5 6 
#
# 1 159.5671 -3.8925 27.3646 0.0000 45.6142 0.0000
# 2 -3.8925 55.6458 -9.8576 0.0000 -2.1030 0.0000
# 3 27.3646 -9.8576 41.1432 0.0000 24.3734 0.0000
# 4 0.0000 0.0000 0.0000 9.8961 0.0000 -3.7470
# 5 45.6142 -2.1030 24.3734 0.0000 35.3695 0.0000
# 6 0.0000 0.0000 0.0000 -3.7470 0.0000 -2.1331
#
#
#
# Elastic Compliance Matrix: (Units=1/GPa)
#
#
# Indices 1 2 3 4 5 6 
#
# 1 0.010007 0.000492 0.001842 0.000000 -0.014145 0.000000
# 2 0.000492 0.019029 0.006654 0.000000 -0.004088 0.000000
# 3 0.001842 0.006654 0.043678 0.000000 -0.032079 0.000000
# 4 0.000000 0.000000 0.000000 0.060687 0.000000 -0.106602
# 5 -0.014145 -0.004088 -0.032079 0.000000 0.068378 0.000000
# 6 0.000000 0.000000 0.000000 -0.106602 0.000000 -0.281544
#
#
# Mechanical properties :
#
#
# Convention : Reuss Voigt Hill
#
# Bulk Modulus (GPa) = 11.02665 31.50947 21.26806
# Shear Modulus (GPa) = -74.06271 24.80926 -24.62672
#
# Velocity S-wave (km/s) = -5.56648 3.22172 -3.20985
# Velocity P-wave (km/s) = 6.05814 5.19827 2.19990
#
# Compressibility (1/GPa) = 0.09068936
#
# Stress axis : x y z
#
# Youngs Moduli (GPa) = 99.93385 52.55009 22.89481
#
# Poissons Ratio (x) = -0.02584 -0.04217
# Poissons Ratio (y) = -0.04914 -0.15234
# Poissons Ratio (z) = -0.18407 -0.34967
#
# Static dielectric constant tensor:
#      x y z
#    x 1.868490 0.000000 0.027800 
#    y 0.000000 1.912980 0.000000 
#    z 0.027800 0.000000 1.972280 
# 
# From -- ./inp_files/375110.got.cif
#   From: 2010.05.17/outbox.cif.g08.bks.cpg/sg12_188_cif.got.tgz:375110.got - 2010.06.03 13:09:07.
