data_PCOD9180217
_publ_section_title
;
Structure prediction by ZEFSAII (Michael W. Deem and Ramdas Pophale) SiO2 
 PCOD9180217
Probable space group: C 2/M
;
_chemical_formula_sum "Si O2"
_cell_formula_units_Z 34
_cell_length_a 14.150051
_cell_length_b 21.952415
_cell_length_c 6.702246
_cell_angle_alpha 90.000000
_cell_angle_beta 142.569632
_cell_angle_gamma 90.000000
_cell_volume 1265.374537
_symmetry_space_group_name_H-M "C 2/M"
_symmetry_group_IT_number 12
_symmetry_cell_setting 'monoclinic'
loop_
_space_group_symop_operation_xyz
x,y,z
-x,y,-z
-x,-y,-z
x,-y,z
1/2+x,1/2+y,z
1/2-x,1/2+y,-z
1/2-x,1/2-y,-z
1/2+x,1/2-y,z
loop_
_atom_site_type_symbol
_atom_site_label
_atom_site_fract_x
_atom_site_fract_y
_atom_site_fract_z
Si Si1 0.102395 0.281559 0.360700
Si Si2 0.312221 0.065802 0.695155
Si Si3 0.537959 0.650834 0.302228
Si Si4 0.500000 0.000000 0.500000
Si Si5 0.718460 0.897486 0.798503
O O1 0.250000 0.250000 0.500000
O O2 0.026978 0.222129 0.331955
O O3 0.142939 0.333868 0.588683
O O4 0.000000 0.303588 0.000000
O O5 0.207686 0.120445 0.605755
O O6 0.273245 0.065556 0.393653
O O7 0.259546 0.000000 0.680231
O O8 0.500000 0.068609 0.000000
O O9 0.500000 0.647976 0.000000
O O10 0.392154 0.617314 0.156318
O O11 0.380311 0.056378 0.231459
#
# Coordination Sequence:
#
# PCOD9180217 Si02
#       5
#     8   8   8   2   8
#     4  11  18  34  62 103 124 140 189 269 336 359
#     4  10  19  31  56  95 120 145 194 267 328 355
#     4   9  19  32  58  92 121 147 186 257 325 359
#     4  12  28  44  56  78 126 188 224 224 278 374
#     4  11  22  38  58  85 124 169 203 242 295 378
#
# _framework density 26.869516000000001
#
# number of rings (size 3 to 8) (size 9 to 14) (size 15 to 20)
#    0.000    1.647    8.235    0.706    1.647    1.412 
#    0.000    1.176    0.000    2.824    0.000    0.000 
#    0.000    0.000    0.000    0.000    0.000    0.000 
#
# Total GULP energy -94756.290008 kJ/mol
# GULP energy per Si atom -5573.899412 kJ/mol
# Density = 2.680836 g / cm^3
# Si number density = 26.869516 Si / 1000 Ang^3
#
#
#
# Elastic Constant Matrix: (Units=GPa)
#
#
# Indices 1 2 3 4 5 6 
#
# 1 84.2428 -0.8657 7.8172 0.0000 -0.5655 0.0000
# 2 -0.8657 238.4673 87.5966 0.0000 13.9009 0.0000
# 3 7.8172 87.5966 187.8811 0.0000 7.5126 0.0000
# 4 0.0000 0.0000 0.0000 69.6980 0.0000 9.4402
# 5 -0.5655 13.9009 7.5126 0.0000 26.9666 0.0000
# 6 0.0000 0.0000 0.0000 9.4402 0.0000 23.8736
#
#
#
# Elastic Compliance Matrix: (Units=1/GPa)
#
#
# Indices 1 2 3 4 5 6 
#
# 1 0.011933 0.000257 -0.000628 0.000000 0.000293 0.000000
# 2 0.000257 0.005172 -0.002342 0.000000 -0.002008 0.000000
# 3 -0.000628 -0.002342 0.006465 0.000000 -0.000607 0.000000
# 4 0.000000 0.000000 0.000000 0.015160 0.000000 -0.005994
# 5 0.000293 -0.002008 -0.000607 0.000000 0.038293 0.000000
# 6 0.000000 0.000000 0.000000 -0.005994 0.000000 0.044258
#
#
# Mechanical properties :
#
#
# Convention : Reuss Voigt Hill
#
# Bulk Modulus (GPa) = 55.11378 77.74303 66.42841
# Shear Modulus (GPa) = 37.66386 51.84387 44.75386
#
# Velocity S-wave (km/s) = 3.74803 4.39734 4.08560
# Velocity P-wave (km/s) = 6.26789 7.40125 6.85802
#
# Compressibility (1/GPa) = 0.01814428
#
# Stress axis : x y z
#
# Youngs Moduli (GPa) = 83.79894 193.36497 154.68777
#
# Poissons Ratio (x) = -0.04968 0.09715
# Poissons Ratio (y) = -0.02153 0.36221
# Poissons Ratio (z) = 0.05263 0.45277
#
# Static dielectric constant tensor:
#      x y z
#    x 2.368070 0.000000 0.028640 
#    y 0.000000 2.136330 0.000000 
#    z 0.028640 0.000000 2.146210 
# 
# From -- ./inp_files/170246.got.cif
#   From: 2010.05.17/outbox.cif.g08.bks.cpg/sg12_86_cif.got.tgz:170246.got - 2010.06.03 13:09:07.
