data_PCOD9180000
_publ_section_title
;
Structure prediction by ZEFSAII (Michael W. Deem and Ramdas Pophale) SiO2 
 PCOD9180000
Probable space group: C 2/M
;
_chemical_formula_sum "Si O2"
_cell_formula_units_Z 56
_cell_length_a 15.004699
_cell_length_b 21.554565
_cell_length_c 8.781864
_cell_angle_alpha 90.000000
_cell_angle_beta 87.444189
_cell_angle_gamma 90.000000
_cell_volume 2837.403054
_symmetry_space_group_name_H-M "C 2/M"
_symmetry_group_IT_number 12
_symmetry_cell_setting 'monoclinic'
loop_
_space_group_symop_operation_xyz
x,y,z
-x,y,-z
-x,-y,-z
x,-y,z
1/2+x,1/2+y,z
1/2-x,1/2+y,-z
1/2-x,1/2-y,-z
1/2+x,1/2-y,z
loop_
_atom_site_type_symbol
_atom_site_label
_atom_site_fract_x
_atom_site_fract_y
_atom_site_fract_z
Si Si1 0.808952 0.822160 0.517060
Si Si2 0.036838 0.111454 0.833059
Si Si3 0.632348 0.218010 0.670843
Si Si4 0.675858 0.805210 0.009091
Si Si5 0.551452 0.741130 0.258308
Si Si6 0.289642 0.574888 0.023930
Si Si7 0.876734 0.930619 0.683074
O O1 0.704456 0.818216 0.562780
O O2 0.830578 0.788254 0.358554
O O3 0.870872 0.784032 0.635424
O O4 0.845000 0.889567 0.545781
O O5 0.139120 0.094518 0.851459
O O6 0.001116 0.182056 0.811492
O O7 0.981908 0.076405 0.707086
O O8 0.000000 0.089784 0.000000
O O9 0.527241 0.221703 0.652537
O O10 0.642486 0.193747 0.839288
O O11 0.599643 0.781583 0.127764
O O12 0.712641 0.873440 0.045956
O O13 0.750000 0.750000 0.000000
O O14 0.272030 0.500000 0.032971
O O15 0.330083 0.587993 0.849225
O O16 0.851203 0.000000 0.657030
#
# Coordination Sequence:
#
# PCOD9180000 Si02
#       7
#     8   8   8   8   8   8   8
#     4  10  21  36  54  84 115 145 190 236 294 349
#     4   9  16  28  48  82 112 150 188 227 290 346
#     4  11  21  35  54  80 113 148 186 237 295 338
#     4  12  20  35  57  86 116 151 198 241 289 341
#     4  11  21  34  57  84 116 149 188 245 289 343
#     4  10  19  31  52  84 124 159 193 239 295 354
#     4   9  16  31  53  78 113 153 192 230 287 358
#
# _framework density 19.736357999999999
#
# number of rings (size 3 to 8) (size 9 to 14) (size 15 to 20)
#    0.000    1.714    2.857    4.714    0.000    1.714 
#    0.000    0.000    0.000   12.857    0.000    1.000 
#    0.000    7.429    0.000    0.000    0.000    0.000 
#
# Total GULP energy -156073.211665 kJ/mol
# GULP energy per Si atom -5574.043274 kJ/mol
# Density = 1.969144 g / cm^3
# Si number density = 19.736358 Si / 1000 Ang^3
#
#
#
# Elastic Constant Matrix: (Units=GPa)
#
#
# Indices 1 2 3 4 5 6 
#
# 1 85.5921 36.9761 25.5641 0.0000 -21.9745 0.0000
# 2 36.9761 101.0031 18.1790 0.0000 3.5895 0.0000
# 3 25.5641 18.1790 28.1177 0.0000 -12.8507 0.0000
# 4 0.0000 0.0000 0.0000 15.6573 0.0000 5.6407
# 5 -21.9745 3.5895 -12.8507 0.0000 28.8375 0.0000
# 6 0.0000 0.0000 0.0000 5.6407 0.0000 14.6144
#
#
#
# Elastic Compliance Matrix: (Units=1/GPa)
#
#
# Indices 1 2 3 4 5 6 
#
# 1 0.020105 -0.006238 -0.008651 0.000000 0.012242 0.000000
# 2 -0.006238 0.013971 -0.007947 0.000000 -0.010034 0.000000
# 3 -0.008651 -0.007947 0.057774 0.000000 0.020143 0.000000
# 4 0.000000 0.000000 0.000000 0.074183 0.000000 -0.028633
# 5 0.012242 -0.010034 0.020143 0.000000 0.054230 0.000000
# 6 0.000000 0.000000 0.000000 -0.028633 0.000000 0.079477
#
#
# Mechanical properties :
#
#
# Convention : Reuss Voigt Hill
#
# Bulk Modulus (GPa) = 21.65555 41.79458 31.72507
# Shear Modulus (GPa) = 13.85784 20.75475 17.30629
#
# Velocity S-wave (km/s) = 2.65268 3.24636 2.96442
# Velocity P-wave (km/s) = 4.51426 5.93921 5.27507
#
# Compressibility (1/GPa) = 0.04617753
#
# Stress axis : x y z
#
# Youngs Moduli (GPa) = 49.73917 71.57482 17.30877
#
# Poissons Ratio (x) = 0.44650 0.14974
# Poissons Ratio (y) = 0.31028 0.13756
# Poissons Ratio (z) = 0.43029 0.56882
#
# Static dielectric constant tensor:
#      x y z
#    x 1.745190 0.000000 -0.004110 
#    y 0.000000 1.717310 0.000000 
#    z -0.004110 0.000000 1.750680 
# 
# From -- ./inp_files/76847.got.cif
#   From: 2010.05.17/outbox.cif.g08.bks.cpg/sg12_39_cif.got.tgz:76847.got - 2010.06.03 13:09:07.
