data_PCOD9180444
_publ_section_title
;
Structure prediction by ZEFSAII (Michael W. Deem and Ramdas Pophale) SiO2 
 PCOD9180444
Probable space group: C 2/M
;
_chemical_formula_sum "Si O2"
_cell_formula_units_Z 56
_cell_length_a 21.565253
_cell_length_b 12.513261
_cell_length_c 23.670984
_cell_angle_alpha 90.000000
_cell_angle_beta 149.630862
_cell_angle_gamma 90.000000
_cell_volume 3229.400423
_symmetry_space_group_name_H-M "C 2/M"
_symmetry_group_IT_number 12
_symmetry_cell_setting 'monoclinic'
loop_
_space_group_symop_operation_xyz
x,y,z
-x,y,-z
-x,-y,-z
x,-y,z
1/2+x,1/2+y,z
1/2-x,1/2+y,-z
1/2-x,1/2-y,-z
1/2+x,1/2-y,z
loop_
_atom_site_type_symbol
_atom_site_label
_atom_site_fract_x
_atom_site_fract_y
_atom_site_fract_z
Si Si1 0.611470 0.376870 0.632584
Si Si2 0.279501 0.877721 0.095980
Si Si3 0.591108 0.782258 0.908840
Si Si4 0.670020 0.124032 0.282194
Si Si5 0.038369 0.727407 0.675766
Si Si6 0.267374 0.207957 0.450200
Si Si7 0.518642 0.618129 0.265804
O O1 0.500000 0.363433 0.500000
O O2 0.601126 0.500000 0.645929
O O3 0.739501 0.366924 0.699908
O O4 0.599787 0.288389 0.671778
O O5 0.340668 0.861017 0.081765
O O6 0.378530 0.853802 0.223007
O O7 0.234131 0.000000 0.064909
O O8 0.182022 0.779707 0.022448
O O9 0.469333 0.837189 0.837523
O O10 0.546281 0.686755 0.833051
O O11 0.728671 0.197507 0.377173
O O12 0.668502 0.000000 0.298820
O O13 0.908743 0.677585 0.554160
O O14 0.003089 0.820126 0.692944
O O15 0.250000 0.250000 0.500000
O O16 0.162387 0.119554 0.363000
O O17 0.469042 0.500000 0.230036
#
# Coordination Sequence:
#
# PCOD9180444 Si02
#       7
#     8   8   8   8   8   8   8
#     4  10  19  32  54  79 104 140 174 208 259 313
#     4  10  20  35  56  77 104 140 175 214 264 313
#     4   9  19  34  53  80 104 132 173 216 260 308
#     4  10  19  33  54  77 105 137 170 210 261 313
#     4  10  19  32  49  76 107 135 173 215 254 308
#     4   9  18  28  43  73 104 132 164 204 254 310
#     4   9  17  29  48  73 104 134 164 210 262 311
#
# _framework density 17.340681
#
# number of rings (size 3 to 8) (size 9 to 14) (size 15 to 20)
#    0.000    2.429    1.429    2.143    0.000    2.857 
#    0.000    2.857    0.000    7.286    0.000    0.000 
#    0.000    0.000    0.000    0.000    0.000    0.000 
#
# Total GULP energy -155925.570816 kJ/mol
# GULP energy per Si atom -5568.770386 kJ/mol
# Density = 1.730121 g / cm^3
# Si number density = 17.340681 Si / 1000 Ang^3
#
#
#
# Elastic Constant Matrix: (Units=GPa)
#
#
# Indices 1 2 3 4 5 6 
#
# 1 49.7309 12.1399 17.8622 0.0000 9.9946 0.0000
# 2 12.1399 56.4725 10.1330 0.0001 -6.0843 0.0000
# 3 17.8622 10.1330 77.9985 0.0001 12.6850 0.0000
# 4 0.0000 0.0001 0.0001 2.2636 0.0001 5.3667
# 5 9.9946 -6.0843 12.6850 0.0001 19.5948 0.0000
# 6 0.0000 0.0000 0.0000 5.3667 0.0000 17.5758
#
#
#
# Elastic Compliance Matrix: (Units=1/GPa)
#
#
# Indices 1 2 3 4 5 6 
#
# 1 0.025295 -0.006328 -0.002853 0.000003 -0.013020 -0.000001
# 2 -0.006328 0.020909 -0.003183 -0.000004 0.011781 0.000001
# 3 -0.002853 -0.003183 0.015437 -0.000002 -0.009526 0.000001
# 4 0.000003 -0.000004 -0.000002 1.600270 -0.000008 -0.488636
# 5 -0.013020 0.011781 -0.009526 -0.000008 0.067500 0.000002
# 6 -0.000001 0.000001 0.000001 -0.488636 0.000002 0.206099
#
#
# Mechanical properties :
#
#
# Convention : Reuss Voigt Hill
#
# Bulk Modulus (GPa) = 27.09207 29.38580 28.23894
# Shear Modulus (GPa) = 2.53480 17.49129 10.01304
#
# Velocity S-wave (km/s) = 1.21035 3.17943 2.40559
# Velocity P-wave (km/s) = 4.19650 5.51917 4.90265
#
# Compressibility (1/GPa) = 0.03691117
#
# Stress axis : x y z
#
# Youngs Moduli (GPa) = 39.53428 47.82734 64.77979
#
# Poissons Ratio (x) = 0.30267 0.18482
# Poissons Ratio (y) = 0.25019 0.20619
# Poissons Ratio (z) = 0.11279 0.15223
#
# Static dielectric constant tensor:
#      x y z
#    x 1.577980 0.000000 0.027820 
#    y 0.000000 1.574110 0.000000 
#    z 0.027820 0.000000 1.654590 
# 
# From -- ./inp_files/164891.got.cif
#   From: 2010.05.17/outbox.cif.g08.bks.cpg/sg12_83_cif.got.tgz:164891.got - 2010.06.03 13:09:07.
