data_PCOD9180411
_publ_section_title
;
Structure prediction by ZEFSAII (Michael W. Deem and Ramdas Pophale) SiO2 
 PCOD9180411
Probable space group: C 2/M
;
_chemical_formula_sum "Si O2"
_cell_formula_units_Z 64
_cell_length_a 35.920978
_cell_length_b 8.761636
_cell_length_c 29.192396
_cell_angle_alpha 90.000000
_cell_angle_beta 22.896929
_cell_angle_gamma 90.000000
_cell_volume 3574.669973
_symmetry_space_group_name_H-M "C 2/M"
_symmetry_group_IT_number 12
_symmetry_cell_setting 'monoclinic'
loop_
_space_group_symop_operation_xyz
x,y,z
-x,y,-z
-x,-y,-z
x,-y,z
1/2+x,1/2+y,z
1/2-x,1/2+y,-z
1/2-x,1/2-y,-z
1/2+x,1/2-y,z
loop_
_atom_site_type_symbol
_atom_site_label
_atom_site_fract_x
_atom_site_fract_y
_atom_site_fract_z
Si Si1 0.025902 0.828145 0.519163
Si Si2 0.751907 0.169364 0.750818
Si Si3 0.605704 0.682624 0.183567
Si Si4 0.299913 0.817547 0.013859
Si Si5 0.654341 0.681871 0.940060
Si Si6 0.717270 0.679065 0.697938
Si Si7 0.517304 0.818040 0.926090
Si Si8 0.063800 0.317900 0.569975
O O1 0.138695 0.847822 0.385804
O O2 0.015038 0.732436 0.577256
O O3 0.000000 0.754976 0.500000
O O4 0.982119 0.000000 0.572426
O O5 0.738424 0.235494 0.816261
O O6 0.715326 0.287648 0.754630
O O7 0.706410 0.000000 0.797862
O O8 0.605340 0.500000 0.178478
O O9 0.689311 0.719816 0.126006
O O10 0.502326 0.740163 0.317051
O O11 0.638820 0.761421 0.099085
O O12 0.337068 0.737952 0.017697
O O13 0.307038 0.000000 0.010739
O O14 0.661012 0.500000 0.930281
O O15 0.561169 0.738623 0.017457
O O16 0.707342 0.500000 0.700212
O O17 0.622657 0.767341 0.789766
O O18 0.823017 0.727799 0.559988
O O19 0.509781 0.000000 0.930798
O O20 0.500000 0.778904 0.000000
O O21 0.061322 0.500000 0.577117
#
# Coordination Sequence:
#
# PCOD9180411 Si02
#       8
#     8   8   8   8   8   8   8   8
#     4   9  19  33  48  70 103 145 187 228 272 324
#     4  10  19  32  49  72 107 146 187 228 272 325
#     4  10  21  39  63  87 112 147 189 232 283 336
#     4  10  22  40  61  85 115 146 186 237 283 333
#     4  12  24  36  55  82 114 149 186 231 283 338
#     4  10  20  35  54  79 111 147 188 230 274 327
#     4  11  22  36  57  82 111 150 193 234 281 336
#     4  10  21  35  54  81 111 145 185 228 277 333
#
# _framework density 17.903752000000001
#
# number of rings (size 3 to 8) (size 9 to 14) (size 15 to 20)
#    0.000    1.750    1.250    3.375    1.750    4.250 
#    0.000    0.000    0.000    0.750    0.000    0.000 
#    0.000    0.000    0.000    0.000    0.000    0.000 
#
# Total GULP energy -178390.262700 kJ/mol
# GULP energy per Si atom -5574.695709 kJ/mol
# Density = 1.786300 g / cm^3
# Si number density = 17.903752 Si / 1000 Ang^3
#
#
#
# Elastic Constant Matrix: (Units=GPa)
#
#
# Indices 1 2 3 4 5 6 
#
# 1 65.3572 23.3999 20.4797 0.0053 10.7339 -0.0002
# 2 23.3999 69.6618 35.5404 -0.0329 1.8736 -0.0156
# 3 20.4797 35.5404 96.4210 -0.0095 7.0193 -0.0055
# 4 0.0053 -0.0329 -0.0095 16.9606 0.0022 -7.5913
# 5 10.7339 1.8736 7.0193 0.0022 12.8147 0.0036
# 6 -0.0002 -0.0156 -0.0055 -7.5913 0.0036 11.6798
#
#
#
# Elastic Compliance Matrix: (Units=1/GPa)
#
#
# Indices 1 2 3 4 5 6 
#
# 1 0.020279 -0.005880 -0.001006 -0.000025 -0.015575 -0.000019
# 2 -0.005880 0.019398 -0.006304 0.000063 0.005542 0.000062
# 3 -0.001006 -0.006304 0.013311 -0.000006 -0.005527 -0.000004
# 4 -0.000025 0.000063 -0.000006 0.083149 -0.000015 0.054043
# 5 -0.015575 0.005542 -0.005527 -0.000015 0.093299 -0.000033
# 6 -0.000019 0.000062 -0.000004 0.054043 -0.000033 0.120743
#
#
# Mechanical properties :
#
#
# Convention : Reuss Voigt Hill
#
# Bulk Modulus (GPa) = 37.58418 43.36445 40.47431
# Shear Modulus (GPa) = 12.97261 18.42569 15.69915
#
# Velocity S-wave (km/s) = 2.69471 3.21152 2.96440
# Velocity P-wave (km/s) = 5.54255 6.16646 5.86281
#
# Compressibility (1/GPa) = 0.02660694
#
# Stress axis : x y z
#
# Youngs Moduli (GPa) = 49.31238 51.55294 75.12560
#
# Poissons Ratio (x) = 0.30311 0.07559
# Poissons Ratio (y) = 0.28994 0.47363
# Poissons Ratio (z) = 0.04961 0.32502
#
# Static dielectric constant tensor:
#      x y z
#    x 1.621260 0.000000 -0.035500 
#    y 0.000000 1.614280 0.000000 
#    z -0.035500 0.000000 1.640050 
# 
# From -- ./inp_files/353295.got.cif
#   From: 2010.05.17/outbox.cif.g08.bks.cpg/sg12_177_cif.got.tgz:353295.got - 2010.06.03 13:09:07.
