data_PCOD9180371
_publ_section_title
;
Structure prediction by ZEFSAII (Michael W. Deem and Ramdas Pophale) SiO2 
 PCOD9180371
Probable space group: C 2/M
;
_chemical_formula_sum "Si O2"
_cell_formula_units_Z 56
_cell_length_a 14.050409
_cell_length_b 14.958263
_cell_length_c 14.253413
_cell_angle_alpha 90.000000
_cell_angle_beta 58.041640
_cell_angle_gamma 90.000000
_cell_volume 2541.596182
_symmetry_space_group_name_H-M "C 2/M"
_symmetry_group_IT_number 12
_symmetry_cell_setting 'monoclinic'
loop_
_space_group_symop_operation_xyz
x,y,z
-x,y,-z
-x,-y,-z
x,-y,z
1/2+x,1/2+y,z
1/2-x,1/2+y,-z
1/2-x,1/2-y,-z
1/2+x,1/2-y,z
loop_
_atom_site_type_symbol
_atom_site_label
_atom_site_fract_x
_atom_site_fract_y
_atom_site_fract_z
Si Si1 0.845782 0.289037 0.568429
Si Si2 0.377718 0.402368 0.780183
Si Si3 0.363987 0.598500 0.323068
Si Si4 0.844792 0.705136 0.797826
Si Si5 0.442684 0.103098 0.349752
Si Si6 0.305998 0.596140 0.604624
Si Si7 0.879141 0.103170 0.090412
O O1 0.720690 0.322858 0.607556
O O2 0.847974 0.296645 0.680700
O O3 0.921420 0.348918 0.460928
O O4 0.866419 0.185011 0.538274
O O5 0.355254 0.500000 0.837683
O O6 0.512336 0.396908 0.699524
O O7 0.344396 0.305898 0.837530
O O8 0.319217 0.404130 0.709439
O O9 0.312200 0.500000 0.370160
O O10 0.378220 0.602251 0.203715
O O11 0.731361 0.654666 0.884642
O O12 0.960758 0.654075 0.758381
O O13 0.323667 0.103597 0.358044
O O14 0.476561 0.000000 0.347078
O O15 0.350898 0.500000 0.548222
O O16 0.874684 0.000000 0.060335
O O17 0.000000 0.141939 0.000000
#
# Coordination Sequence:
#
# PCOD9180371 Si02
#       7
#     8   8   8   8   8   8   8
#     4  10  19  32  49  70 100 134 169 206 244 291
#     4   9  18  34  53  72  98 133 172 209 243 284
#     4   9  17  31  53  76  99 131 167 204 246 289
#     4  10  20  33  52  76 100 130 163 200 250 300
#     4  11  21  32  48  72 103 135 166 203 248 296
#     4   9  19  33  48  69  99 136 175 210 242 282
#     4   9  18  34  56  81 104 124 155 202 252 301
#
# _framework density 22.033397999999998
#
# number of rings (size 3 to 8) (size 9 to 14) (size 15 to 20)
#    0.000    2.429    0.000    2.571    0.000    2.286 
#    0.000    5.000    0.000   10.714    0.000    0.000 
#    0.000    0.000    0.000    0.000    0.000    0.000 
#
# Total GULP energy -156304.470831 kJ/mol
# GULP energy per Si atom -5582.302530 kJ/mol
# Density = 2.198325 g / cm^3
# Si number density = 22.033398 Si / 1000 Ang^3
#
#
#
# Elastic Constant Matrix: (Units=GPa)
#
#
# Indices 1 2 3 4 5 6 
#
# 1 80.5139 21.1985 9.5040 0.0000 -14.0024 0.0000
# 2 21.1985 178.0141 29.4087 0.0000 -24.6094 0.0000
# 3 9.5040 29.4087 48.2461 0.0000 -11.4529 0.0000
# 4 0.0000 0.0000 0.0000 12.0570 0.0000 -2.1205
# 5 -14.0024 -24.6094 -11.4529 0.0000 27.7136 0.0000
# 6 0.0000 0.0000 0.0000 -2.1205 0.0000 22.8044
#
#
#
# Elastic Compliance Matrix: (Units=1/GPa)
#
#
# Indices 1 2 3 4 5 6 
#
# 1 0.013740 -0.000663 -0.000881 0.000000 0.005990 0.000000
# 2 -0.000663 0.006804 -0.002952 0.000000 0.004488 0.000000
# 3 -0.000881 -0.002952 0.024362 0.000000 0.007001 0.000000
# 4 0.000000 0.000000 0.000000 0.084318 0.000000 0.007840
# 5 0.005990 0.004488 0.007001 0.000000 0.045988 0.000000
# 6 0.000000 0.000000 0.000000 0.007840 0.000000 0.044580
#
#
# Mechanical properties :
#
#
# Convention : Reuss Voigt Hill
#
# Bulk Modulus (GPa) = 27.84276 47.44408 37.64342
# Shear Modulus (GPa) = 20.76787 28.95920 24.86354
#
# Velocity S-wave (km/s) = 3.07345 3.62930 3.36288
# Velocity P-wave (km/s) = 5.02582 6.25636 5.67454
#
# Compressibility (1/GPa) = 0.03591599
#
# Stress axis : x y z
#
# Youngs Moduli (GPa) = 72.77811 146.96174 41.04760
#
# Poissons Ratio (x) = 0.09738 0.03616
# Poissons Ratio (y) = 0.04823 0.12117
# Poissons Ratio (z) = 0.06411 0.43382
#
# Static dielectric constant tensor:
#      x y z
#    x 1.838160 0.000000 0.017610 
#    y 0.000000 1.861230 0.000000 
#    z 0.017610 0.000000 1.769810 
# 
# From -- ./inp_files/270194.got.cif
#   From: 2010.05.17/outbox.cif.g08.bks.cpg/sg12_136_cif.got.tgz:270194.got - 2010.06.03 13:09:07.
