data_PCOD9180379
_publ_section_title
;
Structure prediction by ZEFSAII (Michael W. Deem and Ramdas Pophale) SiO2 
 PCOD9180379
Probable space group: C 2/M
;
_chemical_formula_sum "Si O2"
_cell_formula_units_Z 64
_cell_length_a 31.649332
_cell_length_b 8.846566
_cell_length_c 21.848697
_cell_angle_alpha 90.000000
_cell_angle_beta 137.922807
_cell_angle_gamma 90.000000
_cell_volume 4099.441197
_symmetry_space_group_name_H-M "C 2/M"
_symmetry_group_IT_number 12
_symmetry_cell_setting 'monoclinic'
loop_
_space_group_symop_operation_xyz
x,y,z
-x,y,-z
-x,-y,-z
x,-y,z
1/2+x,1/2+y,z
1/2-x,1/2+y,-z
1/2-x,1/2-y,-z
1/2+x,1/2-y,z
loop_
_atom_site_type_symbol
_atom_site_label
_atom_site_fract_x
_atom_site_fract_y
_atom_site_fract_z
Si Si1 0.198729 0.818655 0.398957
Si Si2 0.999906 0.816805 0.901962
Si Si3 0.526913 0.819645 0.384975
Si Si4 0.775609 0.319802 0.707006
Si Si5 0.857534 0.680309 0.399615
Si Si6 0.055342 0.182094 0.284531
Si Si7 0.059390 0.173951 0.610678
Si Si8 0.896272 0.182910 0.892742
O O1 0.250000 0.750000 0.500000
O O2 0.208976 0.750540 0.342820
O O3 0.128361 0.784531 0.347305
O O4 0.205331 0.000000 0.402937
O O5 0.985691 0.766052 0.818077
O O6 0.942058 0.776514 0.884830
O O7 0.000280 0.000000 0.901487
O O8 0.064586 0.771265 0.004738
O O9 0.589915 0.782083 0.492137
O O10 0.535104 0.757312 0.325832
O O11 0.467844 0.747574 0.357163
O O12 0.520755 0.000000 0.378464
O O13 0.776282 0.500000 0.703890
O O14 0.707421 0.261630 0.654577
O O15 0.829727 0.260628 0.810830
O O16 0.848962 0.500000 0.390297
O O17 0.886362 0.735141 0.366140
O O18 0.049858 0.000000 0.284191
O O19 0.000000 0.176391 0.500000
O O20 0.077710 0.000000 0.639843
O O21 0.889106 0.000000 0.884735
#
# Coordination Sequence:
#
# PCOD9180379 Si02
#       8
#     8   8   8   8   8   8   8   8
#     4  11  22  35  49  66  96 134 171 205 242 288
#     4   8  15  30  53  73  90 121 165 208 251 298
#     4  10  20  32  48  72 100 131 165 201 241 287
#     4  12  23  33  47  71 101 132 167 203 245 295
#     4  10  20  34  51  70  97 132 170 207 243 286
#     4  10  19  32  49  70  95 128 166 203 243 290
#     4   9  17  31  51  73  97 125 159 202 249 291
#     4   9  16  32  54  71  91 123 164 208 252 296
#
# _framework density 15.611883000000001
#
# number of rings (size 3 to 8) (size 9 to 14) (size 15 to 20)
#    0.000    2.125    1.250    4.125    0.000    6.000 
#    0.000    1.875    0.000    0.000    0.000    0.875 
#    0.000    0.000    0.000    0.000    0.000    0.000 
#
# Total GULP energy -178536.567669 kJ/mol
# GULP energy per Si atom -5579.267740 kJ/mol
# Density = 1.557635 g / cm^3
# Si number density = 15.611883 Si / 1000 Ang^3
#
#
#
# Elastic Constant Matrix: (Units=GPa)
#
#
# Indices 1 2 3 4 5 6 
#
# 1 112.1133 42.2296 55.8784 0.0000 -20.8322 0.0000
# 2 42.2296 52.3846 37.5620 0.0000 -10.1825 0.0000
# 3 55.8784 37.5620 103.0103 0.0000 -17.8609 0.0000
# 4 0.0000 0.0000 0.0000 18.9649 0.0000 -1.5451
# 5 -20.8322 -10.1825 -17.8609 0.0000 9.1673 0.0000
# 6 0.0000 0.0000 0.0000 -1.5451 0.0000 28.3080
#
#
#
# Elastic Compliance Matrix: (Units=1/GPa)
#
#
# Indices 1 2 3 4 5 6 
#
# 1 0.018156 -0.007526 -0.002114 0.000000 0.028778 0.000000
# 2 -0.007526 0.030540 -0.006248 0.000000 0.004647 0.000000
# 3 -0.002114 -0.006248 0.016758 0.000000 0.020905 0.000000
# 4 0.000000 0.000000 0.000000 0.052964 0.000000 0.002891
# 5 0.028778 0.004647 0.020905 0.000000 0.220370 0.000000
# 6 0.000000 0.000000 0.000000 0.002891 0.000000 0.035483
#
#
# Mechanical properties :
#
#
# Convention : Reuss Voigt Hill
#
# Bulk Modulus (GPa) = 29.69436 59.87203 44.78319
# Shear Modulus (GPa) = 11.98254 20.07728 16.02991
#
# Velocity S-wave (km/s) = 2.77343 3.59001 3.20781
# Velocity P-wave (km/s) = 5.41457 7.45773 6.51672
#
# Compressibility (1/GPa) = 0.03367643
#
# Stress axis : x y z
#
# Youngs Moduli (GPa) = 55.07942 32.74410 59.67415
#
# Poissons Ratio (x) = 0.24643 0.12617
# Poissons Ratio (y) = 0.41453 0.37284
# Poissons Ratio (z) = 0.11646 0.20459
#
# Static dielectric constant tensor:
#      x y z
#    x 1.496570 0.000000 -0.003880 
#    y 0.000000 1.519650 0.000000 
#    z -0.003880 0.000000 1.519590 
# 
# From -- ./inp_files/326989.got.cif
#   From: 2010.05.17/outbox.cif.g08.bks.cpg/sg12_164_cif.got.tgz:326989.got - 2010.06.03 13:09:07.
