data_PCOD9180543
_publ_section_title
;
Structure prediction by ZEFSAII (Michael W. Deem and Ramdas Pophale) SiO2 
 PCOD9180543
Probable space group: C 2/M
;
_chemical_formula_sum "Si O2"
_cell_formula_units_Z 56
_cell_length_a 28.021975
_cell_length_b 7.451765
_cell_length_c 14.850490
_cell_angle_alpha 90.000000
_cell_angle_beta 124.938772
_cell_angle_gamma 90.000000
_cell_volume 2542.071677
_symmetry_space_group_name_H-M "C 2/M"
_symmetry_group_IT_number 12
_symmetry_cell_setting 'monoclinic'
loop_
_space_group_symop_operation_xyz
x,y,z
-x,y,-z
-x,-y,-z
x,-y,z
1/2+x,1/2+y,z
1/2-x,1/2+y,-z
1/2-x,1/2-y,-z
1/2+x,1/2-y,z
loop_
_atom_site_type_symbol
_atom_site_label
_atom_site_fract_x
_atom_site_fract_y
_atom_site_fract_z
Si Si1 0.153240 0.716583 0.545151
Si Si2 0.651756 0.219520 0.746952
Si Si3 0.011931 0.704301 0.915068
Si Si4 0.214582 0.782072 0.312475
Si Si5 0.396827 0.793903 0.125557
Si Si6 0.285321 0.283415 0.894128
Si Si7 0.395097 0.709187 0.693964
O O1 0.154148 0.500000 0.546948
O O2 0.137771 0.774796 0.629786
O O3 0.219574 0.778841 0.596626
O O4 0.111543 0.774405 0.420084
O O5 0.610385 0.283867 0.782359
O O6 0.718723 0.272625 0.838676
O O7 0.651264 0.000000 0.747834
O O8 0.032810 0.500000 0.956325
O O9 0.059856 0.789534 0.900969
O O10 0.951701 0.700720 0.796062
O O11 0.000000 0.787600 0.000000
O O12 0.200427 0.733830 0.193907
O O13 0.164433 0.719518 0.325224
O O14 0.216147 0.000000 0.318153
O O15 0.416629 0.000000 0.158910
O O16 0.332726 0.792275 0.012777
O O17 0.287522 0.500000 0.902626
O O18 0.399900 0.500000 0.723238
#
# Coordination Sequence:
#
# PCOD9180543 Si02
#       7
#     8   8   8   8   8   8   8
#     4   9  17  33  54  73  98 130 162 196 239 291
#     4   8  16  31  51  74  99 129 162 197 239 291
#     4  10  22  38  53  71  97 130 167 203 238 282
#     4   8  16  30  49  74 102 131 159 192 239 296
#     4  10  19  32  50  72  98 128 166 206 241 282
#     4   9  16  29  50  75 102 129 158 193 242 298
#     4  11  21  33  51  75 101 128 162 202 244 287
#
# _framework density 22.029274999999998
#
# number of rings (size 3 to 8) (size 9 to 14) (size 15 to 20)
#    0.000    2.714    0.000    3.857    0.000    0.857 
#    0.000    5.714    0.000    4.286    0.000    0.000 
#    0.000    0.000    0.000    0.000    0.000    0.000 
#
# Total GULP energy -156347.621529 kJ/mol
# GULP energy per Si atom -5583.843626 kJ/mol
# Density = 2.197914 g / cm^3
# Si number density = 22.029275 Si / 1000 Ang^3
#
#
#
# Elastic Constant Matrix: (Units=GPa)
#
#
# Indices 1 2 3 4 5 6 
#
# 1 145.1102 5.5685 64.0844 0.0000 -47.4640 0.0000
# 2 5.5685 70.6707 -9.7056 0.0000 -1.7318 0.0000
# 3 64.0844 -9.7056 117.5381 0.0000 -18.4909 0.0000
# 4 0.0000 0.0000 0.0000 11.1288 0.0000 -8.5576
# 5 -47.4640 -1.7318 -18.4909 0.0000 23.0383 0.0000
# 6 0.0000 0.0000 0.0000 -8.5576 0.0000 85.9716
#
#
#
# Elastic Compliance Matrix: (Units=1/GPa)
#
#
# Indices 1 2 3 4 5 6 
#
# 1 0.024744 -0.001716 -0.006447 0.000000 0.045675 0.000000
# 2 -0.001716 0.014540 0.002005 0.000000 -0.000833 0.000000
# 3 -0.006447 0.002005 0.011586 0.000000 -0.003833 0.000000
# 4 0.000000 0.000000 0.000000 0.097305 0.000000 0.009686
# 5 0.045675 -0.000833 -0.003833 0.000000 0.134367 0.000000
# 6 0.000000 0.000000 0.000000 0.009686 0.000000 0.012596
#
#
# Mechanical properties :
#
#
# Convention : Reuss Voigt Hill
#
# Bulk Modulus (GPa) = 25.93754 50.35706 38.14730
# Shear Modulus (GPa) = 15.61012 42.25252 28.93132
#
# Velocity S-wave (km/s) = 2.66486 4.38427 3.62790
# Velocity P-wave (km/s) = 4.61176 6.96691 5.90788
#
# Compressibility (1/GPa) = 0.03855415
#
# Stress axis : x y z
#
# Youngs Moduli (GPa) = 40.41353 68.77427 86.31389
#
# Poissons Ratio (x) = 0.11801 0.55649
# Poissons Ratio (y) = 0.06935 -0.17308
# Poissons Ratio (z) = 0.26056 -0.13791
#
# Static dielectric constant tensor:
#      x y z
#    x 1.819720 0.000000 -0.036890 
#    y 0.000000 1.890760 0.000000 
#    z -0.036890 0.000000 1.762320 
# 
# From -- ./inp_files/244329.got.cif
#   From: 2010.05.17/outbox.cif.g08.bks.cpg/sg12_123_cif.got.tgz:244329.got - 2010.06.03 13:09:07.
