data_PCOD9180475
_publ_section_title
;
Structure prediction by ZEFSAII (Michael W. Deem and Ramdas Pophale) SiO2 
 PCOD9180475
Probable space group: C 2/M
;
_chemical_formula_sum "Si O2"
_cell_formula_units_Z 48
_cell_length_a 18.888906
_cell_length_b 8.879214
_cell_length_c 24.945894
_cell_angle_alpha 90.000000
_cell_angle_beta 41.387665
_cell_angle_gamma 90.000000
_cell_volume 2766.181298
_symmetry_space_group_name_H-M "C 2/M"
_symmetry_group_IT_number 12
_symmetry_cell_setting 'monoclinic'
loop_
_space_group_symop_operation_xyz
x,y,z
-x,y,-z
-x,-y,-z
x,-y,z
1/2+x,1/2+y,z
1/2-x,1/2+y,-z
1/2-x,1/2-y,-z
1/2+x,1/2-y,z
loop_
_atom_site_type_symbol
_atom_site_label
_atom_site_fract_x
_atom_site_fract_y
_atom_site_fract_z
Si Si1 0.668991 0.820056 0.003242
Si Si2 0.079713 0.319151 0.834986
Si Si3 0.628274 0.674726 0.916216
Si Si4 0.634015 0.319230 0.580490
Si Si5 0.086633 0.817155 0.492714
Si Si6 0.331957 0.181773 0.330896
O O1 0.546370 0.781293 0.089060
O O2 0.679062 0.000000 0.997473
O O3 0.750000 0.750000 0.000000
O O4 0.683757 0.758146 0.934476
O O5 0.088829 0.500000 0.834292
O O6 0.141194 0.247056 0.850370
O O7 0.124247 0.272984 0.751880
O O8 0.658359 0.500000 0.899010
O O9 0.500000 0.685216 0.000000
O O10 0.641416 0.500000 0.579370
O O11 0.750000 0.250000 0.500000
O O12 0.564926 0.278086 0.567207
O O13 0.605232 0.252408 0.654497
O O14 0.207316 0.772493 0.408111
O O15 0.000000 0.759208 0.500000
O O16 0.085467 0.000000 0.491051
O O17 0.337333 0.000000 0.332007
#
# Coordination Sequence:
#
# PCOD9180475 Si02
#       6
#     8   8   8   8   8   8
#     4  10  19  32  50  70  94 124 159 197 238 284
#     4   9  18  32  49  69  94 125 157 192 238 287
#     4   9  17  30  49  71  94 122 157 194 231 278
#     4   9  16  27  45  66  89 120 156 191 226 270
#     4   8  14  26  45  67  89 115 149 186 221 261
#     4   9  17  30  48  68  92 121 151 186 229 277
#
# _framework density 17.352440999999999
#
# number of rings (size 3 to 8) (size 9 to 14) (size 15 to 20)
#    0.000    3.000    0.000    2.500    0.000    3.333 
#    0.000    1.667    0.000   14.500    0.000    0.000 
#    0.000    0.000    0.000    0.000    0.000    0.000 
#
# Total GULP energy -133640.775116 kJ/mol
# GULP energy per Si atom -5568.365630 kJ/mol
# Density = 1.731295 g / cm^3
# Si number density = 17.352441 Si / 1000 Ang^3
#
#
#
# Elastic Constant Matrix: (Units=GPa)
#
#
# Indices 1 2 3 4 5 6 
#
# 1 164.2704 50.5685 63.5665 0.0000 45.9222 0.0000
# 2 50.5685 38.6156 32.0557 0.0000 17.5208 0.0000
# 3 63.5665 32.0557 95.2140 0.0000 45.7272 0.0000
# 4 0.0000 0.0000 0.0000 19.8423 0.0000 10.4565
# 5 45.9222 17.5208 45.7272 0.0000 34.6715 0.0000
# 6 0.0000 0.0000 0.0000 10.4565 0.0000 29.7997
#
#
#
# Elastic Compliance Matrix: (Units=1/GPa)
#
#
# Indices 1 2 3 4 5 6 
#
# 1 0.012913 -0.012502 0.002095 0.000000 -0.013548 0.000000
# 2 -0.012502 0.048510 -0.011360 0.000000 0.007027 0.000000
# 3 0.002095 -0.011360 0.031381 0.000000 -0.038421 0.000000
# 4 0.000000 0.000000 0.000000 0.061831 0.000000 -0.021696
# 5 -0.013548 0.007027 -0.038421 0.000000 0.093907 0.000000
# 6 0.000000 0.000000 0.000000 -0.021696 0.000000 0.041170
#
#
# Mechanical properties :
#
#
# Convention : Reuss Voigt Hill
#
# Bulk Modulus (GPa) = 20.29708 65.60903 42.95305
# Shear Modulus (GPa) = 14.29925 26.98998 20.64462
#
# Velocity S-wave (km/s) = 2.87374 3.94813 3.45298
# Velocity P-wave (km/s) = 4.76797 7.65999 6.38001
#
# Compressibility (1/GPa) = 0.04926817
#
# Stress axis : x y z
#
# Youngs Moduli (GPa) = 77.44269 20.61451 31.86666
#
# Poissons Ratio (x) = 0.25771 -0.06675
# Poissons Ratio (y) = 0.96815 0.36202
# Poissons Ratio (z) = -0.16221 0.23419
#
# Static dielectric constant tensor:
#      x y z
#    x 1.601470 0.000000 0.015770 
#    y 0.000000 1.584070 0.000000 
#    z 0.015770 0.000000 1.596400 
# 
# From -- ./inp_files/221660.got.cif
#   From: 2010.05.17/outbox.cif.g08.bks.cpg/sg12_111_cif.got.tgz:221660.got - 2010.06.03 13:09:07.
