data_PCOD9180084
_publ_section_title
;
Structure prediction by ZEFSAII (Michael W. Deem and Ramdas Pophale) SiO2 
 PCOD9180084
Probable space group: C 2/M
;
_chemical_formula_sum "Si O2"
_cell_formula_units_Z 48
_cell_length_a 13.443003
_cell_length_b 13.874739
_cell_length_c 22.714317
_cell_angle_alpha 90.000000
_cell_angle_beta 147.604151
_cell_angle_gamma 90.000000
_cell_volume 2269.842088
_symmetry_space_group_name_H-M "C 2/M"
_symmetry_group_IT_number 12
_symmetry_cell_setting 'monoclinic'
loop_
_space_group_symop_operation_xyz
x,y,z
-x,y,-z
-x,-y,-z
x,-y,z
1/2+x,1/2+y,z
1/2-x,1/2+y,-z
1/2-x,1/2-y,-z
1/2+x,1/2-y,z
loop_
_atom_site_type_symbol
_atom_site_label
_atom_site_fract_x
_atom_site_fract_y
_atom_site_fract_z
Si Si1 0.718224 0.112356 0.097605
Si Si2 0.513421 0.112960 0.288776
Si Si3 0.785873 0.384931 0.408544
Si Si4 0.499432 0.735964 0.184885
Si Si5 0.625712 0.613073 0.458893
Si Si6 0.809076 0.771198 0.256513
O O1 0.811159 0.154800 0.203085
O O2 0.810238 0.175316 0.091970
O O3 0.759601 0.000000 0.110348
O O4 0.500000 0.123312 0.000000
O O5 0.475124 0.164601 0.208032
O O6 0.726538 0.127423 0.415441
O O7 0.391256 0.170708 0.275141
O O8 0.475104 0.000000 0.269626
O O9 0.760181 0.500000 0.386904
O O10 0.648763 0.326871 0.297375
O O11 0.731005 0.365262 0.449359
O O12 0.000000 0.363420 0.500000
O O13 0.602546 0.756604 0.176100
O O14 0.573173 0.500000 0.431894
O O15 0.446301 0.680322 0.372229
#
# Coordination Sequence:
#
# PCOD9180084 Si02
#       6
#     8   8   8   8   8   8
#     4  10  22  43  67  87 109 141 189 246 296 341
#     4  10  22  36  51  80 121 162 194 227 271 334
#     4  10  19  31  53  83 114 150 194 238 277 326
#     4  11  23  35  59  85 116 152 188 235 279 350
#     4  10  19  34  54  78 116 158 198 235 275 327
#     4  11  22  36  59  84 115 150 188 238 290 339
#
# _framework density 21.146844999999999
#
# number of rings (size 3 to 8) (size 9 to 14) (size 15 to 20)
#    0.000    1.667    3.333    2.500    2.333    4.667 
#    0.000    1.667    0.000    8.000    0.000    0.000 
#    0.000    0.000    0.000    0.000    0.000    0.000 
#
# Total GULP energy -134202.342796 kJ/mol
# GULP energy per Si atom -5591.764283 kJ/mol
# Density = 2.109871 g / cm^3
# Si number density = 21.146845 Si / 1000 Ang^3
#
#
#
# Elastic Constant Matrix: (Units=GPa)
#
#
# Indices 1 2 3 4 5 6 
#
# 1 67.1684 31.0142 10.2732 0.0000 31.6294 0.0000
# 2 31.0142 127.8744 36.3670 0.0000 20.6583 0.0000
# 3 10.2732 36.3670 47.4262 0.0000 25.4206 0.0000
# 4 0.0000 0.0000 0.0000 27.0419 0.0000 10.3781
# 5 31.6294 20.6583 25.4206 0.0000 31.3484 0.0000
# 6 0.0000 0.0000 0.0000 10.3781 0.0000 16.9966
#
#
#
# Elastic Compliance Matrix: (Units=1/GPa)
#
#
# Indices 1 2 3 4 5 6 
#
# 1 0.045772 -0.009813 0.033426 0.000000 -0.066822 0.000000
# 2 -0.009813 0.012113 -0.014488 0.000000 0.013667 0.000000
# 3 0.033426 -0.014488 0.067063 0.000000 -0.078560 0.000000
# 4 0.000000 0.000000 0.000000 0.048298 0.000000 -0.029491
# 5 -0.066822 0.013667 -0.078560 0.000000 0.154018 0.000000
# 6 0.000000 0.000000 0.000000 -0.029491 0.000000 0.076842
#
#
# Mechanical properties :
#
#
# Convention : Reuss Voigt Hill
#
# Bulk Modulus (GPa) = 6.98331 44.19755 25.59043
# Shear Modulus (GPa) = 11.53170 26.06502 18.79836
#
# Velocity S-wave (km/s) = 2.33773 3.51461 2.98475
# Velocity P-wave (km/s) = 3.25517 6.11683 4.89958
#
# Compressibility (1/GPa) = 0.14319855
#
# Stress axis : x y z
#
# Youngs Moduli (GPa) = 21.84723 82.55926 14.91143
#
# Poissons Ratio (x) = 0.81012 -0.49843
# Poissons Ratio (y) = 0.21438 0.21604
# Poissons Ratio (z) = -0.73027 1.19612
#
# Static dielectric constant tensor:
#      x y z
#    x 1.781660 0.000000 0.011210 
#    y 0.000000 1.739520 0.000000 
#    z 0.011210 0.000000 1.782910 
# 
# From -- ./inp_files/214408.got.cif
#   From: 2010.05.17/outbox.cif.g08.bks.cpg/sg12_108_cif.got.tgz:214408.got - 2010.06.03 13:09:07.
