data_PCOD9180509
_publ_section_title
;
Structure prediction by ZEFSAII (Michael W. Deem and Ramdas Pophale) SiO2 
 PCOD9180509
Probable space group: C 2/M
;
_chemical_formula_sum "Si O2"
_cell_formula_units_Z 56
_cell_length_a 28.273987
_cell_length_b 7.416561
_cell_length_c 24.248178
_cell_angle_alpha 90.000000
_cell_angle_beta 149.902114
_cell_angle_gamma 90.000000
_cell_volume 2549.889322
_symmetry_space_group_name_H-M "C 2/M"
_symmetry_group_IT_number 12
_symmetry_cell_setting 'monoclinic'
loop_
_space_group_symop_operation_xyz
x,y,z
-x,y,-z
-x,-y,-z
x,-y,z
1/2+x,1/2+y,z
1/2-x,1/2+y,-z
1/2-x,1/2-y,-z
1/2+x,1/2-y,z
loop_
_atom_site_type_symbol
_atom_site_label
_atom_site_fract_x
_atom_site_fract_y
_atom_site_fract_z
Si Si1 0.714352 0.779627 0.237521
Si Si2 0.857421 0.279332 0.955682
Si Si3 0.071781 0.779878 0.524597
Si Si4 0.289364 0.284709 0.100425
Si Si5 0.069669 0.709218 0.183439
Si Si6 0.641200 0.713768 0.376610
Si Si7 0.497186 0.720710 0.665943
O O1 0.676667 0.727408 0.139506
O O2 0.821539 0.721413 0.355890
O O3 0.643769 0.715194 0.214124
O O4 0.716184 0.000000 0.240688
O O5 0.857305 0.500000 0.957682
O O6 0.783761 0.216490 0.927566
O O7 0.963853 0.215687 0.074449
O O8 0.037867 0.723776 0.429813
O O9 0.000000 0.722096 0.500000
O O10 0.071452 0.000000 0.524590
O O11 0.294509 0.500000 0.113015
O O12 0.396050 0.218114 0.215408
O O13 0.250000 0.250000 0.000000
O O14 0.059103 0.500000 0.156916
O O15 0.111356 0.715943 0.286770
O O16 0.628522 0.500000 0.361120
O O17 0.750000 0.750000 0.500000
O O18 0.573328 0.781455 0.356954
O O19 0.496307 0.500000 0.665534
#
# Coordination Sequence:
#
# PCOD9180509 Si02
#       7
#     8   8   8   8   8   8   8
#     4   9  16  27  46  72 100 129 163 205 249 292
#     4   9  17  29  48  75 103 132 167 206 246 292
#     4   9  15  24  41  66  95 124 157 200 248 291
#     4  10  19  32  50  72 100 131 166 205 246 294
#     4  10  19  32  51  75 103 132 165 205 249 295
#     4  11  22  36  53  73 100 132 167 205 248 297
#     4   9  18  31  47  70  99 129 159 198 247 293
#
# _framework density 21.961735999999998
#
# number of rings (size 3 to 8) (size 9 to 14) (size 15 to 20)
#    0.000    2.429    0.000    3.429    0.000    7.429 
#    0.000    0.714    0.000    2.571    0.000    0.000 
#    0.000    6.857    0.000    0.000    0.000    0.000 
#
# Total GULP energy -156532.822574 kJ/mol
# GULP energy per Si atom -5590.457949 kJ/mol
# Density = 2.191175 g / cm^3
# Si number density = 21.961736 Si / 1000 Ang^3
#
#
#
# Elastic Constant Matrix: (Units=GPa)
#
#
# Indices 1 2 3 4 5 6 
#
# 1 270.4942 0.0245 149.7192 0.0000 12.5674 0.0000
# 2 0.0245 69.5655 -9.9181 0.0000 7.2570 0.0000
# 3 149.7192 -9.9181 237.3307 0.0000 15.8047 0.0000
# 4 0.0000 0.0000 0.0000 8.7066 0.0000 -10.1056
# 5 12.5674 7.2570 15.8047 0.0000 46.7307 0.0000
# 6 0.0000 0.0000 0.0000 -10.1056 0.0000 3.0386
#
#
#
# Elastic Compliance Matrix: (Units=1/GPa)
#
#
# Indices 1 2 3 4 5 6 
#
# 1 0.005701 -0.000491 -0.003601 0.000000 -0.000239 0.000000
# 2 -0.000491 0.014796 0.001097 0.000000 -0.002537 0.000000
# 3 -0.003601 0.001097 0.006627 0.000000 -0.001443 0.000000
# 4 0.000000 0.000000 0.000000 -0.040157 0.000000 -0.133553
# 5 -0.000239 -0.002537 -0.001443 0.000000 0.022346 0.000000
# 6 0.000000 0.000000 0.000000 -0.133553 0.000000 -0.115063
#
#
# Mechanical properties :
#
#
# Convention : Reuss Voigt Hill
#
# Bulk Modulus (GPa) = 47.31563 95.22683 71.27123
# Shear Modulus (GPa) = -53.92870 40.86618 -6.53126
#
# Velocity S-wave (km/s) = -4.96075 4.31837 -1.72638
# Velocity P-wave (km/s) = 3.34974 8.26552 5.34313
#
# Compressibility (1/GPa) = 0.02113467
#
# Stress axis : x y z
#
# Youngs Moduli (GPa) = 175.39514 67.58534 150.89034
#
# Poissons Ratio (x) = 0.03315 0.54340
# Poissons Ratio (y) = 0.08603 -0.16548
# Poissons Ratio (z) = 0.63165 -0.07412
#
# Static dielectric constant tensor:
#      x y z
#    x 1.758140 0.000000 0.019470 
#    y 0.000000 1.881510 0.000000 
#    z 0.019470 0.000000 1.726920 
# 
# From -- ./inp_files/327616.got.cif
#   From: 2010.05.17/outbox.cif.g08.bks.cpg/sg12_164_cif.got.tgz:327616.got - 2010.06.03 13:09:07.
