data_PCOD9180149
_publ_section_title
;
Structure prediction by ZEFSAII (Michael W. Deem and Ramdas Pophale) SiO2 
 PCOD9180149
Probable space group: C 2/M
;
_chemical_formula_sum "Si O2"
_cell_formula_units_Z 64
_cell_length_a 21.218763
_cell_length_b 7.653172
_cell_length_c 21.017191
_cell_angle_alpha 90.000000
_cell_angle_beta 64.958584
_cell_angle_gamma 90.000000
_cell_volume 3092.184461
_symmetry_space_group_name_H-M "C 2/M"
_symmetry_group_IT_number 12
_symmetry_cell_setting 'monoclinic'
loop_
_space_group_symop_operation_xyz
x,y,z
-x,y,-z
-x,-y,-z
x,-y,z
1/2+x,1/2+y,z
1/2-x,1/2+y,-z
1/2-x,1/2-y,-z
1/2+x,1/2-y,z
loop_
_atom_site_type_symbol
_atom_site_label
_atom_site_fract_x
_atom_site_fract_y
_atom_site_fract_z
Si Si1 0.800184 0.711547 0.067397
Si Si2 0.641142 0.291528 0.303219
Si Si3 0.144973 0.706353 0.088253
Si Si4 0.701458 0.785610 0.790576
Si Si5 0.420377 0.211034 0.533301
Si Si6 0.169846 0.289620 0.547297
Si Si7 0.038073 0.201211 0.239632
Si Si8 0.618883 0.796939 0.704190
O O1 0.801371 0.500000 0.065223
O O2 0.720543 0.765121 0.087814
O O3 0.820541 0.769963 0.129204
O O4 0.846081 0.772506 0.987945
O O5 0.643534 0.500000 0.291481
O O6 0.719086 0.228125 0.256016
O O7 0.618004 0.258627 0.385015
O O8 0.583880 0.221657 0.277979
O O9 0.130508 0.500000 0.092837
O O10 0.086459 0.790769 0.156798
O O11 0.652909 0.723362 0.753807
O O12 0.700715 0.000000 0.791766
O O13 0.500000 0.274017 0.500000
O O14 0.378358 0.275924 0.489730
O O15 0.422236 0.000000 0.529477
O O16 0.161420 0.500000 0.551829
O O17 0.250000 0.250000 0.500000
O O18 0.146822 0.220014 0.626022
O O19 0.964188 0.288988 0.260329
O O20 0.022341 0.000000 0.261737
O O21 0.640484 0.000000 0.694244
#
# Coordination Sequence:
#
# PCOD9180149 Si02
#       8
#     8   8   8   8   8   8   8   8
#     4   9  17  33  55  81 113 144 180 225 268 314
#     4  10  20  35  57  80 102 136 180 222 268 320
#     4  10  19  31  54  84 111 144 182 221 269 323
#     4   9  17  34  57  80 106 139 178 224 267 310
#     4  10  21  36  53  76 107 139 172 220 275 317
#     4  10  21  37  57  80 108 144 181 223 271 323
#     4  11  22  37  56  79 112 147 179 225 278 325
#     4  10  21  37  58  80 107 144 185 224 267 324
#
# _framework density 20.697341000000002
#
# number of rings (size 3 to 8) (size 9 to 14) (size 15 to 20)
#    0.000    2.125    1.250    2.250    0.000    4.750 
#    0.000    1.875    0.000    3.750    0.000    0.000 
#    0.000    0.000    0.000    0.000    0.000    0.000 
#
# Total GULP energy -178720.300439 kJ/mol
# GULP energy per Si atom -5585.009389 kJ/mol
# Density = 2.065023 g / cm^3
# Si number density = 20.697341 Si / 1000 Ang^3
#
#
#
# Elastic Constant Matrix: (Units=GPa)
#
#
# Indices 1 2 3 4 5 6 
#
# 1 147.7222 -0.8865 76.9766 -0.0001 37.8882 -0.0001
# 2 -0.8865 36.9834 -7.2156 0.0002 5.7315 -0.0001
# 3 76.9766 -7.2156 156.7687 -0.0001 37.2256 -0.0003
# 4 -0.0001 0.0002 -0.0001 20.1363 0.0000 -7.1697
# 5 37.8882 5.7315 37.2256 0.0000 31.1966 0.0001
# 6 -0.0001 -0.0001 -0.0003 -7.1697 0.0001 16.1415
#
#
#
# Elastic Compliance Matrix: (Units=1/GPa)
#
#
# Indices 1 2 3 4 5 6 
#
# 1 0.010836 0.001228 -0.002910 0.000000 -0.009913 0.000000
# 2 0.001228 0.029403 0.003331 0.000000 -0.010868 0.000000
# 3 -0.002910 0.003331 0.010140 0.000000 -0.009178 0.000000
# 4 0.000000 0.000000 0.000000 0.058991 0.000000 0.026202
# 5 -0.009913 -0.010868 -0.009178 0.000000 0.057043 -0.000001
# 6 0.000000 0.000000 0.000000 0.026202 -0.000001 0.073591
#
#
# Mechanical properties :
#
#
# Convention : Reuss Voigt Hill
#
# Bulk Modulus (GPa) = 18.62986 53.24704 35.93845
# Shear Modulus (GPa) = 19.63883 31.66819 25.65351
#
# Velocity S-wave (km/s) = 3.08369 3.91584 3.52441
# Velocity P-wave (km/s) = 4.65828 6.79908 5.82782
#
# Compressibility (1/GPa) = 0.05367727
#
# Stress axis : x y z
#
# Youngs Moduli (GPa) = 92.28620 34.01035 98.61571
#
# Poissons Ratio (x) = -0.04177 0.28699
# Poissons Ratio (y) = -0.11335 -0.32849
# Poissons Ratio (z) = 0.26857 -0.11329
#
# Static dielectric constant tensor:
#      x y z
#    x 1.709040 0.000000 0.029840 
#    y 0.000000 1.789050 0.000000 
#    z 0.029840 0.000000 1.736180 
# 
# From -- ./inp_files/319879.got.cif
#   From: 2010.05.17/outbox.cif.g08.bks.cpg/sg12_160_cif.got.tgz:319879.got - 2010.06.03 13:09:07.
