data_PCOD9180262
_publ_section_title
;
Structure prediction by ZEFSAII (Michael W. Deem and Ramdas Pophale) SiO2 
 PCOD9180262
Probable space group: C 2/M
;
_chemical_formula_sum "Si O2"
_cell_formula_units_Z 56
_cell_length_a 24.513180
_cell_length_b 8.965345
_cell_length_c 25.862872
_cell_angle_alpha 90.000000
_cell_angle_beta 39.081101
_cell_angle_gamma 90.000000
_cell_volume 3583.218174
_symmetry_space_group_name_H-M "C 2/M"
_symmetry_group_IT_number 12
_symmetry_cell_setting 'monoclinic'
loop_
_space_group_symop_operation_xyz
x,y,z
-x,y,-z
-x,-y,-z
x,-y,z
1/2+x,1/2+y,z
1/2-x,1/2+y,-z
1/2-x,1/2-y,-z
1/2+x,1/2-y,z
loop_
_atom_site_type_symbol
_atom_site_label
_atom_site_fract_x
_atom_site_fract_y
_atom_site_fract_z
Si Si1 0.885206 0.171725 0.399076
Si Si2 0.164579 0.323327 0.723882
Si Si3 0.094872 0.822771 0.994085
Si Si4 0.340352 0.821854 0.950208
Si Si5 0.778599 0.329159 0.559545
Si Si6 0.493342 0.319887 0.223996
Si Si7 0.888390 0.176640 0.136253
O O1 0.859413 0.268994 0.467278
O O2 0.802596 0.175402 0.420850
O O3 0.964254 0.218092 0.304006
O O4 0.896929 0.000000 0.406208
O O5 0.154132 0.500000 0.727339
O O6 0.247896 0.269680 0.630231
O O7 0.164070 0.270385 0.783417
O O8 0.082181 0.242270 0.757762
O O9 0.137765 0.727282 0.007323
O O10 0.127720 0.788668 0.912081
O O11 0.108151 0.000000 0.994022
O O12 0.991140 0.798266 0.070015
O O13 0.338537 0.000000 0.946853
O O14 0.250000 0.750000 0.000000
O O15 0.417304 0.752559 0.859006
O O16 0.790274 0.500000 0.566799
O O17 0.495754 0.500000 0.217570
O O18 0.873062 0.000000 0.155372
#
# Coordination Sequence:
#
# PCOD9180262 Si02
#       7
#     8   8   8   8   8   8   8
#     4   8  15  26  40  58  82 114 149 187 227 271
#     4  11  19  26  41  66  94 123 156 191 226 274
#     4   9  18  33  51  69  91 121 155 193 237 282
#     4  12  24  36  51  70  93 123 159 200 238 277
#     4   9  16  25  38  57  85 120 152 185 224 270
#     4  10  19  32  47  63  88 120 155 193 235 280
#     4   9  17  30  49  69  93 124 154 189 235 283
#
# _framework density 15.628409
#
# number of rings (size 3 to 8) (size 9 to 14) (size 15 to 20)
#    0.000    2.286    1.429    5.143    0.000    4.571 
#    0.000    1.429    0.000    0.000    0.000    0.000 
#    0.000    1.143    0.000   12.000    0.000    5.429 
#
# Total GULP energy -156091.414552 kJ/mol
# GULP energy per Si atom -5574.693377 kJ/mol
# Density = 1.559284 g / cm^3
# Si number density = 15.628409 Si / 1000 Ang^3
#
#
#
# Elastic Constant Matrix: (Units=GPa)
#
#
# Indices 1 2 3 4 5 6 
#
# 1 43.2096 38.7768 43.1427 0.0004 2.0379 -0.0003
# 2 38.7768 102.6567 72.9798 0.0011 13.1484 -0.0014
# 3 43.1427 72.9798 131.9119 0.0001 20.3434 -0.0003
# 4 0.0004 0.0011 0.0001 28.0838 0.0001 4.1387
# 5 2.0379 13.1484 20.3434 0.0001 15.1993 0.0001
# 6 -0.0003 -0.0014 -0.0003 4.1387 0.0001 18.0265
#
#
#
# Elastic Compliance Matrix: (Units=1/GPa)
#
#
# Indices 1 2 3 4 5 6 
#
# 1 0.042752 -0.010782 -0.010801 0.000000 0.018052 0.000000
# 2 -0.010782 0.018853 -0.005811 -0.000001 -0.007085 0.000001
# 3 -0.010801 -0.005811 0.016797 0.000000 -0.016007 0.000000
# 4 0.000000 -0.000001 0.000000 0.036855 0.000000 -0.008461
# 5 0.018052 -0.007085 -0.016007 0.000000 0.090925 -0.000001
# 6 0.000000 0.000001 0.000000 -0.008461 -0.000001 0.057417
#
#
# Mechanical properties :
#
#
# Convention : Reuss Voigt Hill
#
# Bulk Modulus (GPa) = 42.34992 65.28632 53.81812
# Shear Modulus (GPa) = 15.32526 20.45381 17.88953
#
# Velocity S-wave (km/s) = 3.13485 3.62160 3.38698
# Velocity P-wave (km/s) = 6.34507 7.70408 7.05736
#
# Compressibility (1/GPa) = 0.02361279
#
# Stress axis : x y z
#
# Youngs Moduli (GPa) = 23.39054 53.04268 59.53507
#
# Poissons Ratio (x) = 0.57193 0.64304
# Poissons Ratio (y) = 0.25221 0.34596
# Poissons Ratio (z) = 0.25264 0.30823
#
# Static dielectric constant tensor:
#      x y z
#    x 1.491480 0.000000 0.020040 
#    y 0.000000 1.521420 0.000000 
#    z 0.020040 0.000000 1.545970 
# 
# From -- ./inp_files/348454.got.cif
#   From: 2010.05.17/outbox.cif.g08.bks.cpg/sg12_175_cif.got.tgz:348454.got - 2010.06.03 13:09:07.
