data_PCOD9180707
_publ_section_title
;
Structure prediction by ZEFSAII (Michael W. Deem and Ramdas Pophale) SiO2 
 PCOD9180707
Probable space group: C 2/M
;
_chemical_formula_sum "Si O2"
_cell_formula_units_Z 44
_cell_length_a 18.797357
_cell_length_b 27.379921
_cell_length_c 5.440500
_cell_angle_alpha 90.000000
_cell_angle_beta 122.651541
_cell_angle_gamma 90.000000
_cell_volume 2357.561720
_symmetry_space_group_name_H-M "C 2/M"
_symmetry_group_IT_number 12
_symmetry_cell_setting 'monoclinic'
loop_
_space_group_symop_operation_xyz
x,y,z
-x,y,-z
-x,-y,-z
x,-y,z
1/2+x,1/2+y,z
1/2-x,1/2+y,-z
1/2-x,1/2-y,-z
1/2+x,1/2-y,z
loop_
_atom_site_type_symbol
_atom_site_label
_atom_site_fract_x
_atom_site_fract_y
_atom_site_fract_z
Si Si1 0.726010 0.115043 0.413498
Si Si2 0.566379 0.168641 0.956803
Si Si3 0.000000 0.586041 0.500000
Si Si4 0.191108 0.443622 0.841886
Si Si5 0.647105 0.748521 0.820146
Si Si6 0.829562 0.789138 0.634818
O O1 0.725698 0.082933 0.660562
O O2 0.798805 0.155641 0.540909
O O3 0.642944 0.149190 0.262416
O O4 0.717886 0.084165 0.144374
O O5 0.518090 0.122095 0.759590
O O6 0.607307 0.199302 0.812001
O O7 0.500000 0.196971 0.000000
O O8 0.911762 0.558143 0.368027
O O9 0.217571 0.500000 0.900733
O O10 0.619597 0.727617 0.509302
O O11 0.750000 0.750000 0.000000
O O12 0.626997 0.716397 0.021323
O O13 0.750000 0.750000 0.500000
#
# Coordination Sequence:
#
# PCOD9180707 Si02
#       6
#     8   8   4   8   8   8
#     4  11  21  35  53  71  94 128 174 223 256 293
#     4  11  21  32  47  73  98 134 173 220 252 293
#     4  10  23  32  50  64 100 134 184 220 253 284
#     4  11  23  37  50  69  96 134 179 225 260 286
#     4  10  20  30  50  69 100 119 165 215 251 303
#     4  10  19  32  51  73  94 119 164 218 254 309
#
# _framework density 18.663350999999999
#
# number of rings (size 3 to 8) (size 9 to 14) (size 15 to 20)
#    0.000    1.455    5.455    1.909   10.182    0.000 
#    0.000    2.727    0.000    0.000    0.000    0.000 
#    0.000    0.000    0.000    0.000    0.000   63.636 
#
# Total GULP energy -122687.834024 kJ/mol
# GULP energy per Si atom -5576.719728 kJ/mol
# Density = 1.862087 g / cm^3
# Si number density = 18.663351 Si / 1000 Ang^3
#
#
#
# Elastic Constant Matrix: (Units=GPa)
#
#
# Indices 1 2 3 4 5 6 
#
# 1 49.3154 38.9519 32.2647 0.0000 -32.5272 0.0000
# 2 38.9519 123.4338 47.0045 0.0000 -20.5298 0.0000
# 3 32.2647 47.0045 103.9483 0.0000 -40.7601 0.0000
# 4 0.0000 0.0000 0.0000 21.5444 0.0000 -7.3450
# 5 -32.5272 -20.5298 -40.7601 0.0000 33.2590 0.0000
# 6 0.0000 0.0000 0.0000 -7.3450 0.0000 25.3111
#
#
#
# Elastic Compliance Matrix: (Units=1/GPa)
#
#
# Indices 1 2 3 4 5 6 
#
# 1 0.085409 -0.018392 0.019460 0.000000 0.096026 0.000000
# 2 -0.018392 0.013772 -0.008160 0.000000 -0.019486 0.000000
# 3 0.019460 -0.008160 0.024560 0.000000 0.044094 0.000000
# 4 0.000000 0.000000 0.000000 0.051512 0.000000 0.014948
# 5 0.096026 -0.019486 0.044094 0.000000 0.165991 0.000000
# 6 0.000000 0.000000 0.000000 0.014948 0.000000 0.043846
#
#
# Mechanical properties :
#
#
# Convention : Reuss Voigt Hill
#
# Bulk Modulus (GPa) = 9.12761 57.01552 33.07156
# Shear Modulus (GPa) = 11.47337 26.58799 19.03068
#
# Velocity S-wave (km/s) = 2.48211 3.77849 3.19671
# Velocity P-wave (km/s) = 3.62157 7.04640 5.60212
#
# Compressibility (1/GPa) = 0.10955774
#
# Stress axis : x y z
#
# Youngs Moduli (GPa) = 11.70835 72.61319 40.71705
#
# Poissons Ratio (x) = 1.33547 -0.79235
# Poissons Ratio (y) = 0.21534 0.33224
# Poissons Ratio (z) = -0.22784 0.59250
#
# Static dielectric constant tensor:
#      x y z
#    x 1.681280 0.000000 -0.025400 
#    y 0.000000 1.633140 0.000000 
#    z -0.025400 0.000000 1.688730 
# 
# From -- ./inp_files/12095.got.cif
#   From: 2010.05.17/outbox.cif.g08.bks.cpg/sg12_7_cif.got.tgz:12095.got - 2010.06.03 13:09:07.
