data_PCOD9180596
_publ_section_title
;
Structure prediction by ZEFSAII (Michael W. Deem and Ramdas Pophale) SiO2 
 PCOD9180596
Probable space group: C 2/M
;
_chemical_formula_sum "Si O2"
_cell_formula_units_Z 64
_cell_length_a 17.649532
_cell_length_b 14.042278
_cell_length_c 16.901673
_cell_angle_alpha 90.000000
_cell_angle_beta 116.454446
_cell_angle_gamma 90.000000
_cell_volume 3750.279403
_symmetry_space_group_name_H-M "C 2/M"
_symmetry_group_IT_number 12
_symmetry_cell_setting 'monoclinic'
loop_
_space_group_symop_operation_xyz
x,y,z
-x,y,-z
-x,-y,-z
x,-y,z
1/2+x,1/2+y,z
1/2-x,1/2+y,-z
1/2-x,1/2-y,-z
1/2+x,1/2-y,z
loop_
_atom_site_type_symbol
_atom_site_label
_atom_site_fract_x
_atom_site_fract_y
_atom_site_fract_z
Si Si1 0.576742 0.888330 0.768360
Si Si2 0.892265 0.614292 0.755369
Si Si3 0.151628 0.611305 0.089940
Si Si4 0.856633 0.108080 0.172034
Si Si5 0.877325 0.220187 0.505540
Si Si6 0.291320 0.886782 0.553208
Si Si7 0.653484 0.778314 0.938353
Si Si8 0.567264 0.718120 0.648162
O O1 0.486241 0.866025 0.767456
O O2 0.645569 0.856643 0.865305
O O3 0.583170 0.821059 0.695414
O O4 0.580295 0.000000 0.752377
O O5 0.883998 0.500000 0.757201
O O6 0.875167 0.648708 0.836198
O O7 0.826524 0.643454 0.656495
O O8 0.125434 0.500000 0.068042
O O9 0.254293 0.612762 0.132969
O O10 0.118169 0.675193 0.002025
O O11 0.885432 0.183114 0.118393
O O12 0.895576 0.142387 0.272941
O O13 0.879598 0.000000 0.164163
O O14 0.805639 0.145594 0.497914
O O15 0.844216 0.324518 0.515528
O O16 0.890709 0.212720 0.418032
O O17 0.967298 0.203970 0.588814
O O18 0.302358 0.000000 0.549497
O O19 0.750000 0.750000 0.000000
#
# Coordination Sequence:
#
# PCOD9180596 Si02
#       8
#     8   8   8   8   8   8   8   8
#     4  10  19  32  50  75 106 133 163 208 261 315
#     4   9  17  29  48  73 102 132 163 201 258 314
#     4   9  16  28  48  75 102 129 162 206 255 311
#     4   9  18  32  50  71 101 135 171 212 255 300
#     4  10  21  34  53  77 105 137 179 220 256 312
#     4  10  20  36  53  74 106 142 173 214 265 308
#     4   9  18  31  47  69  98 130 165 205 256 305
#     4  10  20  34  51  78 106 136 176 219 261 303
#
# _framework density 17.065394999999999
#
# number of rings (size 3 to 8) (size 9 to 14) (size 15 to 20)
#    0.000    2.500    1.250    1.125    0.000    3.500 
#    0.000    4.375    0.000    0.000    0.000    7.875 
#    0.000    0.000    0.000    0.000    0.000    0.000 
#
# Total GULP energy -178321.730116 kJ/mol
# GULP energy per Si atom -5572.554066 kJ/mol
# Density = 1.702655 g / cm^3
# Si number density = 17.065395 Si / 1000 Ang^3
#
#
#
# Elastic Constant Matrix: (Units=GPa)
#
#
# Indices 1 2 3 4 5 6 
#
# 1 27.6848 5.0700 9.2649 0.0000 -1.4209 0.0000
# 2 5.0700 77.3918 26.8019 0.0000 -5.1129 0.0000
# 3 9.2649 26.8019 91.4244 0.0000 -2.3190 0.0000
# 4 0.0000 0.0000 0.0000 19.3668 0.0000 -3.6387
# 5 -1.4209 -5.1129 -2.3190 0.0000 15.4410 0.0000
# 6 0.0000 0.0000 0.0000 -3.6387 0.0000 12.4520
#
#
#
# Elastic Compliance Matrix: (Units=1/GPa)
#
#
# Indices 1 2 3 4 5 6 
#
# 1 0.037601 -0.001108 -0.003420 0.000000 0.002579 0.000000
# 2 -0.001108 0.014683 -0.004087 0.000000 0.004146 0.000000
# 3 -0.003420 -0.004087 0.012488 0.000000 0.000208 0.000000
# 4 0.000000 0.000000 0.000000 0.054634 0.000000 0.015965
# 5 0.002579 0.004146 0.000208 0.000000 0.066404 0.000000
# 6 0.000000 0.000000 0.000000 0.015965 0.000000 0.084974
#
#
# Mechanical properties :
#
#
# Convention : Reuss Voigt Hill
#
# Bulk Modulus (GPa) = 21.03448 30.97496 26.00472
# Shear Modulus (GPa) = 16.45485 19.80959 18.13222
#
# Velocity S-wave (km/s) = 3.10856 3.41075 3.26316
# Velocity P-wave (km/s) = 5.02362 5.80527 5.42853
#
# Compressibility (1/GPa) = 0.04754099
#
# Stress axis : x y z
#
# Youngs Moduli (GPa) = 26.59516 68.10515 80.07692
#
# Poissons Ratio (x) = 0.07549 0.27387
# Poissons Ratio (y) = 0.02948 0.32728
# Poissons Ratio (z) = 0.09096 0.27835
#
# Static dielectric constant tensor:
#      x y z
#    x 1.575340 0.000000 0.011600 
#    y 0.000000 1.571530 0.000000 
#    z 0.011600 0.000000 1.596500 
# 
# From -- ./inp_files/225256.got.cif
#   From: 2010.05.17/outbox.cif.g08.bks.cpg/sg12_113_cif.got.tgz:225256.got - 2010.06.03 13:09:07.
