data_PCOD9180359
_publ_section_title
;
Structure prediction by ZEFSAII (Michael W. Deem and Ramdas Pophale) SiO2 
 PCOD9180359
Probable space group: C 2/M
;
_chemical_formula_sum "Si O2"
_cell_formula_units_Z 40
_cell_length_a 14.657378
_cell_length_b 7.614174
_cell_length_c 24.897711
_cell_angle_alpha 90.000000
_cell_angle_beta 141.614943
_cell_angle_gamma 90.000000
_cell_volume 1725.402806
_symmetry_space_group_name_H-M "C 2/M"
_symmetry_group_IT_number 12
_symmetry_cell_setting 'monoclinic'
loop_
_space_group_symop_operation_xyz
x,y,z
-x,y,-z
-x,-y,-z
x,-y,z
1/2+x,1/2+y,z
1/2-x,1/2+y,-z
1/2-x,1/2-y,-z
1/2+x,1/2-y,z
loop_
_atom_site_type_symbol
_atom_site_label
_atom_site_fract_x
_atom_site_fract_y
_atom_site_fract_z
Si Si1 0.985186 0.284247 0.187971
Si Si2 0.566418 0.201277 0.952475
Si Si3 0.276453 0.301660 0.868540
Si Si4 0.189280 0.214550 0.637848
Si Si5 0.626907 0.290015 0.486878
O O1 0.981871 0.500000 0.186169
O O2 0.152845 0.225526 0.268860
O O3 0.916590 0.228023 0.099512
O O4 0.883890 0.228489 0.191214
O O5 0.391292 0.202984 0.884203
O O6 0.615280 0.000000 0.978517
O O7 0.644585 0.303552 0.036377
O O8 0.263288 0.500000 0.842273
O O9 0.171917 0.268685 0.567520
O O10 0.040986 0.272462 0.600003
O O11 0.193186 0.000000 0.641166
O O12 0.618081 0.500000 0.485753
O O13 0.750000 0.250000 0.500000
#
# Coordination Sequence:
#
# PCOD9180359 Si02
#       5
#     8   8   8   8   8
#     4   9  18  31  49  70  95 125 159 195 233 276
#     4  10  19  32  49  69  93 125 160 197 235 277
#     4  10  19  32  49  69  93 125 160 197 235 277
#     4   8  16  32  49  70  97 127 158 186 227 289
#     4   9  17  31  54  74  94 125 157 189 230 278
#
# _framework density 23.182994000000001
#
# number of rings (size 3 to 8) (size 9 to 14) (size 15 to 20)
#    0.000    2.800    0.000    4.200    0.000    1.600 
#    0.000    5.000    0.000    7.200    0.000    0.000 
#    0.000    0.000    0.000    0.000    0.000    0.000 
#
# Total GULP energy -111643.742449 kJ/mol
# GULP energy per Si atom -5582.187122 kJ/mol
# Density = 2.313023 g / cm^3
# Si number density = 23.182994 Si / 1000 Ang^3
#
#
#
# Elastic Constant Matrix: (Units=GPa)
#
#
# Indices 1 2 3 4 5 6 
#
# 1 139.8819 2.6617 17.4216 0.0000 35.4904 0.0000
# 2 2.6617 58.6136 1.4447 0.0000 2.5479 0.0000
# 3 17.4216 1.4447 55.1488 0.0000 30.0238 0.0000
# 4 0.0000 0.0000 0.0000 8.1218 0.0000 5.8541
# 5 35.4904 2.5479 30.0238 0.0000 32.0471 0.0000
# 6 0.0000 0.0000 0.0000 5.8541 0.0000 25.0302
#
#
#
# Elastic Compliance Matrix: (Units=1/GPa)
#
#
# Indices 1 2 3 4 5 6 
#
# 1 0.010953 0.000134 0.006421 0.000000 -0.018156 0.000000
# 2 0.000134 0.017131 0.000676 0.000000 -0.002143 0.000000
# 3 0.006421 0.000676 0.040794 0.000000 -0.045382 0.000000
# 4 0.000000 0.000000 0.000000 0.148090 0.000000 -0.034635
# 5 -0.018156 -0.002143 -0.045382 0.000000 0.093998 0.000000
# 6 0.000000 0.000000 0.000000 -0.034635 0.000000 0.048052
#
#
# Mechanical properties :
#
#
# Convention : Reuss Voigt Hill
#
# Bulk Modulus (GPa) = 11.99932 32.96672 22.48302
# Shear Modulus (GPa) = 13.42867 28.51426 20.97146
#
# Velocity S-wave (km/s) = 2.40937 3.51089 3.01093
# Velocity P-wave (km/s) = 3.59544 5.53951 4.66977
#
# Compressibility (1/GPa) = 0.08333803
#
# Stress axis : x y z
#
# Youngs Moduli (GPa) = 91.29782 58.37266 24.51369
#
# Poissons Ratio (x) = -0.00780 -0.15740
# Poissons Ratio (y) = -0.01219 -0.01656
# Poissons Ratio (z) = -0.58620 -0.03944
#
# Static dielectric constant tensor:
#      x y z
#    x 1.904470 0.000000 0.058770 
#    y 0.000000 1.834690 0.000000 
#    z 0.058770 0.000000 1.886660 
# 
# From -- ./inp_files/307842.got.cif
#   From: 2010.05.17/outbox.cif.g08.bks.cpg/sg12_154_cif.got.tgz:307842.got - 2010.06.03 13:09:07.
