data_PCOD9180051
_publ_section_title
;
Structure prediction by ZEFSAII (Michael W. Deem and Ramdas Pophale) SiO2 
 PCOD9180051
Probable space group: C 2/M
;
_chemical_formula_sum "Si O2"
_cell_formula_units_Z 54
_cell_length_a 13.822894
_cell_length_b 15.118160
_cell_length_c 14.925499
_cell_angle_alpha 90.000000
_cell_angle_beta 40.266501
_cell_angle_gamma 90.000000
_cell_volume 2015.999109
_symmetry_space_group_name_H-M "C 2/M"
_symmetry_group_IT_number 12
_symmetry_cell_setting 'monoclinic'
loop_
_space_group_symop_operation_xyz
x,y,z
-x,y,-z
-x,-y,-z
x,-y,z
1/2+x,1/2+y,z
1/2-x,1/2+y,-z
1/2-x,1/2-y,-z
1/2+x,1/2-y,z
loop_
_atom_site_type_symbol
_atom_site_label
_atom_site_fract_x
_atom_site_fract_y
_atom_site_fract_z
Si Si1 0.910821 0.000000 0.690196
Si Si2 0.138960 0.342848 0.155332
Si Si3 0.099278 0.345564 0.540737
Si Si4 0.405326 0.841009 0.156723
Si Si5 0.870650 0.862373 0.859799
Si Si6 0.167616 0.139854 0.460598
Si Si7 0.665443 0.637080 0.759089
Si Si8 0.000000 0.000000 0.000000
O O1 0.031458 0.075826 0.572151
O O2 0.825174 0.075400 0.812494
O O3 0.165876 0.237543 0.141711
O O4 0.058990 0.370356 0.303134
O O5 0.025043 0.352015 0.152579
O O6 0.287183 0.386506 0.011501
O O7 0.107206 0.240776 0.510455
O O8 0.211721 0.363587 0.544334
O O9 0.177108 0.386215 0.398761
O O10 0.258670 0.887460 0.305501
O O11 0.351839 0.738395 0.195484
O O12 0.500000 0.861382 0.000000
O O13 0.044518 0.870218 0.762560
O O14 0.605512 0.575399 0.877632
#
# Coordination Sequence:
#
# PCOD9180051 Si02
#       8
#     4   8   8   8   8   8   8   2
#     4  12  17  30  50  85 103 140 166 242 275 317
#     4   9  18  33  55  82 105 144 189 225 265 328
#     4   9  15  33  51  79 101 146 188 228 250 321
#     4   9  17  34  54  78 107 147 182 224 266 334
#     4  10  19  31  53  82 114 142 176 233 276 313
#     4   9  17  27  52  78 106 133 189 227 272 304
#     4  10  19  31  53  81 115 144 182 217 266 327
#     4  12  22  32  50  96 116 148 168 222 264 350
#
# _framework density 26.785726
#
# number of rings (size 3 to 8) (size 9 to 14) (size 15 to 20)
#    0.000    2.370    3.704    2.222    0.000    0.000 
#    0.000    4.074    0.000    3.556    0.000    0.000 
#    0.000    0.000    0.000    0.000    0.000    0.000 
#
# Total GULP energy -150352.357958 kJ/mol
# GULP energy per Si atom -5568.605850 kJ/mol
# Density = 2.672476 g / cm^3
# Si number density = 26.785726 Si / 1000 Ang^3
#
#
#
# Elastic Constant Matrix: (Units=GPa)
#
#
# Indices 1 2 3 4 5 6 
#
# 1 97.1315 -10.3261 37.0279 0.0000 28.3257 0.0000
# 2 -10.3261 23.3454 32.7772 -0.0001 -2.5475 0.0001
# 3 37.0279 32.7772 343.4760 -0.0001 12.6925 0.0001
# 4 0.0000 -0.0001 -0.0001 61.6303 0.0001 9.3154
# 5 28.3257 -2.5475 12.6925 0.0001 50.0222 -0.0001
# 6 0.0000 0.0001 0.0001 9.3154 -0.0001 -32.9559
#
#
#
# Elastic Compliance Matrix: (Units=1/GPa)
#
#
# Indices 1 2 3 4 5 6 
#
# 1 0.013992 0.008293 -0.002042 0.000000 -0.006982 0.000000
# 2 0.008293 0.055085 -0.006138 0.000000 -0.000333 0.000000
# 3 -0.002042 -0.006138 0.003721 0.000000 -0.000101 0.000000
# 4 0.000000 0.000000 0.000000 0.015561 0.000000 0.004399
# 5 -0.006982 -0.000333 -0.000101 0.000000 0.023954 0.000000
# 6 0.000000 0.000000 0.000000 0.004399 0.000000 -0.029100
#
#
# Mechanical properties :
#
#
# Convention : Reuss Voigt Hill
#
# Bulk Modulus (GPa) = 13.69406 64.76789 39.23098
# Shear Modulus (GPa) = 46.58656 42.70427 44.64541
#
# Velocity S-wave (km/s) = 4.17493 3.99719 4.08703
# Velocity P-wave (km/s) = 5.32575 6.74803 6.07863
#
# Compressibility (1/GPa) = 0.07302434
#
# Stress axis : x y z
#
# Youngs Moduli (GPa) = 71.47167 18.15366 268.74417
#
# Poissons Ratio (x) = -0.15056 0.54870
# Poissons Ratio (y) = -0.59274 1.64966
# Poissons Ratio (z) = 0.14593 0.11143
#
# Static dielectric constant tensor:
#      x y z
#    x 2.211800 0.000000 0.010590 
#    y 0.000000 1.944450 0.000000 
#    z 0.010590 0.000000 2.094180 
# 
# From -- ./inp_files/284993.got.cif
#   From: 2010.05.17/outbox.cif.g08.bks.cpg/sg12_143_cif.got.tgz:284993.got - 2010.06.03 13:09:07.
