data_PCOD9180476
_publ_section_title
;
Structure prediction by ZEFSAII (Michael W. Deem and Ramdas Pophale) SiO2 
 PCOD9180476
Probable space group: C 2/M
;
_chemical_formula_sum "Si O2"
_cell_formula_units_Z 56
_cell_length_a 30.445841
_cell_length_b 9.140027
_cell_length_c 19.399482
_cell_angle_alpha 90.000000
_cell_angle_beta 142.532928
_cell_angle_gamma 90.000000
_cell_volume 3283.879780
_symmetry_space_group_name_H-M "C 2/M"
_symmetry_group_IT_number 12
_symmetry_cell_setting 'monoclinic'
loop_
_space_group_symop_operation_xyz
x,y,z
-x,y,-z
-x,-y,-z
x,-y,z
1/2+x,1/2+y,z
1/2-x,1/2+y,-z
1/2-x,1/2-y,-z
1/2+x,1/2-y,z
loop_
_atom_site_type_symbol
_atom_site_label
_atom_site_fract_x
_atom_site_fract_y
_atom_site_fract_z
Si Si1 0.699482 0.325836 0.585866
Si Si2 0.262428 0.169282 0.232410
Si Si3 0.944280 0.823017 0.131960
Si Si4 0.780566 0.176085 0.970117
Si Si5 0.865096 0.674146 0.750795
Si Si6 0.087427 0.675839 0.344107
Si Si7 0.407253 0.668532 0.936313
O O1 0.689028 0.500000 0.569639
O O2 0.697844 0.268419 0.662313
O O3 0.780432 0.292655 0.658704
O O4 0.641681 0.243104 0.467177
O O5 0.177516 0.170543 0.147435
O O6 0.286431 0.000000 0.267165
O O7 0.262890 0.218443 0.153543
O O8 0.864924 0.788039 0.062408
O O9 0.007918 0.743843 0.251469
O O10 0.952287 0.000000 0.143028
O O11 0.946347 0.775043 0.053866
O O12 0.776051 0.000000 0.969423
O O13 0.750000 0.250000 0.000000
O O14 0.873919 0.500000 0.767447
O O15 0.885781 0.718727 0.699453
O O16 0.910936 0.747575 0.869040
O O17 0.086398 0.500000 0.347431
O O18 0.427474 0.500000 0.951094
#
# Coordination Sequence:
#
# PCOD9180476 Si02
#       7
#     8   8   8   8   8   8   8
#     4  10  19  32  50  70  94 129 170 209 243 281
#     4   8  15  30  50  73  99 126 156 194 238 284
#     4   9  19  35  50  70 100 131 162 196 239 293
#     4   9  18  33  56  82 105 126 152 191 239 291
#     4   9  19  32  46  68  96 126 167 212 249 282
#     4  11  22  33  46  67  97 134 169 205 246 286
#     4   8  15  29  49  68  91 126 164 200 240 284
#
# _framework density 17.053000000000001
#
# number of rings (size 3 to 8) (size 9 to 14) (size 15 to 20)
#    0.000    2.857    0.000    3.000    0.000    4.000 
#    0.000    5.714    0.000    0.857    0.000    6.000 
#    0.000    0.000    0.000    0.000    0.000    0.000 
#
# Total GULP energy -156121.290288 kJ/mol
# GULP energy per Si atom -5575.760367 kJ/mol
# Density = 1.701419 g / cm^3
# Si number density = 17.053000 Si / 1000 Ang^3
#
#
#
# Elastic Constant Matrix: (Units=GPa)
#
#
# Indices 1 2 3 4 5 6 
#
# 1 96.8570 36.5486 58.5104 0.0000 -22.5249 0.0000
# 2 36.5486 37.8567 48.4545 0.0000 -4.2220 0.0000
# 3 58.5104 48.4545 110.1447 0.0000 -11.8307 0.0000
# 4 0.0000 0.0000 0.0000 28.8262 0.0000 -8.6653
# 5 -22.5249 -4.2220 -11.8307 0.0000 20.5220 0.0000
# 6 0.0000 0.0000 0.0000 -8.6653 0.0000 22.6385
#
#
#
# Elastic Compliance Matrix: (Units=1/GPa)
#
#
# Indices 1 2 3 4 5 6 
#
# 1 0.022799 -0.016090 -0.002879 0.000000 0.020054 0.000000
# 2 -0.016090 0.071995 -0.024977 0.000000 -0.017248 0.000000
# 3 -0.002879 -0.024977 0.022072 0.000000 0.004426 0.000000
# 4 0.000000 0.000000 0.000000 0.039201 0.000000 0.015005
# 5 0.020054 -0.017248 0.004426 0.000000 0.069743 0.000000
# 6 0.000000 0.000000 0.000000 0.015005 0.000000 0.049916
#
#
# Mechanical properties :
#
#
# Convention : Reuss Voigt Hill
#
# Bulk Modulus (GPa) = 34.51404 59.09839 46.80621
# Shear Modulus (GPa) = 13.39493 21.15365 17.27429
#
# Velocity S-wave (km/s) = 2.80570 3.52584 3.18618
# Velocity P-wave (km/s) = 5.54789 7.16285 6.40646
#
# Compressibility (1/GPa) = 0.02897371
#
# Stress axis : x y z
#
# Youngs Moduli (GPa) = 43.86203 13.88980 45.30700
#
# Poissons Ratio (x) = 0.22348 0.13044
# Poissons Ratio (y) = 0.70572 1.13165
# Poissons Ratio (z) = 0.12628 0.34693
#
# Static dielectric constant tensor:
#      x y z
#    x 1.576700 0.000000 -0.000550 
#    y 0.000000 1.565120 0.000000 
#    z -0.000550 0.000000 1.572800 
# 
# From -- ./inp_files/281677.got.cif
#   From: 2010.05.17/outbox.cif.g08.bks.cpg/sg12_141_cif.got.tgz:281677.got - 2010.06.03 13:09:07.
