data_PCOD9180483
_publ_section_title
;
Structure prediction by ZEFSAII (Michael W. Deem and Ramdas Pophale) SiO2 
 PCOD9180483
Probable space group: C 2/M
;
_chemical_formula_sum "Si O2"
_cell_formula_units_Z 64
_cell_length_a 29.080957
_cell_length_b 7.436078
_cell_length_c 13.258182
_cell_angle_alpha 90.000000
_cell_angle_beta 86.064923
_cell_angle_gamma 90.000000
_cell_volume 2860.299621
_symmetry_space_group_name_H-M "C 2/M"
_symmetry_group_IT_number 12
_symmetry_cell_setting 'monoclinic'
loop_
_space_group_symop_operation_xyz
x,y,z
-x,y,-z
-x,-y,-z
x,-y,z
1/2+x,1/2+y,z
1/2-x,1/2+y,-z
1/2-x,1/2-y,-z
1/2+x,1/2-y,z
loop_
_atom_site_type_symbol
_atom_site_label
_atom_site_fract_x
_atom_site_fract_y
_atom_site_fract_z
Si Si1 0.050828 0.287719 0.522468
Si Si2 0.907102 0.218522 0.268596
Si Si3 0.374570 0.216470 0.643672
Si Si4 0.931688 0.715087 0.836633
Si Si5 0.686799 0.290517 0.795661
Si Si6 0.975681 0.203661 0.099515
Si Si7 0.653945 0.217026 0.025935
Si Si8 0.709660 0.779454 0.218133
O O1 0.048777 0.500000 0.497785
O O2 0.064465 0.269699 0.637010
O O3 0.094691 0.213657 0.453107
O O4 0.000000 0.215669 0.500000
O O5 0.854431 0.282361 0.267793
O O6 0.933345 0.286313 0.164628
O O7 0.907375 0.000000 0.263975
O O8 0.405097 0.252342 0.738012
O O9 0.323869 0.279183 0.685537
O O10 0.370215 0.000000 0.632073
O O11 0.937362 0.500000 0.841697
O O12 0.981507 0.800961 0.830208
O O13 0.897645 0.772326 0.932549
O O14 0.691033 0.500000 0.768309
O O15 0.738112 0.214419 0.779954
O O16 0.670271 0.280455 0.914607
O O17 0.963146 0.000000 0.072334
O O18 0.000000 0.293512 0.000000
O O19 0.687402 0.273369 0.113379
O O20 0.654243 0.000000 0.024027
O O21 0.709361 0.000000 0.216720
#
# Coordination Sequence:
#
# PCOD9180483 Si02
#       8
#     8   8   8   8   8   8   8   8
#     4  10  20  35  57  79  96 122 162 205 248 296
#     4  10  22  36  49  71 102 132 162 200 245 290
#     4   8  15  30  51  74  97 119 153 203 249 286
#     4   9  17  30  49  72  96 122 156 199 243 288
#     4  10  19  32  50  70  97 136 173 199 233 290
#     4  10  20  33  47  65  95 132 163 192 231 281
#     4   9  17  29  48  76 105 130 160 203 249 284
#     4   8  15  29  50  74  99 130 166 202 242 287
#
# _framework density 22.375275999999999
#
# number of rings (size 3 to 8) (size 9 to 14) (size 15 to 20)
#    0.000    2.750    0.000    3.375    0.000    4.000 
#    0.000    1.250    0.000    2.250    0.000    0.000 
#    0.000    0.000    0.000    0.000    0.000    0.000 
#
# Total GULP energy -178575.106993 kJ/mol
# GULP energy per Si atom -5580.472094 kJ/mol
# Density = 2.232435 g / cm^3
# Si number density = 22.375276 Si / 1000 Ang^3
#
#
#
# Elastic Constant Matrix: (Units=GPa)
#
#
# Indices 1 2 3 4 5 6 
#
# 1 158.3549 5.2229 44.9569 0.0000 1.2805 0.0000
# 2 5.2229 66.3686 -5.2534 0.0000 2.0696 0.0000
# 3 44.9569 -5.2534 91.8572 0.0000 -14.6046 0.0000
# 4 0.0000 0.0000 0.0000 33.9487 0.0000 2.7236
# 5 1.2805 2.0696 -14.6046 0.0000 29.3480 0.0000
# 6 0.0000 0.0000 0.0000 2.7236 0.0000 6.7145
#
#
#
# Elastic Compliance Matrix: (Units=1/GPa)
#
#
# Indices 1 2 3 4 5 6 
#
# 1 0.007525 -0.000845 -0.004098 0.000000 -0.002308 0.000000
# 2 -0.000845 0.015244 0.001216 0.000000 -0.000433 0.000000
# 3 -0.004098 0.001216 0.014091 0.000000 0.007105 0.000000
# 4 0.000000 0.000000 0.000000 0.030447 0.000000 -0.012350
# 5 -0.002308 -0.000433 0.007105 0.000000 0.037741 0.000000
# 6 0.000000 0.000000 0.000000 -0.012350 0.000000 0.153940
#
#
# Mechanical properties :
#
#
# Convention : Reuss Voigt Hill
#
# Bulk Modulus (GPa) = 34.00530 45.15929 39.58230
# Shear Modulus (GPa) = 18.10001 32.11255 25.10628
#
# Velocity S-wave (km/s) = 2.84725 3.79249 3.35334
# Velocity P-wave (km/s) = 5.10292 6.27724 5.72030
#
# Compressibility (1/GPa) = 0.02940718
#
# Stress axis : x y z
#
# Youngs Moduli (GPa) = 132.89203 65.60132 70.96507
#
# Poissons Ratio (x) = 0.05541 0.29082
# Poissons Ratio (y) = 0.11224 -0.08632
# Poissons Ratio (z) = 0.54461 -0.07979
#
# Static dielectric constant tensor:
#      x y z
#    x 1.848250 0.000000 -0.008280 
#    y 0.000000 1.845640 0.000000 
#    z -0.008280 0.000000 1.820450 
# 
# From -- ./inp_files/187569.got.cif
#   From: 2010.05.17/outbox.cif.g08.bks.cpg/sg12_94_cif.got.tgz:187569.got - 2010.06.03 13:09:07.
