data_PCOD9180953
_publ_section_title
;
Structure prediction by ZEFSAII (Michael W. Deem and Ramdas Pophale) SiO2 
 PCOD9180953
Probable space group: C 2/M
;
_chemical_formula_sum "Si O2"
_cell_formula_units_Z 56
_cell_length_a 17.146173
_cell_length_b 13.845456
_cell_length_c 15.307729
_cell_angle_alpha 90.000000
_cell_angle_beta 51.566686
_cell_angle_gamma 90.000000
_cell_volume 2846.631103
_symmetry_space_group_name_H-M "C 2/M"
_symmetry_group_IT_number 12
_symmetry_cell_setting 'monoclinic'
loop_
_space_group_symop_operation_xyz
x,y,z
-x,y,-z
-x,-y,-z
x,-y,z
1/2+x,1/2+y,z
1/2-x,1/2+y,-z
1/2-x,1/2-y,-z
1/2+x,1/2-y,z
loop_
_atom_site_type_symbol
_atom_site_label
_atom_site_fract_x
_atom_site_fract_y
_atom_site_fract_z
Si Si1 0.494233 0.610501 0.283071
Si Si2 0.107990 0.113572 0.472473
Si Si3 0.804456 0.610389 0.927542
Si Si4 0.076753 0.887473 0.866067
Si Si5 0.204623 0.293100 0.743631
Si Si6 0.195658 0.809127 0.157512
Si Si7 0.005322 0.385211 0.894962
O O1 0.527665 0.500000 0.273146
O O2 0.404918 0.623637 0.413748
O O3 0.473996 0.622773 0.194485
O O4 0.580799 0.678723 0.256902
O O5 0.196889 0.184157 0.380297
O O6 0.000000 0.130556 0.500000
O O7 0.132875 0.000000 0.436189
O O8 0.808152 0.500000 0.894037
O O9 0.786854 0.696617 0.873146
O O10 0.905561 0.635695 0.910325
O O11 0.717629 0.625850 0.058281
O O12 0.170233 0.815490 0.791298
O O13 0.105183 0.000000 0.857304
O O14 0.000000 0.865528 0.000000
O O15 0.233286 0.343226 0.815341
O O16 0.102485 0.340691 0.782165
O O17 0.015668 0.500000 0.890004
O O18 0.000000 0.351532 0.000000
#
# Coordination Sequence:
#
# PCOD9180953 Si02
#       7
#     8   8   8   8   8   8   8
#     4  10  21  40  63  86 117 154 201 247 288 345
#     4  10  21  38  61  91 120 150 193 248 306 352
#     4  10  22  36  50  77 117 154 190 234 291 357
#     4  10  24  42  61  86 121 163 201 241 287 345
#     4  12  22  35  60  87 119 148 196 243 291 353
#     4  11  22  33  56  85 112 155 195 239 292 351
#     4  10  19  32  51  78 113 147 181 232 299 357
#
# _framework density 19.672377000000001
#
# number of rings (size 3 to 8) (size 9 to 14) (size 15 to 20)
#    0.000    1.571    2.857    2.143    4.000    2.286 
#    0.000    0.000    0.000    1.286    0.000    0.000 
#    0.000    0.000    0.000    0.000    0.000    0.000 
#
# Total GULP energy -156078.692111 kJ/mol
# GULP energy per Si atom -5574.239004 kJ/mol
# Density = 1.962760 g / cm^3
# Si number density = 19.672377 Si / 1000 Ang^3
#
#
#
# Elastic Constant Matrix: (Units=GPa)
#
#
# Indices 1 2 3 4 5 6 
#
# 1 43.6368 16.2381 29.8020 0.0000 -5.9634 0.0000
# 2 16.2381 55.7787 40.7700 0.0000 -13.0550 0.0000
# 3 29.8020 40.7700 115.9349 0.0000 -10.2830 0.0000
# 4 0.0000 0.0000 0.0000 23.6658 0.0000 -10.2537
# 5 -5.9634 -13.0550 -10.2830 0.0000 31.1263 0.0000
# 6 0.0000 0.0000 0.0000 -10.2537 0.0000 21.0602
#
#
#
# Elastic Compliance Matrix: (Units=1/GPa)
#
#
# Indices 1 2 3 4 5 6 
#
# 1 0.028545 -0.003501 -0.005925 0.000000 0.002043 0.000000
# 2 -0.003501 0.026408 -0.007689 0.000000 0.007865 0.000000
# 3 -0.005925 -0.007689 0.012842 0.000000 -0.000118 0.000000
# 4 0.000000 0.000000 0.000000 0.053552 0.000000 0.026073
# 5 0.002043 0.007865 -0.000118 0.000000 0.035779 0.000000
# 6 0.000000 0.000000 0.000000 0.026073 0.000000 0.060177
#
#
# Mechanical properties :
#
#
# Convention : Reuss Voigt Hill
#
# Bulk Modulus (GPa) = 29.79320 43.21896 36.50608
# Shear Modulus (GPa) = 19.03151 23.73982 21.38566
#
# Velocity S-wave (km/s) = 3.11372 3.47761 3.30068
# Velocity P-wave (km/s) = 5.30137 6.17593 5.75529
#
# Compressibility (1/GPa) = 0.03356471
#
# Stress axis : x y z
#
# Youngs Moduli (GPa) = 35.03219 37.86700 77.86751
#
# Poissons Ratio (x) = 0.13256 0.46140
# Poissons Ratio (y) = 0.12264 0.59875
# Poissons Ratio (z) = 0.20758 0.29117
#
# Static dielectric constant tensor:
#      x y z
#    x 1.699320 0.000000 0.013770 
#    y 0.000000 1.700850 0.000000 
#    z 0.013770 0.000000 1.744010 
# 
# From -- ./inp_files/225178.got.cif
#   From: 2010.05.17/outbox.cif.g08.bks.cpg/sg12_113_cif.got.tgz:225178.got - 2010.06.03 13:09:07.
