data_PCOD9180285
_publ_section_title
;
Structure prediction by ZEFSAII (Michael W. Deem and Ramdas Pophale) SiO2 
 PCOD9180285
Probable space group: C 2/M
;
_chemical_formula_sum "Si O2"
_cell_formula_units_Z 50
_cell_length_a 22.943194
_cell_length_b 19.065222
_cell_length_c 16.505376
_cell_angle_alpha 90.000000
_cell_angle_beta 20.405382
_cell_angle_gamma 90.000000
_cell_volume 2517.232914
_symmetry_space_group_name_H-M "C 2/M"
_symmetry_group_IT_number 12
_symmetry_cell_setting 'monoclinic'
loop_
_space_group_symop_operation_xyz
x,y,z
-x,y,-z
-x,-y,-z
x,-y,z
1/2+x,1/2+y,z
1/2-x,1/2+y,-z
1/2-x,1/2-y,-z
1/2+x,1/2-y,z
loop_
_atom_site_type_symbol
_atom_site_label
_atom_site_fract_x
_atom_site_fract_y
_atom_site_fract_z
Si Si1 0.341485 0.770079 0.662042
Si Si2 0.000000 0.000000 0.500000
Si Si3 0.363374 0.185489 0.956345
Si Si4 0.514770 0.922217 0.074048
Si Si5 0.524396 0.367677 0.343662
Si Si6 0.313942 0.360197 0.462715
Si Si7 0.239786 0.291517 0.405089
O O1 0.500000 0.805552 0.500000
O O2 0.207308 0.752952 0.905635
O O3 0.421799 0.697054 0.520039
O O4 0.251679 0.803418 0.701447
O O5 0.005427 0.062824 0.422182
O O6 0.216274 0.157732 0.091144
O O7 0.383005 0.128324 0.001972
O O8 0.542377 0.197219 0.683271
O O9 0.326591 0.919513 0.351776
O O10 0.589617 0.000000 0.979268
O O11 0.500000 0.900625 0.000000
O O12 0.455073 0.376962 0.343489
O O13 0.344908 0.339571 0.329408
O O14 0.225554 0.289043 0.614426
#
# Coordination Sequence:
#
# PCOD9180285 Si02
#       7
#     8   2   8   8   8   8   8
#     4   9  17  31  47  74  98 132 172 204 253 301
#     4  12  20  28  48  70 112 152 162 198 232 312
#     4  10  19  32  47  74  97 135 172 205 247 302
#     4  10  20  28  44  67 100 134 168 199 239 303
#     4  10  20  29  46  68 102 140 173 191 238 298
#     4   9  19  33  43  66  92 137 173 200 251 286
#     4   9  18  33  52  63 102 136 166 223 250 288
#
# _framework density 19.863081000000001
#
# number of rings (size 3 to 8) (size 9 to 14) (size 15 to 20)
#    0.000    2.400    2.400    1.920    2.240    5.760 
#    0.000    0.000    0.000    0.000    0.000    0.000 
#    0.000   20.480    0.640    0.000    0.000    0.000 
#
# Total GULP energy -139209.955855 kJ/mol
# GULP energy per Si atom -5568.398234 kJ/mol
# Density = 1.981787 g / cm^3
# Si number density = 19.863081 Si / 1000 Ang^3
#
#
#
# Elastic Constant Matrix: (Units=GPa)
#
#
# Indices 1 2 3 4 5 6 
#
# 1 150.7960 16.5466 9.5182 0.0025 -14.5425 -0.0017
# 2 16.5466 43.4948 8.3320 0.0039 4.2283 -0.0025
# 3 9.5182 8.3320 49.6294 0.0071 -12.1451 -0.0017
# 4 0.0025 0.0039 0.0071 5.9270 -0.0050 -3.7651
# 5 -14.5425 4.2283 -12.1451 -0.0050 21.9777 0.0024
# 6 -0.0017 -0.0025 -0.0017 -3.7651 0.0024 4.5532
#
#
#
# Elastic Compliance Matrix: (Units=1/GPa)
#
#
# Indices 1 2 3 4 5 6 
#
# 1 0.007569 -0.003588 0.000631 0.000005 0.006047 0.000002
# 2 -0.003588 0.026683 -0.006509 -0.000015 -0.011104 0.000005
# 3 0.000631 -0.006509 0.024897 -0.000030 0.015428 -0.000027
# 4 0.000005 -0.000015 -0.000030 0.355407 0.000037 0.293885
# 5 0.006047 -0.011104 0.015428 0.000037 0.060164 0.000001
# 6 0.000002 0.000005 -0.000027 0.293885 0.000001 0.462638
#
#
# Mechanical properties :
#
#
# Convention : Reuss Voigt Hill
#
# Bulk Modulus (GPa) = 24.86626 34.74596 29.80611
# Shear Modulus (GPa) = 5.15627 20.45982 12.80805
#
# Velocity S-wave (km/s) = 1.61293 3.21291 2.54208
# Velocity P-wave (km/s) = 4.00184 5.59414 4.86360
#
# Compressibility (1/GPa) = 0.04021513
#
# Stress axis : x y z
#
# Youngs Moduli (GPa) = 132.12649 37.47769 40.16624
#
# Poissons Ratio (x) = 0.13447 -0.02533
# Poissons Ratio (y) = 0.47405 0.26144
# Poissons Ratio (z) = -0.08331 0.24394
#
# Static dielectric constant tensor:
#      x y z
#    x 1.751900 0.000000 -0.031830 
#    y 0.000000 1.696290 0.000000 
#    z -0.031830 0.000000 1.800720 
# 
# From -- ./inp_files/63546.got.cif
#   From: 2010.05.17/outbox.cif.g08.bks.cpg/sg12_32_cif.got.tgz:63546.got - 2010.06.03 13:09:07.
