data_PCOD9180925
_publ_section_title
;
Structure prediction by ZEFSAII (Michael W. Deem and Ramdas Pophale) SiO2 
 PCOD9180925
Probable space group: C 2/M
;
_chemical_formula_sum "Si O2"
_cell_formula_units_Z 56
_cell_length_a 28.772536
_cell_length_b 8.624308
_cell_length_c 12.793077
_cell_angle_alpha 90.000000
_cell_angle_beta 124.439448
_cell_angle_gamma 90.000000
_cell_volume 2618.099923
_symmetry_space_group_name_H-M "C 2/M"
_symmetry_group_IT_number 12
_symmetry_cell_setting 'monoclinic'
loop_
_space_group_symop_operation_xyz
x,y,z
-x,y,-z
-x,-y,-z
x,-y,z
1/2+x,1/2+y,z
1/2-x,1/2+y,-z
1/2-x,1/2-y,-z
1/2+x,1/2-y,z
loop_
_atom_site_type_symbol
_atom_site_label
_atom_site_fract_x
_atom_site_fract_y
_atom_site_fract_z
Si Si1 0.295054 0.675607 0.132079
Si Si2 0.551199 0.312522 0.202947
Si Si3 0.732837 0.325614 0.662491
Si Si4 0.931912 0.813182 0.111037
Si Si5 0.085292 0.319967 0.688758
Si Si6 0.105910 0.813334 0.493495
Si Si7 0.352629 0.313026 0.833111
O O1 0.311981 0.500000 0.121513
O O2 0.269671 0.664825 0.215110
O O3 0.348661 0.785953 0.207729
O O4 0.250000 0.750000 0.000000
O O5 0.550466 0.500000 0.189835
O O6 0.486443 0.261843 0.113356
O O7 0.571601 0.278204 0.346198
O O8 0.598517 0.256705 0.183232
O O9 0.735165 0.500000 0.620781
O O10 0.670808 0.257155 0.558856
O O11 0.791500 0.240989 0.716658
O O12 0.940304 0.756723 0.240106
O O13 0.931751 0.000000 0.113388
O O14 0.874909 0.764005 0.977330
O O15 0.071693 0.500000 0.669259
O O16 0.077211 0.249584 0.562722
O O17 0.110286 0.000000 0.512397
O O18 0.351573 0.500000 0.832059
#
# Coordination Sequence:
#
# PCOD9180925 Si02
#       7
#     8   8   8   8   8   8   8
#     4  10  19  32  51  77 110 146 185 226 273 328
#     4   9  19  37  60  81 104 141 187 232 273 323
#     4   9  19  33  50  75 108 143 176 216 266 322
#     4  10  20  36  58  82 109 142 182 227 278 332
#     4  11  22  35  53  79 112 145 182 228 276 327
#     4   9  19  38  59  79 107 144 186 225 271 332
#     4  10  20  34  56  85 111 138 179 227 272 325
#
# _framework density 21.389558999999998
#
# number of rings (size 3 to 8) (size 9 to 14) (size 15 to 20)
#    0.000    2.286    0.000    3.857    0.000    8.571 
#    0.000    5.000    0.000    1.714    0.000    0.000 
#    0.000    0.000    0.000    0.000    0.000    0.000 
#
# Total GULP energy -156181.025113 kJ/mol
# GULP energy per Si atom -5577.893754 kJ/mol
# Density = 2.134088 g / cm^3
# Si number density = 21.389559 Si / 1000 Ang^3
#
#
#
# Elastic Constant Matrix: (Units=GPa)
#
#
# Indices 1 2 3 4 5 6 
#
# 1 89.8870 7.9107 -2.8819 0.0000 -8.1570 0.0000
# 2 7.9107 27.4605 11.6098 0.0000 -1.3688 0.0000
# 3 -2.8819 11.6098 19.8295 0.0000 -8.2654 0.0000
# 4 0.0000 0.0000 0.0000 10.7177 0.0000 2.8015
# 5 -8.1570 -1.3688 -8.2654 0.0000 24.9730 0.0000
# 6 0.0000 0.0000 0.0000 2.8015 0.0000 19.7155
#
#
#
# Elastic Compliance Matrix: (Units=1/GPa)
#
#
# Indices 1 2 3 4 5 6 
#
# 1 0.012616 -0.006970 0.008669 0.000000 0.006608 0.000000
# 2 -0.006970 0.053593 -0.037254 0.000000 -0.011669 0.000000
# 3 0.008669 -0.037254 0.085646 0.000000 0.029136 0.000000
# 4 0.000000 0.000000 0.000000 0.096903 0.000000 -0.013769
# 5 0.006608 -0.011669 0.029136 0.000000 0.051205 0.000000
# 6 0.000000 0.000000 0.000000 -0.013769 0.000000 0.052678
#
#
# Mechanical properties :
#
#
# Convention : Reuss Voigt Hill
#
# Bulk Modulus (GPa) = 12.38492 18.93934 15.66213
# Shear Modulus (GPa) = 11.09467 19.11714 15.10590
#
# Velocity S-wave (km/s) = 2.27996 2.99283 2.66038
# Velocity P-wave (km/s) = 3.56843 4.56250 4.09573
#
# Compressibility (1/GPa) = 0.08074338
#
# Stress axis : x y z
#
# Youngs Moduli (GPa) = 79.26406 18.65929 11.67594
#
# Poissons Ratio (x) = 0.13005 -0.10121
# Poissons Ratio (y) = 0.55247 0.43498
# Poissons Ratio (z) = -0.68711 0.69514
#
# Static dielectric constant tensor:
#      x y z
#    x 1.788440 0.000000 -0.048270 
#    y 0.000000 1.763020 0.000000 
#    z -0.048270 0.000000 1.731290 
# 
# From -- ./inp_files/181074.got.cif
#   From: 2010.05.17/outbox.cif.g08.bks.cpg/sg12_91_cif.got.tgz:181074.got - 2010.06.03 13:09:07.
