data_PCOD9180755
_publ_section_title
;
Structure prediction by ZEFSAII (Michael W. Deem and Ramdas Pophale) SiO2 
 PCOD9180755
Probable space group: C 2/M
;
_chemical_formula_sum "Si O2"
_cell_formula_units_Z 56
_cell_length_a 14.710097
_cell_length_b 9.504486
_cell_length_c 22.188148
_cell_angle_alpha 90.000000
_cell_angle_beta 56.416185
_cell_angle_gamma 90.000000
_cell_volume 2584.345934
_symmetry_space_group_name_H-M "C 2/M"
_symmetry_group_IT_number 12
_symmetry_cell_setting 'monoclinic'
loop_
_space_group_symop_operation_xyz
x,y,z
-x,y,-z
-x,-y,-z
x,-y,z
1/2+x,1/2+y,z
1/2-x,1/2+y,-z
1/2-x,1/2-y,-z
1/2+x,1/2-y,z
loop_
_atom_site_type_symbol
_atom_site_label
_atom_site_fract_x
_atom_site_fract_y
_atom_site_fract_z
Si Si1 0.045701 0.340500 0.919267
Si Si2 0.151476 0.160991 0.781811
Si Si3 0.388643 0.159011 0.504057
Si Si4 0.752478 0.658108 0.354093
Si Si5 0.023735 0.658634 0.656949
Si Si6 0.321236 0.159129 0.928079
Si Si7 0.920724 0.839288 0.791343
O O1 0.088715 0.500000 0.913091
O O2 0.127407 0.241581 0.852831
O O3 0.940037 0.351671 0.915241
O O4 0.000000 0.286817 0.000000
O O5 0.236025 0.246076 0.709188
O O6 0.035967 0.157653 0.786711
O O7 0.184852 0.000000 0.778858
O O8 0.500000 0.147856 0.500000
O O9 0.313499 0.262718 0.569451
O O10 0.424342 0.208827 0.424836
O O11 0.340839 0.000000 0.516111
O O12 0.710977 0.500000 0.357656
O O13 0.874874 0.645112 0.334716
O O14 0.978780 0.500000 0.663638
O O15 0.943676 0.765324 0.719255
O O16 0.339191 0.244443 0.860241
O O17 0.279331 0.000000 0.934923
O O18 0.250000 0.250000 0.000000
O O19 0.884226 0.000000 0.798783
#
# Coordination Sequence:
#
# PCOD9180755 Si02
#       7
#     8   8   8   8   8   8   8
#     4   9  18  33  52  74 101 132 165 203 247 292
#     4   9  17  30  50  75 101 128 162 205 248 290
#     4  10  21  36  52  72 102 135 163 197 245 297
#     4  10  19  32  53  77  99 126 164 207 246 289
#     4   9  18  33  53  76  99 126 163 205 247 290
#     4  10  19  32  51  74 102 133 165 203 246 293
#     4   9  17  30  50  75 100 127 163 206 248 289
#
# _framework density 21.668927
#
# number of rings (size 3 to 8) (size 9 to 14) (size 15 to 20)
#    0.000    2.571    0.000    2.143    0.000    5.714 
#    0.000    1.429    0.000    0.000    0.000    0.000 
#    0.000    0.000    0.000    0.000    0.000    0.000 
#
# Total GULP energy -156372.863883 kJ/mol
# GULP energy per Si atom -5584.745139 kJ/mol
# Density = 2.161961 g / cm^3
# Si number density = 21.668927 Si / 1000 Ang^3
#
#
#
# Elastic Constant Matrix: (Units=GPa)
#
#
# Indices 1 2 3 4 5 6 
#
# 1 36.6371 1.3956 -2.8231 0.0000 4.8732 0.0000
# 2 1.3956 201.4129 152.0833 0.0000 4.9926 0.0000
# 3 -2.8231 152.0833 221.4814 0.0000 22.0114 0.0000
# 4 0.0000 0.0000 0.0000 43.7034 0.0000 5.2929
# 5 4.8732 4.9926 22.0114 0.0000 19.5995 0.0000
# 6 0.0000 0.0000 0.0000 5.2929 0.0000 5.8616
#
#
#
# Elastic Compliance Matrix: (Units=1/GPa)
#
#
# Indices 1 2 3 4 5 6 
#
# 1 0.028872 -0.002006 0.002711 0.000000 -0.009712 0.000000
# 2 -0.002006 0.011116 -0.008360 0.000000 0.007056 0.000000
# 3 0.002711 -0.008360 0.011420 0.000000 -0.011370 0.000000
# 4 0.000000 0.000000 0.000000 0.025691 0.000000 -0.023198
# 5 -0.009712 0.007056 -0.011370 0.000000 0.064408 0.000000
# 6 0.000000 0.000000 0.000000 -0.023198 0.000000 0.191550
#
#
# Mechanical properties :
#
#
# Convention : Reuss Voigt Hill
#
# Bulk Modulus (GPa) = 27.70278 84.53813 56.12045
# Shear Modulus (GPa) = 13.87343 34.42461 24.14902
#
# Velocity S-wave (km/s) = 2.53305 3.99013 3.34197
# Velocity P-wave (km/s) = 4.62249 7.76701 6.39116
#
# Compressibility (1/GPa) = 0.03609746
#
# Stress axis : x y z
#
# Youngs Moduli (GPa) = 34.63586 89.95640 87.56432
#
# Poissons Ratio (x) = 0.18047 -0.23737
# Poissons Ratio (y) = 0.06949 0.73205
# Poissons Ratio (z) = -0.09389 0.75205
#
# Static dielectric constant tensor:
#      x y z
#    x 1.843730 0.000000 -0.001500 
#    y 0.000000 1.791760 0.000000 
#    z -0.001500 0.000000 1.758450 
# 
# From -- ./inp_files/342222.got.cif
#   From: 2010.05.17/outbox.cif.g08.bks.cpg/sg12_172_cif.got.tgz:342222.got - 2010.06.03 13:09:07.
