data_PCOD9180193
_publ_section_title
;
Structure prediction by ZEFSAII (Michael W. Deem and Ramdas Pophale) SiO2 
 PCOD9180193
Probable space group: C 2/M
;
_chemical_formula_sum "Si O2"
_cell_formula_units_Z 64
_cell_length_a 21.063939
_cell_length_b 8.616839
_cell_length_c 20.748765
_cell_angle_alpha 90.000000
_cell_angle_beta 66.482365
_cell_angle_gamma 90.000000
_cell_volume 3453.181923
_symmetry_space_group_name_H-M "C 2/M"
_symmetry_group_IT_number 12
_symmetry_cell_setting 'monoclinic'
loop_
_space_group_symop_operation_xyz
x,y,z
-x,y,-z
-x,-y,-z
x,-y,z
1/2+x,1/2+y,z
1/2-x,1/2+y,-z
1/2-x,1/2-y,-z
1/2+x,1/2-y,z
loop_
_atom_site_type_symbol
_atom_site_label
_atom_site_fract_x
_atom_site_fract_y
_atom_site_fract_z
Si Si1 0.580837 0.185997 0.467714
Si Si2 0.352174 0.814467 0.914813
Si Si3 0.645480 0.687718 0.310121
Si Si4 0.393420 0.813695 0.297841
Si Si5 0.952511 0.185389 0.770293
Si Si6 0.705148 0.187738 0.926891
Si Si7 0.326150 0.315083 0.454627
Si Si8 0.197266 0.311330 0.785741
O O1 0.500000 0.232214 0.500000
O O2 0.616524 0.240483 0.387277
O O3 0.621288 0.258843 0.511349
O O4 0.584370 0.000000 0.471375
O O5 0.414483 0.737604 0.850911
O O6 0.280216 0.759185 0.911707
O O7 0.357722 0.000000 0.907819
O O8 0.344656 0.771454 0.993306
O O9 0.644447 0.500000 0.316110
O O10 0.596960 0.731223 0.269484
O O11 0.724506 0.735613 0.264203
O O12 0.472657 0.760902 0.267021
O O13 0.353150 0.746131 0.375300
O O14 0.356174 0.759886 0.247098
O O15 0.389939 0.000000 0.302188
O O16 0.959206 0.000000 0.766385
O O17 0.681638 0.236947 0.865349
O O18 0.713013 0.000000 0.924012
O O19 0.323677 0.500000 0.455208
O O20 0.250000 0.250000 0.500000
O O21 0.196511 0.500000 0.785821
#
# Coordination Sequence:
#
# PCOD9180193 Si02
#       8
#     8   8   8   8   8   8   8   8
#     4  11  24  40  59  86 119 152 190 244 299 348
#     4  10  19  31  55  88 117 149 192 242 291 340
#     4  10  20  36  60  84 108 147 195 238 287 349
#     4  11  23  39  61  87 118 152 193 244 294 348
#     4  11  22  38  59  83 119 161 196 236 291 353
#     4   9  17  34  57  83 116 152 192 237 289 350
#     4  12  25  43  65  88 117 157 201 242 294 354
#     4   9  18  36  59  83 110 148 190 235 287 343
#
# _framework density 18.533629999999999
#
# number of rings (size 3 to 8) (size 9 to 14) (size 15 to 20)
#    0.000    1.625    1.250    4.125    0.000    5.500 
#    0.000    2.500    0.000    3.750    0.000    0.000 
#    0.000    0.000    0.000    0.000    0.000    0.000 
#
# Total GULP energy -178815.565174 kJ/mol
# GULP energy per Si atom -5587.986412 kJ/mol
# Density = 1.849145 g / cm^3
# Si number density = 18.533630 Si / 1000 Ang^3
#
#
#
# Elastic Constant Matrix: (Units=GPa)
#
#
# Indices 1 2 3 4 5 6 
#
# 1 99.3955 33.1885 34.5760 0.0000 14.1522 -0.0001
# 2 33.1885 49.5638 29.8405 0.0001 7.0721 0.0001
# 3 34.5760 29.8405 116.7779 -0.0001 21.5902 -0.0002
# 4 0.0000 0.0001 -0.0001 33.1738 0.0000 -2.3007
# 5 14.1522 7.0721 21.5902 0.0000 24.8452 0.0001
# 6 -0.0001 0.0001 -0.0002 -2.3007 0.0001 28.5699
#
#
#
# Elastic Compliance Matrix: (Units=1/GPa)
#
#
# Indices 1 2 3 4 5 6 
#
# 1 0.013745 -0.007813 -0.001235 0.000000 -0.004532 0.000000
# 2 -0.007813 0.028352 -0.005078 0.000000 0.000793 0.000000
# 3 -0.001235 -0.005078 0.011711 0.000000 -0.008027 0.000000
# 4 0.000000 0.000000 0.000000 0.030314 0.000000 0.002441
# 5 -0.004532 0.000793 -0.008027 0.000000 0.049580 0.000000
# 6 0.000000 0.000000 0.000000 0.002441 0.000000 0.035198
#
#
# Mechanical properties :
#
#
# Convention : Reuss Voigt Hill
#
# Bulk Modulus (GPa) = 39.13236 51.21635 45.17436
# Shear Modulus (GPa) = 24.31068 28.52661 26.41864
#
# Velocity S-wave (km/s) = 3.62568 3.92750 3.77960
# Velocity P-wave (km/s) = 6.21993 6.94703 6.59351
#
# Compressibility (1/GPa) = 0.02555430
#
# Stress axis : x y z
#
# Youngs Moduli (GPa) = 72.75587 35.27090 85.39187
#
# Poissons Ratio (x) = 0.27558 0.10547
# Poissons Ratio (y) = 0.56846 0.43363
# Poissons Ratio (z) = 0.08987 0.17911
#
# Static dielectric constant tensor:
#      x y z
#    x 1.613120 0.000000 0.014920 
#    y 0.000000 1.625950 0.000000 
#    z 0.014920 0.000000 1.622360 
# 
# From -- ./inp_files/319847.got.cif
#   From: 2010.05.17/outbox.cif.g08.bks.cpg/sg12_160_cif.got.tgz:319847.got - 2010.06.03 13:09:07.
