data_PCOD9180932
_publ_section_title
;
Structure prediction by ZEFSAII (Michael W. Deem and Ramdas Pophale) SiO2 
 PCOD9180932
Probable space group: C 2/M
;
_chemical_formula_sum "Si O2"
_cell_formula_units_Z 56
_cell_length_a 5.443132
_cell_length_b 22.355917
_cell_length_c 22.598339
_cell_angle_alpha 90.000000
_cell_angle_beta 103.546283
_cell_angle_gamma 90.000000
_cell_volume 2673.406600
_symmetry_space_group_name_H-M "C 2/M"
_symmetry_group_IT_number 12
_symmetry_cell_setting 'monoclinic'
loop_
_space_group_symop_operation_xyz
x,y,z
-x,y,-z
-x,-y,-z
x,-y,z
1/2+x,1/2+y,z
1/2-x,1/2+y,-z
1/2-x,1/2-y,-z
1/2+x,1/2-y,z
loop_
_atom_site_type_symbol
_atom_site_label
_atom_site_fract_x
_atom_site_fract_y
_atom_site_fract_z
Si Si1 0.897545 0.130927 0.062332
Si Si2 0.688411 0.382820 0.771490
Si Si3 0.885553 0.750236 0.274093
Si Si4 0.161794 0.927754 0.636471
Si Si5 0.403382 0.073002 0.429739
Si Si6 0.500000 0.788884 0.000000
Si Si7 0.230584 0.363090 0.816214
Si Si8 0.711224 0.500000 0.960323
O O1 0.114703 0.155796 0.117000
O O2 0.840668 0.062294 0.074653
O O3 0.633854 0.166444 0.053949
O O4 0.000000 0.133082 0.000000
O O5 0.655330 0.310707 0.765593
O O6 0.694590 0.406581 0.705327
O O7 0.434408 0.402236 0.790830
O O8 0.964058 0.394720 0.814412
O O9 0.671341 0.749774 0.311015
O O10 0.840343 0.693843 0.228659
O O11 0.394979 0.907358 0.608618
O O12 0.884508 0.907833 0.598739
O O13 0.162998 0.000000 0.635300
O O14 0.500000 0.090816 0.500000
O O15 0.401629 0.000000 0.428514
O O16 0.750000 0.750000 0.000000
O O17 0.500000 0.500000 0.000000
O O18 0.000000 0.500000 0.000000
#
# Coordination Sequence:
#
# PCOD9180932 Si02
#       8
#     8   8   8   8   8   4   8   4
#     4  11  25  45  66  91 120 157 201 258 322 386
#     4  10  20  36  52  80 110 154 185 229 286 345
#     4   8  16  32  51  72  99 133 174 222 275 328
#     4  10  19  32  51  77 118 155 189 237 277 335
#     4   9  17  30  51  79 112 155 196 233 283 333
#     4  12  26  41  62  95 122 150 190 244 322 394
#     4  10  22  36  60  80 110 138 188 242 294 355
#     4  10  22  42  68  84 112 152 198 240 291 378
#
# _framework density 20.947058999999999
#
# number of rings (size 3 to 8) (size 9 to 14) (size 15 to 20)
#    0.000    2.143    1.429    1.286    2.000    5.143 
#    2.571    0.000    0.000    0.000    0.000    0.000 
#    0.000  102.857    0.000    0.000    0.000    0.000 
#
# Total GULP energy -155973.843747 kJ/mol
# GULP energy per Si atom -5570.494420 kJ/mol
# Density = 2.089938 g / cm^3
# Si number density = 20.947059 Si / 1000 Ang^3
#
#
#
# Elastic Constant Matrix: (Units=GPa)
#
#
# Indices 1 2 3 4 5 6 
#
# 1 166.3299 16.7816 7.4953 0.0000 9.1264 0.0000
# 2 16.7816 52.4384 -6.7764 0.0000 0.9696 0.0000
# 3 7.4953 -6.7764 55.9709 0.0000 0.0470 0.0000
# 4 0.0000 0.0000 0.0000 0.1858 0.0000 3.5482
# 5 9.1264 0.9696 0.0470 0.0000 35.3114 0.0000
# 6 0.0000 0.0000 0.0000 3.5482 0.0000 10.2273
#
#
#
# Elastic Compliance Matrix: (Units=1/GPa)
#
#
# Indices 1 2 3 4 5 6 
#
# 1 0.006366 -0.002152 -0.001112 0.000000 -0.001585 0.000000
# 2 -0.002152 0.020110 0.002723 0.000000 0.000000 0.000000
# 3 -0.001112 0.002723 0.018345 0.000000 0.000188 0.000000
# 4 0.000000 0.000000 0.000000 -0.956751 0.000000 0.331928
# 5 -0.001585 0.000000 0.000188 0.000000 0.028729 0.000000
# 6 0.000000 0.000000 0.000000 0.331928 0.000000 -0.017379
#
#
# Mechanical properties :
#
#
# Convention : Reuss Voigt Hill
#
# Bulk Modulus (GPa) = 22.86212 34.41561 28.63887
# Shear Modulus (GPa) = -5.65024 26.29415 10.32195
#
# Velocity S-wave (km/s) = -1.64415 3.54682 2.22224
# Velocity P-wave (km/s) = 2.70806 5.76530 4.50402
#
# Compressibility (1/GPa) = 0.04374047
#
# Stress axis : x y z
#
# Youngs Moduli (GPa) = 157.07711 49.72535 54.51137
#
# Poissons Ratio (x) = 0.10700 0.06060
# Poissons Ratio (y) = 0.33799 -0.14843
# Poissons Ratio (z) = 0.17463 -0.13540
#
# Static dielectric constant tensor:
#      x y z
#    x 1.861790 0.000000 -0.009640 
#    y 0.000000 1.797290 0.000000 
#    z -0.009640 0.000000 1.726150 
# 
# From -- ./inp_files/298117.got.cif
#   From: 2010.05.17/outbox.cif.g08.bks.cpg/sg12_150_cif.got.tgz:298117.got - 2010.06.03 13:09:07.
