data_PCOD9180093
_publ_section_title
;
Structure prediction by ZEFSAII (Michael W. Deem and Ramdas Pophale) SiO2 
 PCOD9180093
Probable space group: C 2/M
;
_chemical_formula_sum "Si O2"
_cell_formula_units_Z 48
_cell_length_a 13.698854
_cell_length_b 13.563362
_cell_length_c 12.902978
_cell_angle_alpha 90.000000
_cell_angle_beta 69.055155
_cell_angle_gamma 90.000000
_cell_volume 2238.997120
_symmetry_space_group_name_H-M "C 2/M"
_symmetry_group_IT_number 12
_symmetry_cell_setting 'monoclinic'
loop_
_space_group_symop_operation_xyz
x,y,z
-x,y,-z
-x,-y,-z
x,-y,z
1/2+x,1/2+y,z
1/2-x,1/2+y,-z
1/2-x,1/2-y,-z
1/2+x,1/2-y,z
loop_
_atom_site_type_symbol
_atom_site_label
_atom_site_fract_x
_atom_site_fract_y
_atom_site_fract_z
Si Si1 0.609744 0.114147 0.406471
Si Si2 0.041124 0.387181 0.100927
Si Si3 0.717674 0.387013 0.477266
Si Si4 0.949955 0.883274 0.298931
Si Si5 0.651343 0.742045 0.197996
Si Si6 0.662123 0.206795 0.754850
O O1 0.500000 0.142403 0.500000
O O2 0.699351 0.117774 0.460036
O O3 0.633909 0.181519 0.299457
O O4 0.601152 0.000000 0.375929
O O5 0.076784 0.500000 0.099435
O O6 0.936614 0.366030 0.208402
O O7 0.123181 0.305660 0.107860
O O8 0.000000 0.372620 0.000000
O O9 0.711848 0.500000 0.443207
O O10 0.605687 0.360756 0.569394
O O11 0.762070 0.322289 0.368204
O O12 0.885243 0.815582 0.243496
O O13 0.067690 0.845106 0.245860
O O14 0.939643 0.000000 0.285578
O O15 0.767975 0.702668 0.169026
#
# Coordination Sequence:
#
# PCOD9180093 Si02
#       6
#     8   8   8   8   8   8
#     4  10  19  31  53  84 117 153 197 237 274 333
#     4  10  23  44  65  87 114 143 189 253 309 348
#     4  10  20  35  55  82 122 160 192 230 279 335
#     4  10  22  37  52  81 125 162 188 229 277 335
#     4  11  23  35  62  87 114 154 196 238 280 353
#     4  11  22  37  62  85 116 154 197 240 283 347
#
# _framework density 21.438171000000001
#
# number of rings (size 3 to 8) (size 9 to 14) (size 15 to 20)
#    0.000    1.667    1.667    3.500    2.333    4.000 
#    0.000    1.667    0.000    8.000    0.000    0.000 
#    0.000    0.000    0.000    0.000    0.000    0.000 
#
# Total GULP energy -134164.108848 kJ/mol
# GULP energy per Si atom -5590.171202 kJ/mol
# Density = 2.138938 g / cm^3
# Si number density = 21.438171 Si / 1000 Ang^3
#
#
#
# Elastic Constant Matrix: (Units=GPa)
#
#
# Indices 1 2 3 4 5 6 
#
# 1 78.8335 14.6517 -4.9119 0.0000 5.8789 0.0000
# 2 14.6517 85.0831 10.0193 0.0000 6.8001 0.0000
# 3 -4.9119 10.0193 40.8580 0.0000 9.7853 0.0000
# 4 0.0000 0.0000 0.0000 22.6248 0.0000 5.6554
# 5 5.8789 6.8001 9.7853 0.0000 20.1956 0.0000
# 6 0.0000 0.0000 0.0000 5.6554 0.0000 18.6454
#
#
#
# Elastic Compliance Matrix: (Units=1/GPa)
#
#
# Indices 1 2 3 4 5 6 
#
# 1 0.013697 -0.002371 0.003384 0.000000 -0.004829 0.000000
# 2 -0.002371 0.012674 -0.002869 0.000000 -0.002187 0.000000
# 3 0.003384 -0.002869 0.028949 0.000000 -0.014046 0.000000
# 4 0.000000 0.000000 0.000000 0.047825 0.000000 -0.014506
# 5 -0.004829 -0.002187 -0.014046 0.000000 0.058463 0.000000
# 6 0.000000 0.000000 0.000000 -0.014506 0.000000 0.058032
#
#
# Mechanical properties :
#
#
# Convention : Reuss Voigt Hill
#
# Bulk Modulus (GPa) = 19.37680 27.14366 23.26023
# Shear Modulus (GPa) = 20.78519 24.62753 22.70636
#
# Velocity S-wave (km/s) = 3.11712 3.39303 3.25800
# Velocity P-wave (km/s) = 4.69184 5.29519 5.00262
#
# Compressibility (1/GPa) = 0.05160812
#
# Stress axis : x y z
#
# Youngs Moduli (GPa) = 73.01068 78.90020 34.54297
#
# Poissons Ratio (x) = 0.18709 -0.11691
# Poissons Ratio (y) = 0.17313 0.09911
# Poissons Ratio (z) = -0.24710 0.22639
#
# Static dielectric constant tensor:
#      x y z
#    x 1.805770 0.000000 0.005800 
#    y 0.000000 1.765200 0.000000 
#    z 0.005800 0.000000 1.774660 
# 
# From -- ./inp_files/142731.got.cif
#   From: 2010.05.17/outbox.cif.g08.bks.cpg/sg12_72_cif.got.tgz:142731.got - 2010.06.03 13:09:07.
