data_PCOD9180782
_publ_section_title
;
Structure prediction by ZEFSAII (Michael W. Deem and Ramdas Pophale) SiO2 
 PCOD9180782
Probable space group: C 2/M
;
_chemical_formula_sum "Si O2"
_cell_formula_units_Z 56
_cell_length_a 31.735879
_cell_length_b 7.652901
_cell_length_c 15.189720
_cell_angle_alpha 90.000000
_cell_angle_beta 132.943834
_cell_angle_gamma 90.000000
_cell_volume 2700.539100
_symmetry_space_group_name_H-M "C 2/M"
_symmetry_group_IT_number 12
_symmetry_cell_setting 'monoclinic'
loop_
_space_group_symop_operation_xyz
x,y,z
-x,y,-z
-x,-y,-z
x,-y,z
1/2+x,1/2+y,z
1/2-x,1/2+y,-z
1/2-x,1/2-y,-z
1/2+x,1/2-y,z
loop_
_atom_site_type_symbol
_atom_site_label
_atom_site_fract_x
_atom_site_fract_y
_atom_site_fract_z
Si Si1 0.054945 0.293773 0.184129
Si Si2 0.863031 0.288817 0.189148
Si Si3 0.683952 0.785614 0.060067
Si Si4 0.105114 0.796113 0.437283
Si Si5 0.007590 0.711316 0.612347
Si Si6 0.307122 0.707288 0.295644
Si Si7 0.073633 0.286105 0.014042
O O1 0.048031 0.500000 0.161405
O O2 0.095532 0.270094 0.325226
O O3 0.077080 0.228693 0.121119
O O4 0.989741 0.228090 0.108611
O O5 0.862891 0.500000 0.190426
O O6 0.929010 0.233216 0.266853
O O7 0.841891 0.229462 0.254212
O O8 0.823252 0.230598 0.051737
O O9 0.743103 0.722869 0.187730
O O10 0.627507 0.728350 0.033061
O O11 0.684946 0.000000 0.061560
O O12 0.155388 0.718261 0.570402
O O13 0.045192 0.773303 0.404185
O O14 0.116654 0.000000 0.445146
O O15 0.005942 0.500000 0.612572
O O16 0.000000 0.765758 0.500000
O O17 0.301219 0.500000 0.302502
O O18 0.075180 0.500000 0.012342
#
# Coordination Sequence:
#
# PCOD9180782 Si02
#       7
#     8   8   8   8   8   8   8
#     4   9  17  32  57  82  99 121 159 209 255 296
#     4  10  19  32  53  76  96 125 166 211 252 287
#     4   9  17  31  51  73  97 128 167 207 246 290
#     4  11  22  33  47  71 105 141 166 193 242 300
#     4  10  19  32  51  74  98 125 162 210 252 286
#     4  10  21  34  47  67 101 140 170 197 235 292
#     4   8  15  31  56  81  99 119 159 212 257 293
#
# _framework density 20.736601
#
# number of rings (size 3 to 8) (size 9 to 14) (size 15 to 20)
#    0.000    2.429    1.429    2.571    0.000    3.714 
#    0.000    2.143    0.000    2.571    0.000    0.000 
#    0.000    0.000    0.000    0.000    0.000    0.000 
#
# Total GULP energy -156294.740963 kJ/mol
# GULP energy per Si atom -5581.955034 kJ/mol
# Density = 2.068940 g / cm^3
# Si number density = 20.736601 Si / 1000 Ang^3
#
#
#
# Elastic Constant Matrix: (Units=GPa)
#
#
# Indices 1 2 3 4 5 6 
#
# 1 33.5759 -5.3028 45.5709 0.0000 -1.1295 0.0000
# 2 -5.3028 30.5820 1.9857 0.0000 1.4985 0.0000
# 3 45.5709 1.9857 178.2468 0.0000 -5.5232 0.0000
# 4 0.0000 0.0000 0.0000 26.1895 0.0000 -19.9050
# 5 -1.1295 1.4985 -5.5232 0.0000 29.0655 0.0000
# 6 0.0000 0.0000 0.0000 -19.9050 0.0000 23.7719
#
#
#
# Elastic Compliance Matrix: (Units=1/GPa)
#
#
# Indices 1 2 3 4 5 6 
#
# 1 0.048057 0.009187 -0.012419 0.000000 -0.000966 0.000000
# 2 0.009187 0.034569 -0.002794 0.000000 -0.001956 0.000000
# 3 -0.012419 -0.002794 0.008858 0.000000 0.001345 0.000000
# 4 0.000000 0.000000 0.000000 0.105017 0.000000 0.087935
# 5 -0.000966 -0.001956 0.001345 0.000000 0.034724 0.000000
# 6 0.000000 0.000000 0.000000 0.087935 0.000000 0.115697
#
#
# Mechanical properties :
#
#
# Convention : Reuss Voigt Hill
#
# Bulk Modulus (GPa) = 12.58954 36.32360 24.45657
# Shear Modulus (GPa) = 12.97179 29.14877 21.06028
#
# Velocity S-wave (km/s) = 2.50381 3.75329 3.19032
# Velocity P-wave (km/s) = 3.80041 6.02807 5.03889
#
# Compressibility (1/GPa) = 0.07943103
#
# Stress axis : x y z
#
# Youngs Moduli (GPa) = 20.80873 28.92754 112.89297
#
# Poissons Ratio (x) = -0.26574 1.40197
# Poissons Ratio (y) = -0.19116 0.31546
# Poissons Ratio (z) = 0.25841 0.08083
#
# Static dielectric constant tensor:
#      x y z
#    x 1.701630 0.000000 0.007070 
#    y 0.000000 1.790220 0.000000 
#    z 0.007070 0.000000 1.774990 
# 
# From -- ./inp_files/237437.got.cif
#   From: 2010.05.17/outbox.cif.g08.bks.cpg/sg12_119_cif.got.tgz:237437.got - 2010.06.03 13:09:07.
