data_PCOD9180127
_publ_section_title
;
Structure prediction by ZEFSAII (Michael W. Deem and Ramdas Pophale) SiO2 
 PCOD9180127
Probable space group: C 2/M
;
_chemical_formula_sum "Si O2"
_cell_formula_units_Z 56
_cell_length_a 21.125293
_cell_length_b 7.494269
_cell_length_c 23.821259
_cell_angle_alpha 90.000000
_cell_angle_beta 46.571241
_cell_angle_gamma 90.000000
_cell_volume 2738.865704
_symmetry_space_group_name_H-M "C 2/M"
_symmetry_group_IT_number 12
_symmetry_cell_setting 'monoclinic'
loop_
_space_group_symop_operation_xyz
x,y,z
-x,y,-z
-x,-y,-z
x,-y,z
1/2+x,1/2+y,z
1/2-x,1/2+y,-z
1/2-x,1/2-y,-z
1/2+x,1/2-y,z
loop_
_atom_site_type_symbol
_atom_site_label
_atom_site_fract_x
_atom_site_fract_y
_atom_site_fract_z
Si Si1 0.512656 0.784732 0.582198
Si Si2 0.930476 0.792876 0.746116
Si Si3 0.734333 0.294233 0.844846
Si Si4 0.860314 0.717294 0.589143
Si Si5 0.326148 0.714140 0.998449
Si Si6 0.006278 0.781654 0.171132
Si Si7 0.683965 0.718958 0.752803
O O1 0.498596 0.722839 0.653900
O O2 0.597601 0.725708 0.495601
O O3 0.428918 0.729410 0.595869
O O4 0.512744 0.000000 0.583122
O O5 0.839206 0.706615 0.783960
O O6 0.967364 0.723007 0.782346
O O7 0.909251 0.000000 0.767748
O O8 0.705134 0.500000 0.861784
O O9 0.703140 0.218170 0.804561
O O10 0.698715 0.215049 0.924815
O O11 0.860333 0.500000 0.588820
O O12 0.764038 0.776101 0.664399
O O13 0.331537 0.500000 0.999463
O O14 0.417816 0.777372 0.917543
O O15 0.250000 0.750000 0.000000
O O16 0.910340 0.724591 0.211304
O O17 0.005666 0.000000 0.171603
O O18 0.685544 0.500000 0.752175
#
# Coordination Sequence:
#
# PCOD9180127 Si02
#       7
#     8   8   8   8   8   8   8
#     4   9  16  29  50  76  98 122 167 211 240 281
#     4  11  20  31  48  73 103 134 161 197 249 300
#     4  10  19  31  54  77  94 125 171 212 239 279
#     4   8  14  26  49  75  98 124 160 208 248 280
#     4  10  19  32  50  76 102 128 162 203 246 288
#     4   9  19  32  47  71 105 134 159 198 251 298
#     4   9  16  30  51  75  99 127 165 207 246 285
#
# _framework density 20.446421000000001
#
# number of rings (size 3 to 8) (size 9 to 14) (size 15 to 20)
#    0.000    2.571    2.857    1.286    0.000    0.571 
#    0.000    5.000    0.000    2.571    0.000    2.000 
#    0.000    0.000    0.000    0.000    0.000    0.000 
#
# Total GULP energy -156270.060263 kJ/mol
# GULP energy per Si atom -5581.073581 kJ/mol
# Density = 2.039988 g / cm^3
# Si number density = 20.446421 Si / 1000 Ang^3
#
#
#
# Elastic Constant Matrix: (Units=GPa)
#
#
# Indices 1 2 3 4 5 6 
#
# 1 115.2736 -1.9749 75.4995 0.0009 -7.0049 0.0002
# 2 -1.9749 54.5342 -1.5937 0.0002 -0.5171 0.0067
# 3 75.4995 -1.5937 190.6508 0.0006 -0.9067 0.0008
# 4 0.0009 0.0002 0.0006 8.6116 -0.0004 5.9814
# 5 -7.0049 -0.5171 -0.9067 -0.0004 35.5298 0.0005
# 6 0.0002 0.0067 0.0008 5.9814 0.0005 5.4743
#
#
#
# Elastic Compliance Matrix: (Units=1/GPa)
#
#
# Indices 1 2 3 4 5 6 
#
# 1 0.011891 0.000315 -0.004696 -0.000003 0.002229 0.000003
# 2 0.000315 0.018353 0.000030 0.000063 0.000330 -0.000091
# 3 -0.004696 0.000030 0.007102 0.000002 -0.000744 -0.000004
# 4 -0.000003 0.000063 0.000002 0.481668 0.000013 -0.526286
# 5 0.002229 0.000330 -0.000744 0.000013 0.028571 -0.000017
# 6 0.000003 -0.000091 -0.000004 -0.526286 -0.000017 0.757708
#
#
# Mechanical properties :
#
#
# Convention : Reuss Voigt Hill
#
# Bulk Modulus (GPa) = 34.91176 56.03561 45.47369
# Shear Modulus (GPa) = 3.77774 29.15832 16.46803
#
# Velocity S-wave (km/s) = 1.36075 3.78045 2.84108
# Velocity P-wave (km/s) = 4.42501 6.82065 5.74900
#
# Compressibility (1/GPa) = 0.02864364
#
# Stress axis : x y z
#
# Youngs Moduli (GPa) = 84.09376 54.48842 140.81474
#
# Poissons Ratio (x) = -0.01714 0.66125
# Poissons Ratio (y) = -0.02645 -0.00428
# Poissons Ratio (z) = 0.39490 -0.00166
#
# Static dielectric constant tensor:
#      x y z
#    x 1.674850 0.000000 0.014740 
#    y 0.000000 1.801910 0.000000 
#    z 0.014740 0.000000 1.731180 
# 
# From -- ./inp_files/315247.got.cif
#   From: 2010.05.17/outbox.cif.g08.bks.cpg/sg12_158_cif.got.tgz:315247.got - 2010.06.03 13:09:07.
