data_PCOD9180076
_publ_section_title
;
Structure prediction by ZEFSAII (Michael W. Deem and Ramdas Pophale) SiO2 
 PCOD9180076
Probable space group: C 2/M
;
_chemical_formula_sum "Si O2"
_cell_formula_units_Z 48
_cell_length_a 14.628207
_cell_length_b 17.106357
_cell_length_c 7.966266
_cell_angle_alpha 90.000000
_cell_angle_beta 76.948628
_cell_angle_gamma 90.000000
_cell_volume 1941.946597
_symmetry_space_group_name_H-M "C 2/M"
_symmetry_group_IT_number 12
_symmetry_cell_setting 'monoclinic'
loop_
_space_group_symop_operation_xyz
x,y,z
-x,y,-z
-x,-y,-z
x,-y,z
1/2+x,1/2+y,z
1/2-x,1/2+y,-z
1/2-x,1/2-y,-z
1/2+x,1/2-y,z
loop_
_atom_site_type_symbol
_atom_site_label
_atom_site_fract_x
_atom_site_fract_y
_atom_site_fract_z
Si Si1 0.639630 0.407412 0.502915
Si Si2 0.816400 0.592535 0.621358
Si Si3 0.477664 0.659188 0.755981
Si Si4 0.184424 0.909465 0.004251
Si Si5 0.482198 0.160139 0.746713
Si Si6 0.631855 0.907892 0.893947
O O1 0.642494 0.500000 0.465031
O O2 0.743686 0.380828 0.509125
O O3 0.589032 0.361974 0.374910
O O4 0.568785 0.394159 0.689845
O O5 0.836413 0.500000 0.592426
O O6 0.912340 0.636718 0.624971
O O7 0.749396 0.599445 0.814492
O O8 0.407847 0.642507 0.939246
O O9 0.505365 0.749062 0.735093
O O10 0.258180 0.893409 0.125782
O O11 0.154991 0.000000 0.028472
O O12 0.577053 0.111984 0.745867
O O13 0.419184 0.140073 0.937404
O O14 0.618314 0.000000 0.934195
#
# Coordination Sequence:
#
# PCOD9180076 Si02
#       6
#     8   8   8   8   8   8
#     4  10  22  41  58  72 104 154 193 222 269 331
#     4   9  19  35  56  80 106 140 182 223 266 323
#     4  11  22  34  54  80 109 144 182 229 277 322
#     4   9  18  34  57  83 107 138 183 227 266 320
#     4  10  19  31  53  83 112 141 173 219 272 321
#     4   9  18  35  58  83 115 149 177 213 269 335
#
# _framework density 24.717468
#
# number of rings (size 3 to 8) (size 9 to 14) (size 15 to 20)
#    0.000    2.333    0.000    5.000    0.000    8.000 
#    0.000    4.167    0.000    0.000    0.000   21.000 
#    0.000    0.000    0.000    0.000    0.000    0.000 
#
# Total GULP energy -134262.358578 kJ/mol
# GULP energy per Si atom -5594.264941 kJ/mol
# Density = 2.466121 g / cm^3
# Si number density = 24.717468 Si / 1000 Ang^3
#
#
#
# Elastic Constant Matrix: (Units=GPa)
#
#
# Indices 1 2 3 4 5 6 
#
# 1 138.4890 21.3505 7.7760 0.0000 3.7909 0.0000
# 2 21.3505 52.6671 2.1479 0.0000 1.2165 0.0000
# 3 7.7760 2.1479 68.4170 0.0000 12.2047 0.0000
# 4 0.0000 0.0000 0.0000 4.6133 0.0000 60.5083
# 5 3.7909 1.2165 12.2047 0.0000 49.5298 0.0000
# 6 0.0000 0.0000 0.0000 60.5083 0.0000 -132.4592
#
#
#
# Elastic Compliance Matrix: (Units=1/GPa)
#
#
# Indices 1 2 3 4 5 6 
#
# 1 0.007749 -0.003104 -0.000723 0.000000 -0.000339 0.000000
# 2 -0.003104 0.020260 -0.000248 0.000000 -0.000199 0.000000
# 3 -0.000723 -0.000248 0.015371 0.000000 -0.003726 0.000000
# 4 0.000000 0.000000 0.000000 0.031004 0.000000 0.014163
# 5 -0.000339 -0.000199 -0.003726 0.000000 0.021139 0.000000
# 6 0.000000 0.000000 0.000000 0.014163 0.000000 -0.001080
#
#
# Mechanical properties :
#
#
# Convention : Reuss Voigt Hill
#
# Bulk Modulus (GPa) = 28.38421 35.79132 32.08776
# Shear Modulus (GPa) = 43.73058 -0.44331 21.64364
#
# Velocity S-wave (km/s) = 4.21077 -0.42396 2.96233
# Velocity P-wave (km/s) = 5.92867 3.77782 4.97097
#
# Compressibility (1/GPa) = 0.03523086
#
# Stress axis : x y z
#
# Youngs Moduli (GPa) = 129.04553 49.35776 65.05806
#
# Poissons Ratio (x) = 0.15321 0.04703
# Poissons Ratio (y) = 0.40057 0.01612
# Poissons Ratio (z) = 0.09328 0.01223
#
# Static dielectric constant tensor:
#      x y z
#    x 1.934860 0.000000 0.004890 
#    y 0.000000 1.806860 0.000000 
#    z 0.004890 0.000000 2.181490 
# 
# From -- ./inp_files/73641.got.cif
#   From: 2010.05.17/outbox.cif.g08.bks.cpg/sg12_37_cif.got.tgz:73641.got - 2010.06.03 13:09:07.
