data_PCOD9180980
_publ_section_title
;
Structure prediction by ZEFSAII (Michael W. Deem and Ramdas Pophale) SiO2 
 PCOD9180980
Probable space group: C 2/M
;
_chemical_formula_sum "Si O2"
_cell_formula_units_Z 64
_cell_length_a 24.798666
_cell_length_b 22.665701
_cell_length_c 12.163256
_cell_angle_alpha 90.000000
_cell_angle_beta 32.073770
_cell_angle_gamma 90.000000
_cell_volume 3630.367611
_symmetry_space_group_name_H-M "C 2/M"
_symmetry_group_IT_number 12
_symmetry_cell_setting 'monoclinic'
loop_
_space_group_symop_operation_xyz
x,y,z
-x,y,-z
-x,-y,-z
x,-y,z
1/2+x,1/2+y,z
1/2-x,1/2+y,-z
1/2-x,1/2-y,-z
1/2+x,1/2-y,z
loop_
_atom_site_type_symbol
_atom_site_label
_atom_site_fract_x
_atom_site_fract_y
_atom_site_fract_z
Si Si1 0.148661 0.180320 0.327376
Si Si2 0.645851 0.432440 0.966073
Si Si3 0.261529 0.565866 0.742499
Si Si4 0.278418 0.635197 0.363122
Si Si5 0.082005 0.935319 0.729322
Si Si6 0.885965 0.628924 0.162732
Si Si7 0.679608 0.751986 0.838395
Si Si8 0.915455 0.179148 0.801713
O O1 0.205499 0.117110 0.231687
O O2 0.219511 0.222713 0.277021
O O3 0.132141 0.200582 0.230923
O O4 0.036414 0.174239 0.573927
O O5 0.666983 0.500000 0.961395
O O6 0.534735 0.431084 0.100568
O O7 0.632559 0.384571 0.085269
O O8 0.722668 0.406917 0.742017
O O9 0.252205 0.500000 0.804115
O O10 0.351436 0.565872 0.496215
O O11 0.162614 0.585158 0.843980
O O12 0.376050 0.615610 0.265949
O O13 0.184760 0.627181 0.606936
O O14 0.290584 0.701254 0.298859
O O15 0.101117 0.000000 0.748735
O O16 0.874874 0.693869 0.128209
O O17 0.000000 0.615572 0.000000
O O18 0.611192 0.721778 0.050995
#
# Coordination Sequence:
#
# PCOD9180980 Si02
#       8
#     8   8   8   8   8   8   8   8
#     4  10  20  36  54  78 106 133 177 219 266 309
#     4  10  19  32  51  80 111 137 167 204 255 319
#     4   9  18  34  54  75 105 138 168 211 260 309
#     4  10  20  32  49  76 102 143 173 207 256 306
#     4   9  16  29  48  73 107 138 164 195 246 314
#     4  10  22  36  52  76 103 138 182 218 251 302
#     4  10  22  36  53  72 108 140 175 219 259 307
#     4  10  21  34  55  80 103 138 174 218 262 312
#
# _framework density 17.629069000000001
#
# number of rings (size 3 to 8) (size 9 to 14) (size 15 to 20)
#    0.000    2.250    1.250    1.500    1.750    4.250 
#    0.000    1.250    0.000    0.000    0.000    0.000 
#    0.000    4.500    0.000    0.000    0.000    0.000 
#
# Total GULP energy -178481.981992 kJ/mol
# GULP energy per Si atom -5577.561937 kJ/mol
# Density = 1.758894 g / cm^3
# Si number density = 17.629069 Si / 1000 Ang^3
#
#
#
# Elastic Constant Matrix: (Units=GPa)
#
#
# Indices 1 2 3 4 5 6 
#
# 1 54.3235 11.6127 22.5843 0.0000 -10.4393 0.0000
# 2 11.6127 77.4636 3.8258 0.0000 -4.0996 0.0000
# 3 22.5843 3.8258 54.0770 0.0001 -1.4002 0.0000
# 4 0.0000 0.0000 0.0001 11.3678 0.0000 0.0616
# 5 -10.4393 -4.0996 -1.4002 0.0000 23.7411 0.0000
# 6 0.0000 0.0000 0.0000 0.0616 0.0000 17.9618
#
#
#
# Elastic Compliance Matrix: (Units=1/GPa)
#
#
# Indices 1 2 3 4 5 6 
#
# 1 0.025073 -0.002737 -0.010020 0.000000 0.009961 0.000000
# 2 -0.002737 0.013368 0.000226 0.000000 0.001118 0.000000
# 3 -0.010020 0.000226 0.022582 0.000000 -0.003035 0.000000
# 4 0.000000 0.000000 0.000000 0.087970 0.000000 -0.000302
# 5 0.009961 0.001118 -0.003035 0.000000 0.046515 0.000000
# 6 0.000000 0.000000 0.000000 -0.000302 0.000000 0.055675
#
#
# Mechanical properties :
#
#
# Convention : Reuss Voigt Hill
#
# Bulk Modulus (GPa) = 27.80698 29.10108 28.45403
# Shear Modulus (GPa) = 17.34723 20.47023 18.90873
#
# Velocity S-wave (km/s) = 3.14030 3.41128 3.27859
# Velocity P-wave (km/s) = 5.38110 5.66207 5.52337
#
# Compressibility (1/GPa) = 0.03596219
#
# Stress axis : x y z
#
# Youngs Moduli (GPa) = 39.88326 74.80797 44.28274
#
# Poissons Ratio (x) = 0.20473 0.44371
# Poissons Ratio (y) = 0.10915 -0.01002
# Poissons Ratio (z) = 0.39962 -0.01692
#
# Static dielectric constant tensor:
#      x y z
#    x 1.586830 0.000000 0.017110 
#    y 0.000000 1.626630 0.000000 
#    z 0.017110 0.000000 1.592470 
# 
# From -- ./inp_files/178398.got.cif
#   From: 2010.05.17/outbox.cif.g08.bks.cpg/sg12_90_cif.got.tgz:178398.got - 2010.06.03 13:09:07.
