data_PCOD9180288
_publ_section_title
;
Structure prediction by ZEFSAII (Michael W. Deem and Ramdas Pophale) SiO2 
 PCOD9180288
Probable space group: C 2/M
;
_chemical_formula_sum "Si O2"
_cell_formula_units_Z 64
_cell_length_a 27.995564
_cell_length_b 9.173514
_cell_length_c 22.402527
_cell_angle_alpha 90.000000
_cell_angle_beta 48.534986
_cell_angle_gamma 90.000000
_cell_volume 4311.343009
_symmetry_space_group_name_H-M "C 2/M"
_symmetry_group_IT_number 12
_symmetry_cell_setting 'monoclinic'
loop_
_space_group_symop_operation_xyz
x,y,z
-x,y,-z
-x,-y,-z
x,-y,z
1/2+x,1/2+y,z
1/2-x,1/2+y,-z
1/2-x,1/2-y,-z
1/2+x,1/2-y,z
loop_
_atom_site_type_symbol
_atom_site_label
_atom_site_fract_x
_atom_site_fract_y
_atom_site_fract_z
Si Si1 0.353339 0.326630 0.648507
Si Si2 0.485703 0.329070 0.108400
Si Si3 0.793106 0.675400 0.218193
Si Si4 0.681062 0.824428 0.560063
Si Si5 0.902067 0.826990 0.472777
Si Si6 0.025029 0.332589 0.410688
Si Si7 0.898397 0.828771 0.061285
Si Si8 0.622451 0.174345 0.737314
O O1 0.359562 0.500000 0.654934
O O2 0.280733 0.280907 0.720507
O O3 0.369950 0.305827 0.564659
O O4 0.405516 0.239524 0.643296
O O5 0.490089 0.500000 0.119647
O O6 0.442532 0.317847 0.084140
O O7 0.445604 0.244746 0.191024
O O8 0.556024 0.276879 0.030424
O O9 0.795552 0.500000 0.213095
O O10 0.834925 0.742329 0.130283
O O11 0.827233 0.718865 0.252469
O O12 0.750000 0.750000 0.500000
O O13 0.638036 0.759189 0.543071
O O14 0.649279 0.788767 0.650254
O O15 0.686379 0.000000 0.550941
O O16 0.973317 0.762551 0.418149
O O17 0.902632 0.000000 0.460246
O O18 0.026574 0.500000 0.388804
O O19 0.000000 0.332957 0.500000
O O20 0.884858 0.000000 0.063602
O O21 0.616326 0.000000 0.746008
#
# Coordination Sequence:
#
# PCOD9180288 Si02
#       8
#     8   8   8   8   8   8   8   8
#     4   9  17  29  44  62  86 114 142 174 214 257
#     4   8  14  25  40  56  77 106 139 173 208 248
#     4   9  16  26  40  59  84 113 143 172 206 251
#     4  11  22  34  46  62  86 115 148 184 217 249
#     4  10  19  32  48  63  83 113 146 180 217 253
#     4   9  17  29  45  65  85 106 138 177 215 257
#     4   8  14  24  37  56  81 107 135 169 209 249
#     4   9  18  30  42  58  82 112 146 181 212 244
#
# _framework density 14.844562
#
# number of rings (size 3 to 8) (size 9 to 14) (size 15 to 20)
#    0.000    2.875    0.000    2.625    0.000    6.000 
#    0.000    5.000    0.000    0.000    0.000    0.000 
#    0.000    1.000    0.000    3.250    0.000    4.750 
#
# Total GULP energy -178202.374948 kJ/mol
# GULP energy per Si atom -5568.824217 kJ/mol
# Density = 1.481078 g / cm^3
# Si number density = 14.844562 Si / 1000 Ang^3
#
#
#
# Elastic Constant Matrix: (Units=GPa)
#
#
# Indices 1 2 3 4 5 6 
#
# 1 82.8842 41.6980 51.1062 0.0004 -21.4348 -0.0002
# 2 41.6980 52.3158 53.4649 0.0005 -11.8420 -0.0012
# 3 51.1062 53.4649 113.4194 0.0008 -26.4990 -0.0007
# 4 0.0004 0.0005 0.0008 24.9934 -0.0008 -4.4522
# 5 -21.4348 -11.8420 -26.4990 -0.0008 23.2852 0.0003
# 6 -0.0002 -0.0012 -0.0007 -4.4522 0.0003 23.0444
#
#
#
# Elastic Compliance Matrix: (Units=1/GPa)
#
#
# Indices 1 2 3 4 5 6 
#
# 1 0.023439 -0.015547 -0.000053 0.000000 0.013609 -0.000001
# 2 -0.015547 0.047229 -0.017695 0.000000 -0.010429 0.000002
# 3 -0.000053 -0.017695 0.020525 0.000000 0.014311 0.000000
# 4 0.000000 0.000000 0.000000 0.041437 0.000002 0.008006
# 5 0.013609 -0.010429 0.014311 0.000002 0.066455 -0.000001
# 6 -0.000001 0.000002 0.000000 0.008006 -0.000001 0.044941
#
#
# Mechanical properties :
#
#
# Convention : Reuss Voigt Hill
#
# Bulk Modulus (GPa) = 40.64447 60.12861 50.38654
# Shear Modulus (GPa) = 15.68304 21.08797 18.38551
#
# Velocity S-wave (km/s) = 3.25389 3.77315 3.52310
# Velocity P-wave (km/s) = 6.44643 7.71853 7.11098
#
# Compressibility (1/GPa) = 0.02460359
#
# Stress axis : x y z
#
# Youngs Moduli (GPa) = 42.66456 21.17354 48.72046
#
# Poissons Ratio (x) = 0.32918 0.00258
# Poissons Ratio (y) = 0.66330 0.86209
# Poissons Ratio (z) = 0.00226 0.37466
#
# Static dielectric constant tensor:
#      x y z
#    x 1.474410 0.000000 -0.010870 
#    y 0.000000 1.496550 0.000000 
#    z -0.010870 0.000000 1.495140 
# 
# From -- ./inp_files/326826.got.cif
#   From: 2010.05.17/outbox.cif.g08.bks.cpg/sg12_164_cif.got.tgz:326826.got - 2010.06.03 13:09:07.
