data_PCOD9180863
_publ_section_title
;
Structure prediction by ZEFSAII (Michael W. Deem and Ramdas Pophale) SiO2 
 PCOD9180863
Probable space group: C 2/M
;
_chemical_formula_sum "Si O2"
_cell_formula_units_Z 48
_cell_length_a 27.622797
_cell_length_b 7.379138
_cell_length_c 11.214783
_cell_angle_alpha 90.000000
_cell_angle_beta 67.195212
_cell_angle_gamma 90.000000
_cell_volume 2107.246576
_symmetry_space_group_name_H-M "C 2/M"
_symmetry_group_IT_number 12
_symmetry_cell_setting 'monoclinic'
loop_
_space_group_symop_operation_xyz
x,y,z
-x,y,-z
-x,-y,-z
x,-y,z
1/2+x,1/2+y,z
1/2-x,1/2+y,-z
1/2-x,1/2-y,-z
1/2+x,1/2-y,z
loop_
_atom_site_type_symbol
_atom_site_label
_atom_site_fract_x
_atom_site_fract_y
_atom_site_fract_z
Si Si1 0.853046 0.779196 0.646956
Si Si2 0.361466 0.703690 0.146459
Si Si3 0.536060 0.278816 0.352650
Si Si4 0.745252 0.786048 0.866986
Si Si5 0.964441 0.779446 0.919987
Si Si6 0.186749 0.217588 0.567284
O O1 0.904882 0.722351 0.667462
O O2 0.798858 0.720079 0.757748
O O3 0.845523 0.722423 0.517613
O O4 0.854164 0.000000 0.647789
O O5 0.380716 0.500000 0.157123
O O6 0.306984 0.695039 0.129438
O O7 0.343143 0.790896 0.287981
O O8 0.406152 0.779427 0.017409
O O9 0.500000 0.222750 0.500000
O O10 0.534067 0.500000 0.352782
O O11 0.523055 0.220010 0.228495
O O12 0.740432 0.000000 0.845851
O O13 0.750000 0.750000 0.000000
O O14 0.966756 0.000000 0.911375
O O15 0.000000 0.725225 0.000000
O O16 0.250000 0.250000 0.500000
O O17 0.183548 0.000000 0.575529
#
# Coordination Sequence:
#
# PCOD9180863 Si02
#       6
#     8   8   8   8   8   8
#     4   9  18  31  47  70 104 137 167 211 263 315
#     4  10  20  33  52  77 108 138 173 219 268 322
#     4   9  17  28  45  68  98 135 173 211 262 322
#     4  11  21  34  53  75 105 140 175 217 267 321
#     4   9  18  31  48  73 104 137 174 221 272 317
#     4  10  19  32  51  76 106 138 174 212 259 319
#
# _framework density 22.778541000000001
#
# number of rings (size 3 to 8) (size 9 to 14) (size 15 to 20)
#    0.000    2.333    1.667    1.500    2.333    2.667 
#    0.000    0.000    0.000    0.500    0.000    0.000 
#    0.000    6.333    0.000    0.000    0.000    0.000 
#
# Total GULP energy -133889.973107 kJ/mol
# GULP energy per Si atom -5578.748879 kJ/mol
# Density = 2.272670 g / cm^3
# Si number density = 22.778541 Si / 1000 Ang^3
#
#
#
# Elastic Constant Matrix: (Units=GPa)
#
#
# Indices 1 2 3 4 5 6 
#
# 1 140.4026 -2.6849 91.0368 0.0000 11.1195 0.0000
# 2 -2.6849 83.9525 2.0001 0.0000 -2.8400 0.0000
# 3 91.0368 2.0001 224.3164 0.0000 19.6424 0.0000
# 4 0.0000 0.0000 0.0000 21.3425 0.0000 -3.6028
# 5 11.1195 -2.8400 19.6424 0.0000 46.5555 0.0000
# 6 0.0000 0.0000 0.0000 -3.6028 0.0000 9.6910
#
#
#
# Elastic Compliance Matrix: (Units=1/GPa)
#
#
# Indices 1 2 3 4 5 6 
#
# 1 0.009699 0.000380 -0.003882 0.000000 -0.000655 0.000000
# 2 0.000380 0.011958 -0.000329 0.000000 0.000777 0.000000
# 3 -0.003882 -0.000329 0.006186 0.000000 -0.001703 0.000000
# 4 0.000000 0.000000 0.000000 0.049992 0.000000 0.018585
# 5 -0.000655 0.000777 -0.001703 0.000000 0.022402 0.000000
# 6 0.000000 0.000000 0.000000 0.018585 0.000000 0.110097
#
#
# Mechanical properties :
#
#
# Convention : Reuss Voigt Hill
#
# Bulk Modulus (GPa) = 49.55266 69.93060 59.74163
# Shear Modulus (GPa) = 22.24970 39.40578 30.82774
#
# Velocity S-wave (km/s) = 3.12874 4.16378 3.68281
# Velocity P-wave (km/s) = 5.90367 7.34050 6.66094
#
# Compressibility (1/GPa) = 0.02018055
#
# Stress axis : x y z
#
# Youngs Moduli (GPa) = 103.10621 83.62735 161.66710
#
# Poissons Ratio (x) = -0.03182 0.62762
# Poissons Ratio (y) = -0.03923 0.05321
# Poissons Ratio (z) = 0.40027 0.02752
#
# Static dielectric constant tensor:
#      x y z
#    x 1.751440 0.000000 0.043230 
#    y 0.000000 1.871660 0.000000 
#    z 0.043230 0.000000 1.879370 
# 
# From -- ./inp_files/172898.got.cif
#   From: 2010.05.17/outbox.cif.g08.bks.cpg/sg12_87_cif.got.tgz:172898.got - 2010.06.03 13:09:07.
