data_PCOD9180457
_publ_section_title
;
Structure prediction by ZEFSAII (Michael W. Deem and Ramdas Pophale) SiO2 
 PCOD9180457
Probable space group: C 2/M
;
_chemical_formula_sum "Si O2"
_cell_formula_units_Z 58
_cell_length_a 19.474532
_cell_length_b 19.912170
_cell_length_c 8.853537
_cell_angle_alpha 90.000000
_cell_angle_beta 45.766681
_cell_angle_gamma 90.000000
_cell_volume 2459.924022
_symmetry_space_group_name_H-M "C 2/M"
_symmetry_group_IT_number 12
_symmetry_cell_setting 'monoclinic'
loop_
_space_group_symop_operation_xyz
x,y,z
-x,y,-z
-x,-y,-z
x,-y,z
1/2+x,1/2+y,z
1/2-x,1/2+y,-z
1/2-x,1/2-y,-z
1/2+x,1/2-y,z
loop_
_atom_site_type_symbol
_atom_site_label
_atom_site_fract_x
_atom_site_fract_y
_atom_site_fract_z
Si Si1 0.435714 0.575547 0.239891
Si Si2 0.069113 0.394710 0.705864
Si Si3 0.458774 0.763581 0.404330
Si Si4 0.589749 0.632518 0.185053
Si Si5 0.853785 0.575470 0.975235
Si Si6 0.687985 0.345781 0.350447
Si Si7 0.232879 0.422670 0.220406
Si Si8 0.000000 0.500000 0.000000
O O1 0.404188 0.500000 0.254354
O O2 0.512552 0.577263 0.258063
O O3 0.349633 0.620214 0.437440
O O4 0.500000 0.600736 0.000000
O O5 0.047047 0.316287 0.722329
O O6 0.160863 0.407785 0.464444
O O7 0.078196 0.439587 0.840292
O O8 0.969244 0.426919 0.799334
O O9 0.500000 0.793550 0.500000
O O10 0.531984 0.702330 0.262756
O O11 0.353502 0.730038 0.585693
O O12 0.632833 0.624981 0.286314
O O13 0.676743 0.625671 0.935011
O O14 0.817318 0.500000 0.069477
O O15 0.797516 0.634644 0.149953
O O16 0.825883 0.585911 0.843621
O O17 0.265927 0.500000 0.176893
#
# Coordination Sequence:
#
# PCOD9180457 Si02
#       8
#     8   8   8   8   8   8   8   2
#     4  10  19  32  49  80 118 167 210 248 292 352
#     4  12  23  42  59  84 115 159 204 247 306 356
#     4   9  19  37  63  92 124 155 192 251 309 366
#     4   9  19  36  58  90 123 155 198 251 310 363
#     4  10  19  34  61  92 119 151 199 257 305 349
#     4   9  19  36  58  90 123 155 198 251 310 363
#     4  10  19  34  61  92 119 151 199 257 305 349
#     4  12  28  48  58  80 116 174 206 258 296 364
#
# _framework density 23.577964000000001
#
# number of rings (size 3 to 8) (size 9 to 14) (size 15 to 20)
#    0.000    2.069    1.379    3.310    0.000    4.414 
#    7.448    4.138    0.000    1.655    0.000    0.000 
#    0.000    0.000    0.000    0.000    0.000    0.000 
#
# Total GULP energy -161513.871490 kJ/mol
# GULP energy per Si atom -5569.443844 kJ/mol
# Density = 2.352430 g / cm^3
# Si number density = 23.577964 Si / 1000 Ang^3
#
#
#
# Elastic Constant Matrix: (Units=GPa)
#
#
# Indices 1 2 3 4 5 6 
#
# 1 56.4612 10.7274 -1.5693 0.0000 -10.6425 0.0000
# 2 10.7274 77.4872 33.5834 0.0000 0.6701 0.0000
# 3 -1.5693 33.5834 145.7566 0.0000 -3.6661 0.0000
# 4 0.0000 0.0000 0.0000 -906.5261 0.0000 539.4978
# 5 -10.6425 0.6701 -3.6661 0.0000 25.4435 0.0000
# 6 0.0000 0.0000 0.0000 539.4978 0.0000 -311.8174
#
#
#
# Elastic Compliance Matrix: (Units=1/GPa)
#
#
# Indices 1 2 3 4 5 6 
#
# 1 0.020012 -0.003369 0.001209 0.000000 0.008634 0.000000
# 2 -0.003369 0.014923 -0.003533 0.000000 -0.002311 0.000000
# 3 0.001209 -0.003533 0.007731 0.000000 0.001713 0.000000
# 4 0.000000 0.000000 0.000000 0.037178 0.000000 0.064324
# 5 0.008634 -0.002311 0.001713 0.000000 0.043222 0.000000
# 6 0.000000 0.000000 0.000000 0.064324 0.000000 0.108084
#
#
# Mechanical properties :
#
#
# Convention : Reuss Voigt Hill
#
# Bulk Modulus (GPa) = 31.96919 40.57644 36.27281
# Shear Modulus (GPa) = 19.76581 -222.78244 -101.50832
#
# Velocity S-wave (km/s) = 2.89851 -9.73102 -6.56854
# Velocity P-wave (km/s) = 4.97897 10.44079 6.48922
#
# Compressibility (1/GPa) = 0.03128012
#
# Stress axis : x y z
#
# Youngs Moduli (GPa) = 49.96906 67.01117 129.35239
#
# Poissons Ratio (x) = 0.22577 -0.15637
# Poissons Ratio (y) = 0.16835 0.45697
# Poissons Ratio (z) = -0.06041 0.23673
#
# Static dielectric constant tensor:
#      x y z
#    x 2.096290 0.000000 0.144240 
#    y 0.000000 2.062010 0.000000 
#    z 0.144240 0.000000 1.991840 
# 
# From -- ./inp_files/99266.got.cif
#   From: 2010.05.17/outbox.cif.g08.bks.cpg/sg12_50_cif.got.tgz:99266.got - 2010.06.03 13:09:07.
