data_PCOD9180627
_publ_section_title
;
Structure prediction by ZEFSAII (Michael W. Deem and Ramdas Pophale) SiO2 
 PCOD9180627
Probable space group: C 2/M
;
_chemical_formula_sum "Si O2"
_cell_formula_units_Z 56
_cell_length_a 19.263929
_cell_length_b 8.974468
_cell_length_c 21.615587
_cell_angle_alpha 90.000000
_cell_angle_beta 123.564541
_cell_angle_gamma 90.000000
_cell_volume 3113.888138
_symmetry_space_group_name_H-M "C 2/M"
_symmetry_group_IT_number 12
_symmetry_cell_setting 'monoclinic'
loop_
_space_group_symop_operation_xyz
x,y,z
-x,y,-z
-x,-y,-z
x,-y,z
1/2+x,1/2+y,z
1/2-x,1/2+y,-z
1/2-x,1/2-y,-z
1/2+x,1/2-y,z
loop_
_atom_site_type_symbol
_atom_site_label
_atom_site_fract_x
_atom_site_fract_y
_atom_site_fract_z
Si Si1 0.803651 0.322534 0.080491
Si Si2 0.160933 0.824242 0.238626
Si Si3 0.377966 0.175632 0.540593
Si Si4 0.739391 0.174011 0.396286
Si Si5 0.951368 0.677376 0.316193
Si Si6 0.218549 0.822663 0.796373
Si Si7 0.493910 0.174353 0.192967
O O1 0.789768 0.500000 0.077261
O O2 0.782982 0.248682 0.136190
O O3 0.902732 0.299877 0.119613
O O4 0.750000 0.250000 0.000000
O O5 0.208294 0.770974 0.323909
O O6 0.203450 0.738221 0.203165
O O7 0.065478 0.776023 0.200641
O O8 0.169212 0.000000 0.234480
O O9 0.326314 0.190549 0.579456
O O10 0.327838 0.270450 0.465869
O O11 0.473241 0.218813 0.601168
O O12 0.375752 0.000000 0.523145
O O13 0.741499 0.000000 0.380146
O O14 0.934888 0.500000 0.314560
O O15 0.865776 0.766406 0.279242
O O16 0.983905 0.699736 0.261813
O O17 0.218808 0.000000 0.800386
O O18 0.516654 0.000000 0.196350
#
# Coordination Sequence:
#
# PCOD9180627 Si02
#       7
#     8   8   8   8   8   8   8
#     4  10  21  40  65  91 119 147 180 221 268 324
#     4  12  23  36  55  81 113 149 190 233 279 331
#     4   9  17  31  51  77 108 144 185 232 283 331
#     4  10  19  32  50  76 110 146 185 233 284 331
#     4   9  17  34  56  79 110 145 186 233 281 332
#     4  11  23  38  58  83 114 149 186 228 278 331
#     4   9  18  35  58  84 113 147 182 224 273 325
#
# _framework density 17.983947000000001
#
# number of rings (size 3 to 8) (size 9 to 14) (size 15 to 20)
#    0.000    2.000    1.429    4.286    0.000    4.000 
#    0.000    1.429    0.000    8.571    0.000    0.000 
#    0.000    0.000    0.000    0.000    0.000    0.000 
#
# Total GULP energy -156371.177311 kJ/mol
# GULP energy per Si atom -5584.684904 kJ/mol
# Density = 1.794302 g / cm^3
# Si number density = 17.983947 Si / 1000 Ang^3
#
#
#
# Elastic Constant Matrix: (Units=GPa)
#
#
# Indices 1 2 3 4 5 6 
#
# 1 60.9901 55.1750 26.8597 0.0000 5.6104 0.0000
# 2 55.1750 107.1708 46.7607 0.0000 10.7168 0.0000
# 3 26.8597 46.7607 78.0287 0.0000 21.7387 0.0000
# 4 0.0000 0.0000 0.0000 32.9465 0.0000 4.1444
# 5 5.6104 10.7168 21.7387 0.0000 15.7052 0.0000
# 6 0.0000 0.0000 0.0000 4.1444 0.0000 29.7497
#
#
#
# Elastic Compliance Matrix: (Units=1/GPa)
#
#
# Indices 1 2 3 4 5 6 
#
# 1 0.030870 -0.015173 -0.002190 0.000000 0.002358 0.000000
# 2 -0.015173 0.020181 -0.007397 0.000000 0.001888 0.000000
# 3 -0.002190 -0.007397 0.026659 0.000000 -0.031070 0.000000
# 4 0.000000 0.000000 0.000000 0.030894 0.000000 -0.004304
# 5 0.002358 0.001888 -0.031070 0.000000 0.104549 0.000000
# 6 0.000000 0.000000 0.000000 -0.004304 0.000000 0.034213
#
#
# Mechanical properties :
#
#
# Convention : Reuss Voigt Hill
#
# Bulk Modulus (GPa) = 35.47478 55.97558 45.72518
# Shear Modulus (GPa) = 16.32475 23.50657 19.91566
#
# Velocity S-wave (km/s) = 3.01614 3.61929 3.33139
# Velocity P-wave (km/s) = 5.64784 6.97557 6.34652
#
# Compressibility (1/GPa) = 0.02818904
#
# Stress axis : x y z
#
# Youngs Moduli (GPa) = 32.39368 49.55121 37.51100
#
# Poissons Ratio (x) = 0.75184 0.08217
# Poissons Ratio (y) = 0.49151 0.27747
# Poissons Ratio (z) = 0.07096 0.36654
#
# Static dielectric constant tensor:
#      x y z
#    x 1.613450 0.000000 0.007580 
#    y 0.000000 1.595350 0.000000 
#    z 0.007580 0.000000 1.604570 
# 
# From -- ./inp_files/314445.got.cif
#   From: 2010.05.17/outbox.cif.g08.bks.cpg/sg12_158_cif.got.tgz:314445.got - 2010.06.03 13:09:07.
