data_PCOD9180896
_publ_section_title
;
Structure prediction by ZEFSAII (Michael W. Deem and Ramdas Pophale) SiO2 
 PCOD9180896
Probable space group: C 2/M
;
_chemical_formula_sum "Si O2"
_cell_formula_units_Z 48
_cell_length_a 12.176009
_cell_length_b 13.870492
_cell_length_c 12.826899
_cell_angle_alpha 90.000000
_cell_angle_beta 81.676519
_cell_angle_gamma 90.000000
_cell_volume 2143.480895
_symmetry_space_group_name_H-M "C 2/M"
_symmetry_group_IT_number 12
_symmetry_cell_setting 'monoclinic'
loop_
_space_group_symop_operation_xyz
x,y,z
-x,y,-z
-x,-y,-z
x,-y,z
1/2+x,1/2+y,z
1/2-x,1/2+y,-z
1/2-x,1/2-y,-z
1/2+x,1/2-y,z
loop_
_atom_site_type_symbol
_atom_site_label
_atom_site_fract_x
_atom_site_fract_y
_atom_site_fract_z
Si Si1 0.476282 0.797059 0.649547
Si Si2 0.605258 0.393430 0.849047
Si Si3 0.101370 0.111477 0.609674
Si Si4 0.769232 0.610376 0.022446
Si Si5 0.830160 0.384635 0.485043
Si Si6 0.092670 0.746490 0.117565
O O1 0.498896 0.684504 0.621211
O O2 0.397664 0.846199 0.575956
O O3 0.599709 0.842709 0.620893
O O4 0.426014 0.805862 0.770291
O O5 0.551336 0.500000 0.863797
O O6 0.644523 0.383242 0.724111
O O7 0.699306 0.390478 0.923306
O O8 0.515149 0.312246 0.882518
O O9 0.201542 0.140963 0.519632
O O10 0.071689 0.000000 0.594945
O O11 0.784953 0.500000 0.054021
O O12 0.877697 0.669595 0.975245
O O13 0.695120 0.677254 0.107675
O O14 0.836062 0.500000 0.482251
#
# Coordination Sequence:
#
# PCOD9180896 Si02
#       6
#     8   8   8   8   8   8
#     4  10  19  32  51  77 105 132 167 211 256 298
#     4   9  17  32  55  79 102 132 172 212 248 293
#     4   9  18  32  52  78 106 135 167 206 251 300
#     4  10  20  34  53  76 102 134 173 214 253 296
#     4  10  20  35  55  78 103 132 169 210 252 300
#     4  10  20  31  50  79 105 130 167 215 258 296
#
# _framework density 22.39348
#
# number of rings (size 3 to 8) (size 9 to 14) (size 15 to 20)
#    0.000    2.333    0.000    3.500    0.000    4.667 
#    0.000    1.667    0.000   11.000    0.000   30.333 
#    0.000    0.000    0.000    0.000    0.000    0.000 
#
# Total GULP energy -134137.862496 kJ/mol
# GULP energy per Si atom -5589.077604 kJ/mol
# Density = 2.234251 g / cm^3
# Si number density = 22.393480 Si / 1000 Ang^3
#
#
#
# Elastic Constant Matrix: (Units=GPa)
#
#
# Indices 1 2 3 4 5 6 
#
# 1 49.9080 11.8829 19.4593 0.0000 -17.1276 0.0000
# 2 11.8829 95.5612 17.9291 0.0000 -22.6899 0.0000
# 3 19.4593 17.9291 116.0537 0.0000 -24.5291 0.0000
# 4 0.0000 0.0000 0.0000 25.1826 0.0000 -0.8350
# 5 -17.1276 -22.6899 -24.5291 0.0000 32.0567 0.0000
# 6 0.0000 0.0000 0.0000 -0.8350 0.0000 26.5247
#
#
#
# Elastic Compliance Matrix: (Units=1/GPa)
#
#
# Indices 1 2 3 4 5 6 
#
# 1 0.024789 0.000086 -0.001619 0.000000 0.012066 0.000000
# 2 0.000086 0.012579 -0.000079 0.000000 0.008889 0.000000
# 3 -0.001619 -0.000079 0.010385 0.000000 0.007026 0.000000
# 4 0.000000 0.000000 0.000000 0.039751 0.000000 0.001251
# 5 0.012066 0.008889 0.007026 0.000000 0.049309 0.000000
# 6 0.000000 0.000000 0.000000 0.001251 0.000000 0.037740
#
#
# Mechanical properties :
#
#
# Convention : Reuss Voigt Hill
#
# Bulk Modulus (GPa) = 22.45713 40.00726 31.23220
# Shear Modulus (GPa) = 25.95767 30.90291 28.43029
#
# Velocity S-wave (km/s) = 3.40834 3.71886 3.56698
# Velocity P-wave (km/s) = 5.05364 6.02862 5.56253
#
# Compressibility (1/GPa) = 0.04452928
#
# Stress axis : x y z
#
# Youngs Moduli (GPa) = 40.34096 79.49597 96.28943
#
# Poissons Ratio (x) = -0.00687 0.15594
# Poissons Ratio (y) = -0.00349 0.00761
# Poissons Ratio (z) = 0.06533 0.00628
#
# Static dielectric constant tensor:
#      x y z
#    x 1.837500 0.000000 0.015890 
#    y 0.000000 1.843760 0.000000 
#    z 0.015890 0.000000 1.861270 
# 
# From -- ./inp_files/213254.got.cif
#   From: 2010.05.17/outbox.cif.g08.bks.cpg/sg12_107_cif.got.tgz:213254.got - 2010.06.03 13:09:07.
