data_PCOD9180999
_publ_section_title
;
Structure prediction by ZEFSAII (Michael W. Deem and Ramdas Pophale) SiO2 
 PCOD9180999
Probable space group: C 2/M
;
_chemical_formula_sum "Si O2"
_cell_formula_units_Z 40
_cell_length_a 20.940391
_cell_length_b 24.810108
_cell_length_c 5.293938
_cell_angle_alpha 90.000000
_cell_angle_beta 65.818682
_cell_angle_gamma 90.000000
_cell_volume 2509.042045
_symmetry_space_group_name_H-M "C 2/M"
_symmetry_group_IT_number 12
_symmetry_cell_setting 'monoclinic'
loop_
_space_group_symop_operation_xyz
x,y,z
-x,y,-z
-x,-y,-z
x,-y,z
1/2+x,1/2+y,z
1/2-x,1/2+y,-z
1/2-x,1/2-y,-z
1/2+x,1/2-y,z
loop_
_atom_site_type_symbol
_atom_site_label
_atom_site_fract_x
_atom_site_fract_y
_atom_site_fract_z
Si Si1 0.262624 0.685286 0.012570
Si Si2 0.581846 0.063209 0.941299
Si Si3 0.813430 0.206391 0.430239
Si Si4 0.620120 0.125337 0.392870
Si Si5 0.043548 0.267112 0.669850
O O1 0.289587 0.667905 0.695412
O O2 0.250000 0.750000 0.000000
O O3 0.317564 0.679527 0.149990
O O4 0.192575 0.655006 0.206655
O O5 0.623769 0.088302 0.636292
O O6 0.597543 0.000000 0.945975
O O7 0.500000 0.068293 0.000000
O O8 0.595837 0.093616 0.182212
O O9 0.750000 0.250000 0.500000
O O10 0.884864 0.235011 0.393239
O O11 0.566975 0.172902 0.553968
O O12 0.000000 0.245404 0.500000
O O13 0.000000 0.268111 0.000000
#
# Coordination Sequence:
#
# PCOD9180999 Si02
#       5
#     8   8   8   8   8
#     4  10  19  32  52  70  95 126 165 212 247 321
#     4  11  24  39  50  68 100 136 176 231 279 296
#     4  10  19  34  47  64 101 133 156 209 250 311
#     4  12  21  35  54  73  93 131 181 224 260 302
#     4  12  23  31  48  75 100 127 176 224 247 285
#
# _framework density 15.942337999999999
#
# number of rings (size 3 to 8) (size 9 to 14) (size 15 to 20)
#    0.000    1.000    4.000    6.600    5.600    1.600 
#    0.000    0.000    0.000    0.000    0.000    0.000 
#    0.000    0.000    0.000    0.000    0.000  252.000 
#
# Total GULP energy -111556.493794 kJ/mol
# GULP energy per Si atom -5577.824690 kJ/mol
# Density = 1.590605 g / cm^3
# Si number density = 15.942338 Si / 1000 Ang^3
#
#
#
# Elastic Constant Matrix: (Units=GPa)
#
#
# Indices 1 2 3 4 5 6 
#
# 1 108.0363 28.3997 58.3852 0.0000 10.8436 0.0000
# 2 28.3997 45.3243 38.2610 0.0000 -6.9765 0.0000
# 3 58.3852 38.2610 148.7010 0.0000 21.7149 0.0000
# 4 0.0000 0.0000 0.0000 15.1222 0.0000 2.0447
# 5 10.8436 -6.9765 21.7149 0.0000 36.4664 0.0000
# 6 0.0000 0.0000 0.0000 2.0447 0.0000 18.5988
#
#
#
# Elastic Compliance Matrix: (Units=1/GPa)
#
#
# Indices 1 2 3 4 5 6 
#
# 1 0.012764 -0.005918 -0.003033 0.000000 -0.003122 0.000000
# 2 -0.005918 0.035276 -0.008757 0.000000 0.013723 0.000000
# 3 -0.003033 -0.008757 0.011261 0.000000 -0.007479 0.000000
# 4 0.000000 0.000000 0.000000 0.067126 0.000000 -0.007380
# 5 -0.003122 0.013723 -0.007479 0.000000 0.035430 0.000000
# 6 0.000000 0.000000 0.000000 -0.007380 0.000000 0.054578
#
#
# Mechanical properties :
#
#
# Convention : Reuss Voigt Hill
#
# Bulk Modulus (GPa) = 41.86678 61.35037 51.60857
# Shear Modulus (GPa) = 19.24460 25.83853 22.54156
#
# Velocity S-wave (km/s) = 3.47816 4.03022 3.76432
# Velocity P-wave (km/s) = 6.51525 7.76035 7.16490
#
# Compressibility (1/GPa) = 0.02388529
#
# Stress axis : x y z
#
# Youngs Moduli (GPa) = 78.34339 28.34792 88.80065
#
# Poissons Ratio (x) = 0.16776 0.26935
# Poissons Ratio (y) = 0.46364 0.77762
# Poissons Ratio (z) = 0.23763 0.24824
#
# Static dielectric constant tensor:
#      x y z
#    x 1.563690 0.000000 0.031200 
#    y 0.000000 1.437180 0.000000 
#    z 0.031200 0.000000 1.536510 
# 
# From -- ./inp_files/11400.got.cif
#   From: 2010.05.17/outbox.cif.g08.bks.cpg/sg12_6_cif.got.tgz:11400.got - 2010.06.03 13:09:07.
