data_PCOD9180970
_publ_section_title
;
Structure prediction by ZEFSAII (Michael W. Deem and Ramdas Pophale) SiO2 
 PCOD9180970
Probable space group: C 2/M
;
_chemical_formula_sum "Si O2"
_cell_formula_units_Z 56
_cell_length_a 17.731021
_cell_length_b 16.569810
_cell_length_c 17.033896
_cell_angle_alpha 90.000000
_cell_angle_beta 38.625771
_cell_angle_gamma 90.000000
_cell_volume 3123.997180
_symmetry_space_group_name_H-M "C 2/M"
_symmetry_group_IT_number 12
_symmetry_cell_setting 'monoclinic'
loop_
_space_group_symop_operation_xyz
x,y,z
-x,y,-z
-x,-y,-z
x,-y,z
1/2+x,1/2+y,z
1/2-x,1/2+y,-z
1/2-x,1/2-y,-z
1/2+x,1/2-y,z
loop_
_atom_site_type_symbol
_atom_site_label
_atom_site_fract_x
_atom_site_fract_y
_atom_site_fract_z
Si Si1 0.855604 0.088720 0.610409
Si Si2 0.831420 0.407521 0.724016
Si Si3 0.288762 0.757658 0.645157
Si Si4 0.044419 0.198608 0.757713
Si Si5 0.451310 0.816412 0.376544
Si Si6 0.920658 0.907417 0.986037
Si Si7 0.286166 0.409232 0.483527
O O1 0.805345 0.175055 0.680790
O O2 0.817074 0.089490 0.550293
O O3 0.000000 0.091167 0.500000
O O4 0.816686 0.000000 0.674395
O O5 0.838934 0.500000 0.688505
O O6 0.805016 0.340384 0.679780
O O7 0.954498 0.379423 0.665002
O O8 0.718649 0.403683 0.875263
O O9 0.156795 0.761240 0.713281
O O10 0.393457 0.762195 0.493341
O O11 0.991572 0.262431 0.738804
O O12 0.107435 0.131101 0.652333
O O13 0.956496 0.155966 0.890454
O O14 0.334771 0.859809 0.434812
O O15 0.948393 0.000000 0.938778
O O16 0.000000 0.892047 0.000000
O O17 0.267885 0.500000 0.470734
#
# Coordination Sequence:
#
# PCOD9180970 Si02
#       7
#     8   8   8   8   8   8   8
#     4  10  19  32  51  79 111 149 189 226 277 335
#     4  11  24  38  59  86 115 154 194 236 285 339
#     4  11  20  36  57  83 118 148 187 231 285 344
#     4  11  20  35  56  82 111 150 187 232 285 341
#     4  11  21  35  52  84 120 146 183 226 294 353
#     4  10  21  39  58  80 109 148 198 246 280 329
#     4  10  19  32  52  80 114 147 179 229 291 342
#
# _framework density 17.925753
#
# number of rings (size 3 to 8) (size 9 to 14) (size 15 to 20)
#    0.000    1.429    4.286    3.000    0.000    4.000 
#    0.000    0.000    0.000    0.000    0.000    3.000 
#    0.000    0.000    0.000    0.000    0.000    0.000 
#
# Total GULP energy -156187.367887 kJ/mol
# GULP energy per Si atom -5578.120282 kJ/mol
# Density = 1.788495 g / cm^3
# Si number density = 17.925753 Si / 1000 Ang^3
#
#
#
# Elastic Constant Matrix: (Units=GPa)
#
#
# Indices 1 2 3 4 5 6 
#
# 1 38.4316 11.7934 3.3454 0.0000 -5.4365 0.0000
# 2 11.7934 139.9130 17.2826 0.0000 9.1967 0.0000
# 3 3.3454 17.2826 34.8619 0.0000 -3.5023 0.0000
# 4 0.0000 0.0000 0.0000 27.1370 0.0000 7.1952
# 5 -5.4365 9.1967 -3.5023 0.0000 14.6404 0.0000
# 6 0.0000 0.0000 0.0000 7.1952 0.0000 28.4675
#
#
#
# Elastic Compliance Matrix: (Units=1/GPa)
#
#
# Indices 1 2 3 4 5 6 
#
# 1 0.028829 -0.003291 0.000152 0.000000 0.012808 0.000000
# 2 -0.003291 0.008507 -0.004673 0.000000 -0.007684 0.000000
# 3 0.000152 -0.004673 0.032058 0.000000 0.010661 0.000000
# 4 0.000000 0.000000 0.000000 0.039497 0.000000 -0.009983
# 5 0.012808 -0.007684 0.010661 0.000000 0.080437 0.000000
# 6 0.000000 0.000000 0.000000 -0.009983 0.000000 0.037651
#
#
# Mechanical properties :
#
#
# Convention : Reuss Voigt Hill
#
# Bulk Modulus (GPa) = 18.59821 30.89437 24.74629
# Shear Modulus (GPa) = 19.19192 26.10134 22.64663
#
# Velocity S-wave (km/s) = 3.27560 3.82000 3.55823
# Velocity P-wave (km/s) = 4.97029 6.06041 5.54222
#
# Compressibility (1/GPa) = 0.05376862
#
# Stress axis : x y z
#
# Youngs Moduli (GPa) = 34.68769 117.55003 31.19359
#
# Poissons Ratio (x) = 0.38681 -0.00473
# Poissons Ratio (y) = 0.11414 0.14578
# Poissons Ratio (z) = -0.00526 0.54936
#
# Static dielectric constant tensor:
#      x y z
#    x 1.620760 0.000000 0.012140 
#    y 0.000000 1.686820 0.000000 
#    z 0.012140 0.000000 1.583870 
# 
# From -- ./inp_files/156158.got.cif
#   From: 2010.05.17/outbox.cif.g08.bks.cpg/sg12_79_cif.got.tgz:156158.got - 2010.06.03 13:09:07.
