data_PCOD9180147
_publ_section_title
;
Structure prediction by ZEFSAII (Michael W. Deem and Ramdas Pophale) SiO2 
 PCOD9180147
Probable space group: C 2/M
;
_chemical_formula_sum "Si O2"
_cell_formula_units_Z 48
_cell_length_a 21.038198
_cell_length_b 7.600937
_cell_length_c 26.109943
_cell_angle_alpha 90.000000
_cell_angle_beta 146.239259
_cell_angle_gamma 90.000000
_cell_volume 2320.290625
_symmetry_space_group_name_H-M "C 2/M"
_symmetry_group_IT_number 12
_symmetry_cell_setting 'monoclinic'
loop_
_space_group_symop_operation_xyz
x,y,z
-x,y,-z
-x,-y,-z
x,-y,z
1/2+x,1/2+y,z
1/2-x,1/2+y,-z
1/2-x,1/2-y,-z
1/2+x,1/2-y,z
loop_
_atom_site_type_symbol
_atom_site_label
_atom_site_fract_x
_atom_site_fract_y
_atom_site_fract_z
Si Si1 0.234985 0.793401 0.905497
Si Si2 0.572715 0.788307 0.890525
Si Si3 0.185394 0.792523 0.301490
Si Si4 0.151694 0.210526 0.393629
Si Si5 0.414205 0.296773 0.400169
Si Si6 0.585658 0.716692 0.715567
O O1 0.131759 0.775897 0.877487
O O2 0.190454 0.722651 0.821586
O O3 0.257001 0.000000 0.912650
O O4 0.346557 0.721041 0.009200
O O5 0.441553 0.733249 0.805672
O O6 0.578013 0.000000 0.893145
O O7 0.181271 0.721459 0.356944
O O8 0.286659 0.708454 0.336982
O O9 0.210547 0.000000 0.319960
O O10 0.250000 0.250000 0.500000
O O11 0.030979 0.273630 0.334777
O O12 0.141199 0.000000 0.381536
O O13 0.500000 0.217148 0.500000
O O14 0.451470 0.500000 0.418815
O O15 0.414938 0.221436 0.343387
O O16 0.588437 0.500000 0.717375
#
# Coordination Sequence:
#
# PCOD9180147 Si02
#       6
#     8   8   8   8   8   8
#     4   9  17  33  55  80 111 143 178 222 276 328
#     4  10  19  31  54  84 110 140 180 226 271 322
#     4  11  22  37  56  78 111 148 179 221 274 328
#     4  10  20  34  54  78 104 137 177 223 271 317
#     4  10  21  37  58  80 107 144 185 228 268 319
#     4   9  17  34  56  77 105 142 179 219 271 323
#
# _framework density 20.687062000000001
#
# number of rings (size 3 to 8) (size 9 to 14) (size 15 to 20)
#    0.000    2.167    1.667    2.000    0.000    3.667 
#    0.000    2.500    0.000    5.000    0.000    0.000 
#    0.000    0.000    0.000    0.000    0.000    0.000 
#
# Total GULP energy -133990.597093 kJ/mol
# GULP energy per Si atom -5582.941546 kJ/mol
# Density = 2.063998 g / cm^3
# Si number density = 20.687062 Si / 1000 Ang^3
#
#
#
# Elastic Constant Matrix: (Units=GPa)
#
#
# Indices 1 2 3 4 5 6 
#
# 1 73.4231 -6.8266 30.8475 0.0001 -27.8383 0.0003
# 2 -6.8266 42.4920 -9.1919 0.0001 -9.7218 0.0009
# 3 30.8475 -9.1919 131.3550 0.0000 -27.9155 0.0001
# 4 0.0001 0.0001 0.0000 17.3566 0.0000 3.2017
# 5 -27.8383 -9.7218 -27.9155 0.0000 39.6157 0.0001
# 6 0.0003 0.0009 0.0001 3.2017 0.0001 14.9460
#
#
#
# Elastic Compliance Matrix: (Units=1/GPa)
#
#
# Indices 1 2 3 4 5 6 
#
# 1 0.020453 0.006517 -0.001121 0.000000 0.015182 -0.000001
# 2 0.006517 0.028530 0.003443 0.000000 0.014007 -0.000002
# 3 -0.001121 0.003443 0.009561 0.000000 0.006795 0.000000
# 4 0.000000 0.000000 0.000000 0.059985 0.000000 -0.012850
# 5 0.015182 0.014007 0.006795 0.000000 0.044136 -0.000001
# 6 -0.000001 -0.000002 0.000000 -0.012850 -0.000001 0.069660
#
#
# Mechanical properties :
#
#
# Convention : Reuss Voigt Hill
#
# Bulk Modulus (GPa) = 13.11961 30.76979 21.94470
# Shear Modulus (GPa) = 20.82858 29.87973 25.35416
#
# Velocity S-wave (km/s) = 3.17652 3.80461 3.50466
# Velocity P-wave (km/s) = 4.45077 5.84861 5.19691
#
# Compressibility (1/GPa) = 0.07622179
#
# Stress axis : x y z
#
# Youngs Moduli (GPa) = 48.89359 35.05060 104.59122
#
# Poissons Ratio (x) = -0.22842 0.11721
# Poissons Ratio (y) = -0.31863 -0.36008
# Poissons Ratio (z) = 0.05479 -0.12067
#
# Static dielectric constant tensor:
#      x y z
#    x 1.706790 0.000000 -0.036550 
#    y 0.000000 1.803460 0.000000 
#    z -0.036550 0.000000 1.753480 
# 
# From -- ./inp_files/229302.got.cif
#   From: 2010.05.17/outbox.cif.g08.bks.cpg/sg12_115_cif.got.tgz:229302.got - 2010.06.03 13:09:07.
