data_PCOD9180832
_publ_section_title
;
Structure prediction by ZEFSAII (Michael W. Deem and Ramdas Pophale) SiO2 
 PCOD9180832
Probable space group: C 2/M
;
_chemical_formula_sum "Si O2"
_cell_formula_units_Z 56
_cell_length_a 19.805788
_cell_length_b 8.740126
_cell_length_c 29.059334
_cell_angle_alpha 90.000000
_cell_angle_beta 140.876028
_cell_angle_gamma 90.000000
_cell_volume 3174.133145
_symmetry_space_group_name_H-M "C 2/M"
_symmetry_group_IT_number 12
_symmetry_cell_setting 'monoclinic'
loop_
_space_group_symop_operation_xyz
x,y,z
-x,y,-z
-x,-y,-z
x,-y,z
1/2+x,1/2+y,z
1/2-x,1/2+y,-z
1/2-x,1/2-y,-z
1/2+x,1/2-y,z
loop_
_atom_site_type_symbol
_atom_site_label
_atom_site_fract_x
_atom_site_fract_y
_atom_site_fract_z
Si Si1 0.689726 0.818776 0.399152
Si Si2 0.341040 0.183205 0.197413
Si Si3 0.529265 0.682338 0.240635
Si Si4 0.899468 0.814315 0.917746
Si Si5 0.853560 0.184840 0.789700
Si Si6 0.374950 0.317672 0.316695
Si Si7 0.097706 0.681579 0.453368
O O1 0.622225 0.732079 0.325046
O O2 0.810846 0.759677 0.467645
O O3 0.634277 0.791394 0.419597
O O4 0.687085 0.000000 0.389045
O O5 0.421309 0.238030 0.200742
O O6 0.217115 0.225952 0.123752
O O7 0.374871 0.257739 0.263858
O O8 0.347835 0.000000 0.206421
O O9 0.515505 0.500000 0.235324
O O10 0.567641 0.725858 0.209952
O O11 0.897001 0.767611 0.862876
O O12 0.904952 0.000000 0.920826
O O13 0.000000 0.756293 0.000000
O O14 0.736485 0.257326 0.721493
O O15 0.841024 0.000000 0.783566
O O16 0.378344 0.500000 0.318945
O O17 0.479928 0.250177 0.396437
O O18 0.097020 0.500000 0.460639
#
# Coordination Sequence:
#
# PCOD9180832 Si02
#       7
#     8   8   8   8   8   8   8
#     4  10  20  32  50  75 105 139 176 222 267 310
#     4  10  19  32  53  79 106 138 177 218 259 310
#     4  11  21  34  52  76 108 143 177 217 264 316
#     4   8  15  32  58  82 103 134 177 217 255 308
#     4   9  20  36  54  77 107 141 176 215 265 317
#     4  11  20  32  53  78 104 137 180 224 264 312
#     4  10  19  32  51  75 105 138 176 223 268 310
#
# _framework density 17.642612
#
# number of rings (size 3 to 8) (size 9 to 14) (size 15 to 20)
#    0.000    2.143    1.429    3.857    0.000    2.286 
#    0.000    1.429    0.000   15.000    0.000    0.000 
#    0.000    0.000    0.000    0.000    0.000    0.000 
#
# Total GULP energy -156275.056950 kJ/mol
# GULP energy per Si atom -5581.252034 kJ/mol
# Density = 1.760246 g / cm^3
# Si number density = 17.642612 Si / 1000 Ang^3
#
#
#
# Elastic Constant Matrix: (Units=GPa)
#
#
# Indices 1 2 3 4 5 6 
#
# 1 103.3750 26.3850 37.5737 0.0000 14.8490 0.0000
# 2 26.3850 31.9428 12.7940 0.0000 2.2519 -0.0001
# 3 37.5737 12.7940 101.8944 0.0000 20.1145 0.0000
# 4 0.0000 0.0000 0.0000 16.3544 0.0000 5.0522
# 5 14.8490 2.2519 20.1145 0.0000 16.6760 0.0000
# 6 0.0000 -0.0001 0.0000 5.0522 0.0000 24.8518
#
#
#
# Elastic Compliance Matrix: (Units=1/GPa)
#
#
# Indices 1 2 3 4 5 6 
#
# 1 0.014396 -0.010360 -0.002301 0.000000 -0.008644 0.000000
# 2 -0.010360 0.040426 -0.002624 0.000000 0.006931 0.000000
# 3 -0.002301 -0.002624 0.013805 0.000000 -0.014248 0.000000
# 4 0.000000 0.000000 0.000000 0.065243 0.000000 -0.013263
# 5 -0.008644 0.006931 -0.014248 0.000000 0.083913 0.000000
# 6 0.000000 0.000000 0.000000 -0.013263 0.000000 0.042935
#
#
# Mechanical properties :
#
#
# Convention : Reuss Voigt Hill
#
# Bulk Modulus (GPa) = 26.27710 43.41305 34.84508
# Shear Modulus (GPa) = 16.44886 22.27374 19.36130
#
# Velocity S-wave (km/s) = 3.05673 3.55702 3.31632
# Velocity P-wave (km/s) = 5.23303 6.44439 5.87004
#
# Compressibility (1/GPa) = 0.03805595
#
# Stress axis : x y z
#
# Youngs Moduli (GPa) = 69.46452 24.73675 72.43893
#
# Poissons Ratio (x) = 0.25627 0.16670
# Poissons Ratio (y) = 0.71965 0.19007
# Poissons Ratio (z) = 0.15986 0.06491
#
# Static dielectric constant tensor:
#      x y z
#    x 1.602380 0.000000 0.006740 
#    y 0.000000 1.590700 0.000000 
#    z 0.006740 0.000000 1.589430 
# 
# From -- ./inp_files/342031.got.cif
#   From: 2010.05.17/outbox.cif.g08.bks.cpg/sg12_172_cif.got.tgz:342031.got - 2010.06.03 13:09:07.
