data_PCOD9180634
_publ_section_title
;
Structure prediction by ZEFSAII (Michael W. Deem and Ramdas Pophale) SiO2 
 PCOD9180634
Probable space group: C 2/M
;
_chemical_formula_sum "Si O2"
_cell_formula_units_Z 64
_cell_length_a 25.634260
_cell_length_b 7.542376
_cell_length_c 14.912047
_cell_angle_alpha 90.000000
_cell_angle_beta 90.413114
_cell_angle_gamma 90.000000
_cell_volume 2883.068352
_symmetry_space_group_name_H-M "C 2/M"
_symmetry_group_IT_number 12
_symmetry_cell_setting 'monoclinic'
loop_
_space_group_symop_operation_xyz
x,y,z
-x,y,-z
-x,-y,-z
x,-y,z
1/2+x,1/2+y,z
1/2-x,1/2+y,-z
1/2-x,1/2-y,-z
1/2+x,1/2-y,z
loop_
_atom_site_type_symbol
_atom_site_label
_atom_site_fract_x
_atom_site_fract_y
_atom_site_fract_z
Si Si1 0.669686 0.798209 0.980106
Si Si2 0.555301 0.209548 0.463665
Si Si3 0.808765 0.794248 0.222007
Si Si4 0.095532 0.705530 0.274754
Si Si5 0.600578 0.285312 0.646121
Si Si6 0.056054 0.213143 0.965151
Si Si7 0.802606 0.718809 0.827484
Si Si8 0.984992 0.787196 0.223568
O O1 0.674816 0.710721 0.882792
O O2 0.608327 0.793564 0.004618
O O3 0.686405 0.000000 0.967662
O O4 0.697925 0.722787 0.068266
O O5 0.500000 0.284426 0.500000
O O6 0.577071 0.284482 0.370145
O O7 0.597660 0.232289 0.542939
O O8 0.546690 0.000000 0.448560
O O9 0.851864 0.719633 0.290976
O O10 0.750130 0.721293 0.221861
O O11 0.804473 0.000000 0.247188
O O12 0.108591 0.500000 0.291661
O O13 0.145515 0.779613 0.223639
O O14 0.042942 0.714813 0.215477
O O15 0.600165 0.500000 0.651023
O O16 0.545971 0.223691 0.689794
O O17 0.052162 0.254583 0.859953
O O18 0.059317 0.000000 0.977579
O O19 0.000000 0.271759 0.000000
O O20 0.803067 0.500000 0.831228
O O21 0.990247 0.000000 0.225588
#
# Coordination Sequence:
#
# PCOD9180634 Si02
#       8
#     8   8   8   8   8   8   8   8
#     4  11  21  33  53  83 111 138 182 230 271 313
#     4  10  20  34  54  81 109 138 173 215 270 326
#     4  10  20  39  60  77 105 146 187 221 262 319
#     4  10  20  36  56  79 108 142 178 218 271 327
#     4  10  20  34  55  79 104 136 178 221 262 315
#     4  10  20  34  51  74 109 150 186 219 263 322
#     4   9  20  37  57  79 106 143 184 223 264 319
#     4  10  19  32  50  77 107 138 177 217 264 316
#
# _framework density 22.198571999999999
#
# number of rings (size 3 to 8) (size 9 to 14) (size 15 to 20)
#    0.000    2.000    2.500    1.500    0.000    2.000 
#    0.000    2.500    0.000    0.000    0.000    0.000 
#    0.000    0.000    0.000    0.000    0.000    0.000 
#
# Total GULP energy -178677.151281 kJ/mol
# GULP energy per Si atom -5583.660978 kJ/mol
# Density = 2.214805 g / cm^3
# Si number density = 22.198572 Si / 1000 Ang^3
#
#
#
# Elastic Constant Matrix: (Units=GPa)
#
#
# Indices 1 2 3 4 5 6 
#
# 1 137.7754 -0.6584 39.2813 0.0000 12.8038 0.0000
# 2 -0.6584 51.4099 3.5547 0.0000 -1.6629 0.0000
# 3 39.2813 3.5547 83.2777 0.0000 13.6015 0.0000
# 4 0.0000 0.0000 0.0000 6.8829 0.0000 -1.7064
# 5 12.8038 -1.6629 13.6015 0.0000 30.7250 0.0000
# 6 0.0000 0.0000 0.0000 -1.7064 0.0000 11.3542
#
#
#
# Elastic Compliance Matrix: (Units=1/GPa)
#
#
# Indices 1 2 3 4 5 6 
#
# 1 0.008493 0.000305 -0.003712 0.000000 -0.001879 0.000000
# 2 0.000305 0.019587 -0.001220 0.000000 0.001473 0.000000
# 3 -0.003712 -0.001220 0.014627 0.000000 -0.004994 0.000000
# 4 0.000000 0.000000 0.000000 0.150911 0.000000 0.022680
# 5 -0.001879 0.001473 -0.004994 0.000000 0.035621 0.000000
# 6 0.000000 0.000000 0.000000 0.022680 0.000000 0.091481
#
#
# Mechanical properties :
#
#
# Convention : Reuss Voigt Hill
#
# Bulk Modulus (GPa) = 29.89424 39.64646 34.77035
# Shear Modulus (GPa) = 14.65737 25.14478 19.90108
#
# Velocity S-wave (km/s) = 2.57239 3.36924 2.99741
# Velocity P-wave (km/s) = 4.72429 5.74756 5.26086
#
# Compressibility (1/GPa) = 0.03345126
#
# Stress axis : x y z
#
# Youngs Moduli (GPa) = 117.74940 51.05312 68.36812
#
# Poissons Ratio (x) = -0.01555 0.25378
# Poissons Ratio (y) = -0.03587 0.08344
# Poissons Ratio (z) = 0.43708 0.06231
#
# Static dielectric constant tensor:
#      x y z
#    x 1.820510 0.000000 -0.014620 
#    y 0.000000 1.848420 0.000000 
#    z -0.014620 0.000000 1.836990 
# 
# From -- ./inp_files/238565.got.cif
#   From: 2010.05.17/outbox.cif.g08.bks.cpg/sg12_120_cif.got.tgz:238565.got - 2010.06.03 13:09:07.
