data_PCOD9180607
_publ_section_title
;
Structure prediction by ZEFSAII (Michael W. Deem and Ramdas Pophale) SiO2 
 PCOD9180607
Probable space group: C 2/M
;
_chemical_formula_sum "Si O2"
_cell_formula_units_Z 48
_cell_length_a 18.159606
_cell_length_b 14.017524
_cell_length_c 12.335703
_cell_angle_alpha 90.000000
_cell_angle_beta 41.484493
_cell_angle_gamma 90.000000
_cell_volume 2080.047794
_symmetry_space_group_name_H-M "C 2/M"
_symmetry_group_IT_number 12
_symmetry_cell_setting 'monoclinic'
loop_
_space_group_symop_operation_xyz
x,y,z
-x,y,-z
-x,-y,-z
x,-y,z
1/2+x,1/2+y,z
1/2-x,1/2+y,-z
1/2-x,1/2-y,-z
1/2+x,1/2-y,z
loop_
_atom_site_type_symbol
_atom_site_label
_atom_site_fract_x
_atom_site_fract_y
_atom_site_fract_z
Si Si1 0.852237 0.104974 0.543675
Si Si2 0.444027 0.111817 0.942056
Si Si3 0.938880 0.105370 0.202956
Si Si4 0.797962 0.788844 0.803577
Si Si5 0.184004 0.890279 0.994983
Si Si6 0.653704 0.794693 0.681003
O O1 0.913673 0.111514 0.360919
O O2 0.866419 0.182592 0.621635
O O3 0.721447 0.118869 0.659742
O O4 0.872631 0.000000 0.567177
O O5 0.538682 0.162254 0.763625
O O6 0.429722 0.000000 0.934565
O O7 0.500000 0.121143 0.000000
O O8 0.327230 0.165982 0.064682
O O9 0.883261 0.199198 0.214586
O O10 0.071313 0.109499 0.049237
O O11 0.899065 0.000000 0.212502
O O12 0.844664 0.839620 0.858972
O O13 0.778849 0.676832 0.840489
O O14 0.216622 0.000000 0.975912
O O15 0.750000 0.750000 0.500000
#
# Coordination Sequence:
#
# PCOD9180607 Si02
#       6
#     8   8   8   8   8   8
#     4  10  19  33  55  81 106 134 173 224 264 300
#     4  11  20  32  54  82 107 131 169 223 270 307
#     4   9  19  35  53  75 107 141 176 213 256 308
#     4  11  21  34  55  82 105 136 173 217 265 309
#     4  10  21  37  54  76 106 141 176 213 257 311
#     4  10  19  32  50  75 109 138 167 205 264 314
#
# _framework density 23.076394000000001
#
# number of rings (size 3 to 8) (size 9 to 14) (size 15 to 20)
#    0.000    1.833    3.333    2.000    0.000    1.333 
#    0.000    3.333    0.000    5.000    0.000    2.333 
#    0.000    0.000    0.000    0.000    0.000    0.000 
#
# Total GULP energy -133896.307860 kJ/mol
# GULP energy per Si atom -5579.012828 kJ/mol
# Density = 2.302387 g / cm^3
# Si number density = 23.076394 Si / 1000 Ang^3
#
#
#
# Elastic Constant Matrix: (Units=GPa)
#
#
# Indices 1 2 3 4 5 6 
#
# 1 26.8367 1.2716 15.5880 0.0000 -15.3958 0.0000
# 2 1.2716 175.1653 28.4546 0.0000 -0.8815 0.0000
# 3 15.5880 28.4546 85.8468 0.0000 8.5610 0.0000
# 4 0.0000 0.0000 0.0000 25.0386 0.0000 0.9496
# 5 -15.3958 -0.8815 8.5610 0.0000 39.6682 0.0000
# 6 0.0000 0.0000 0.0000 0.9496 0.0000 22.1313
#
#
#
# Elastic Compliance Matrix: (Units=1/GPa)
#
#
# Indices 1 2 3 4 5 6 
#
# 1 0.060902 0.002033 -0.014404 0.000000 0.026791 0.000000
# 2 0.002033 0.006115 -0.002543 0.000000 0.001474 0.000000
# 3 -0.014404 -0.002543 0.016015 0.000000 -0.009103 0.000000
# 4 0.000000 0.000000 0.000000 0.040003 0.000000 -0.001716
# 5 0.026791 0.001474 -0.009103 0.000000 0.037604 0.000000
# 6 0.000000 0.000000 0.000000 -0.001716 0.000000 0.045259
#
#
# Mechanical properties :
#
#
# Convention : Reuss Voigt Hill
#
# Bulk Modulus (GPa) = 18.79584 42.05302 30.42443
# Shear Modulus (GPa) = 19.72691 33.53658 26.63175
#
# Velocity S-wave (km/s) = 2.92696 3.81633 3.40084
# Velocity P-wave (km/s) = 4.42555 6.13858 5.35106
#
# Compressibility (1/GPa) = 0.05320325
#
# Stress axis : x y z
#
# Youngs Moduli (GPa) = 16.41974 163.54269 62.44242
#
# Poissons Ratio (x) = -0.33241 0.89942
# Poissons Ratio (y) = -0.03337 0.15878
# Poissons Ratio (z) = 0.23651 0.41585
#
# Static dielectric constant tensor:
#      x y z
#    x 1.922640 0.000000 0.073260 
#    y 0.000000 1.885710 0.000000 
#    z 0.073260 0.000000 1.952720 
# 
# From -- ./inp_files/231677.got.cif
#   From: 2010.05.17/outbox.cif.g08.bks.cpg/sg12_116_cif.got.tgz:231677.got - 2010.06.03 13:09:07.
