data_PCOD9180616
_publ_section_title
;
Structure prediction by ZEFSAII (Michael W. Deem and Ramdas Pophale) SiO2 
 PCOD9180616
Probable space group: C 2/M
;
_chemical_formula_sum "Si O2"
_cell_formula_units_Z 64
_cell_length_a 15.963599
_cell_length_b 7.598728
_cell_length_c 26.101686
_cell_angle_alpha 90.000000
_cell_angle_beta 71.735590
_cell_angle_gamma 90.000000
_cell_volume 3006.701233
_symmetry_space_group_name_H-M "C 2/M"
_symmetry_group_IT_number 12
_symmetry_cell_setting 'monoclinic'
loop_
_space_group_symop_operation_xyz
x,y,z
-x,y,-z
-x,-y,-z
x,-y,z
1/2+x,1/2+y,z
1/2-x,1/2+y,-z
1/2-x,1/2-y,-z
1/2+x,1/2-y,z
loop_
_atom_site_type_symbol
_atom_site_label
_atom_site_fract_x
_atom_site_fract_y
_atom_site_fract_z
Si Si1 0.996334 0.215805 0.758196
Si Si2 0.942716 0.215914 0.365884
Si Si3 0.801928 0.211489 0.827820
Si Si4 0.381935 0.290527 0.172348
Si Si5 0.999464 0.215191 0.058650
Si Si6 0.810153 0.789493 0.939744
Si Si7 0.555554 0.290544 0.440894
Si Si8 0.248974 0.791395 0.560693
O O1 0.026947 0.271770 0.696197
O O2 0.062773 0.276138 0.790009
O O3 0.897342 0.273121 0.790926
O O4 0.996431 0.000000 0.758413
O O5 0.843339 0.276209 0.398326
O O6 0.011407 0.274522 0.396741
O O7 0.942059 0.000000 0.366087
O O8 0.721510 0.257347 0.806525
O O9 0.782083 0.278618 0.889376
O O10 0.806310 0.000000 0.829213
O O11 0.395666 0.500000 0.169066
O O12 0.421471 0.223309 0.110768
O O13 0.090778 0.269397 0.067339
O O14 0.997019 0.000000 0.057226
O O15 0.000000 0.276600 0.000000
O O16 0.812848 0.000000 0.935536
O O17 0.750000 0.750000 0.000000
O O18 0.500000 0.219084 0.500000
O O19 0.541258 0.500000 0.443071
O O20 0.659588 0.265154 0.430319
O O21 0.250000 0.750000 0.500000
O O22 0.246234 0.000000 0.566390
#
# Coordination Sequence:
#
# PCOD9180616 Si02
#       8
#     8   8   8   8   8   8   8   8
#     4   9  18  36  58  78 105 146 188 218 260 325
#     4   9  19  35  56  80 110 147 183 221 269 325
#     4  10  20  35  55  79 108 139 175 222 273 319
#     4  10  19  34  57  80 102 139 184 221 261 316
#     4   9  16  28  48  73 100 131 172 214 253 309
#     4  10  19  32  50  76 106 136 172 217 266 319
#     4  10  19  35  56  81 113 149 185 222 271 328
#     4  11  21  35  56  84 114 147 185 227 275 322
#
# _framework density 21.285785000000001
#
# number of rings (size 3 to 8) (size 9 to 14) (size 15 to 20)
#    0.000    2.250    2.500    1.125    0.000    2.750 
#    0.000    1.250    0.000    5.250    0.000    0.000 
#    0.000    0.000    0.000    0.000    0.000    0.000 
#
# Total GULP energy -178682.823275 kJ/mol
# GULP energy per Si atom -5583.838227 kJ/mol
# Density = 2.123734 g / cm^3
# Si number density = 21.285785 Si / 1000 Ang^3
#
#
#
# Elastic Constant Matrix: (Units=GPa)
#
#
# Indices 1 2 3 4 5 6 
#
# 1 205.7793 -3.6355 108.9299 0.0000 6.1859 0.0000
# 2 -3.6355 40.3914 6.4788 0.0000 4.3409 0.0000
# 3 108.9299 6.4788 183.8490 0.0000 5.6980 0.0000
# 4 0.0000 0.0000 0.0000 2.9950 0.0000 -1.1644
# 5 6.1859 4.3409 5.6980 0.0000 29.7115 0.0000
# 6 0.0000 0.0000 0.0000 -1.1644 0.0000 20.5227
#
#
#
# Elastic Compliance Matrix: (Units=1/GPa)
#
#
# Indices 1 2 3 4 5 6 
#
# 1 0.007173 0.001426 -0.004273 0.000000 -0.000882 0.000000
# 2 0.001426 0.025547 -0.001630 0.000000 -0.003717 0.000000
# 3 -0.004273 -0.001630 0.008041 0.000000 -0.000414 0.000000
# 4 0.000000 0.000000 0.000000 0.341426 0.000000 0.019372
# 5 -0.000882 -0.003717 -0.000414 0.000000 0.034463 0.000000
# 6 0.000000 0.000000 0.000000 0.019372 0.000000 0.049826
#
#
# Mechanical properties :
#
#
# Convention : Reuss Voigt Hill
#
# Bulk Modulus (GPa) = 31.43928 72.61845 52.02886
# Shear Modulus (GPa) = 10.28738 31.86228 21.07483
#
# Velocity S-wave (km/s) = 2.20079 3.87315 3.14998
# Velocity P-wave (km/s) = 4.61087 7.36150 6.14214
#
# Compressibility (1/GPa) = 0.03180734
#
# Stress axis : x y z
#
# Youngs Moduli (GPa) = 139.40745 39.14362 124.35848
#
# Poissons Ratio (x) = -0.05581 0.53138
# Poissons Ratio (y) = -0.19878 0.20269
# Poissons Ratio (z) = 0.59569 0.06380
#
# Static dielectric constant tensor:
#      x y z
#    x 1.743420 0.000000 -0.007770 
#    y 0.000000 1.785910 0.000000 
#    z -0.007770 0.000000 1.748470 
# 
# From -- ./inp_files/359712.got.cif
#   From: 2010.05.17/outbox.cif.g08.bks.cpg/sg12_180_cif.got.tgz:359712.got - 2010.06.03 13:09:07.
