data_PCOD9180184
_publ_section_title
;
Structure prediction by ZEFSAII (Michael W. Deem and Ramdas Pophale) SiO2 
 PCOD9180184
Probable space group: C 2/M
;
_chemical_formula_sum "Si O2"
_cell_formula_units_Z 64
_cell_length_a 21.284532
_cell_length_b 7.697211
_cell_length_c 23.219346
_cell_angle_alpha 90.000000
_cell_angle_beta 124.228712
_cell_angle_gamma 90.000000
_cell_volume 3145.193127
_symmetry_space_group_name_H-M "C 2/M"
_symmetry_group_IT_number 12
_symmetry_cell_setting 'monoclinic'
loop_
_space_group_symop_operation_xyz
x,y,z
-x,y,-z
-x,-y,-z
x,-y,z
1/2+x,1/2+y,z
1/2-x,1/2+y,-z
1/2-x,1/2-y,-z
1/2+x,1/2-y,z
loop_
_atom_site_type_symbol
_atom_site_label
_atom_site_fract_x
_atom_site_fract_y
_atom_site_fract_z
Si Si1 0.942180 0.209152 0.804943
Si Si2 0.545100 0.208515 0.967524
Si Si3 0.179548 0.208317 0.796052
Si Si4 0.007309 0.210091 0.715830
Si Si5 0.721975 0.798187 0.579661
Si Si6 0.782705 0.290772 0.954236
Si Si7 0.861189 0.293685 0.574234
Si Si8 0.769099 0.789954 0.726160
O O1 0.856470 0.272568 0.772240
O O2 0.998042 0.254650 0.885692
O O3 0.974506 0.271963 0.760421
O O4 0.938936 0.000000 0.799931
O O5 0.549949 0.000000 0.975953
O O6 0.500000 0.276198 0.000000
O O7 0.631214 0.275647 0.008161
O O8 0.093019 0.273784 0.750822
O O9 0.227713 0.275449 0.875310
O O10 0.223968 0.244621 0.760214
O O11 0.174838 0.000000 0.800089
O O12 0.947511 0.261987 0.636060
O O13 0.008562 0.000000 0.717907
O O14 0.805287 0.787732 0.593192
O O15 0.665294 0.724834 0.501897
O O16 0.729058 0.722685 0.647120
O O17 0.700862 0.000000 0.575715
O O18 0.785427 0.500000 0.950481
O O19 0.750000 0.250000 0.000000
O O20 0.846033 0.500000 0.567550
O O21 0.771903 0.000000 0.723591
#
# Coordination Sequence:
#
# PCOD9180184 Si02
#       8
#     8   8   8   8   8   8   8   8
#     4  10  20  35  57  80 103 139 182 220 266 323
#     4  10  21  36  54  78 108 138 170 221 278 319
#     4  10  22  38  57  79 108 147 184 222 271 325
#     4  10  20  37  56  77 110 146 178 222 273 319
#     4   9  18  35  55  79 113 147 178 218 271 323
#     4  10  21  38  58  79 105 141 182 223 271 323
#     4  10  19  31  55  86 110 139 182 227 267 314
#     4  10  20  36  57  80 109 145 180 222 272 320
#
# _framework density 20.348513000000001
#
# number of rings (size 3 to 8) (size 9 to 14) (size 15 to 20)
#    0.000    2.125    1.250    1.875    0.000    5.750 
#    0.000    0.625    0.000    3.750    0.000    0.000 
#    0.000    0.000    0.000    0.000    0.000    0.000 
#
# Total GULP energy -178713.527064 kJ/mol
# GULP energy per Si atom -5584.797721 kJ/mol
# Density = 2.030220 g / cm^3
# Si number density = 20.348513 Si / 1000 Ang^3
#
#
#
# Elastic Constant Matrix: (Units=GPa)
#
#
# Indices 1 2 3 4 5 6 
#
# 1 173.9192 -0.0499 108.0549 0.0000 14.3389 0.0000
# 2 -0.0499 33.7115 -2.6082 0.0000 1.7087 -0.0001
# 3 108.0549 -2.6082 201.8670 0.0000 12.0443 0.0000
# 4 0.0000 0.0000 0.0000 21.3463 0.0000 2.0379
# 5 14.3389 1.7087 12.0443 0.0000 28.1763 0.0000
# 6 0.0000 -0.0001 0.0000 2.0379 0.0000 19.9110
#
#
#
# Elastic Compliance Matrix: (Units=1/GPa)
#
#
# Indices 1 2 3 4 5 6 
#
# 1 0.008788 -0.000212 -0.004557 0.000000 -0.002511 0.000000
# 2 -0.000212 0.029810 0.000616 0.000000 -0.001963 0.000000
# 3 -0.004557 0.000616 0.007455 0.000000 -0.000905 0.000000
# 4 0.000000 0.000000 0.000000 0.047309 0.000000 -0.004842
# 5 -0.002511 -0.001963 -0.000905 0.000000 0.037275 0.000000
# 6 0.000000 0.000000 0.000000 -0.004842 0.000000 0.050719
#
#
# Mechanical properties :
#
#
# Convention : Reuss Voigt Hill
#
# Bulk Modulus (GPa) = 26.49241 68.92128 47.70685
# Shear Modulus (GPa) = 24.72253 34.16010 29.44132
#
# Velocity S-wave (km/s) = 3.48940 4.10170 3.80788
# Velocity P-wave (km/s) = 5.41130 7.50839 6.54439
#
# Compressibility (1/GPa) = 0.03774665
#
# Stress axis : x y z
#
# Youngs Moduli (GPa) = 113.79189 33.54546 134.13955
#
# Poissons Ratio (x) = 0.00712 0.61126
# Poissons Ratio (y) = 0.02415 -0.08262
# Poissons Ratio (z) = 0.51854 -0.02066
#
# Static dielectric constant tensor:
#      x y z
#    x 1.687990 0.000000 0.010980 
#    y 0.000000 1.762440 0.000000 
#    z 0.010980 0.000000 1.718770 
# 
# From -- ./inp_files/320172.got.cif
#   From: 2010.05.17/outbox.cif.g08.bks.cpg/sg12_161_cif.got.tgz:320172.got - 2010.06.03 13:09:07.
