data_PCOD9180505
_publ_section_title
;
Structure prediction by ZEFSAII (Michael W. Deem and Ramdas Pophale) SiO2 
 PCOD9180505
Probable space group: C 2/M
;
_chemical_formula_sum "Si O2"
_cell_formula_units_Z 56
_cell_length_a 22.536752
_cell_length_b 8.445648
_cell_length_c 18.673124
_cell_angle_alpha 90.000000
_cell_angle_beta 120.533030
_cell_angle_gamma 90.000000
_cell_volume 3061.357860
_symmetry_space_group_name_H-M "C 2/M"
_symmetry_group_IT_number 12
_symmetry_cell_setting 'monoclinic'
loop_
_space_group_symop_operation_xyz
x,y,z
-x,y,-z
-x,-y,-z
x,-y,z
1/2+x,1/2+y,z
1/2-x,1/2+y,-z
1/2-x,1/2-y,-z
1/2+x,1/2-y,z
loop_
_atom_site_type_symbol
_atom_site_label
_atom_site_fract_x
_atom_site_fract_y
_atom_site_fract_z
Si Si1 0.315026 0.310683 0.456179
Si Si2 0.835853 0.185213 0.630354
Si Si3 0.671248 0.690517 0.946362
Si Si4 0.046092 0.313980 0.962166
Si Si5 0.567517 0.307458 0.584309
Si Si6 0.532811 0.179548 0.233961
Si Si7 0.086242 0.184805 0.756084
O O1 0.301735 0.500000 0.449284
O O2 0.243378 0.222054 0.403038
O O3 0.346185 0.270782 0.553115
O O4 0.367747 0.274355 0.426121
O O5 0.887292 0.284053 0.710266
O O6 0.849902 0.000000 0.647889
O O7 0.671641 0.500000 0.945598
O O8 0.618794 0.742075 0.978403
O O9 0.636617 0.749447 0.849732
O O10 0.750000 0.750000 0.000000
O O11 0.059545 0.500000 0.985592
O O12 0.996121 0.301422 0.863117
O O13 0.000000 0.248998 0.000000
O O14 0.500000 0.250282 0.500000
O O15 0.559923 0.500000 0.585455
O O16 0.582164 0.246719 0.673510
O O17 0.489957 0.296099 0.258196
O O18 0.518028 0.000000 0.247930
O O19 0.104376 0.000000 0.760177
#
# Coordination Sequence:
#
# PCOD9180505 Si02
#       7
#     8   8   8   8   8   8   8
#     4   9  18  32  50  71  98 133 172 211 247 293
#     4  10  19  32  50  71  99 134 169 208 252 299
#     4  10  20  35  56  80 109 145 180 219 268 324
#     4   9  19  37  58  80 105 134 175 226 272 320
#     4   9  16  29  51  76 100 128 166 208 249 294
#     4  10  19  32  53  77 100 130 166 206 255 310
#     4   9  18  33  53  77 102 132 171 211 251 303
#
# _framework density 18.292535999999998
#
# number of rings (size 3 to 8) (size 9 to 14) (size 15 to 20)
#    0.000    2.571    0.000    2.143    0.000    4.286 
#    2.571    0.714    0.000    1.714    0.000    0.000 
#    0.000    0.000    0.000    0.000    0.000    0.000 
#
# Total GULP energy -155977.406419 kJ/mol
# GULP energy per Si atom -5570.621658 kJ/mol
# Density = 1.825090 g / cm^3
# Si number density = 18.292536 Si / 1000 Ang^3
#
#
#
# Elastic Constant Matrix: (Units=GPa)
#
#
# Indices 1 2 3 4 5 6 
#
# 1 86.6181 26.1287 59.4280 0.0000 -11.9911 0.0000
# 2 26.1287 19.7769 23.3778 0.0000 1.2562 0.0000
# 3 59.4280 23.3778 76.6125 0.0000 4.1912 0.0000
# 4 0.0000 0.0000 0.0000 14.5660 0.0000 2.4824
# 5 -11.9911 1.2562 4.1912 0.0000 25.6851 0.0000
# 6 0.0000 0.0000 0.0000 2.4824 0.0000 23.4017
#
#
#
# Elastic Compliance Matrix: (Units=1/GPa)
#
#
# Indices 1 2 3 4 5 6 
#
# 1 0.037943 -0.023951 -0.023365 0.000000 0.022698 0.000000
# 2 -0.023951 0.094212 -0.009389 0.000000 -0.014257 0.000000
# 3 -0.023365 -0.009389 0.034925 0.000000 -0.016148 0.000000
# 4 0.000000 0.000000 0.000000 0.069917 0.000000 -0.007417
# 5 0.022698 -0.014257 -0.016148 0.000000 0.052862 0.000000
# 6 0.000000 0.000000 0.000000 -0.007417 0.000000 0.043519
#
#
# Mechanical properties :
#
#
# Convention : Reuss Voigt Hill
#
# Bulk Modulus (GPa) = 18.63278 44.54183 31.58730
# Shear Modulus (GPa) = 10.76012 17.66875 14.21444
#
# Velocity S-wave (km/s) = 2.42797 3.11126 2.79061
# Velocity P-wave (km/s) = 4.25066 6.10813 5.26200
#
# Compressibility (1/GPa) = 0.05366887
#
# Stress axis : x y z
#
# Youngs Moduli (GPa) = 26.35554 10.61434 28.63247
#
# Poissons Ratio (x) = 0.25423 0.66900
# Poissons Ratio (y) = 0.63125 0.26884
# Poissons Ratio (z) = 0.61580 0.09966
#
# Static dielectric constant tensor:
#      x y z
#    x 1.613360 0.000000 -0.012530 
#    y 0.000000 1.644750 0.000000 
#    z -0.012530 0.000000 1.639500 
# 
# From -- ./inp_files/281662.got.cif
#   From: 2010.05.17/outbox.cif.g08.bks.cpg/sg12_141_cif.got.tgz:281662.got - 2010.06.03 13:09:07.
