data_PCOD9180468
_publ_section_title
;
Structure prediction by ZEFSAII (Michael W. Deem and Ramdas Pophale) SiO2 
 PCOD9180468
Probable space group: C 2/M
;
_chemical_formula_sum "Si O2"
_cell_formula_units_Z 48
_cell_length_a 28.873495
_cell_length_b 8.959534
_cell_length_c 11.551550
_cell_angle_alpha 90.000000
_cell_angle_beta 76.500725
_cell_angle_gamma 90.000000
_cell_volume 2905.747518
_symmetry_space_group_name_H-M "C 2/M"
_symmetry_group_IT_number 12
_symmetry_cell_setting 'monoclinic'
loop_
_space_group_symop_operation_xyz
x,y,z
-x,y,-z
-x,-y,-z
x,-y,z
1/2+x,1/2+y,z
1/2-x,1/2+y,-z
1/2-x,1/2-y,-z
1/2+x,1/2-y,z
loop_
_atom_site_type_symbol
_atom_site_label
_atom_site_fract_x
_atom_site_fract_y
_atom_site_fract_z
Si Si1 0.705931 0.179621 0.593514
Si Si2 0.177432 0.322186 0.105925
Si Si3 0.505383 0.171440 0.636921
Si Si4 0.731030 0.178775 0.838535
Si Si5 0.591598 0.322705 0.282682
Si Si6 0.608372 0.819196 0.524515
O O1 0.750000 0.250000 0.500000
O O2 0.710087 0.219849 0.726240
O O3 0.656024 0.223678 0.564266
O O4 0.709021 0.000000 0.583905
O O5 0.172788 0.500000 0.121351
O O6 0.219625 0.262326 0.164071
O O7 0.128666 0.243571 0.169445
O O8 0.195371 0.288308 0.965400
O O9 0.500000 0.172100 0.500000
O O10 0.462523 0.270332 0.709139
O O11 0.559953 0.220272 0.622153
O O12 0.499378 0.000000 0.679007
O O13 0.739984 0.000000 0.834973
O O14 0.594529 0.500000 0.285158
O O15 0.605972 0.255053 0.399727
O O16 0.607370 0.000000 0.510050
#
# Coordination Sequence:
#
# PCOD9180468 Si02
#       6
#     8   8   8   8   8   8
#     4  10  20  33  49  71  97 124 154 187 227 276
#     4  10  19  32  50  69  93 125 158 193 233 275
#     4   8  15  29  47  67  92 122 155 191 233 278
#     4   9  19  34  50  70  95 122 156 196 232 270
#     4  11  20  29  46  72  98 122 155 196 233 274
#     4   9  18  32  49  69  96 127 155 188 233 282
#
# _framework density 16.518985000000001
#
# number of rings (size 3 to 8) (size 9 to 14) (size 15 to 20)
#    0.000    2.500    0.000    4.000    0.000    7.667 
#    0.000    0.000    0.000    1.000    0.000    7.000 
#    0.000    0.000    0.000    0.000    0.000    0.000 
#
# Total GULP energy -133833.583429 kJ/mol
# GULP energy per Si atom -5576.399310 kJ/mol
# Density = 1.648139 g / cm^3
# Si number density = 16.518985 Si / 1000 Ang^3
#
#
#
# Elastic Constant Matrix: (Units=GPa)
#
#
# Indices 1 2 3 4 5 6 
#
# 1 153.3779 46.6273 59.8097 0.0000 -16.9313 0.0000
# 2 46.6273 47.0197 31.8049 0.0000 -14.6385 0.0000
# 3 59.8097 31.8049 60.8382 0.0000 -7.6837 0.0000
# 4 0.0000 0.0000 0.0000 18.3160 0.0000 -4.4968
# 5 -16.9313 -14.6385 -7.6837 0.0000 28.7031 0.0000
# 6 0.0000 0.0000 0.0000 -4.4968 0.0000 26.0388
#
#
#
# Elastic Compliance Matrix: (Units=1/GPa)
#
#
# Indices 1 2 3 4 5 6 
#
# 1 0.011608 -0.005189 -0.008454 0.000000 0.001938 0.000000
# 2 -0.005189 0.040307 -0.014242 0.000000 0.013683 0.000000
# 3 -0.008454 -0.014242 0.031719 0.000000 -0.003759 0.000000
# 4 0.000000 0.000000 0.000000 0.057014 0.000000 0.009846
# 5 0.001938 0.013683 -0.003759 0.000000 0.041954 0.000000
# 6 0.000000 0.000000 0.000000 0.009846 0.000000 0.040105
#
#
# Mechanical properties :
#
#
# Convention : Reuss Voigt Hill
#
# Bulk Modulus (GPa) = 35.88981 59.74663 47.81822
# Shear Modulus (GPa) = 17.37525 22.81117 20.09321
#
# Velocity S-wave (km/s) = 3.24672 3.72009 3.49143
# Velocity P-wave (km/s) = 5.98569 7.39588 6.72783
#
# Compressibility (1/GPa) = 0.02786306
#
# Stress axis : x y z
#
# Youngs Moduli (GPa) = 86.14719 24.80956 31.52700
#
# Poissons Ratio (x) = 0.12875 0.26654
# Poissons Ratio (y) = 0.44705 0.44900
# Poissons Ratio (z) = 0.72830 0.35333
#
# Static dielectric constant tensor:
#      x y z
#    x 1.565550 0.000000 -0.007050 
#    y 0.000000 1.553600 0.000000 
#    z -0.007050 0.000000 1.539570 
# 
# From -- ./inp_files/179233.got.cif
#   From: 2010.05.17/outbox.cif.g08.bks.cpg/sg12_90_cif.got.tgz:179233.got - 2010.06.03 13:09:07.
