data_PCOD9180176
_publ_section_title
;
Structure prediction by ZEFSAII (Michael W. Deem and Ramdas Pophale) SiO2 
 PCOD9180176
Probable space group: C 2/M
;
_chemical_formula_sum "Si O2"
_cell_formula_units_Z 40
_cell_length_a 8.869080
_cell_length_b 26.680141
_cell_length_c 13.460929
_cell_angle_alpha 90.000000
_cell_angle_beta 148.765645
_cell_angle_gamma 90.000000
_cell_volume 1651.672057
_symmetry_space_group_name_H-M "C 2/M"
_symmetry_group_IT_number 12
_symmetry_cell_setting 'monoclinic'
loop_
_space_group_symop_operation_xyz
x,y,z
-x,y,-z
-x,-y,-z
x,-y,z
1/2+x,1/2+y,z
1/2-x,1/2+y,-z
1/2-x,1/2-y,-z
1/2+x,1/2-y,z
loop_
_atom_site_type_symbol
_atom_site_label
_atom_site_fract_x
_atom_site_fract_y
_atom_site_fract_z
Si Si1 0.981557 0.800818 0.732849
Si Si2 0.861825 0.099486 0.274304
Si Si3 0.673922 0.000000 0.707261
Si Si4 0.175258 0.000000 0.860079
Si Si5 0.364211 0.802956 0.265132
Si Si6 0.975883 0.405213 0.726536
O O1 0.676344 0.802175 0.498918
O O2 0.881157 0.803797 0.789407
O O3 0.163076 0.848742 0.798828
O O4 0.134569 0.748427 0.795166
O O5 0.590858 0.086545 0.194305
O O6 0.154442 0.104686 0.502607
O O7 0.932979 0.052203 0.246525
O O8 0.500000 0.000000 0.500000
O O9 0.594665 0.048718 0.728473
O O10 0.019578 0.000000 0.878783
O O11 0.500000 0.000000 0.000000
O O12 0.355585 0.853767 0.197219
#
# Coordination Sequence:
#
# PCOD9180176 Si02
#       6
#     8   8   4   4   8   8
#     4   9  16  26  44  70 112 144 176 215 274 331
#     4  10  19  34  52  78 110 145 181 228 278 327
#     4  12  21  35  57  81 104 140 187 230 276 325
#     4  12  25  39  55  79 112 149 187 228 277 330
#     4   9  16  25  42  75 109 143 173 221 276 325
#     4  10  19  31  55  81 109 139 183 230 279 327
#
# _framework density 24.217881999999999
#
# number of rings (size 3 to 8) (size 9 to 14) (size 15 to 20)
#    0.000    2.000    2.000    3.000    2.800    6.400 
#    0.000    2.000    0.000    0.000    0.000   12.600 
#    0.000    0.000    0.000    0.000    0.000    0.000 
#
# Total GULP energy -111783.276377 kJ/mol
# GULP energy per Si atom -5589.163819 kJ/mol
# Density = 2.416276 g / cm^3
# Si number density = 24.217882 Si / 1000 Ang^3
#
#
#
# Elastic Constant Matrix: (Units=GPa)
#
#
# Indices 1 2 3 4 5 6 
#
# 1 195.8513 124.6109 27.3604 0.0000 55.5323 0.0000
# 2 124.6109 239.9018 15.2317 0.0000 21.0898 0.0000
# 3 27.3604 15.2317 91.5674 0.0000 10.0687 0.0000
# 4 0.0000 0.0000 0.0000 6.4501 0.0000 11.3912
# 5 55.5323 21.0898 10.0687 0.0000 35.2980 0.0000
# 6 0.0000 0.0000 0.0000 11.3912 0.0000 40.5365
#
#
#
# Elastic Compliance Matrix: (Units=1/GPa)
#
#
# Indices 1 2 3 4 5 6 
#
# 1 0.014081 -0.005614 -0.001246 0.000000 -0.018444 0.000000
# 2 -0.005614 0.006656 0.000038 0.000000 0.004844 0.000000
# 3 -0.001246 0.000038 0.011432 0.000000 -0.001324 0.000000
# 4 0.000000 0.000000 0.000000 0.307776 0.000000 -0.086488
# 5 -0.018444 0.004844 -0.001324 0.000000 0.054830 0.000000
# 6 0.000000 0.000000 0.000000 -0.086488 0.000000 0.048973
#
#
# Mechanical properties :
#
#
# Convention : Reuss Voigt Hill
#
# Bulk Modulus (GPa) = 53.97764 95.74740 74.86252
# Shear Modulus (GPa) = 10.78589 40.46477 25.62533
#
# Velocity S-wave (km/s) = 2.11267 4.09205 3.25640
# Velocity P-wave (km/s) = 5.31863 7.87072 6.71700
#
# Compressibility (1/GPa) = 0.01852619
#
# Stress axis : x y z
#
# Youngs Moduli (GPa) = 71.01635 150.23993 87.47048
#
# Poissons Ratio (x) = 0.84340 0.10895
# Poissons Ratio (y) = 0.39866 -0.00328
# Poissons Ratio (z) = 0.08846 -0.00564
#
# Static dielectric constant tensor:
#      x y z
#    x 1.890180 0.000000 -0.024230 
#    y 0.000000 1.851710 0.000000 
#    z -0.024230 0.000000 1.986700 
# 
# From -- ./inp_files/122965.got.cif
#   From: 2010.05.17/outbox.cif.g08.bks.cpg/sg12_62_cif.got.tgz:122965.got - 2010.06.03 13:09:07.
