data_PCOD9180793
_publ_section_title
;
Structure prediction by ZEFSAII (Michael W. Deem and Ramdas Pophale) SiO2 
 PCOD9180793
Probable space group: C 2/M
;
_chemical_formula_sum "Si O2"
_cell_formula_units_Z 58
_cell_length_a 19.891348
_cell_length_b 9.201736
_cell_length_c 20.521180
_cell_angle_alpha 90.000000
_cell_angle_beta 136.581208
_cell_angle_gamma 90.000000
_cell_volume 2581.659408
_symmetry_space_group_name_H-M "C 2/M"
_symmetry_group_IT_number 12
_symmetry_cell_setting 'monoclinic'
loop_
_space_group_symop_operation_xyz
x,y,z
-x,y,-z
-x,-y,-z
x,-y,z
1/2+x,1/2+y,z
1/2-x,1/2+y,-z
1/2-x,1/2-y,-z
1/2+x,1/2-y,z
loop_
_atom_site_type_symbol
_atom_site_label
_atom_site_fract_x
_atom_site_fract_y
_atom_site_fract_z
Si Si1 0.703580 0.169822 0.405864
Si Si2 0.035133 0.839834 0.333016
Si Si3 0.737550 0.166770 0.801111
Si Si4 0.516620 0.163673 0.588180
Si Si5 0.847143 0.326579 0.765622
Si Si6 0.677597 0.665008 0.882028
Si Si7 0.048819 0.163166 0.907847
Si Si8 0.500000 0.500000 0.000000
O O1 0.750000 0.250000 0.500000
O O2 0.590348 0.211093 0.335653
O O3 0.721293 0.220307 0.344099
O O4 0.721909 0.000000 0.422916
O O5 0.035242 0.790826 0.408119
O O6 0.925990 0.845195 0.229384
O O7 0.079503 0.000000 0.355270
O O8 0.629379 0.168238 0.691646
O O9 0.804203 0.262866 0.801501
O O10 0.732850 0.228022 0.871161
O O11 0.772310 0.000000 0.823924
O O12 0.500000 0.181997 0.500000
O O13 0.480267 0.000000 0.579709
O O14 0.848336 0.500000 0.767415
O O15 0.955981 0.265306 0.833080
O O16 0.719288 0.500000 0.914489
O O17 0.641891 0.712539 0.929608
O O18 0.026367 0.000000 0.863983
O O19 0.047386 0.125598 0.983633
#
# Coordination Sequence:
#
# PCOD9180793 Si02
#       8
#     8   8   8   8   8   8   8   2
#     4  11  24  37  51  75 111 153 201 252 300 347
#     4  10  19  32  51  75 100 141 191 239 294 342
#     4  10  21  34  53  82 113 155 204 245 292 355
#     4   9  19  34  49  69 102 146 195 251 303 342
#     4  11  23  38  58  86 120 158 200 251 300 355
#     4   9  17  33  57  82 113 148 188 235 283 348
#     4   9  18  37  64  94 120 151 188 231 292 357
#     4   8  20  36  70 104 120 152 186 238 284 364
#
# _framework density 22.466170999999999
#
# number of rings (size 3 to 8) (size 9 to 14) (size 15 to 20)
#    0.414    1.793    1.379    1.655    1.931    3.586 
#    0.000    0.345    0.000    0.828    0.000    0.000 
#    0.000    0.000    0.000    0.000    0.000    0.000 
#
# Total GULP energy -161460.223848 kJ/mol
# GULP energy per Si atom -5567.593926 kJ/mol
# Density = 2.241504 g / cm^3
# Si number density = 22.466171 Si / 1000 Ang^3
#
#
#
# Elastic Constant Matrix: (Units=GPa)
#
#
# Indices 1 2 3 4 5 6 
#
# 1 93.4694 26.8164 42.4204 0.0000 -41.4034 0.0000
# 2 26.8164 41.7419 35.9566 0.0000 -16.9577 0.0000
# 3 42.4204 35.9566 129.7553 0.0000 -37.8170 0.0000
# 4 0.0000 0.0000 0.0000 22.9546 0.0000 -7.1509
# 5 -41.4034 -16.9577 -37.8170 0.0000 38.6097 0.0000
# 6 0.0000 0.0000 0.0000 -7.1509 0.0000 34.3240
#
#
#
# Elastic Compliance Matrix: (Units=1/GPa)
#
#
# Indices 1 2 3 4 5 6 
#
# 1 0.021373 -0.005822 0.000785 0.000000 0.021131 0.000000
# 2 -0.005822 0.034636 -0.007110 0.000000 0.002005 0.000000
# 3 0.000785 -0.007110 0.012254 0.000000 0.009720 0.000000
# 4 0.000000 0.000000 0.000000 0.046588 0.000000 0.009706
# 5 0.021131 0.002005 0.009720 0.000000 0.058962 0.000000
# 6 0.000000 0.000000 0.000000 0.009706 0.000000 0.031156
#
#
# Mechanical properties :
#
#
# Convention : Reuss Voigt Hill
#
# Bulk Modulus (GPa) = 22.74422 52.81704 37.78063
# Shear Modulus (GPa) = 20.49844 29.82922 25.16383
#
# Velocity S-wave (km/s) = 3.02390 3.64777 3.35039
# Velocity P-wave (km/s) = 4.72627 6.42668 5.64092
#
# Compressibility (1/GPa) = 0.04396721
#
# Stress axis : x y z
#
# Youngs Moduli (GPa) = 46.78734 28.87135 81.60788
#
# Poissons Ratio (x) = 0.16809 -0.06402
# Poissons Ratio (y) = 0.27240 0.58027
# Poissons Ratio (z) = -0.03671 0.20529
#
# Static dielectric constant tensor:
#      x y z
#    x 1.877480 0.000000 0.028020 
#    y 0.000000 1.797770 0.000000 
#    z 0.028020 0.000000 1.930060 
# 
# From -- ./inp_files/314282.got.cif
#   From: 2010.05.17/outbox.cif.g08.bks.cpg/sg12_158_cif.got.tgz:314282.got - 2010.06.03 13:09:07.
