data_PCOD9180092
_publ_section_title
;
Structure prediction by ZEFSAII (Michael W. Deem and Ramdas Pophale) SiO2 
 PCOD9180092
Probable space group: C 2/M
;
_chemical_formula_sum "Si O2"
_cell_formula_units_Z 56
_cell_length_a 25.483682
_cell_length_b 8.846358
_cell_length_c 37.137922
_cell_angle_alpha 90.000000
_cell_angle_beta 156.609112
_cell_angle_gamma 90.000000
_cell_volume 3323.815485
_symmetry_space_group_name_H-M "C 2/M"
_symmetry_group_IT_number 12
_symmetry_cell_setting 'monoclinic'
loop_
_space_group_symop_operation_xyz
x,y,z
-x,y,-z
-x,-y,-z
x,-y,z
1/2+x,1/2+y,z
1/2-x,1/2+y,-z
1/2-x,1/2-y,-z
1/2+x,1/2-y,z
loop_
_atom_site_type_symbol
_atom_site_label
_atom_site_fract_x
_atom_site_fract_y
_atom_site_fract_z
Si Si1 0.602975 0.180265 0.907144
Si Si2 0.243603 0.180838 0.791578
Si Si3 0.280811 0.819885 0.899579
Si Si4 0.514744 0.679771 0.777579
Si Si5 0.057739 0.819114 0.396162
Si Si6 0.175464 0.320452 0.398025
Si Si7 0.508989 0.320933 0.090938
O O1 0.532904 0.235982 0.826664
O O2 0.527969 0.239680 0.895096
O O3 0.612669 0.000000 0.914123
O O4 0.750000 0.250000 0.000000
O O5 0.265849 0.214229 0.847962
O O6 0.349660 0.268094 0.834752
O O7 0.091438 0.218103 0.686983
O O8 0.262133 0.000000 0.798623
O O9 0.144327 0.787924 0.834602
O O10 0.306820 0.000000 0.919455
O O11 0.399207 0.730689 0.992747
O O12 0.510193 0.500000 0.780492
O O13 0.388443 0.735448 0.675759
O O14 0.098563 0.733510 0.385481
O O15 0.170705 0.787076 0.496711
O O16 0.061801 0.000000 0.390957
O O17 0.160095 0.500000 0.383903
O O18 0.503761 0.500000 0.092488
#
# Coordination Sequence:
#
# PCOD9180092 Si02
#       7
#     8   8   8   8   8   8   8
#     4  12  24  40  60  82 108 144 187 231 276 323
#     4  10  20  37  57  78 110 152 191 225 271 330
#     4  10  20  35  56  79 110 151 188 222 271 328
#     4  11  21  36  58  83 114 148 183 227 277 329
#     4   9  18  34  54  79 112 150 187 226 277 333
#     4  10  19  31  53  84 115 145 183 230 279 330
#     4  12  25  38  54  80 113 148 187 230 277 327
#
# _framework density 16.848108
#
# number of rings (size 3 to 8) (size 9 to 14) (size 15 to 20)
#    0.000    1.429    2.857    3.857    0.000    4.000 
#    0.000    0.000    0.000    0.857    0.000    6.000 
#    0.000    0.000    0.000    0.000    0.000    0.000 
#
# Total GULP energy -156454.870207 kJ/mol
# GULP energy per Si atom -5587.673936 kJ/mol
# Density = 1.680976 g / cm^3
# Si number density = 16.848108 Si / 1000 Ang^3
#
#
#
# Elastic Constant Matrix: (Units=GPa)
#
#
# Indices 1 2 3 4 5 6 
#
# 1 99.9218 60.5604 65.1673 0.0022 8.4922 0.0006
# 2 60.5604 89.7037 70.9210 0.0009 5.7961 0.0002
# 3 65.1673 70.9210 131.6045 0.0072 0.6994 0.0008
# 4 0.0022 0.0009 0.0072 29.4511 -0.0020 -2.0202
# 5 8.4922 5.7961 0.6994 -0.0020 16.5430 -0.0001
# 6 0.0006 0.0002 0.0008 -2.0202 -0.0001 28.0537
#
#
#
# Elastic Compliance Matrix: (Units=1/GPa)
#
#
# Indices 1 2 3 4 5 6 
#
# 1 0.018794 -0.008610 -0.004632 0.000000 -0.006435 0.000000
# 2 -0.008610 0.024062 -0.008684 0.000002 -0.003643 0.000000
# 3 -0.004632 -0.008684 0.014546 -0.000003 0.004805 0.000000
# 4 0.000000 0.000002 -0.000003 0.034123 0.000004 0.002457
# 5 -0.006435 -0.003643 0.004805 0.000004 0.064825 0.000000
# 6 0.000000 0.000000 0.000000 0.002457 0.000000 0.035823
#
#
# Mechanical properties :
#
#
# Convention : Reuss Voigt Hill
#
# Bulk Modulus (GPa) = 73.80155 79.39193 76.59674
# Shear Modulus (GPa) = 20.78634 23.11498 21.95066
#
# Velocity S-wave (km/s) = 3.51629 3.70802 3.61343
# Velocity P-wave (km/s) = 7.77077 8.09673 7.93542
#
# Compressibility (1/GPa) = 0.01354985
#
# Stress axis : x y z
#
# Youngs Moduli (GPa) = 53.20766 41.55999 68.74542
#
# Poissons Ratio (x) = 0.35784 0.31845
# Poissons Ratio (y) = 0.45813 0.59697
# Poissons Ratio (z) = 0.24647 0.36090
#
# Static dielectric constant tensor:
#      x y z
#    x 1.537450 0.000000 0.002470 
#    y 0.000000 1.563810 0.000000 
#    z 0.002470 0.000000 1.569770 
# 
# From -- ./inp_files/380742.got.cif
#   From: 2010.05.17/outbox.cif.g08.bks.cpg/sg12_191_cif.got.tgz:380742.got - 2010.06.03 13:09:07.
