data_PCOD9180287
_publ_section_title
;
Structure prediction by ZEFSAII (Michael W. Deem and Ramdas Pophale) SiO2 
 PCOD9180287
Probable space group: C 2/M
;
_chemical_formula_sum "Si O2"
_cell_formula_units_Z 48
_cell_length_a 19.256794
_cell_length_b 35.513767
_cell_length_c 5.246809
_cell_angle_alpha 90.000000
_cell_angle_beta 84.553845
_cell_angle_gamma 90.000000
_cell_volume 3571.996822
_symmetry_space_group_name_H-M "C 2/M"
_symmetry_group_IT_number 12
_symmetry_cell_setting 'monoclinic'
loop_
_space_group_symop_operation_xyz
x,y,z
-x,y,-z
-x,-y,-z
x,-y,z
1/2+x,1/2+y,z
1/2-x,1/2+y,-z
1/2-x,1/2-y,-z
1/2+x,1/2-y,z
loop_
_atom_site_type_symbol
_atom_site_label
_atom_site_fract_x
_atom_site_fract_y
_atom_site_fract_z
Si Si1 0.761266 0.795230 0.457082
Si Si2 0.451899 0.958240 0.267844
Si Si3 0.687823 0.280955 0.060660
Si Si4 0.881322 0.336313 0.644214
Si Si5 0.918996 0.620118 0.117520
Si Si6 0.955459 0.260382 0.759279
O O1 0.750000 0.750000 0.500000
O O2 0.785905 0.808159 0.725504
O O3 0.691715 0.815821 0.391095
O O4 0.817610 0.799265 0.214448
O O5 0.500000 0.949936 0.500000
O O6 0.404171 0.922432 0.219490
O O7 0.420373 0.000000 0.319864
O O8 0.500000 0.961065 0.000000
O O9 0.616657 0.261837 0.174009
O O10 0.750000 0.250000 0.000000
O O11 0.907171 0.354329 0.370621
O O12 0.933295 0.303399 0.715263
O O13 0.877877 0.365238 0.882762
O O14 0.000000 0.621180 0.000000
O O15 0.000000 0.247317 0.500000
O O16 0.000000 0.258022 0.000000
#
# Coordination Sequence:
#
# PCOD9180287 Si02
#       6
#     8   8   8   8   8   8
#     4  10  19  32  48  54  71 107 146 161 193 265
#     4   9  17  30  46  58  75 109 142 161 195 263
#     4  10  19  34  46  55  74 105 140 165 196 267
#     4  12  21  31  43  61  83 106 130 172 224 267
#     4  11  21  31  40  62  88 104 125 173 229 263
#     4  12  23  30  43  63  81 100 131 175 225 261
#
# _framework density 13.437863
#
# number of rings (size 3 to 8) (size 9 to 14) (size 15 to 20)
#    0.000    1.333    3.333    7.000    4.667    0.000 
#    0.000    0.000    0.000    0.000    0.000    0.000 
#    0.000    0.000    0.000    0.000    0.000    0.000 
#
# Total GULP energy -133673.727201 kJ/mol
# GULP energy per Si atom -5569.738633 kJ/mol
# Density = 1.340728 g / cm^3
# Si number density = 13.437863 Si / 1000 Ang^3
#
#
#
# Elastic Constant Matrix: (Units=GPa)
#
#
# Indices 1 2 3 4 5 6 
#
# 1 63.9215 31.3023 34.8662 0.0000 -0.6516 0.0000
# 2 31.3023 59.9659 28.5349 0.0000 5.9826 0.0000
# 3 34.8662 28.5349 137.3722 0.0000 5.8404 0.0000
# 4 0.0000 0.0000 0.0000 16.8440 0.0000 5.1324
# 5 -0.6516 5.9826 5.8404 0.0000 22.1059 0.0000
# 6 0.0000 0.0000 0.0000 5.1324 0.0000 12.8704
#
#
#
# Elastic Compliance Matrix: (Units=1/GPa)
#
#
# Indices 1 2 3 4 5 6 
#
# 1 0.022981 -0.010635 -0.003818 0.000000 0.004564 0.000000
# 2 -0.010635 0.023790 -0.001978 0.000000 -0.006229 0.000000
# 3 -0.003818 -0.001978 0.008739 0.000000 -0.001886 0.000000
# 4 0.000000 0.000000 0.000000 0.067580 0.000000 -0.026949
# 5 0.004564 -0.006229 -0.001886 0.000000 0.047556 0.000000
# 6 0.000000 0.000000 0.000000 -0.026949 0.000000 0.088444
#
#
# Mechanical properties :
#
#
# Convention : Reuss Voigt Hill
#
# Bulk Modulus (GPa) = 44.14976 50.07405 47.11190
# Shear Modulus (GPa) = 16.69447 21.46779 19.08113
#
# Velocity S-wave (km/s) = 3.52852 4.00128 3.77231
# Velocity P-wave (km/s) = 7.03752 7.66103 7.35588
#
# Compressibility (1/GPa) = 0.02265018
#
# Stress axis : x y z
#
# Youngs Moduli (GPa) = 43.51433 42.03440 114.42351
#
# Poissons Ratio (x) = 0.44702 0.43684
# Poissons Ratio (y) = 0.46276 0.22629
# Poissons Ratio (z) = 0.16613 0.08313
#
# Static dielectric constant tensor:
#      x y z
#    x 1.371530 0.000000 -0.122010 
#    y 0.000000 -1.471990 0.000000 
#    z -0.122010 0.000000 1.255850 
# 
# From -- ./inp_files/17199.got.cif
#   From: 2010.05.17/outbox.cif.g08.bks.cpg/sg12_9_cif.got.tgz:17199.got - 2010.06.03 13:09:07.
