data_PCOD9180697
_publ_section_title
;
Structure prediction by ZEFSAII (Michael W. Deem and Ramdas Pophale) SiO2 
 PCOD9180697
Probable space group: C 2/M
;
_chemical_formula_sum "Si O2"
_cell_formula_units_Z 48
_cell_length_a 33.226525
_cell_length_b 8.701644
_cell_length_c 18.910990
_cell_angle_alpha 90.000000
_cell_angle_beta 149.954306
_cell_angle_gamma 90.000000
_cell_volume 2737.599138
_symmetry_space_group_name_H-M "C 2/M"
_symmetry_group_IT_number 12
_symmetry_cell_setting 'monoclinic'
loop_
_space_group_symop_operation_xyz
x,y,z
-x,y,-z
-x,-y,-z
x,-y,z
1/2+x,1/2+y,z
1/2-x,1/2+y,-z
1/2-x,1/2-y,-z
1/2+x,1/2-y,z
loop_
_atom_site_type_symbol
_atom_site_label
_atom_site_fract_x
_atom_site_fract_y
_atom_site_fract_z
Si Si1 0.918344 0.313176 0.599678
Si Si2 0.256723 0.314332 0.931830
Si Si3 0.659165 0.822801 0.655526
Si Si4 0.762832 0.816915 0.441840
Si Si5 0.592826 0.815998 0.924916
Si Si6 0.673051 0.322665 0.177915
O O1 0.910088 0.500000 0.586944
O O2 0.904417 0.257672 0.497363
O O3 0.846802 0.245165 0.537888
O O4 0.004868 0.274511 0.762609
O O5 0.255051 0.500000 0.929483
O O6 0.184438 0.257205 0.769939
O O7 0.250000 0.250000 0.000000
O O8 0.339207 0.258793 0.021238
O O9 0.742971 0.821236 0.738794
O O10 0.635791 0.000000 0.632526
O O11 0.750000 0.750000 0.500000
O O12 0.693880 0.759817 0.282773
O O13 0.763749 0.000000 0.445029
O O14 0.601479 0.000000 0.935738
O O15 0.609577 0.758277 0.029959
O O16 0.651666 0.500000 0.157342
#
# Coordination Sequence:
#
# PCOD9180697 Si02
#       6
#     8   8   8   8   8   8
#     4   9  18  34  54  76 103 133 168 210 256 306
#     4  10  19  32  51  73 100 134 173 216 260 306
#     4   7  13  28  49  69  91 127 167 201 243 297
#     4  11  21  34  54  78 104 134 171 212 254 301
#     4  10  19  32  53  79 104 132 168 210 256 306
#     4   9  17  32  52  73 101 135 170 206 248 302
#
# _framework density 17.533612000000002
#
# number of rings (size 3 to 8) (size 9 to 14) (size 15 to 20)
#    0.000    2.667    0.000    5.000    0.000    1.333 
#    0.000    2.500    0.000   10.000    0.000    0.000 
#    0.000    0.000    0.000    0.000    0.000    0.000 
#
# Total GULP energy -133705.966291 kJ/mol
# GULP energy per Si atom -5571.081929 kJ/mol
# Density = 1.749370 g / cm^3
# Si number density = 17.533612 Si / 1000 Ang^3
#
#
#
# Elastic Constant Matrix: (Units=GPa)
#
#
# Indices 1 2 3 4 5 6 
#
# 1 100.7713 36.4007 72.2523 0.0000 -41.8749 0.0000
# 2 36.4007 70.0649 54.8952 0.0000 -14.7126 0.0000
# 3 72.2523 54.8952 175.6078 0.0000 -40.9804 0.0000
# 4 0.0000 0.0000 0.0000 25.2844 0.0000 -5.4051
# 5 -41.8749 -14.7126 -40.9804 0.0000 31.4334 0.0000
# 6 0.0000 0.0000 0.0000 -5.4051 0.0000 27.6023
#
#
#
# Elastic Compliance Matrix: (Units=1/GPa)
#
#
# Indices 1 2 3 4 5 6 
#
# 1 0.025084 -0.005536 -0.002007 0.000000 0.028209 0.000000
# 2 -0.005536 0.020183 -0.005099 0.000000 -0.004576 0.000000
# 3 -0.002007 -0.005099 0.009965 0.000000 0.007931 0.000000
# 4 0.000000 0.000000 0.000000 0.041278 0.000000 0.008083
# 5 0.028209 -0.004576 0.007931 0.000000 0.077590 0.000000
# 6 0.000000 0.000000 0.000000 0.008083 0.000000 0.037812
#
#
# Mechanical properties :
#
#
# Convention : Reuss Voigt Hill
#
# Bulk Modulus (GPa) = 33.39207 74.83782 54.11495
# Shear Modulus (GPa) = 20.22815 29.05708 24.64261
#
# Velocity S-wave (km/s) = 3.40027 4.07531 3.75300
# Velocity P-wave (km/s) = 5.87382 8.05726 7.05057
#
# Compressibility (1/GPa) = 0.02994723
#
# Stress axis : x y z
#
# Youngs Moduli (GPa) = 39.86554 49.54673 100.34796
#
# Poissons Ratio (x) = 0.27429 0.20143
# Poissons Ratio (y) = 0.22069 0.51172
# Poissons Ratio (z) = 0.08002 0.25266
#
# Static dielectric constant tensor:
#      x y z
#    x 1.579040 0.000000 -0.031140 
#    y 0.000000 1.596050 0.000000 
#    z -0.031140 0.000000 1.623800 
# 
# From -- ./inp_files/273621.got.cif
#   From: 2010.05.17/outbox.cif.g08.bks.cpg/sg12_137_cif.got.tgz:273621.got - 2010.06.03 13:09:07.
