data_PCOD9180458
_publ_section_title
;
Structure prediction by ZEFSAII (Michael W. Deem and Ramdas Pophale) SiO2 
 PCOD9180458
Probable space group: C 2/M
;
_chemical_formula_sum "Si O2"
_cell_formula_units_Z 48
_cell_length_a 5.499297
_cell_length_b 21.336931
_cell_length_c 17.045972
_cell_angle_alpha 90.000000
_cell_angle_beta 80.717297
_cell_angle_gamma 90.000000
_cell_volume 1973.949371
_symmetry_space_group_name_H-M "C 2/M"
_symmetry_group_IT_number 12
_symmetry_cell_setting 'monoclinic'
loop_
_space_group_symop_operation_xyz
x,y,z
-x,y,-z
-x,-y,-z
x,-y,z
1/2+x,1/2+y,z
1/2-x,1/2+y,-z
1/2-x,1/2-y,-z
1/2+x,1/2-y,z
loop_
_atom_site_type_symbol
_atom_site_label
_atom_site_fract_x
_atom_site_fract_y
_atom_site_fract_z
Si Si1 0.543225 0.389645 0.913552
Si Si2 0.544427 0.809105 0.911150
Si Si3 0.827492 0.567944 0.344995
Si Si4 0.732664 0.176751 0.534673
Si Si5 0.873463 0.915677 0.253050
Si Si6 0.628174 0.266976 0.743665
O O1 0.294507 0.349071 0.909007
O O2 0.580735 0.434033 0.838525
O O3 0.796491 0.349072 0.909005
O O4 0.500000 0.419788 0.000000
O O5 0.585221 0.768449 0.829565
O O6 0.500000 0.777848 0.000000
O O7 0.804447 0.500000 0.391107
O O8 0.808744 0.638107 0.382507
O O9 0.602063 0.566530 0.295333
O O10 0.102570 0.566531 0.295324
O O11 0.500000 0.151411 0.500000
O O12 0.750000 0.250000 0.500000
O O13 0.000000 0.151411 0.500000
O O14 0.876146 0.840406 0.247698
O O15 0.399967 0.249999 0.700078
#
# Coordination Sequence:
#
# PCOD9180458 Si02
#       6
#     8   8   8   8   8   8
#     4  10  20  36  59  89 135 191 251 310 380 439
#     4  10  19  32  49  80 126 177 229 290 375 480
#     4  12  28  50  77 106 142 201 252 298 357 436
#     4  10  23  50  77 118 156 185 223 284 360 440
#     4  12  24  43  66 102 144 192 255 315 363 434
#     4  12  21  35  52  88 136 182 224 286 372 449
#
# _framework density 24.316735000000001
#
# number of rings (size 3 to 8) (size 9 to 14) (size 15 to 20)
#    0.000    1.000    3.333    3.500    0.000    2.000 
#   18.000    0.000    0.000    3.000    0.000    0.000 
#    0.000    0.000    0.000    0.000    0.000    0.000 
#
# Total GULP energy -133767.222691 kJ/mol
# GULP energy per Si atom -5573.634279 kJ/mol
# Density = 2.426139 g / cm^3
# Si number density = 24.316735 Si / 1000 Ang^3
#
#
#
# Elastic Constant Matrix: (Units=GPa)
#
#
# Indices 1 2 3 4 5 6 
#
# 1 252.4356 41.8559 47.7983 0.0000 9.8893 0.0000
# 2 41.8559 153.5328 49.1254 0.0000 -0.5611 0.0000
# 3 47.7983 49.1254 83.1582 0.0000 3.0708 0.0000
# 4 0.0000 0.0000 0.0000 -16.3575 0.0000 48.9028
# 5 9.8893 -0.5611 3.0708 0.0000 38.2795 0.0000
# 6 0.0000 0.0000 0.0000 48.9028 0.0000 626.5269
#
#
#
# Elastic Compliance Matrix: (Units=1/GPa)
#
#
# Indices 1 2 3 4 5 6 
#
# 1 0.004512 -0.000512 -0.002254 0.000000 -0.000992 0.000000
# 2 -0.000512 0.008099 -0.004513 0.000000 0.000613 0.000000
# 3 -0.002254 -0.004513 0.016015 0.000000 -0.000769 0.000000
# 4 0.000000 0.000000 0.000000 -0.049567 0.000000 0.003869
# 5 -0.000992 0.000613 -0.000769 0.000000 0.026451 0.000000
# 6 0.000000 0.000000 0.000000 0.003869 0.000000 0.001294
#
#
# Mechanical properties :
#
#
# Convention : Reuss Voigt Hill
#
# Bulk Modulus (GPa) = 71.08369 85.18733 78.13551
# Shear Modulus (GPa) = 191.92916 153.04624 172.48770
#
# Velocity S-wave (km/s) = 8.89383 7.94199 8.43135
# Velocity P-wave (km/s) = 11.60874 10.91828 11.26880
#
# Compressibility (1/GPa) = 0.01406792
#
# Stress axis : x y z
#
# Youngs Moduli (GPa) = 221.62814 123.47055 62.44116
#
# Poissons Ratio (x) = 0.06327 0.14075
# Poissons Ratio (y) = 0.11358 0.28177
# Poissons Ratio (z) = 0.49957 0.55717
#
# Static dielectric constant tensor:
#      x y z
#    x 1.959050 0.000000 -0.004430 
#    y 0.000000 1.881680 0.000000 
#    z -0.004430 0.000000 2.017050 
# 
# From -- ./inp_files/297764.got.cif
#   From: 2010.05.17/outbox.cif.g08.bks.cpg/sg12_149_cif.got.tgz:297764.got - 2010.06.03 13:09:07.
