data_PCOD9180792
_publ_section_title
;
Structure prediction by ZEFSAII (Michael W. Deem and Ramdas Pophale) SiO2 
 PCOD9180792
Probable space group: C 2/M
;
_chemical_formula_sum "Si O2"
_cell_formula_units_Z 56
_cell_length_a 31.259810
_cell_length_b 7.566761
_cell_length_c 15.171541
_cell_angle_alpha 90.000000
_cell_angle_beta 133.605326
_cell_angle_gamma 90.000000
_cell_volume 2598.539027
_symmetry_space_group_name_H-M "C 2/M"
_symmetry_group_IT_number 12
_symmetry_cell_setting 'monoclinic'
loop_
_space_group_symop_operation_xyz
x,y,z
-x,y,-z
-x,-y,-z
x,-y,z
1/2+x,1/2+y,z
1/2-x,1/2+y,-z
1/2-x,1/2-y,-z
1/2+x,1/2-y,z
loop_
_atom_site_type_symbol
_atom_site_label
_atom_site_fract_x
_atom_site_fract_y
_atom_site_fract_z
Si Si1 0.064201 0.284491 0.195137
Si Si2 0.875791 0.207755 0.215433
Si Si3 0.679868 0.786610 0.041855
Si Si4 0.111363 0.712174 0.442452
Si Si5 0.995498 0.294674 0.591470
Si Si6 0.306684 0.711725 0.285838
Si Si7 0.070640 0.284443 0.003934
O O1 0.064786 0.500000 0.193843
O O2 0.105364 0.223707 0.333703
O O3 0.080326 0.228403 0.119196
O O4 0.996038 0.232159 0.116360
O O5 0.938512 0.288094 0.276789
O O6 0.851957 0.279138 0.274895
O O7 0.886132 0.000000 0.239418
O O8 0.828238 0.237065 0.071459
O O9 0.741180 0.722642 0.170693
O O10 0.622637 0.722279 0.014342
O O11 0.679879 0.000000 0.046373
O O12 0.106462 0.500000 0.430334
O O13 0.168502 0.751061 0.582176
O O14 0.054941 0.781799 0.417924
O O15 0.979120 0.500000 0.556568
O O16 0.000000 0.214294 0.500000
O O17 0.305310 0.500000 0.273615
O O18 0.071255 0.500000 0.003078
#
# Coordination Sequence:
#
# PCOD9180792 Si02
#       7
#     8   8   8   8   8   8   8
#     4   8  14  26  49  80 102 119 153 204 256 295
#     4  11  22  34  50  73 101 133 167 208 254 296
#     4  10  20  35  54  72  95 132 174 210 244 291
#     4  10  19  32  52  76 102 132 166 204 246 294
#     4  10  19  32  51  75 100 128 165 204 242 291
#     4  10  22  36  48  68 101 138 171 203 246 297
#     4   8  14  28  51  76 100 122 155 207 253 292
#
# _framework density 21.550571000000001
#
# number of rings (size 3 to 8) (size 9 to 14) (size 15 to 20)
#    0.000    2.429    1.429    2.571    0.000    4.286 
#    0.000    0.714    0.000    0.857    0.000    3.000 
#    0.000    0.000    0.000    0.000    0.000    0.000 
#
# Total GULP energy -156340.658771 kJ/mol
# GULP energy per Si atom -5583.594956 kJ/mol
# Density = 2.150152 g / cm^3
# Si number density = 21.550571 Si / 1000 Ang^3
#
#
#
# Elastic Constant Matrix: (Units=GPa)
#
#
# Indices 1 2 3 4 5 6 
#
# 1 30.3948 2.6427 15.1743 0.0000 -4.9592 0.0000
# 2 2.6427 49.9009 -8.4640 0.0000 -1.0750 0.0000
# 3 15.1743 -8.4640 153.9032 0.0000 -13.5520 0.0000
# 4 0.0000 0.0000 0.0000 17.4380 0.0000 1.9681
# 5 -4.9592 -1.0750 -13.5520 0.0000 25.8781 0.0000
# 6 0.0000 0.0000 0.0000 1.9681 0.0000 -2.4605
#
#
#
# Elastic Compliance Matrix: (Units=1/GPa)
#
#
# Indices 1 2 3 4 5 6 
#
# 1 0.035514 -0.002312 -0.003185 0.000000 0.005042 0.000000
# 2 -0.002312 0.020434 0.001455 0.000000 0.001167 0.000000
# 3 -0.003185 0.001455 0.007174 0.000000 0.003207 0.000000
# 4 0.000000 0.000000 0.000000 0.052598 0.000000 0.042071
# 5 0.005042 0.001167 0.003207 0.000000 0.041337 0.000000
# 6 0.000000 0.000000 0.000000 0.042071 0.000000 -0.372772
#
#
# Mechanical properties :
#
#
# Convention : Reuss Voigt Hill
#
# Bulk Modulus (GPa) = 18.16961 28.10053 23.13507
# Shear Modulus (GPa) = -26.41527 23.16086 -1.62721
#
# Velocity S-wave (km/s) = -3.50485 3.28185 -0.86989
# Velocity P-wave (km/s) = 2.81587 5.23721 3.12244
#
# Compressibility (1/GPa) = 0.05503695
#
# Stress axis : x y z
#
# Youngs Moduli (GPa) = 28.15795 48.93792 139.39249
#
# Poissons Ratio (x) = 0.11316 0.44393
# Poissons Ratio (y) = 0.06511 -0.20276
# Poissons Ratio (z) = 0.08968 -0.07118
#
# Static dielectric constant tensor:
#      x y z
#    x 1.768240 0.000000 -0.008230 
#    y 0.000000 1.814320 0.000000 
#    z -0.008230 0.000000 1.797720 
# 
# From -- ./inp_files/237807.got.cif
#   From: 2010.05.17/outbox.cif.g08.bks.cpg/sg12_119_cif.got.tgz:237807.got - 2010.06.03 13:09:07.
