data_PCOD9180677
_publ_section_title
;
Structure prediction by ZEFSAII (Michael W. Deem and Ramdas Pophale) SiO2 
 PCOD9180677
Probable space group: C 2/M
;
_chemical_formula_sum "Si O2"
_cell_formula_units_Z 54
_cell_length_a 15.358123
_cell_length_b 13.364329
_cell_length_c 22.238286
_cell_angle_alpha 90.000000
_cell_angle_beta 144.112654
_cell_angle_gamma 90.000000
_cell_volume 2675.639300
_symmetry_space_group_name_H-M "C 2/M"
_symmetry_group_IT_number 12
_symmetry_cell_setting 'monoclinic'
loop_
_space_group_symop_operation_xyz
x,y,z
-x,y,-z
-x,-y,-z
x,-y,z
1/2+x,1/2+y,z
1/2-x,1/2+y,-z
1/2-x,1/2-y,-z
1/2+x,1/2-y,z
loop_
_atom_site_type_symbol
_atom_site_label
_atom_site_fract_x
_atom_site_fract_y
_atom_site_fract_z
Si Si1 0.826541 0.619316 0.229592
Si Si2 0.966127 0.114399 0.246322
Si Si3 0.298963 0.382267 0.716348
Si Si4 0.000000 0.698982 0.500000
Si Si5 0.500000 0.500000 0.000000
Si Si6 0.346518 0.328844 0.983369
Si Si7 0.073801 0.745735 0.410001
Si Si8 0.173041 0.387942 0.007620
O O1 0.796479 0.500000 0.204522
O O2 0.736286 0.658429 0.237108
O O3 0.772901 0.669297 0.138252
O O4 0.996186 0.642957 0.342765
O O5 0.798553 0.110637 0.129483
O O6 0.066220 0.159262 0.247778
O O7 0.996823 0.173449 0.324019
O O8 0.016834 0.000000 0.283357
O O9 0.324833 0.500000 0.738797
O O10 0.147007 0.365791 0.594514
O O11 0.967121 0.758187 0.542964
O O12 0.462406 0.412060 0.028381
O O13 0.410923 0.217133 0.028293
O O14 0.261126 0.367337 0.994696
O O15 0.250000 0.750000 0.500000
O O16 0.103898 0.500000 0.967021
#
# Coordination Sequence:
#
# PCOD9180677 Si02
#       8
#     8   8   8   4   2   8   8   8
#     4  10  20  35  55  86 122 151 191 255 316 361
#     4  10  20  34  56  81 111 151 199 242 293 367
#     4   9  18  29  50  79 110 141 185 244 304 357
#     4  10  19  32  51  72 108 148 190 244 302 362
#     4  12  24  36  62 100 120 160 208 262 312 364
#     4  11  22  36  61  92 129 159 207 258 308 374
#     4  11  21  36  54  82 114 154 197 248 306 372
#     4  10  21  39  59  87 123 171 202 244 311 381
#
# _framework density 20.182092000000001
#
# number of rings (size 3 to 8) (size 9 to 14) (size 15 to 20)
#    0.000    1.778    4.444    0.222    2.074    1.185 
#    0.000    0.741    0.000    0.000    0.000    3.111 
#    0.000    0.000    0.000    0.000    0.000    0.000 
#
# Total GULP energy -150321.300624 kJ/mol
# GULP energy per Si atom -5567.455579 kJ/mol
# Density = 2.013616 g / cm^3
# Si number density = 20.182092 Si / 1000 Ang^3
#
#
#
# Elastic Constant Matrix: (Units=GPa)
#
#
# Indices 1 2 3 4 5 6 
#
# 1 72.6190 37.2667 20.6593 0.0000 -23.8960 0.0000
# 2 37.2667 130.9110 8.5092 0.0000 -12.6281 0.0000
# 3 20.6593 8.5092 84.5595 0.0002 -21.4015 0.0001
# 4 0.0000 0.0000 0.0002 23.3744 0.0001 -4.7405
# 5 -23.8960 -12.6281 -21.4015 0.0001 37.4892 0.0000
# 6 0.0000 0.0000 0.0001 -4.7405 0.0000 30.8674
#
#
#
# Elastic Compliance Matrix: (Units=1/GPa)
#
#
# Indices 1 2 3 4 5 6 
#
# 1 0.019991 -0.004592 -0.001857 0.000000 0.010135 0.000000
# 2 -0.004592 0.008952 0.000285 0.000000 0.000251 0.000000
# 3 -0.001857 0.000285 0.013998 0.000000 0.006904 0.000000
# 4 0.000000 0.000000 0.000000 0.044157 0.000000 0.006781
# 5 0.010135 0.000251 0.006904 0.000000 0.037160 0.000000
# 6 0.000000 0.000000 0.000000 0.006781 0.000000 0.033438
#
#
# Mechanical properties :
#
#
# Convention : Reuss Voigt Hill
#
# Bulk Modulus (GPa) = 32.66733 46.77333 39.72033
# Shear Modulus (GPa) = 27.74252 33.12316 30.43284
#
# Velocity S-wave (km/s) = 3.71160 4.05559 3.88740
# Velocity P-wave (km/s) = 5.88127 6.71985 6.31450
#
# Compressibility (1/GPa) = 0.03061162
#
# Stress axis : x y z
#
# Youngs Moduli (GPa) = 50.02360 111.70968 71.43757
#
# Poissons Ratio (x) = 0.51301 0.13264
# Poissons Ratio (y) = 0.22973 -0.02033
# Poissons Ratio (z) = 0.09288 -0.03179
#
# Static dielectric constant tensor:
#      x y z
#    x 1.752950 0.000000 0.062590 
#    y 0.000000 1.743040 0.000000 
#    z 0.062590 0.000000 1.757980 
# 
# From -- ./inp_files/310877.got.cif
#   From: 2010.05.17/outbox.cif.g08.bks.cpg/sg12_156_cif.got.tgz:310877.got - 2010.06.03 13:09:07.
