data_PCOD9180890
_publ_section_title
;
Structure prediction by ZEFSAII (Michael W. Deem and Ramdas Pophale) SiO2 
 PCOD9180890
Probable space group: C 2/M
;
_chemical_formula_sum "Si O2"
_cell_formula_units_Z 56
_cell_length_a 16.724579
_cell_length_b 21.191015
_cell_length_c 8.362833
_cell_angle_alpha 90.000000
_cell_angle_beta 114.152111
_cell_angle_gamma 90.000000
_cell_volume 2704.427630
_symmetry_space_group_name_H-M "C 2/M"
_symmetry_group_IT_number 12
_symmetry_cell_setting 'monoclinic'
loop_
_space_group_symop_operation_xyz
x,y,z
-x,y,-z
-x,-y,-z
x,-y,z
1/2+x,1/2+y,z
1/2-x,1/2+y,-z
1/2-x,1/2-y,-z
1/2+x,1/2-y,z
loop_
_atom_site_type_symbol
_atom_site_label
_atom_site_fract_x
_atom_site_fract_y
_atom_site_fract_z
Si Si1 0.400260 0.430806 0.470632
Si Si2 0.836652 0.827828 0.178223
Si Si3 0.587844 0.872758 0.655588
Si Si4 0.838533 0.737349 0.478830
Si Si5 0.751883 0.429188 0.071315
Si Si6 0.516303 0.239077 0.825166
Si Si7 0.916057 0.926199 0.835303
O O1 0.500000 0.437617 0.500000
O O2 0.358047 0.500000 0.444158
O O3 0.364308 0.389205 0.299888
O O4 0.397499 0.399785 0.643843
O O5 0.823741 0.776912 0.305164
O O6 0.913087 0.795827 0.136241
O O7 0.756625 0.859676 0.019527
O O8 0.500000 0.897033 0.500000
O O9 0.642547 0.833110 0.567754
O O10 0.652576 0.925054 0.774484
O O11 0.555895 0.821984 0.764332
O O12 0.750000 0.750000 0.500000
O O13 0.926074 0.754021 0.653630
O O14 0.742805 0.500000 0.988157
O O15 0.670218 0.425239 0.127542
O O16 0.500000 0.227868 0.000000
O O17 0.938868 0.000000 0.820249
O O18 0.000000 0.900446 0.000000
#
# Coordination Sequence:
#
# PCOD9180890 Si02
#       7
#     8   8   8   8   8   8   8
#     4  10  19  32  51  76 119 171 204 237 293 361
#     4  11  23  36  57  87 131 159 201 250 314 376
#     4   9  22  45  65  90 125 161 212 270 319 371
#     4  10  23  39  63  95 124 161 211 262 319 377
#     4  11  24  40  64  95 127 169 215 256 311 379
#     4  10  23  41  65  94 126 165 210 261 325 377
#     4   9  19  34  52  80 118 160 205 247 294 359
#
# _framework density 20.706783999999999
#
# number of rings (size 3 to 8) (size 9 to 14) (size 15 to 20)
#    0.000    2.000    0.000    3.429    6.000    5.429 
#    0.000    0.000    0.000    0.857    0.000    0.000 
#    0.000    0.000    0.000    0.000    0.000    0.000 
#
# Total GULP energy -156024.491065 kJ/mol
# GULP energy per Si atom -5572.303252 kJ/mol
# Density = 2.065965 g / cm^3
# Si number density = 20.706784 Si / 1000 Ang^3
#
#
#
# Elastic Constant Matrix: (Units=GPa)
#
#
# Indices 1 2 3 4 5 6 
#
# 1 96.9162 11.6435 35.7871 0.0000 7.0358 0.0000
# 2 11.6435 47.7498 18.0431 0.0000 13.4990 0.0000
# 3 35.7871 18.0431 83.4005 0.0000 9.2467 0.0000
# 4 0.0000 0.0000 0.0000 38.9142 0.0000 7.9304
# 5 7.0358 13.4990 9.2467 0.0000 34.3283 0.0000
# 6 0.0000 0.0000 0.0000 7.9304 0.0000 10.0806
#
#
#
# Elastic Compliance Matrix: (Units=1/GPa)
#
#
# Indices 1 2 3 4 5 6 
#
# 1 0.012334 -0.000879 -0.005010 0.000000 -0.000833 0.000000
# 2 -0.000879 0.025140 -0.004108 0.000000 -0.008599 0.000000
# 3 -0.005010 -0.004108 0.015190 0.000000 -0.001449 0.000000
# 4 0.000000 0.000000 0.000000 0.030604 0.000000 -0.024076
# 5 -0.000833 -0.008599 -0.001449 0.000000 0.033073 0.000000
# 6 0.000000 0.000000 0.000000 -0.024076 0.000000 0.118142
#
#
# Mechanical properties :
#
#
# Convention : Reuss Voigt Hill
#
# Bulk Modulus (GPa) = 30.60985 39.89043 35.25014
# Shear Modulus (GPa) = 18.84177 27.50413 23.17295
#
# Velocity S-wave (km/s) = 3.01978 3.64849 3.34892
# Velocity P-wave (km/s) = 5.19359 6.08727 5.65810
#
# Compressibility (1/GPa) = 0.03266922
#
# Stress axis : x y z
#
# Youngs Moduli (GPa) = 81.07477 39.77680 65.83425
#
# Poissons Ratio (x) = 0.03497 0.32984
# Poissons Ratio (y) = 0.07127 0.27047
# Poissons Ratio (z) = 0.40620 0.16342
#
# Static dielectric constant tensor:
#      x y z
#    x 1.720370 0.000000 -0.000870 
#    y 0.000000 1.831320 0.000000 
#    z -0.000870 0.000000 1.905390 
# 
# From -- ./inp_files/65777.got.cif
#   From: 2010.05.17/outbox.cif.g08.bks.cpg/sg12_33_cif.got.tgz:65777.got - 2010.06.03 13:09:07.
