data_PCOD9180066
_publ_section_title
;
Structure prediction by ZEFSAII (Michael W. Deem and Ramdas Pophale) SiO2 
 PCOD9180066
Probable space group: C 2/M
;
_chemical_formula_sum "Si O2"
_cell_formula_units_Z 64
_cell_length_a 20.918915
_cell_length_b 9.085001
_cell_length_c 26.977498
_cell_angle_alpha 90.000000
_cell_angle_beta 47.067832
_cell_angle_gamma 90.000000
_cell_volume 3753.808892
_symmetry_space_group_name_H-M "C 2/M"
_symmetry_group_IT_number 12
_symmetry_cell_setting 'monoclinic'
loop_
_space_group_symop_operation_xyz
x,y,z
-x,y,-z
-x,-y,-z
x,-y,z
1/2+x,1/2+y,z
1/2-x,1/2+y,-z
1/2-x,1/2-y,-z
1/2+x,1/2-y,z
loop_
_atom_site_type_symbol
_atom_site_label
_atom_site_fract_x
_atom_site_fract_y
_atom_site_fract_z
Si Si1 0.422975 0.324378 0.671491
Si Si2 0.251160 0.675899 0.422292
Si Si3 0.220733 0.824051 0.171640
Si Si4 0.279206 0.176197 0.035001
Si Si5 0.110649 0.675265 0.582240
Si Si6 0.643044 0.675087 0.827664
Si Si7 0.786162 0.676564 0.671080
Si Si8 0.021138 0.676658 0.045524
O O1 0.430574 0.500000 0.661744
O O2 0.367014 0.294760 0.751137
O O3 0.517196 0.250728 0.625444
O O4 0.365150 0.257662 0.657331
O O5 0.268154 0.500000 0.413909
O O6 0.170581 0.704351 0.502095
O O7 0.334508 0.758868 0.400850
O O8 0.226831 0.718558 0.379194
O O9 0.298291 0.741511 0.159106
O O10 0.238213 0.000000 0.165202
O O11 0.221945 0.782024 0.113424
O O12 0.379504 0.214384 0.994307
O O13 0.274099 0.000000 0.032457
O O14 0.250000 0.250000 0.000000
O O15 0.100985 0.500000 0.592523
O O16 0.636381 0.500000 0.836111
O O17 0.698180 0.707978 0.748866
O O18 0.548586 0.747647 0.881790
O O19 0.801468 0.500000 0.665435
O O20 0.011274 0.500000 0.053785
O O21 0.000000 0.720131 0.000000
#
# Coordination Sequence:
#
# PCOD9180066 Si02
#       8
#     8   8   8   8   8   8   8   8
#     4  10  20  34  56  81 106 140 178 216 259 314
#     4   9  19  37  58  77 105 144 178 212 261 315
#     4   9  18  36  56  73 101 143 178 206 256 317
#     4  10  21  37  55  75 102 137 173 216 261 306
#     4  10  20  35  56  80 107 140 178 219 259 308
#     4  10  19  31  53  83 107 130 169 222 263 299
#     4   9  19  36  55  78 109 140 173 217 265 310
#     4  10  19  35  57  75 100 139 177 210 253 314
#
# _framework density 17.049348999999999
#
# number of rings (size 3 to 8) (size 9 to 14) (size 15 to 20)
#    0.000    2.375    1.250    1.125    0.000    3.750 
#    2.250    2.500    0.000    0.000    0.000    0.000 
#    0.000    0.000    0.000    0.000    0.000    0.000 
#
# Total GULP energy -178516.063293 kJ/mol
# GULP energy per Si atom -5578.626978 kJ/mol
# Density = 1.701054 g / cm^3
# Si number density = 17.049349 Si / 1000 Ang^3
#
#
#
# Elastic Constant Matrix: (Units=GPa)
#
#
# Indices 1 2 3 4 5 6 
#
# 1 145.1764 61.8198 99.3246 0.0000 8.2879 0.0002
# 2 61.8198 42.0537 57.2726 0.0000 -3.1621 0.0001
# 3 99.3246 57.2726 112.9869 0.0000 9.4426 0.0000
# 4 0.0000 0.0000 0.0000 28.5606 0.0000 -3.2187
# 5 8.2879 -3.1621 9.4426 0.0000 32.2682 0.0000
# 6 0.0002 0.0001 0.0000 -3.2187 0.0000 34.2667
#
#
#
# Elastic Compliance Matrix: (Units=1/GPa)
#
#
# Indices 1 2 3 4 5 6 
#
# 1 0.021777 -0.022674 -0.007173 0.000000 -0.005716 0.000000
# 2 -0.022674 0.114390 -0.040464 0.000000 0.028874 0.000000
# 3 -0.007173 -0.040464 0.036743 0.000000 -0.012875 0.000000
# 4 0.000000 0.000000 0.000000 0.035388 0.000000 0.003324
# 5 -0.005716 0.028874 -0.012875 0.000000 0.039056 0.000000
# 6 0.000000 0.000000 0.000000 0.003324 0.000000 0.029495
#
#
# Mechanical properties :
#
#
# Convention : Reuss Voigt Hill
#
# Bulk Modulus (GPa) = 30.97159 81.89455 56.43307
# Shear Modulus (GPa) = 11.67589 24.47243 18.07416
#
# Velocity S-wave (km/s) = 2.61976 3.79276 3.25946
# Velocity P-wave (km/s) = 5.23031 8.20476 6.88020
#
# Compressibility (1/GPa) = 0.03228766
#
# Stress axis : x y z
#
# Youngs Moduli (GPa) = 45.92009 8.74204 27.21607
#
# Poissons Ratio (x) = 0.19822 0.19521
# Poissons Ratio (y) = 1.04120 1.10128
# Poissons Ratio (z) = 0.32936 0.35374
#
# Static dielectric constant tensor:
#      x y z
#    x 1.539390 0.000000 0.000570 
#    y 0.000000 1.568910 0.000000 
#    z 0.000570 0.000000 1.585010 
# 
# From -- ./inp_files/346010.got.cif
#   From: 2010.05.17/outbox.cif.g08.bks.cpg/sg12_174_cif.got.tgz:346010.got - 2010.06.03 13:09:07.
