data_PCOD9180512
_publ_section_title
;
Structure prediction by ZEFSAII (Michael W. Deem and Ramdas Pophale) SiO2 
 PCOD9180512
Probable space group: C 2/M
;
_chemical_formula_sum "Si O2"
_cell_formula_units_Z 64
_cell_length_a 18.281035
_cell_length_b 14.294441
_cell_length_c 28.846127
_cell_angle_alpha 90.000000
_cell_angle_beta 28.289536
_cell_angle_gamma 90.000000
_cell_volume 3572.459257
_symmetry_space_group_name_H-M "C 2/M"
_symmetry_group_IT_number 12
_symmetry_cell_setting 'monoclinic'
loop_
_space_group_symop_operation_xyz
x,y,z
-x,y,-z
-x,-y,-z
x,-y,z
1/2+x,1/2+y,z
1/2-x,1/2+y,-z
1/2-x,1/2-y,-z
1/2+x,1/2-y,z
loop_
_atom_site_type_symbol
_atom_site_label
_atom_site_fract_x
_atom_site_fract_y
_atom_site_fract_z
Si Si1 0.490258 0.717935 0.449365
Si Si2 0.710465 0.894530 0.720258
Si Si3 0.144719 0.106718 0.014276
Si Si4 0.521259 0.285660 0.814745
Si Si5 0.619717 0.816181 0.186008
Si Si6 0.821007 0.393446 0.675284
Si Si7 0.827815 0.106177 0.140042
Si Si8 0.698320 0.104247 0.614927
O O1 0.500000 0.716702 0.500000
O O2 0.624463 0.647539 0.356849
O O3 0.537892 0.821949 0.408227
O O4 0.324103 0.678544 0.527771
O O5 0.584028 0.814019 0.799391
O O6 0.717453 0.899711 0.660233
O O7 0.681126 0.000000 0.753637
O O8 0.103150 0.171919 0.080694
O O9 0.005315 0.119643 0.055138
O O10 0.136983 0.000000 0.034502
O O11 0.303327 0.125895 0.899302
O O12 0.452193 0.270396 0.802019
O O13 0.674405 0.350464 0.729162
O O14 0.755436 0.814911 0.147798
O O15 0.478724 0.865982 0.291035
O O16 0.853902 0.500000 0.643175
O O17 0.762215 0.393330 0.761027
O O18 0.810235 0.000000 0.129697
O O19 0.726315 0.000000 0.580883
#
# Coordination Sequence:
#
# PCOD9180512 Si02
#       8
#     8   8   8   8   8   8   8   8
#     4   9  16  27  44  69  96 124 162 199 237 286
#     4   8  14  25  42  64  92 123 153 190 237 286
#     4  10  19  32  50  72 100 132 163 197 241 294
#     4   9  18  30  46  73 102 123 155 201 246 288
#     4  11  19  29  46  71 100 126 160 203 249 294
#     4   9  18  34  53  72  98 132 166 199 237 286
#     4   9  18  32  50  71  96 128 163 200 244 293
#     4   9  16  25  40  64  95 125 153 194 241 282
#
# _framework density 17.914829999999998
#
# number of rings (size 3 to 8) (size 9 to 14) (size 15 to 20)
#    0.000    2.750    0.000    4.125    0.000    3.750 
#    0.000    0.625    0.000    0.000    0.000   17.500 
#    0.000   17.000    0.000    0.000    0.000    0.000 
#
# Total GULP energy -178173.122421 kJ/mol
# GULP energy per Si atom -5567.910076 kJ/mol
# Density = 1.787405 g / cm^3
# Si number density = 17.914830 Si / 1000 Ang^3
#
#
#
# Elastic Constant Matrix: (Units=GPa)
#
#
# Indices 1 2 3 4 5 6 
#
# 1 36.4840 14.7972 6.6381 0.0006 -3.3179 -0.0002
# 2 14.7972 100.6500 28.5676 -0.0011 -4.4621 -0.0001
# 3 6.6381 28.5676 69.8082 -0.0014 -14.9702 -0.0006
# 4 0.0006 -0.0011 -0.0014 23.5937 -0.0006 6.0341
# 5 -3.3179 -4.4621 -14.9702 -0.0006 11.9670 -0.0003
# 6 -0.0002 -0.0001 -0.0006 6.0341 -0.0003 16.6645
#
#
#
# Elastic Compliance Matrix: (Units=1/GPa)
#
#
# Indices 1 2 3 4 5 6 
#
# 1 0.029676 -0.004165 0.000429 -0.000001 0.007211 0.000001
# 2 -0.004165 0.011866 -0.005137 0.000000 -0.003156 0.000000
# 3 0.000429 -0.005137 0.021867 0.000002 0.025558 0.000001
# 4 -0.000001 0.000000 0.000002 0.046710 0.000004 -0.016913
# 5 0.007211 -0.003156 0.025558 0.000004 0.116358 0.000001
# 6 0.000001 0.000000 0.000001 -0.016913 0.000001 0.066132
#
#
# Mechanical properties :
#
#
# Convention : Reuss Voigt Hill
#
# Bulk Modulus (GPa) = 21.89905 34.10532 28.00219
# Shear Modulus (GPa) = 15.35743 20.90766 18.13255
#
# Velocity S-wave (km/s) = 2.93105 3.41993 3.18489
# Velocity P-wave (km/s) = 4.86881 5.88841 5.40272
#
# Compressibility (1/GPa) = 0.04566407
#
# Stress axis : x y z
#
# Youngs Moduli (GPa) = 33.69700 84.27630 45.73064
#
# Poissons Ratio (x) = 0.35101 -0.01962
# Poissons Ratio (y) = 0.14035 0.23490
# Poissons Ratio (z) = -0.01446 0.43289
#
# Static dielectric constant tensor:
#      x y z
#    x 1.629600 0.000000 -0.020200 
#    y 0.000000 1.633500 0.000000 
#    z -0.020200 0.000000 1.655150 
# 
# From -- ./inp_files/379351.got.cif
#   From: 2010.05.17/outbox.cif.g08.bks.cpg/sg12_190_cif.got.tgz:379351.got - 2010.06.03 13:09:07.
