data_PCOD9180602
_publ_section_title
;
Structure prediction by ZEFSAII (Michael W. Deem and Ramdas Pophale) SiO2 
 PCOD9180602
Probable space group: C 2/M
;
_chemical_formula_sum "Si O2"
_cell_formula_units_Z 64
_cell_length_a 29.194161
_cell_length_b 8.262303
_cell_length_c 20.236645
_cell_angle_alpha 90.000000
_cell_angle_beta 133.340220
_cell_angle_gamma 90.000000
_cell_volume 3550.127368
_symmetry_space_group_name_H-M "C 2/M"
_symmetry_group_IT_number 12
_symmetry_cell_setting 'monoclinic'
loop_
_space_group_symop_operation_xyz
x,y,z
-x,y,-z
-x,-y,-z
x,-y,z
1/2+x,1/2+y,z
1/2-x,1/2+y,-z
1/2-x,1/2-y,-z
1/2+x,1/2-y,z
loop_
_atom_site_type_symbol
_atom_site_label
_atom_site_fract_x
_atom_site_fract_y
_atom_site_fract_z
Si Si1 0.868137 0.804883 0.049527
Si Si2 0.936700 0.695603 0.898154
Si Si3 0.321915 0.190397 0.289209
Si Si4 0.508102 0.808241 0.331054
Si Si5 0.316095 0.304895 0.860186
Si Si6 0.866268 0.808768 0.194967
Si Si7 0.012376 0.695052 0.188699
Si Si8 0.058575 0.808726 0.513517
O O1 0.848754 0.749242 0.103825
O O2 0.940745 0.755597 0.110221
O O3 0.865439 0.000000 0.048434
O O4 0.828909 0.745402 0.947816
O O5 0.934311 0.500000 0.897288
O O6 0.874826 0.758398 0.873035
O O7 0.945838 0.750959 0.831501
O O8 0.000000 0.745131 0.000000
O O9 0.251412 0.252098 0.232947
O O10 0.334235 0.217243 0.223542
O O11 0.376953 0.275556 0.384472
O O12 0.325795 0.000000 0.307768
O O13 0.441602 0.718214 0.275852
O O14 0.533069 0.759649 0.283274
O O15 0.553451 0.770609 0.436635
O O16 0.494545 0.000000 0.316193
O O17 0.312942 0.500000 0.860380
O O18 0.853070 0.000000 0.187582
O O19 0.010558 0.500000 0.183530
O O20 0.000000 0.746911 0.500000
O O21 0.050029 0.000000 0.496580
#
# Coordination Sequence:
#
# PCOD9180602 Si02
#       8
#     8   8   8   8   8   8   8   8
#     4   9  18  32  50  73 106 143 177 214 256 304
#     4  10  19  33  55  81 109 140 177 219 262 309
#     4  11  23  37  53  75 106 142 180 220 264 314
#     4  10  19  32  54  80 107 137 171 215 264 310
#     4  10  22  37  52  76 108 143 182 220 261 311
#     4  10  19  32  50  75 106 141 179 215 255 307
#     4   9  18  32  51  80 110 136 172 216 260 308
#     4  11  22  36  56  80 106 135 174 221 266 315
#
# _framework density 18.027521
#
# number of rings (size 3 to 8) (size 9 to 14) (size 15 to 20)
#    0.000    2.000    2.500    1.500    0.000    3.750 
#    0.000    0.000    0.000    0.750    0.000    0.000 
#    0.000    0.000    0.000    0.000    0.000    0.000 
#
# Total GULP energy -178578.256618 kJ/mol
# GULP energy per Si atom -5580.570519 kJ/mol
# Density = 1.798649 g / cm^3
# Si number density = 18.027521 Si / 1000 Ang^3
#
#
#
# Elastic Constant Matrix: (Units=GPa)
#
#
# Indices 1 2 3 4 5 6 
#
# 1 80.3309 -1.2954 54.2616 0.0000 -1.4757 0.0000
# 2 -1.2954 9.1924 4.8746 -0.0001 -3.8916 -0.0001
# 3 54.2616 4.8746 108.1232 0.0000 -3.3867 0.0000
# 4 0.0000 -0.0001 0.0000 12.2576 0.0000 -5.5148
# 5 -1.4757 -3.8916 -3.3867 0.0000 25.2042 0.0000
# 6 0.0000 -0.0001 0.0000 -5.5148 0.0000 20.8592
#
#
#
# Elastic Compliance Matrix: (Units=1/GPa)
#
#
# Indices 1 2 3 4 5 6 
#
# 1 0.019431 0.008562 -0.010103 0.000000 0.001102 0.000000
# 2 0.008562 0.122599 -0.009255 0.000002 0.018188 0.000001
# 3 -0.010103 -0.009255 0.014735 0.000000 -0.000041 0.000000
# 4 0.000000 0.000002 0.000000 0.092597 0.000000 0.024481
# 5 0.001102 0.018188 -0.000041 0.000000 0.042543 0.000000
# 6 0.000000 0.000001 0.000000 0.024481 0.000000 0.054413
#
#
# Mechanical properties :
#
#
# Convention : Reuss Voigt Hill
#
# Bulk Modulus (GPa) = 7.39783 34.81424 21.10604
# Shear Modulus (GPa) = 12.10751 20.98457 16.54604
#
# Velocity S-wave (km/s) = 2.59436 3.41549 3.03284
# Velocity P-wave (km/s) = 3.61757 5.90828 4.89870
#
# Compressibility (1/GPa) = 0.13517470
#
# Stress axis : x y z
#
# Youngs Moduli (GPa) = 51.46373 8.15666 67.86620
#
# Poissons Ratio (x) = -0.06984 0.68565
# Poissons Ratio (y) = -0.44065 0.62807
# Poissons Ratio (z) = 0.51994 0.07549
#
# Static dielectric constant tensor:
#      x y z
#    x 1.614460 0.000000 -0.024460 
#    y 0.000000 1.619930 0.000000 
#    z -0.024460 0.000000 1.622120 
# 
# From -- ./inp_files/326907.got.cif
#   From: 2010.05.17/outbox.cif.g08.bks.cpg/sg12_164_cif.got.tgz:326907.got - 2010.06.03 13:09:07.
