data_PCOD9180557
_publ_section_title
;
Structure prediction by ZEFSAII (Michael W. Deem and Ramdas Pophale) SiO2 
 PCOD9180557
Probable space group: C 2/M
;
_chemical_formula_sum "Si O2"
_cell_formula_units_Z 52
_cell_length_a 23.567561
_cell_length_b 24.632855
_cell_length_c 6.482352
_cell_angle_alpha 90.000000
_cell_angle_beta 119.398629
_cell_angle_gamma 90.000000
_cell_volume 3278.631501
_symmetry_space_group_name_H-M "C 2/M"
_symmetry_group_IT_number 12
_symmetry_cell_setting 'monoclinic'
loop_
_space_group_symop_operation_xyz
x,y,z
-x,y,-z
-x,-y,-z
x,-y,z
1/2+x,1/2+y,z
1/2-x,1/2+y,-z
1/2-x,1/2-y,-z
1/2+x,1/2-y,z
loop_
_atom_site_type_symbol
_atom_site_label
_atom_site_fract_x
_atom_site_fract_y
_atom_site_fract_z
Si Si1 0.257924 0.162558 0.984569
Si Si2 0.719119 0.063388 0.727321
Si Si3 0.341140 0.114026 0.768009
Si Si4 0.934217 0.295629 0.755307
Si Si5 0.000000 0.651504 0.500000
Si Si6 0.093020 0.441632 0.787165
Si Si7 0.697868 0.749387 0.596771
O O1 0.239981 0.104537 0.054258
O O2 0.286898 0.199529 0.222477
O O3 0.309961 0.148828 0.898230
O O4 0.206062 0.198089 0.764382
O O5 0.709817 0.093136 0.491961
O O6 0.646946 0.063604 0.703464
O O7 0.739423 0.000000 0.752919
O O8 0.398308 0.150357 0.775240
O O9 0.369878 0.061691 0.930675
O O10 0.874158 0.253943 0.628548
O O11 0.958163 0.311069 0.571918
O O12 0.000000 0.282001 0.000000
O O13 0.953794 0.609696 0.298031
O O14 0.061105 0.500000 0.711436
O O15 0.750000 0.750000 0.500000
#
# Coordination Sequence:
#
# PCOD9180557 Si02
#       7
#     8   8   8   8   4   8   8
#     4  10  20  33  57  75  98 132 183 223 266 314
#     4  10  19  32  50  73 102 135 177 224 265 304
#     4  11  18  35  47  72  96 135 174 218 266 304
#     4  12  23  33  51  71 101 137 174 221 270 311
#     4  12  21  34  44  64 100 134 181 220 260 304
#     4  10  20  30  43  63  93 137 182 219 253 295
#     4  11  21  37  56  75 100 135 184 224 269 322
#
# _framework density 15.860277
#
# number of rings (size 3 to 8) (size 9 to 14) (size 15 to 20)
#    0.000    1.231    6.154    1.615    0.000    0.615 
#    0.000    0.769    0.000    0.000    0.000    0.000 
#    0.000    0.615    0.000    7.000    0.000    3.692 
#
# Total GULP energy -144742.483875 kJ/mol
# GULP energy per Si atom -5567.018611 kJ/mol
# Density = 1.582418 g / cm^3
# Si number density = 15.860277 Si / 1000 Ang^3
#
#
#
# Elastic Constant Matrix: (Units=GPa)
#
#
# Indices 1 2 3 4 5 6 
#
# 1 60.3053 29.6042 31.8036 0.0000 -4.0310 0.0000
# 2 29.6042 81.9318 43.3569 0.0000 8.9972 0.0000
# 3 31.8036 43.3569 87.3334 0.0000 -0.2885 0.0000
# 4 0.0000 0.0000 0.0000 -218.9248 0.0000 -352.9689
# 5 -4.0310 8.9972 -0.2885 0.0000 31.5864 0.0000
# 6 0.0000 0.0000 0.0000 -352.9689 0.0000 -529.8765
#
#
#
# Elastic Compliance Matrix: (Units=1/GPa)
#
#
# Indices 1 2 3 4 5 6 
#
# 1 0.022540 -0.005834 -0.005297 0.000000 0.004490 0.000000
# 2 -0.005834 0.018823 -0.007240 0.000000 -0.006172 0.000000
# 3 -0.005297 -0.007240 0.016979 0.000000 0.001541 0.000000
# 4 0.000000 0.000000 0.000000 0.061729 0.000000 -0.041120
# 5 0.004490 -0.006172 0.001541 0.000000 0.034004 0.000000
# 6 0.000000 0.000000 0.000000 -0.041120 0.000000 0.025504
#
#
# Mechanical properties :
#
#
# Convention : Reuss Voigt Hill
#
# Bulk Modulus (GPa) = 46.29976 48.78889 47.54433
# Shear Modulus (GPa) = 22.36920 -135.12261 -56.37670
#
# Velocity S-wave (km/s) = 3.75959 -9.24016 -5.96850
# Velocity P-wave (km/s) = 6.93554 9.11111 4.17795
#
# Compressibility (1/GPa) = 0.02159838
#
# Stress axis : x y z
#
# Youngs Moduli (GPa) = 44.36561 53.12761 58.89670
#
# Poissons Ratio (x) = 0.30996 0.31197
# Poissons Ratio (y) = 0.25884 0.42643
# Poissons Ratio (z) = 0.23500 0.38466
#
# Static dielectric constant tensor:
#      x y z
#    x 1.525530 0.000000 0.008110 
#    y 0.000000 1.565730 0.000000 
#    z 0.008110 0.000000 1.593690 
# 
# From -- ./inp_files/17963.got.cif
#   From: 2010.05.17/outbox.cif.g08.bks.cpg/sg12_9_cif.got.tgz:17963.got - 2010.06.03 13:09:07.
