data_PCOD9180830
_publ_section_title
;
Structure prediction by ZEFSAII (Michael W. Deem and Ramdas Pophale) SiO2 
 PCOD9180830
Probable space group: C 2/M
;
_chemical_formula_sum "Si O2"
_cell_formula_units_Z 64
_cell_length_a 16.036416
_cell_length_b 7.652061
_cell_length_c 20.815260
_cell_angle_alpha 90.000000
_cell_angle_beta 68.063440
_cell_angle_gamma 90.000000
_cell_volume 2369.340133
_symmetry_space_group_name_H-M "C 2/M"
_symmetry_group_IT_number 12
_symmetry_cell_setting 'monoclinic'
loop_
_space_group_symop_operation_xyz
x,y,z
-x,y,-z
-x,-y,-z
x,-y,z
1/2+x,1/2+y,z
1/2-x,1/2+y,-z
1/2-x,1/2-y,-z
1/2+x,1/2-y,z
loop_
_atom_site_type_symbol
_atom_site_label
_atom_site_fract_x
_atom_site_fract_y
_atom_site_fract_z
Si Si1 0.543409 0.300866 0.796491
Si Si2 0.855221 0.790346 0.457666
Si Si3 0.094225 0.296394 0.951588
Si Si4 0.929097 0.694850 0.712172
Si Si5 0.809751 0.213846 0.333804
Si Si6 0.897298 0.203216 0.581985
Si Si7 0.877272 0.788470 0.919763
Si Si8 0.258136 0.288932 0.830871
O O1 0.560768 0.500000 0.809545
O O2 0.481530 0.309336 0.749082
O O3 0.636181 0.220853 0.743953
O O4 0.476907 0.223753 0.868846
O O5 0.750000 0.750000 0.500000
O O6 0.865989 0.730875 0.381280
O O7 0.905787 0.722919 0.506941
O O8 0.866739 0.000000 0.454444
O O9 0.079277 0.500000 0.941664
O O10 0.146980 0.286605 0.004317
O O11 0.157558 0.226225 0.876776
O O12 0.000000 0.210794 0.000000
O O13 0.954291 0.500000 0.722526
O O14 0.943742 0.723894 0.632405
O O15 0.821915 0.717653 0.756601
O O16 0.709378 0.280512 0.372459
O O17 0.806378 0.000000 0.333450
O O18 0.921230 0.000000 0.573196
O O19 0.813286 0.740213 0.879561
O O20 0.878584 0.000000 0.923043
O O21 0.257103 0.500000 0.826029
#
# Coordination Sequence:
#
# PCOD9180830 Si02
#       8
#     8   8   8   8   8   8   8   8
#     4   9  19  36  55  76 105 136 166 209 262 307
#     4   8  15  28  48  73  99 132 171 209 251 301
#     4  10  21  35  52  77 106 132 160 201 250 296
#     4  11  22  35  53  76 101 133 176 217 253 301
#     4   9  17  32  54  78 103 132 172 216 254 302
#     4  10  19  32  51  75 105 138 171 210 259 307
#     4   9  18  33  53  74  97 131 169 201 241 296
#     4   9  19  37  56  73  98 132 168 205 251 303
#
# _framework density 27.01174
#
# number of rings (size 3 to 8) (size 9 to 14) (size 15 to 20)
#    0.000    2.625    0.000    2.625    0.000    4.750 
#    0.000    3.125    0.000    3.750    0.000    0.000 
#    0.000    0.000    0.000    0.000    0.000    0.000 
#
# Total GULP energy -178998.231826 kJ/mol
# GULP energy per Si atom -5593.694745 kJ/mol
# Density = 2.695026 g / cm^3
# Si number density = 27.011740 Si / 1000 Ang^3
#
#
#
# Elastic Constant Matrix: (Units=GPa)
#
#
# Indices 1 2 3 4 5 6 
#
# 1 94.9961 15.3358 15.7283 0.0000 -0.9118 -0.0001
# 2 15.3358 89.8007 9.9800 0.0000 5.0643 -0.0001
# 3 15.7283 9.9800 195.3057 0.0000 -0.7313 0.0000
# 4 0.0000 0.0000 0.0000 13.6865 0.0000 5.9604
# 5 -0.9118 5.0643 -0.7313 0.0000 61.6418 0.0000
# 6 -0.0001 -0.0001 0.0000 5.9604 0.0000 19.0313
#
#
#
# Elastic Compliance Matrix: (Units=1/GPa)
#
#
# Indices 1 2 3 4 5 6 
#
# 1 0.010951 -0.001799 -0.000789 0.000000 0.000300 0.000000
# 2 -0.001799 0.011548 -0.000449 0.000000 -0.000981 0.000000
# 3 -0.000789 -0.000449 0.005207 0.000000 0.000087 0.000000
# 4 0.000000 0.000000 0.000000 0.084604 0.000000 -0.026497
# 5 0.000300 -0.000981 0.000087 0.000000 0.016309 0.000000
# 6 0.000000 0.000000 0.000000 -0.026497 0.000000 0.060843
#
#
# Mechanical properties :
#
#
# Convention : Reuss Voigt Hill
#
# Bulk Modulus (GPa) = 46.22826 51.35452 48.79139
# Shear Modulus (GPa) = 24.66131 41.47582 33.06857
#
# Velocity S-wave (km/s) = 3.02484 3.92276 3.50269
# Velocity P-wave (km/s) = 5.41764 6.29052 5.87033
#
# Compressibility (1/GPa) = 0.02163179
#
# Stress axis : x y z
#
# Youngs Moduli (GPa) = 91.31820 86.59312 192.05049
#
# Poissons Ratio (x) = 0.15582 0.15149
# Poissons Ratio (y) = 0.16432 0.08621
# Poissons Ratio (z) = 0.07203 0.03887
#
# Static dielectric constant tensor:
#      x y z
#    x 2.464890 0.000000 -0.004020 
#    y 0.000000 1.951750 0.000000 
#    z -0.004020 0.000000 2.108350 
# 
# From -- ./inp_files/345511.got.cif
#   From: 2010.05.17/outbox.cif.g08.bks.cpg/sg12_173_cif.got.tgz:345511.got - 2010.06.03 13:09:07.
