data_PCOD9180764
_publ_section_title
;
Structure prediction by ZEFSAII (Michael W. Deem and Ramdas Pophale) SiO2 
 PCOD9180764
Probable space group: C 2/M
;
_chemical_formula_sum "Si O2"
_cell_formula_units_Z 64
_cell_length_a 31.830451
_cell_length_b 7.358057
_cell_length_c 25.429190
_cell_angle_alpha 90.000000
_cell_angle_beta 27.819082
_cell_angle_gamma 90.000000
_cell_volume 2779.449514
_symmetry_space_group_name_H-M "C 2/M"
_symmetry_group_IT_number 12
_symmetry_cell_setting 'monoclinic'
loop_
_space_group_symop_operation_xyz
x,y,z
-x,y,-z
-x,-y,-z
x,-y,z
1/2+x,1/2+y,z
1/2-x,1/2+y,-z
1/2-x,1/2-y,-z
1/2+x,1/2-y,z
loop_
_atom_site_type_symbol
_atom_site_label
_atom_site_fract_x
_atom_site_fract_y
_atom_site_fract_z
Si Si1 0.766081 0.721536 0.735191
Si Si2 0.437598 0.278429 0.021277
Si Si3 0.655192 0.299024 0.078473
Si Si4 0.571243 0.778888 0.376784
Si Si5 0.688117 0.221636 0.433157
Si Si6 0.819993 0.216475 0.375875
Si Si7 0.987559 0.279492 0.674385
Si Si8 0.019934 0.777055 0.144169
O O1 0.766985 0.500000 0.733729
O O2 0.664457 0.779941 0.856217
O O3 0.831814 0.778240 0.709248
O O4 0.802742 0.778330 0.637515
O O5 0.438458 0.500000 0.020927
O O6 0.500000 0.217698 0.000000
O O7 0.470578 0.225013 0.927111
O O8 0.674077 0.500000 0.037671
O O9 0.579336 0.293631 0.207661
O O10 0.603418 0.207856 0.086809
O O11 0.750000 0.250000 0.000000
O O12 0.500000 0.721988 0.500000
O O13 0.545429 0.721798 0.346997
O O14 0.568710 0.000000 0.378588
O O15 0.771493 0.283399 0.376390
O O16 0.591882 0.275961 0.563778
O O17 0.688301 0.000000 0.432800
O O18 0.750000 0.250000 0.500000
O O19 0.921286 0.283914 0.273117
O O20 0.828164 0.000000 0.360828
O O21 0.983590 0.500000 0.681592
O O22 0.020911 0.000000 0.145748
#
# Coordination Sequence:
#
# PCOD9180764 Si02
#       8
#     8   8   8   8   8   8   8   8
#     4   9  15  23  40  68 101 132 164 203 254 306
#     4   9  16  26  43  69 103 137 166 205 262 318
#     4  11  24  40  56  75 103 141 184 225 267 316
#     4   9  15  25  43  73 106 133 165 210 258 302
#     4   9  16  27  46  76 108 135 165 208 257 309
#     4  10  19  32  51  74 103 134 168 210 257 309
#     4  10  19  32  53  79 108 139 175 219 264 311
#     4   9  19  34  50  73 107 141 172 213 266 317
#
# _framework density 23.026140000000002
#
# number of rings (size 3 to 8) (size 9 to 14) (size 15 to 20)
#    0.000    2.500    1.250    1.875    1.750    3.000 
#    0.000    0.625    0.000    0.375    0.000    0.000 
#    0.000    3.500    0.000    0.000    0.000    0.000 
#
# Total GULP energy -178778.068126 kJ/mol
# GULP energy per Si atom -5586.814629 kJ/mol
# Density = 2.297373 g / cm^3
# Si number density = 23.026140 Si / 1000 Ang^3
#
#
#
# Elastic Constant Matrix: (Units=GPa)
#
#
# Indices 1 2 3 4 5 6 
#
# 1 168.6116 5.6837 52.8832 -0.0194 -28.3747 -0.0042
# 2 5.6837 80.8422 -3.9325 0.0305 -9.4016 0.0056
# 3 52.8832 -3.9325 123.4300 -0.0058 -28.1040 0.0025
# 4 -0.0194 0.0305 -0.0058 8.6927 0.0073 3.0766
# 5 -28.3747 -9.4016 -28.1040 0.0073 48.4661 -0.0029
# 6 -0.0042 0.0056 0.0025 3.0766 -0.0029 -8.4549
#
#
#
# Elastic Compliance Matrix: (Units=1/GPa)
#
#
# Indices 1 2 3 4 5 6 
#
# 1 0.007170 -0.000309 -0.002465 0.000013 0.002708 -0.000001
# 2 -0.000309 0.012802 0.001226 -0.000044 0.003014 -0.000008
# 3 -0.002465 0.001226 0.010280 -0.000007 0.004756 0.000001
# 4 0.000013 -0.000044 -0.000007 0.101914 -0.000018 0.037085
# 5 0.002708 0.003014 0.004756 -0.000018 0.025561 -0.000013
# 6 -0.000001 -0.000008 0.000001 0.037085 -0.000013 -0.104779
#
#
# Mechanical properties :
#
#
# Convention : Reuss Voigt Hill
#
# Bulk Modulus (GPa) = 36.82432 53.57253 45.19842
# Shear Modulus (GPa) = 76.81138 30.95740 53.88439
#
# Velocity S-wave (km/s) = 5.78193 3.67065 4.84275
# Velocity P-wave (km/s) = 7.78469 6.42505 7.13732
#
# Compressibility (1/GPa) = 0.02715597
#
# Stress axis : x y z
#
# Youngs Moduli (GPa) = 139.46663 78.11498 97.27764
#
# Poissons Ratio (x) = 0.02414 0.23981
# Poissons Ratio (y) = 0.04310 -0.11930
# Poissons Ratio (z) = 0.34382 -0.09580
#
# Static dielectric constant tensor:
#      x y z
#    x 1.846130 -0.000020 -0.022910 
#    y -0.000020 1.916140 -0.000070 
#    z -0.022910 -0.000070 1.871240 
# 
# From -- ./inp_files/353416.got.cif
#   From: 2010.05.17/outbox.cif.g08.bks.cpg/sg12_177_cif.got.tgz:353416.got - 2010.06.03 13:09:07.
