data_PCOD9180582
_publ_section_title
;
Structure prediction by ZEFSAII (Michael W. Deem and Ramdas Pophale) SiO2 
 PCOD9180582
Probable space group: C 2/M
;
_chemical_formula_sum "Si O2"
_cell_formula_units_Z 56
_cell_length_a 9.095583
_cell_length_b 23.768426
_cell_length_c 16.085352
_cell_angle_alpha 90.000000
_cell_angle_beta 61.416462
_cell_angle_gamma 90.000000
_cell_volume 3053.624538
_symmetry_space_group_name_H-M "C 2/M"
_symmetry_group_IT_number 12
_symmetry_cell_setting 'monoclinic'
loop_
_space_group_symop_operation_xyz
x,y,z
-x,y,-z
-x,-y,-z
x,-y,z
1/2+x,1/2+y,z
1/2-x,1/2+y,-z
1/2-x,1/2-y,-z
1/2+x,1/2-y,z
loop_
_atom_site_type_symbol
_atom_site_label
_atom_site_fract_x
_atom_site_fract_y
_atom_site_fract_z
Si Si1 0.198456 0.934135 0.936199
Si Si2 0.669828 0.642048 0.803095
Si Si3 0.517012 0.855853 0.086851
Si Si4 0.840885 0.145046 0.795734
Si Si5 0.283120 0.234249 0.893765
Si Si6 0.501834 0.684890 0.407768
Si Si7 0.156563 0.306169 0.404251
O O1 0.241121 0.911203 0.832882
O O2 0.324104 0.897094 0.957629
O O3 0.224154 0.000000 0.941085
O O4 0.000000 0.922038 0.000000
O O5 0.488952 0.625534 0.815753
O O6 0.658913 0.693146 0.874638
O O7 0.783390 0.662007 0.695309
O O8 0.339174 0.883962 0.151920
O O9 0.555573 0.806808 0.142106
O O10 0.500000 0.829771 0.000000
O O11 0.813126 0.209712 0.833796
O O12 0.906469 0.147184 0.684769
O O13 0.250000 0.250000 0.000000
O O14 0.500000 0.659393 0.500000
O O15 0.317637 0.696533 0.420752
O O16 0.598504 0.744093 0.391877
O O17 0.000000 0.329808 0.500000
#
# Coordination Sequence:
#
# PCOD9180582 Si02
#       7
#     8   8   8   8   8   8   8
#     4  10  23  42  60  76 101 136 178 230 276 323
#     4  10  22  35  54  79 107 144 184 220 269 321
#     4  11  22  34  53  78 105 141 183 220 263 316
#     4  11  21  33  50  79 114 144 178 219 258 313
#     4  11  21  32  48  74 115 151 178 215 250 308
#     4  10  20  31  48  72 109 152 184 212 253 306
#     4  10  19  32  50  74 107 145 184 220 257 311
#
# _framework density 18.338861000000001
#
# number of rings (size 3 to 8) (size 9 to 14) (size 15 to 20)
#    0.000    1.571    2.857    3.429    4.000    2.571 
#    0.000    0.714    0.000    0.429    0.000    0.000 
#    0.000    5.143    0.000    0.000    0.000    0.000 
#
# Total GULP energy -156087.241846 kJ/mol
# GULP energy per Si atom -5574.544352 kJ/mol
# Density = 1.829712 g / cm^3
# Si number density = 18.338861 Si / 1000 Ang^3
#
#
#
# Elastic Constant Matrix: (Units=GPa)
#
#
# Indices 1 2 3 4 5 6 
#
# 1 108.7205 7.4487 33.8759 0.0000 4.9493 0.0000
# 2 7.4487 30.2912 -3.3128 0.0000 6.5939 0.0000
# 3 33.8759 -3.3128 96.8951 0.0000 14.0446 0.0000
# 4 0.0000 0.0000 0.0000 10.5761 0.0000 -2.6964
# 5 4.9493 6.5939 14.0446 0.0000 30.0982 0.0000
# 6 0.0000 0.0000 0.0000 -2.6964 0.0000 16.5408
#
#
#
# Elastic Compliance Matrix: (Units=1/GPa)
#
#
# Indices 1 2 3 4 5 6 
#
# 1 0.010607 -0.003212 -0.003933 0.000000 0.000795 0.000000
# 2 -0.003212 0.036190 0.003682 0.000000 -0.009118 0.000000
# 3 -0.003933 0.003682 0.012704 0.000000 -0.006088 0.000000
# 4 0.000000 0.000000 0.000000 0.098653 0.000000 0.016082
# 5 0.000795 -0.009118 -0.006088 0.000000 0.037932 0.000000
# 6 0.000000 0.000000 0.000000 0.016082 0.000000 0.063078
#
#
# Mechanical properties :
#
#
# Convention : Reuss Voigt Hill
#
# Bulk Modulus (GPa) = 19.02042 34.65892 26.83967
# Shear Modulus (GPa) = 17.62945 24.63601 21.13273
#
# Velocity S-wave (km/s) = 3.10387 3.66919 3.39831
# Velocity P-wave (km/s) = 4.82074 6.07378 5.48317
#
# Compressibility (1/GPa) = 0.05257507
#
# Stress axis : x y z
#
# Youngs Moduli (GPa) = 94.27407 27.63174 78.71589
#
# Poissons Ratio (x) = 0.08874 0.30963
# Poissons Ratio (y) = 0.30277 -0.28982
# Poissons Ratio (z) = 0.37083 -0.10174
#
# Static dielectric constant tensor:
#      x y z
#    x 1.697430 0.000000 -0.020580 
#    y 0.000000 1.604090 0.000000 
#    z -0.020580 0.000000 1.672010 
# 
# From -- ./inp_files/199326.got.cif
#   From: 2010.05.17/outbox.cif.g08.bks.cpg/sg12_100_cif.got.tgz:199326.got - 2010.06.03 13:09:07.
