data_PCOD9180462
_publ_section_title
;
Structure prediction by ZEFSAII (Michael W. Deem and Ramdas Pophale) SiO2 
 PCOD9180462
Probable space group: C 2/M
;
_chemical_formula_sum "Si O2"
_cell_formula_units_Z 64
_cell_length_a 26.223236
_cell_length_b 24.969037
_cell_length_c 6.727695
_cell_angle_alpha 90.000000
_cell_angle_beta 72.992958
_cell_angle_gamma 90.000000
_cell_volume 4212.446167
_symmetry_space_group_name_H-M "C 2/M"
_symmetry_group_IT_number 12
_symmetry_cell_setting 'monoclinic'
loop_
_space_group_symop_operation_xyz
x,y,z
-x,y,-z
-x,-y,-z
x,-y,z
1/2+x,1/2+y,z
1/2-x,1/2+y,-z
1/2-x,1/2-y,-z
1/2+x,1/2-y,z
loop_
_atom_site_type_symbol
_atom_site_label
_atom_site_fract_x
_atom_site_fract_y
_atom_site_fract_z
Si Si1 0.942906 0.234935 0.589133
Si Si2 0.745902 0.659602 0.012243
Si Si3 0.661816 0.244057 0.042826
Si Si4 0.215789 0.060281 0.801795
Si Si5 0.951996 0.857140 0.900950
Si Si6 0.615661 0.560378 0.216580
Si Si7 0.688492 0.617920 0.440851
Si Si8 0.123441 0.794537 0.720251
O O1 0.891931 0.259102 0.764874
O O2 0.958415 0.184366 0.712058
O O3 0.918842 0.220608 0.401078
O O4 0.000000 0.264635 0.500000
O O5 0.695267 0.700326 0.040474
O O6 0.735434 0.630814 0.234411
O O7 0.797727 0.696577 0.953826
O O8 0.747385 0.611599 0.851361
O O9 0.644885 0.246228 0.830692
O O10 0.202580 0.074414 0.590003
O O11 0.238693 0.000000 0.794139
O O12 0.161956 0.060262 0.996096
O O13 0.935607 0.912921 0.822690
O O14 0.903766 0.834170 0.089440
O O15 0.000000 0.860290 0.000000
O O16 0.606954 0.500000 0.294255
O O17 0.638753 0.596728 0.367169
O O18 0.670988 0.672930 0.564523
#
# Coordination Sequence:
#
# PCOD9180462 Si02
#       8
#     8   8   8   8   8   8   8   8
#     4  11  20  33  51  68  91 126 161 198 239 291
#     4  10  20  33  48  73 105 125 158 203 243 288
#     4  10  21  32  48  76 100 127 159 198 247 296
#     4  10  19  32  50  68  93 130 165 198 238 284
#     4  11  20  30  46  63  86 118 164 210 248 285
#     4  10  20  31  43  63  89 119 164 216 248 277
#     4  11  17  31  50  66  89 126 163 197 241 289
#     4  11  18  31  48  68  90 123 163 198 240 289
#
# _framework density 15.193071
#
# number of rings (size 3 to 8) (size 9 to 14) (size 15 to 20)
#    0.000    1.500    6.250    1.875    0.000    2.250 
#    0.000    0.000    0.000    1.125    0.000    0.000 
#    0.000    0.500    0.000    2.500    0.000    0.125 
#
# Total GULP energy -178297.988598 kJ/mol
# GULP energy per Si atom -5571.812144 kJ/mol
# Density = 1.515849 g / cm^3
# Si number density = 15.193071 Si / 1000 Ang^3
#
#
#
# Elastic Constant Matrix: (Units=GPa)
#
#
# Indices 1 2 3 4 5 6 
#
# 1 83.2463 41.9671 28.4120 0.0000 3.2585 0.0000
# 2 41.9671 60.4722 14.7571 0.0000 13.7054 0.0000
# 3 28.4120 14.7571 74.5191 0.0000 14.8475 0.0000
# 4 0.0000 0.0000 0.0000 6.5004 0.0000 -0.0336
# 5 3.2585 13.7054 14.8475 0.0000 19.0075 0.0000
# 6 0.0000 0.0000 0.0000 -0.0336 0.0000 16.8040
#
#
#
# Elastic Compliance Matrix: (Units=1/GPa)
#
#
# Indices 1 2 3 4 5 6 
#
# 1 0.023023 -0.017361 -0.008347 0.000000 0.015091 0.000000
# 2 -0.017361 0.032961 0.005015 0.000000 -0.024708 0.000000
# 3 -0.008347 0.005015 0.019001 0.000000 -0.017028 0.000000
# 4 0.000000 0.000000 0.000000 0.153839 0.000000 0.000308
# 5 0.015091 -0.024708 -0.017028 0.000000 0.081140 0.000000
# 6 0.000000 0.000000 0.000000 0.000308 0.000000 0.059510
#
#
# Mechanical properties :
#
#
# Convention : Reuss Voigt Hill
#
# Bulk Modulus (GPa) = 29.76276 43.16777 36.46527
# Shear Modulus (GPa) = 11.84666 17.33580 14.59123
#
# Velocity S-wave (km/s) = 2.79541 3.38158 3.10237
# Velocity P-wave (km/s) = 5.48191 6.61221 6.07341
#
# Compressibility (1/GPa) = 0.03359903
#
# Stress axis : x y z
#
# Youngs Moduli (GPa) = 43.43508 30.33900 52.62791
#
# Poissons Ratio (x) = 0.52672 0.43927
# Poissons Ratio (y) = 0.75408 -0.26392
# Poissons Ratio (z) = 0.36254 -0.15215
#
# Static dielectric constant tensor:
#      x y z
#    x 1.518390 0.000000 0.001820 
#    y 0.000000 1.505770 0.000000 
#    z 0.001820 0.000000 1.535860 
# 
# From -- ./inp_files/26058.got.cif
#   From: 2010.05.17/outbox.cif.g08.bks.cpg/sg12_14_cif.got.tgz:26058.got - 2010.06.03 13:09:07.
