data_PCOD9180721
_publ_section_title
;
Structure prediction by ZEFSAII (Michael W. Deem and Ramdas Pophale) SiO2 
 PCOD9180721
Probable space group: C 2/M
;
_chemical_formula_sum "Si O2"
_cell_formula_units_Z 40
_cell_length_a 16.038555
_cell_length_b 7.712305
_cell_length_c 13.604441
_cell_angle_alpha 90.000000
_cell_angle_beta 116.908764
_cell_angle_gamma 90.000000
_cell_volume 1500.592227
_symmetry_space_group_name_H-M "C 2/M"
_symmetry_group_IT_number 12
_symmetry_cell_setting 'monoclinic'
loop_
_space_group_symop_operation_xyz
x,y,z
-x,y,-z
-x,-y,-z
x,-y,z
1/2+x,1/2+y,z
1/2-x,1/2+y,-z
1/2-x,1/2-y,-z
1/2+x,1/2-y,z
loop_
_atom_site_type_symbol
_atom_site_label
_atom_site_fract_x
_atom_site_fract_y
_atom_site_fract_z
Si Si1 0.843585 0.700640 0.174943
Si Si2 0.862489 0.202483 0.977786
Si Si3 0.622557 0.202461 0.224642
Si Si4 0.479033 0.213648 0.630197
Si Si5 0.696344 0.793307 0.573233
O O1 0.826323 0.500000 0.191267
O O2 0.741891 0.778385 0.100256
O O3 0.914944 0.771635 0.293872
O O4 0.893992 0.706541 0.094636
O O5 0.908249 0.217264 0.895037
O O6 0.857751 0.000000 0.000314
O O7 0.572829 0.269186 0.296494
O O8 0.733451 0.227143 0.306028
O O9 0.604169 0.000000 0.208057
O O10 0.409745 0.267524 0.505567
O O11 0.481325 0.000000 0.628379
O O12 0.750000 0.750000 0.500000
O O13 0.691672 0.000000 0.582125
#
# Coordination Sequence:
#
# PCOD9180721 Si02
#       5
#     8   8   8   8   8
#     4   9  18  35  54  69  92 127 164 198 235 285
#     4  10  20  33  50  72  97 126 159 198 244 287
#     4  10  19  32  51  73  98 128 162 198 236 282
#     4   8  16  31  52  74  93 123 164 198 231 278
#     4   9  16  29  49  73 100 127 158 195 238 285
#
# _framework density 26.656141999999999
#
# number of rings (size 3 to 8) (size 9 to 14) (size 15 to 20)
#    0.000    2.800    0.000    3.000    0.000    1.600 
#    0.000   11.000    0.000    6.000    0.000    0.000 
#    0.000    0.000    0.000    0.000    0.000    0.000 
#
# Total GULP energy -111776.503905 kJ/mol
# GULP energy per Si atom -5588.825195 kJ/mol
# Density = 2.659547 g / cm^3
# Si number density = 26.656142 Si / 1000 Ang^3
#
#
#
# Elastic Constant Matrix: (Units=GPa)
#
#
# Indices 1 2 3 4 5 6 
#
# 1 69.7967 -4.9871 26.3502 0.0000 10.6520 0.0000
# 2 -4.9871 66.7555 3.5411 0.0000 -3.9028 0.0000
# 3 26.3502 3.5411 221.0033 0.0000 4.4169 0.0000
# 4 0.0000 0.0000 0.0000 25.7763 0.0000 2.0206
# 5 10.6520 -3.9028 4.4169 0.0000 60.3285 0.0000
# 6 0.0000 0.0000 0.0000 2.0206 0.0000 3.4558
#
#
#
# Elastic Compliance Matrix: (Units=1/GPa)
#
#
# Indices 1 2 3 4 5 6 
#
# 1 0.015476 0.001104 -0.001812 0.000000 -0.002528 0.000000
# 2 0.001104 0.015131 -0.000390 0.000000 0.000812 0.000000
# 3 -0.001812 -0.000390 0.004748 0.000000 -0.000053 0.000000
# 4 0.000000 0.000000 0.000000 0.040659 0.000000 -0.023773
# 5 -0.002528 0.000812 -0.000053 0.000000 0.017079 0.000000
# 6 0.000000 0.000000 0.000000 -0.023773 0.000000 0.303269
#
#
# Mechanical properties :
#
#
# Convention : Reuss Voigt Hill
#
# Bulk Modulus (GPa) = 30.15791 45.26266 37.71029
# Shear Modulus (GPa) = 12.20670 40.08886 26.14778
#
# Velocity S-wave (km/s) = 2.14226 3.88226 3.13538
# Velocity P-wave (km/s) = 4.17819 6.09204 5.22351
#
# Compressibility (1/GPa) = 0.03315880
#
# Stress axis : x y z
#
# Youngs Moduli (GPa) = 64.61465 66.09055 210.60497
#
# Poissons Ratio (x) = -0.07300 0.38170
# Poissons Ratio (y) = -0.07137 0.08221
# Poissons Ratio (z) = 0.11711 0.02580
#
# Static dielectric constant tensor:
#      x y z
#    x 2.274200 0.000000 -0.010300 
#    y 0.000000 1.970820 0.000000 
#    z -0.010300 0.000000 2.055100 
# 
# From -- ./inp_files/220587.got.cif
#   From: 2010.05.17/outbox.cif.g08.bks.cpg/sg12_111_cif.got.tgz:220587.got - 2010.06.03 13:09:07.
