data_PCOD9180482
_publ_section_title
;
Structure prediction by ZEFSAII (Michael W. Deem and Ramdas Pophale) SiO2 
 PCOD9180482
Probable space group: C 2/M
;
_chemical_formula_sum "Si O2"
_cell_formula_units_Z 48
_cell_length_a 10.932627
_cell_length_b 28.269611
_cell_length_c 15.110027
_cell_angle_alpha 90.000000
_cell_angle_beta 153.036440
_cell_angle_gamma 90.000000
_cell_volume 2117.453339
_symmetry_space_group_name_H-M "C 2/M"
_symmetry_group_IT_number 12
_symmetry_cell_setting 'monoclinic'
loop_
_space_group_symop_operation_xyz
x,y,z
-x,y,-z
-x,-y,-z
x,-y,z
1/2+x,1/2+y,z
1/2-x,1/2+y,-z
1/2-x,1/2-y,-z
1/2+x,1/2-y,z
loop_
_atom_site_type_symbol
_atom_site_label
_atom_site_fract_x
_atom_site_fract_y
_atom_site_fract_z
Si Si1 0.053029 0.946685 0.213637
Si Si2 0.986029 0.283560 0.848792
Si Si3 0.533077 0.945695 0.670094
Si Si4 0.630708 0.643986 0.837412
Si Si5 0.303938 0.310183 0.788833
Si Si6 0.832220 0.649682 0.589612
O O1 0.295477 0.944836 0.442475
O O2 0.194105 0.935691 0.210170
O O3 0.838221 0.909601 0.110432
O O4 0.953099 0.000000 0.145056
O O5 0.782209 0.246046 0.758791
O O6 0.873478 0.311474 0.691797
O O7 0.250000 0.250000 0.000000
O O8 0.107047 0.324689 0.986347
O O9 0.452819 0.903096 0.683911
O O10 0.547092 0.000000 0.712437
O O11 0.436240 0.665265 0.789482
O O12 0.470202 0.646660 0.642049
O O13 0.020289 0.332128 0.630827
O O14 0.500000 0.317040 0.000000
#
# Coordination Sequence:
#
# PCOD9180482 Si02
#       6
#     8   8   8   8   8   8
#     4   8  13  23  42  69  96 124 158 189 230 288
#     4  10  22  35  46  68  97 129 169 210 245 276
#     4   8  14  24  43  71  97 124 157 192 229 283
#     4  10  19  32  50  70  96 133 166 198 235 288
#     4  11  20  35  49  66  97 134 164 206 249 275
#     4  11  19  34  53  70  99 134 167 197 239 293
#
# _framework density 22.66874
#
# number of rings (size 3 to 8) (size 9 to 14) (size 15 to 20)
#    0.000    2.333    5.000    1.500    0.000    2.667 
#    3.000    0.833    0.000    3.000    0.000    0.000 
#    0.000    2.667    0.000    8.333    0.000    7.833 
#
# Total GULP energy -134063.675982 kJ/mol
# GULP energy per Si atom -5585.986499 kJ/mol
# Density = 2.261715 g / cm^3
# Si number density = 22.668740 Si / 1000 Ang^3
#
#
#
# Elastic Constant Matrix: (Units=GPa)
#
#
# Indices 1 2 3 4 5 6 
#
# 1 27.7073 7.3452 19.1823 -0.0003 -8.7248 0.0006
# 2 7.3452 152.3742 27.0750 -0.0001 -3.3347 0.0003
# 3 19.1823 27.0750 70.7866 0.0003 -29.6138 -0.0001
# 4 -0.0003 -0.0001 0.0003 110.6774 -0.0001 -142.2440
# 5 -8.7248 -3.3347 -29.6138 -0.0001 21.6290 0.0003
# 6 0.0006 0.0003 -0.0001 -142.2440 0.0003 237.9283
#
#
#
# Elastic Compliance Matrix: (Units=1/GPa)
#
#
# Indices 1 2 3 4 5 6 
#
# 1 0.044537 -0.000202 -0.010507 0.000000 0.003548 0.000000
# 2 -0.000202 0.007403 -0.005462 0.000000 -0.006418 0.000000
# 3 -0.010507 -0.005462 0.039648 -0.000001 0.049204 0.000000
# 4 0.000000 0.000000 -0.000001 0.039005 -0.000001 0.023319
# 5 0.003548 -0.006418 0.049204 -0.000001 0.114045 -0.000001
# 6 0.000000 0.000000 0.000000 0.023319 -0.000001 0.018144
#
#
# Mechanical properties :
#
#
# Convention : Reuss Voigt Hill
#
# Bulk Modulus (GPa) = 16.87903 39.78590 28.33246
# Shear Modulus (GPa) = 15.87948 87.19799 51.53873
#
# Velocity S-wave (km/s) = 2.64957 6.20884 4.77336
# Velocity P-wave (km/s) = 4.10151 8.30594 6.55023
#
# Compressibility (1/GPa) = 0.05924512
#
# Stress axis : x y z
#
# Youngs Moduli (GPa) = 22.45331 135.08876 25.22194
#
# Poissons Ratio (x) = 0.02732 0.26501
# Poissons Ratio (y) = 0.00454 0.13775
# Poissons Ratio (z) = 0.23592 0.73780
#
# Static dielectric constant tensor:
#      x y z
#    x 1.850720 0.000000 -0.027560 
#    y 0.000000 1.902500 0.000000 
#    z -0.027560 0.000000 1.941020 
# 
# From -- ./inp_files/66309.got.cif
#   From: 2010.05.17/outbox.cif.g08.bks.cpg/sg12_34_cif.got.tgz:66309.got - 2010.06.03 13:09:07.
