data_PCOD9180544
_publ_section_title
;
Structure prediction by ZEFSAII (Michael W. Deem and Ramdas Pophale) SiO2 
 PCOD9180544
Probable space group: C 2/M
;
_chemical_formula_sum "Si O2"
_cell_formula_units_Z 56
_cell_length_a 15.659807
_cell_length_b 7.464047
_cell_length_c 25.205220
_cell_angle_alpha 90.000000
_cell_angle_beta 118.016656
_cell_angle_gamma 90.000000
_cell_volume 2600.872352
_symmetry_space_group_name_H-M "C 2/M"
_symmetry_group_IT_number 12
_symmetry_cell_setting 'monoclinic'
loop_
_space_group_symop_operation_xyz
x,y,z
-x,y,-z
-x,-y,-z
x,-y,z
1/2+x,1/2+y,z
1/2-x,1/2+y,-z
1/2-x,1/2-y,-z
1/2+x,1/2-y,z
loop_
_atom_site_type_symbol
_atom_site_label
_atom_site_fract_x
_atom_site_fract_y
_atom_site_fract_z
Si Si1 0.642467 0.284370 0.807250
Si Si2 0.328563 0.710629 0.807193
Si Si3 0.922937 0.219550 0.726765
Si Si4 0.828898 0.786397 0.067916
Si Si5 0.320892 0.717066 0.588845
Si Si6 0.102313 0.710908 0.504381
Si Si7 0.478331 0.281267 0.934357
O O1 0.640119 0.500000 0.808801
O O2 0.715753 0.232701 0.782819
O O3 0.533894 0.223546 0.765134
O O4 0.682833 0.216190 0.875887
O O5 0.351885 0.500000 0.813057
O O6 0.367275 0.782366 0.763107
O O7 0.383562 0.782359 0.875580
O O8 0.872744 0.276456 0.657786
O O9 0.921806 0.000000 0.725873
O O10 0.932050 0.727097 0.075980
O O11 0.833060 0.000000 0.073359
O O12 0.750000 0.750000 0.000000
O O13 0.317360 0.500000 0.586892
O O14 0.208489 0.781579 0.554373
O O15 0.383528 0.770052 0.555210
O O16 0.102320 0.500000 0.517403
O O17 0.000000 0.780765 0.500000
O O18 0.475492 0.500000 0.936816
O O19 0.500000 0.217270 0.000000
#
# Coordination Sequence:
#
# PCOD9180544 Si02
#       7
#     8   8   8   8   8   8   8
#     4  10  20  35  52  73 103 134 165 213 269 308
#     4  10  19  34  55  76  98 133 177 214 251 312
#     4   9  18  35  55  74 103 141 179 211 252 312
#     4  10  19  32  50  72  98 129 165 211 262 311
#     4   9  18  33  54  78 104 141 180 212 249 304
#     4   9  18  33  53  79 112 141 169 212 261 300
#     4   9  16  28  48  71  94 124 166 208 248 303
#
# _framework density 21.531237999999998
#
# number of rings (size 3 to 8) (size 9 to 14) (size 15 to 20)
#    0.000    2.571    1.429    0.857    0.000    3.143 
#    0.000    4.286    0.000    2.571    0.000    0.000 
#    0.000    0.000    0.000    0.000    0.000    0.000 
#
# Total GULP energy -156192.278819 kJ/mol
# GULP energy per Si atom -5578.295672 kJ/mol
# Density = 2.148223 g / cm^3
# Si number density = 21.531238 Si / 1000 Ang^3
#
#
#
# Elastic Constant Matrix: (Units=GPa)
#
#
# Indices 1 2 3 4 5 6 
#
# 1 197.7135 -7.5104 93.0408 0.0000 -5.5637 0.0000
# 2 -7.5104 56.7865 -2.1662 0.0000 -0.5916 0.0000
# 3 93.0408 -2.1662 170.6867 0.0000 -6.0427 0.0000
# 4 0.0000 0.0000 0.0000 8.4465 0.0000 -3.5130
# 5 -5.5637 -0.5916 -6.0427 0.0000 18.5703 0.0000
# 6 0.0000 0.0000 0.0000 -3.5130 0.0000 5.1367
#
#
#
# Elastic Compliance Matrix: (Units=1/GPa)
#
#
# Indices 1 2 3 4 5 6 
#
# 1 0.006850 0.000774 -0.003693 0.000000 0.000875 0.000000
# 2 0.000774 0.017713 -0.000171 0.000000 0.000741 0.000000
# 3 -0.003693 -0.000171 0.007921 0.000000 0.001466 0.000000
# 4 0.000000 0.000000 0.000000 0.165454 0.000000 0.113153
# 5 0.000875 0.000741 0.001466 0.000000 0.054612 0.000000
# 6 0.000000 0.000000 0.000000 0.113153 0.000000 0.272061
#
#
# Mechanical properties :
#
#
# Convention : Reuss Voigt Hill
#
# Bulk Modulus (GPa) = 38.01555 65.76832 51.89193
# Shear Modulus (GPa) = 9.26682 29.21888 19.24285
#
# Velocity S-wave (km/s) = 2.07683 3.68781 2.99275
# Velocity P-wave (km/s) = 4.84204 6.98177 6.00793
#
# Compressibility (1/GPa) = 0.02630503
#
# Stress axis : x y z
#
# Youngs Moduli (GPa) = 145.99182 56.45444 126.24002
#
# Poissons Ratio (x) = -0.04371 0.46620
# Poissons Ratio (y) = -0.11302 0.02158
# Poissons Ratio (z) = 0.53914 0.00965
#
# Static dielectric constant tensor:
#      x y z
#    x 1.770540 0.000000 0.013910 
#    y 0.000000 1.670290 0.000000 
#    z 0.013910 0.000000 1.787750 
# 
# From -- ./inp_files/339020.got.cif
#   From: 2010.05.17/outbox.cif.g08.bks.cpg/sg12_170_cif.got.tgz:339020.got - 2010.06.03 13:09:07.
