data_PCOD9180963
_publ_section_title
;
Structure prediction by ZEFSAII (Michael W. Deem and Ramdas Pophale) SiO2 
 PCOD9180963
Probable space group: C 2/M
;
_chemical_formula_sum "Si O2"
_cell_formula_units_Z 56
_cell_length_a 11.246451
_cell_length_b 14.194751
_cell_length_c 18.850148
_cell_angle_alpha 90.000000
_cell_angle_beta 55.462184
_cell_angle_gamma 90.000000
_cell_volume 2478.874910
_symmetry_space_group_name_H-M "C 2/M"
_symmetry_group_IT_number 12
_symmetry_cell_setting 'monoclinic'
loop_
_space_group_symop_operation_xyz
x,y,z
-x,y,-z
-x,-y,-z
x,-y,z
1/2+x,1/2+y,z
1/2-x,1/2+y,-z
1/2-x,1/2-y,-z
1/2+x,1/2-y,z
loop_
_atom_site_type_symbol
_atom_site_label
_atom_site_fract_x
_atom_site_fract_y
_atom_site_fract_z
Si Si1 0.287745 0.885432 0.221310
Si Si2 0.838974 0.644723 0.045361
Si Si3 0.069181 0.387559 0.206190
Si Si4 0.023007 0.114895 0.410923
Si Si5 0.229462 0.614546 0.439756
Si Si6 0.456143 0.114996 0.626458
Si Si7 0.651200 0.639548 0.979501
O O1 0.269411 0.851281 0.146984
O O2 0.442757 0.851663 0.197830
O O3 0.167246 0.858665 0.319906
O O4 0.286775 0.000000 0.217194
O O5 0.870711 0.748635 0.004451
O O6 0.725068 0.603383 0.027274
O O7 0.000000 0.601013 0.000000
O O8 0.044798 0.500000 0.218857
O O9 0.056830 0.349603 0.289705
O O10 0.225301 0.373163 0.120783
O O11 0.000000 0.146855 0.500000
O O12 0.885542 0.145789 0.411563
O O13 0.023911 0.000000 0.413524
O O14 0.233021 0.500000 0.436760
O O15 0.170868 0.646116 0.383416
O O16 0.107590 0.639502 0.538563
O O17 0.451347 0.000000 0.629540
O O18 0.500000 0.602276 0.000000
#
# Coordination Sequence:
#
# PCOD9180963 Si02
#       7
#     8   8   8   8   8   8   8
#     4  10  20  32  54  83 106 139 178 217 270 316
#     4  10  20  39  58  75 103 137 183 219 255 323
#     4  10  19  32  51  79 109 133 169 218 269 319
#     4   9  16  26  42  71 108 137 169 212 256 311
#     4   8  13  23  39  61  97 140 170 201 246 300
#     4   8  14  24  41  66  98 135 168 201 253 312
#     4  10  22  37  56  77 101 138 178 217 265 316
#
# _framework density 22.590895
#
# number of rings (size 3 to 8) (size 9 to 14) (size 15 to 20)
#    0.000    2.714    1.429    1.714    0.000    5.714 
#    0.000    1.429    0.000    0.000    3.714    2.000 
#    0.000    0.000    0.000    0.000    0.000    0.000 
#
# Total GULP energy -156364.737002 kJ/mol
# GULP energy per Si atom -5584.454893 kJ/mol
# Density = 2.253948 g / cm^3
# Si number density = 22.590895 Si / 1000 Ang^3
#
#
#
# Elastic Constant Matrix: (Units=GPa)
#
#
# Indices 1 2 3 4 5 6 
#
# 1 192.8388 16.4420 90.9654 0.0000 -3.9329 0.0000
# 2 16.4420 72.3731 5.3305 0.0000 6.2236 0.0000
# 3 90.9654 5.3305 143.3461 0.0000 17.0255 0.0000
# 4 0.0000 0.0000 0.0000 20.6590 0.0000 4.5317
# 5 -3.9329 6.2236 17.0255 0.0000 35.8145 0.0000
# 6 0.0000 0.0000 0.0000 4.5317 0.0000 -9.8576
#
#
#
# Elastic Compliance Matrix: (Units=1/GPa)
#
#
# Indices 1 2 3 4 5 6 
#
# 1 0.007980 -0.001736 -0.005447 0.000000 0.003767 0.000000
# 2 -0.001736 0.014413 0.000939 0.000000 -0.003141 0.000000
# 3 -0.005447 0.000939 0.011116 0.000000 -0.006045 0.000000
# 4 0.000000 0.000000 0.000000 0.043971 0.000000 0.020214
# 5 0.003767 -0.003141 -0.006045 0.000000 0.031755 0.000000
# 6 0.000000 0.000000 0.000000 0.020214 0.000000 -0.092152
#
#
# Mechanical properties :
#
#
# Convention : Reuss Voigt Hill
#
# Bulk Modulus (GPa) = 47.57285 70.44821 59.01053
# Shear Modulus (GPa) = 136.69826 29.04451 82.87138
#
# Velocity S-wave (km/s) = 7.78728 3.58952 6.06326
# Velocity P-wave (km/s) = 10.09751 6.95928 8.67154
#
# Compressibility (1/GPa) = 0.02102039
#
# Stress axis : x y z
#
# Youngs Moduli (GPa) = 125.31557 69.38369 89.96273
#
# Poissons Ratio (x) = 0.12043 0.49001
# Poissons Ratio (y) = 0.21751 -0.08444
# Poissons Ratio (z) = 0.68257 -0.06512
#
# Static dielectric constant tensor:
#      x y z
#    x 1.847750 0.000000 0.008460 
#    y 0.000000 1.900730 0.000000 
#    z 0.008460 0.000000 1.779400 
# 
# From -- ./inp_files/264209.got.cif
#   From: 2010.05.17/outbox.cif.g08.bks.cpg/sg12_133_cif.got.tgz:264209.got - 2010.06.03 13:09:07.
