data_PCOD9180817
_publ_section_title
;
Structure prediction by ZEFSAII (Michael W. Deem and Ramdas Pophale) SiO2 
 PCOD9180817
Probable space group: C 2/M
;
_chemical_formula_sum "Si O2"
_cell_formula_units_Z 56
_cell_length_a 29.508796
_cell_length_b 8.802452
_cell_length_c 19.651053
_cell_angle_alpha 90.000000
_cell_angle_beta 138.258802
_cell_angle_gamma 90.000000
_cell_volume 3398.312220
_symmetry_space_group_name_H-M "C 2/M"
_symmetry_group_IT_number 12
_symmetry_cell_setting 'monoclinic'
loop_
_space_group_symop_operation_xyz
x,y,z
-x,y,-z
-x,-y,-z
x,-y,z
1/2+x,1/2+y,z
1/2-x,1/2+y,-z
1/2-x,1/2-y,-z
1/2+x,1/2-y,z
loop_
_atom_site_type_symbol
_atom_site_label
_atom_site_fract_x
_atom_site_fract_y
_atom_site_fract_z
Si Si1 0.146770 0.817742 0.892172
Si Si2 0.055066 0.682076 0.003813
Si Si3 0.256262 0.680965 0.117872
Si Si4 0.242507 0.681299 0.381232
Si Si5 0.355175 0.317290 0.616164
Si Si6 0.489973 0.682660 0.190898
Si Si7 0.204643 0.180625 0.196033
O O1 0.176786 0.780867 0.851592
O O2 0.068743 0.780226 0.820380
O O3 0.155791 0.000000 0.911658
O O4 0.193525 0.733907 0.000026
O O5 0.061318 0.500000 0.009341
O O6 0.128602 0.752156 0.102470
O O7 0.029489 0.741215 0.902312
O O8 0.000000 0.723385 0.000000
O O9 0.253204 0.500000 0.124153
O O10 0.248226 0.762382 0.180612
O O11 0.238935 0.500000 0.368916
O O12 0.311255 0.719850 0.499897
O O13 0.181331 0.736934 0.361322
O O14 0.235788 0.760153 0.301275
O O15 0.350375 0.500000 0.620426
O O16 0.434158 0.274618 0.701539
O O17 0.488822 0.500000 0.179902
O O18 0.200403 0.000000 0.191055
#
# Coordination Sequence:
#
# PCOD9180817 Si02
#       7
#     8   8   8   8   8   8   8
#     4   9  18  32  51  76 104 135 168 207 254 310
#     4  11  23  35  48  73 106 137 168 205 254 309
#     4  10  19  32  51  75 104 134 170 211 255 307
#     4  10  20  35  54  76 103 136 176 217 255 299
#     4   9  19  35  55  78 104 136 173 212 254 303
#     4  10  19  33  53  77 104 134 168 205 252 309
#     4  12  23  35  52  74 102 137 176 214 258 306
#
# _framework density 16.478769
#
# number of rings (size 3 to 8) (size 9 to 14) (size 15 to 20)
#    0.000    1.857    1.429    3.429    0.000    5.143 
#    0.000    0.000    0.000    0.857    0.000    6.000 
#    0.000    0.000    0.000    0.000    0.000    0.000 
#
# Total GULP energy -156314.414668 kJ/mol
# GULP energy per Si atom -5582.657667 kJ/mol
# Density = 1.644126 g / cm^3
# Si number density = 16.478769 Si / 1000 Ang^3
#
#
#
# Elastic Constant Matrix: (Units=GPa)
#
#
# Indices 1 2 3 4 5 6 
#
# 1 158.4245 58.5849 90.4134 0.0000 -3.7931 0.0000
# 2 58.5849 48.8730 44.3657 0.0000 -3.9779 0.0000
# 3 90.4134 44.3657 100.7531 0.0000 -7.2138 0.0000
# 4 0.0000 0.0000 0.0000 25.8386 0.0000 -5.4960
# 5 -3.7931 -3.9779 -7.2138 0.0000 19.6368 0.0000
# 6 0.0000 0.0000 0.0000 -5.4960 0.0000 21.1529
#
#
#
# Elastic Compliance Matrix: (Units=1/GPa)
#
#
# Indices 1 2 3 4 5 6 
#
# 1 0.015445 -0.009954 -0.009662 0.000000 -0.002582 0.000000
# 2 -0.009954 0.040540 -0.008698 0.000000 0.003094 0.000000
# 3 -0.009662 -0.008698 0.022765 0.000000 0.004735 0.000000
# 4 0.000000 0.000000 0.000000 0.040966 0.000000 0.010644
# 5 -0.002582 0.003094 0.004735 0.000000 0.052792 0.000000
# 6 0.000000 0.000000 0.000000 0.010644 0.000000 0.050041
#
#
# Mechanical properties :
#
#
# Convention : Reuss Voigt Hill
#
# Bulk Modulus (GPa) = 45.20135 77.19760 61.19947
# Shear Modulus (GPa) = 17.44889 20.97143 19.21016
#
# Velocity S-wave (km/s) = 3.25756 3.57127 3.41801
# Velocity P-wave (km/s) = 6.45279 7.99710 7.26609
#
# Compressibility (1/GPa) = 0.02212323
#
# Stress axis : x y z
#
# Youngs Moduli (GPa) = 64.74390 24.66673 43.92737
#
# Poissons Ratio (x) = 0.24553 0.42444
# Poissons Ratio (y) = 0.64445 0.38207
# Poissons Ratio (z) = 0.62557 0.21454
#
# Static dielectric constant tensor:
#      x y z
#    x 1.558360 0.000000 0.009640 
#    y 0.000000 1.558880 0.000000 
#    z 0.009640 0.000000 1.526610 
# 
# From -- ./inp_files/288234.got.cif
#   From: 2010.05.17/outbox.cif.g08.bks.cpg/sg12_145_cif.got.tgz:288234.got - 2010.06.03 13:09:07.
