data_PCOD9180785
_publ_section_title
;
Structure prediction by ZEFSAII (Michael W. Deem and Ramdas Pophale) SiO2 
 PCOD9180785
Probable space group: C 2/M
;
_chemical_formula_sum "Si O2"
_cell_formula_units_Z 64
_cell_length_a 16.716638
_cell_length_b 7.360318
_cell_length_c 19.774698
_cell_angle_alpha 90.000000
_cell_angle_beta 90.710310
_cell_angle_gamma 90.000000
_cell_volume 2432.887355
_symmetry_space_group_name_H-M "C 2/M"
_symmetry_group_IT_number 12
_symmetry_cell_setting 'monoclinic'
loop_
_space_group_symop_operation_xyz
x,y,z
-x,y,-z
-x,-y,-z
x,-y,z
1/2+x,1/2+y,z
1/2-x,1/2+y,-z
1/2-x,1/2-y,-z
1/2+x,1/2-y,z
loop_
_atom_site_type_symbol
_atom_site_label
_atom_site_fract_x
_atom_site_fract_y
_atom_site_fract_z
Si Si1 0.216335 0.292085 0.892398
Si Si2 0.371400 0.280416 0.474396
Si Si3 0.964540 0.220951 0.600882
Si Si4 0.533793 0.277899 0.143813
Si Si5 0.614065 0.294461 0.771243
Si Si6 0.119856 0.215648 0.272223
Si Si7 0.214344 0.782179 0.651279
Si Si8 0.628040 0.720290 0.022080
O O1 0.233687 0.500000 0.874342
O O2 0.188671 0.198666 0.823817
O O3 0.293279 0.223032 0.933924
O O4 0.144463 0.284458 0.946612
O O5 0.366544 0.500000 0.479203
O O6 0.451171 0.233557 0.431875
O O7 0.393368 0.216071 0.549698
O O8 0.299210 0.215974 0.425709
O O9 0.947722 0.284184 0.676327
O O10 0.962845 0.000000 0.601628
O O11 0.528233 0.500000 0.139257
O O12 0.456071 0.213161 0.183666
O O13 0.605553 0.223076 0.195708
O O14 0.554199 0.220417 0.068022
O O15 0.587778 0.500000 0.754346
O O16 0.646206 0.212112 0.702253
O O17 0.202511 0.247374 0.311149
O O18 0.111117 0.000000 0.267595
O O19 0.205150 0.000000 0.648821
O O20 0.626810 0.500000 0.017758
#
# Coordination Sequence:
#
# PCOD9180785 Si02
#       8
#     8   8   8   8   8   8   8   8
#     4  10  20  34  53  77 103 128 155 194 243 291
#     4   8  14  27  47  72 100 128 164 207 244 281
#     4   8  14  26  48  74  97 127 167 207 242 279
#     4   9  18  33  53  73  93 124 168 209 238 275
#     4  10  20  34  52  72  95 127 166 204 242 286
#     4  10  19  32  51  74  99 128 165 205 243 287
#     4  10  20  32  48  72 101 130 160 200 249 294
#     4   9  18  34  54  73  96 129 164 196 234 284
#
# _framework density 26.306191999999999
#
# number of rings (size 3 to 8) (size 9 to 14) (size 15 to 20)
#    0.000    2.750    0.000    2.625    0.000    6.000 
#    0.000    4.375    0.000    2.250    0.000    1.750 
#    0.000    0.000    0.000    0.000    0.000    0.000 
#
# Total GULP energy -178847.448591 kJ/mol
# GULP energy per Si atom -5588.982768 kJ/mol
# Density = 2.624632 g / cm^3
# Si number density = 26.306192 Si / 1000 Ang^3
#
#
#
# Elastic Constant Matrix: (Units=GPa)
#
#
# Indices 1 2 3 4 5 6 
#
# 1 56.4700 -8.7182 -3.7321 0.0000 5.2082 0.0000
# 2 -8.7182 95.2247 -2.9022 0.0000 0.4755 0.0000
# 3 -3.7321 -2.9022 131.7472 0.0000 8.4351 0.0000
# 4 0.0000 0.0000 0.0000 -5.3900 0.0000 18.5656
# 5 5.2082 0.4755 8.4351 0.0000 48.2627 0.0000
# 6 0.0000 0.0000 0.0000 18.5656 0.0000 -9.3079
#
#
#
# Elastic Compliance Matrix: (Units=1/GPa)
#
#
# Indices 1 2 3 4 5 6 
#
# 1 0.018210 0.001699 0.000688 0.000000 -0.002102 0.000000
# 2 0.001699 0.010668 0.000305 0.000000 -0.000342 0.000000
# 3 0.000688 0.000305 0.007708 0.000000 -0.001424 0.000000
# 4 0.000000 0.000000 0.000000 0.031605 0.000000 0.063039
# 5 -0.002102 -0.000342 -0.001424 0.000000 0.021199 0.000000
# 6 0.000000 0.000000 0.000000 0.063039 0.000000 0.018301
#
#
# Mechanical properties :
#
#
# Convention : Reuss Voigt Hill
#
# Bulk Modulus (GPa) = 23.82722 28.08189 25.95455
# Shear Modulus (GPa) = 42.99323 26.63259 34.81291
#
# Velocity S-wave (km/s) = 4.04708 3.18529 3.64177
# Velocity P-wave (km/s) = 5.56020 4.92202 5.25081
#
# Compressibility (1/GPa) = 0.04196881
#
# Stress axis : x y z
#
# Youngs Moduli (GPa) = 54.91460 93.73827 129.74052
#
# Poissons Ratio (x) = -0.15923 -0.08924
# Poissons Ratio (y) = -0.09328 -0.03957
# Poissons Ratio (z) = -0.03777 -0.02859
#
# Static dielectric constant tensor:
#      x y z
#    x 2.134550 0.000000 0.011510 
#    y 0.000000 2.058220 0.000000 
#    z 0.011510 0.000000 2.013710 
# 
# From -- ./inp_files/314204.got.cif
#   From: 2010.05.17/outbox.cif.g08.bks.cpg/sg12_158_cif.got.tgz:314204.got - 2010.06.03 13:09:07.
