data_PCOD9180587
_publ_section_title
;
Structure prediction by ZEFSAII (Michael W. Deem and Ramdas Pophale) SiO2 
 PCOD9180587
Probable space group: C 2/M
;
_chemical_formula_sum "Si O2"
_cell_formula_units_Z 48
_cell_length_a 24.102747
_cell_length_b 8.453620
_cell_length_c 10.032994
_cell_angle_alpha 90.000000
_cell_angle_beta 70.349717
_cell_angle_gamma 90.000000
_cell_volume 1925.224148
_symmetry_space_group_name_H-M "C 2/M"
_symmetry_group_IT_number 12
_symmetry_cell_setting 'monoclinic'
loop_
_space_group_symop_operation_xyz
x,y,z
-x,y,-z
-x,-y,-z
x,-y,z
1/2+x,1/2+y,z
1/2-x,1/2+y,-z
1/2-x,1/2-y,-z
1/2+x,1/2-y,z
loop_
_atom_site_type_symbol
_atom_site_label
_atom_site_fract_x
_atom_site_fract_y
_atom_site_fract_z
Si Si1 0.059641 0.817398 0.868371
Si Si2 0.496930 0.180167 0.679453
Si Si3 0.618567 0.687615 0.085451
Si Si4 0.793360 0.686501 0.787293
Si Si5 0.884592 0.811565 0.496679
Si Si6 0.794587 0.810116 0.351124
O O1 0.035527 0.691236 0.783446
O O2 0.071686 0.000000 0.807970
O O3 0.106331 0.762791 0.942510
O O4 0.000000 0.841391 0.000000
O O5 0.435301 0.258083 0.774550
O O6 0.547145 0.262413 0.546339
O O7 0.485623 0.000000 0.651714
O O8 0.616410 0.500000 0.082380
O O9 0.679852 0.737526 0.102143
O O10 0.787891 0.500000 0.814533
O O11 0.843674 0.719942 0.634151
O O12 0.733806 0.748799 0.764301
O O13 0.857240 0.775177 0.370352
O O14 0.878409 0.000000 0.525466
O O15 0.750000 0.750000 0.500000
O O16 0.791228 0.000000 0.345571
#
# Coordination Sequence:
#
# PCOD9180587 Si02
#       6
#     8   8   8   8   8   8
#     4   8  16  32  51  69  92 124 162 198 233 283
#     4  11  21  32  49  74 100 126 159 201 244 281
#     4  10  20  34  51  72  98 130 163 193 235 291
#     4  10  19  32  50  75 102 125 157 201 243 281
#     4  10  19  33  51  71  98 132 164 193 235 290
#     4   8  16  30  49  70  93 124 160 197 235 279
#
# _framework density 24.93216
#
# number of rings (size 3 to 8) (size 9 to 14) (size 15 to 20)
#    0.000    2.500    0.000    4.000    0.000    5.667 
#    0.000    3.333    0.000    1.000    0.000    0.000 
#    0.000    0.000    0.000    0.000    0.000    0.000 
#
# Total GULP energy -133952.042939 kJ/mol
# GULP energy per Si atom -5581.335122 kJ/mol
# Density = 2.487541 g / cm^3
# Si number density = 24.932160 Si / 1000 Ang^3
#
#
#
# Elastic Constant Matrix: (Units=GPa)
#
#
# Indices 1 2 3 4 5 6 
#
# 1 182.6659 -0.4124 8.9851 0.0000 25.0298 0.0000
# 2 -0.4124 22.5397 -10.0602 0.0000 -0.6132 0.0000
# 3 8.9851 -10.0602 55.2355 0.0000 24.3012 0.0000
# 4 0.0000 0.0000 0.0000 20.7399 0.0000 8.7200
# 5 25.0298 -0.6132 24.3012 0.0000 52.1218 0.0000
# 6 0.0000 0.0000 0.0000 8.7200 0.0000 24.3814
#
#
#
# Elastic Compliance Matrix: (Units=1/GPa)
#
#
# Indices 1 2 3 4 5 6 
#
# 1 0.005867 0.000206 0.000405 0.000000 -0.003003 0.000000
# 2 0.000206 0.049132 0.010950 0.000000 -0.004626 0.000000
# 3 0.000405 0.010950 0.025239 0.000000 -0.011833 0.000000
# 4 0.000000 0.000000 0.000000 0.056750 0.000000 -0.020297
# 5 -0.003003 -0.004626 -0.011833 0.000000 0.026091 0.000000
# 6 0.000000 0.000000 0.000000 -0.020297 0.000000 0.048274
#
#
# Mechanical properties :
#
#
# Convention : Reuss Voigt Hill
#
# Bulk Modulus (GPa) = 9.67495 28.60733 19.14114
# Shear Modulus (GPa) = 22.45352 36.91053 29.68202
#
# Velocity S-wave (km/s) = 3.00423 3.85182 3.45412
# Velocity P-wave (km/s) = 3.99034 5.59294 4.85818
#
# Compressibility (1/GPa) = 0.10335973
#
# Stress axis : x y z
#
# Youngs Moduli (GPa) = 170.45686 20.35345 39.62152
#
# Poissons Ratio (x) = -0.00420 -0.01603
# Poissons Ratio (y) = -0.03516 -0.43387
# Poissons Ratio (z) = -0.06898 -0.22288
#
# Static dielectric constant tensor:
#      x y z
#    x 2.043420 0.000000 -0.046260 
#    y 0.000000 1.879440 0.000000 
#    z -0.046260 0.000000 2.276570 
# 
# From -- ./inp_files/172199.got.cif
#   From: 2010.05.17/outbox.cif.g08.bks.cpg/sg12_87_cif.got.tgz:172199.got - 2010.06.03 13:09:07.
