data_PCOD9180398
_publ_section_title
;
Structure prediction by ZEFSAII (Michael W. Deem and Ramdas Pophale) SiO2 
 PCOD9180398
Probable space group: C 2/M
;
_chemical_formula_sum "Si O2"
_cell_formula_units_Z 64
_cell_length_a 30.987694
_cell_length_b 8.519978
_cell_length_c 15.652722
_cell_angle_alpha 90.000000
_cell_angle_beta 78.917509
_cell_angle_gamma 90.000000
_cell_volume 4055.479150
_symmetry_space_group_name_H-M "C 2/M"
_symmetry_group_IT_number 12
_symmetry_cell_setting 'monoclinic'
loop_
_space_group_symop_operation_xyz
x,y,z
-x,y,-z
-x,-y,-z
x,-y,z
1/2+x,1/2+y,z
1/2-x,1/2+y,-z
1/2-x,1/2-y,-z
1/2+x,1/2-y,z
loop_
_atom_site_type_symbol
_atom_site_label
_atom_site_fract_x
_atom_site_fract_y
_atom_site_fract_z
Si Si1 0.961906 0.188338 0.701603
Si Si2 0.936064 0.809015 0.083392
Si Si3 0.533603 0.309053 0.108258
Si Si4 0.790735 0.687415 0.372574
Si Si5 0.876439 0.188140 0.258045
Si Si6 0.058573 0.311438 0.619405
Si Si7 0.696865 0.810604 0.434555
Si Si8 0.100143 0.689704 0.422169
O O1 0.953382 0.243348 0.802256
O O2 0.925529 0.245115 0.649031
O O3 0.009680 0.250347 0.655258
O O4 0.963441 0.000000 0.701097
O O5 0.897042 0.756679 0.160105
O O6 0.982928 0.764952 0.107921
O O7 0.935219 0.000000 0.082385
O O8 0.937901 0.755977 0.984188
O O9 0.534648 0.500000 0.107803
O O10 0.792501 0.500000 0.369360
O O11 0.827439 0.754965 0.296100
O O12 0.741116 0.744163 0.376278
O O13 0.802737 0.737625 0.465469
O O14 0.908299 0.249370 0.321029
O O15 0.877514 0.000000 0.259095
O O16 0.058763 0.500000 0.622170
O O17 0.075810 0.262624 0.519288
O O18 0.651044 0.760733 0.409975
O O19 0.698877 0.000000 0.432119
O O20 0.099137 0.500000 0.419438
#
# Coordination Sequence:
#
# PCOD9180398 Si02
#       8
#     8   8   8   8   8   8   8   8
#     4  11  21  32  48  72  95 123 166 205 235 270
#     4   8  14  26  46  68  93 123 155 191 236 283
#     4   8  14  27  45  67  94 122 154 196 237 277
#     4  10  19  32  49  71  97 124 153 192 244 285
#     4  11  19  29  49  75  97 124 161 196 233 281
#     4  11  21  34  47  64  96 135 166 193 232 278
#     4   9  18  34  50  67  91 125 164 194 227 281
#     4  10  21  36  49  64  93 133 166 192 233 281
#
# _framework density 15.78112
#
# number of rings (size 3 to 8) (size 9 to 14) (size 15 to 20)
#    0.000    2.250    2.500    2.625    0.000    3.500 
#    0.000    0.000    0.000    3.750    0.000    0.875 
#    0.000    0.000    0.000    0.000    0.000    0.000 
#
# Total GULP energy -178458.184851 kJ/mol
# GULP energy per Si atom -5576.818277 kJ/mol
# Density = 1.574520 g / cm^3
# Si number density = 15.781120 Si / 1000 Ang^3
#
#
#
# Elastic Constant Matrix: (Units=GPa)
#
#
# Indices 1 2 3 4 5 6 
#
# 1 114.7121 24.1724 92.2421 0.0000 -8.9798 0.0000
# 2 24.1724 20.8155 27.3518 0.0000 -1.3074 0.0000
# 3 92.2421 27.3518 147.6449 0.0000 -15.5088 0.0000
# 4 0.0000 0.0000 0.0000 -0.0013 0.0000 -4.6091
# 5 -8.9798 -1.3074 -15.5088 0.0000 22.0727 0.0000
# 6 0.0000 0.0000 0.0000 -4.6091 0.0000 24.7808
#
#
#
# Elastic Compliance Matrix: (Units=1/GPa)
#
#
# Indices 1 2 3 4 5 6 
#
# 1 0.018554 -0.008346 -0.010046 0.000000 -0.000005 0.000000
# 2 -0.008346 0.067740 -0.007849 0.000000 -0.004898 0.000000
# 3 -0.010046 -0.007849 0.015143 0.000000 0.006088 0.000000
# 4 0.000000 0.000000 0.000000 -1.164767 0.000000 -0.216643
# 5 -0.000005 -0.004898 0.006088 0.000000 0.049290 0.000000
# 6 0.000000 0.000000 0.000000 -0.216643 0.000000 0.000059
#
#
# Mechanical properties :
#
#
# Convention : Reuss Voigt Hill
#
# Bulk Modulus (GPa) = 20.42739 63.41166 41.91953
# Shear Modulus (GPa) = -5.29000 18.66418 6.68709
#
# Velocity S-wave (km/s) = -1.83286 3.44276 2.06073
# Velocity P-wave (km/s) = 2.91430 7.48817 5.68180
#
# Compressibility (1/GPa) = 0.04895387
#
# Stress axis : x y z
#
# Youngs Moduli (GPa) = 53.89649 14.76241 66.03695
#
# Poissons Ratio (x) = 0.12320 0.66342
# Poissons Ratio (y) = 0.44981 0.51835
# Poissons Ratio (z) = 0.54145 0.11588
#
# Static dielectric constant tensor:
#      x y z
#    x 1.503750 0.000000 -0.011890 
#    y 0.000000 1.541600 0.000000 
#    z -0.011890 0.000000 1.538430 
# 
# From -- ./inp_files/243940.got.cif
#   From: 2010.05.17/outbox.cif.g08.bks.cpg/sg12_122_cif.got.tgz:243940.got - 2010.06.03 13:09:07.
