data_PCOD9180678
_publ_section_title
;
Structure prediction by ZEFSAII (Michael W. Deem and Ramdas Pophale) SiO2 
 PCOD9180678
Probable space group: C 2/M
;
_chemical_formula_sum "Si O2"
_cell_formula_units_Z 64
_cell_length_a 14.993207
_cell_length_b 9.258134
_cell_length_c 26.969843
_cell_angle_alpha 90.000000
_cell_angle_beta 127.637283
_cell_angle_gamma 90.000000
_cell_volume 2964.576206
_symmetry_space_group_name_H-M "C 2/M"
_symmetry_group_IT_number 12
_symmetry_cell_setting 'monoclinic'
loop_
_space_group_symop_operation_xyz
x,y,z
-x,y,-z
-x,-y,-z
x,-y,z
1/2+x,1/2+y,z
1/2-x,1/2+y,-z
1/2-x,1/2-y,-z
1/2+x,1/2-y,z
loop_
_atom_site_type_symbol
_atom_site_label
_atom_site_fract_x
_atom_site_fract_y
_atom_site_fract_z
Si Si1 0.046120 0.664368 0.230192
Si Si2 0.376203 0.672408 0.648236
Si Si3 0.796417 0.836386 0.271682
Si Si4 0.711375 0.169311 0.140563
Si Si5 0.676715 0.826633 0.518054
Si Si6 0.520173 0.172603 0.611769
Si Si7 0.456521 0.168973 0.098157
Si Si8 0.372020 0.665715 0.978962
O O1 0.014691 0.500000 0.235178
O O2 0.069423 0.770865 0.282994
O O3 0.168283 0.652967 0.245766
O O4 0.965037 0.715799 0.158368
O O5 0.389309 0.500000 0.648459
O O6 0.243411 0.704940 0.591666
O O7 0.442311 0.759506 0.628369
O O8 0.791533 0.779835 0.213117
O O9 0.861671 0.741368 0.333560
O O10 0.843141 0.000000 0.286670
O O11 0.583528 0.178677 0.118738
O O12 0.734907 0.000000 0.140125
O O13 0.706113 0.255754 0.087802
O O14 0.750000 0.750000 0.500000
O O15 0.547060 0.789372 0.461657
O O16 0.683997 0.000000 0.513913
O O17 0.527788 0.000000 0.617264
O O18 0.379935 0.257758 0.034720
O O19 0.426869 0.000000 0.087282
O O20 0.339380 0.500000 0.972919
O O21 0.500000 0.669987 0.000000
#
# Coordination Sequence:
#
# PCOD9180678 Si02
#       8
#     8   8   8   8   8   8   8   8
#     4   9  18  32  48  68  96 127 158 193 233 277
#     4  10  19  32  51  72  94 121 155 194 234 278
#     4   9  18  32  48  68  96 127 158 193 233 277
#     4   8  14  25  40  57  82 118 153 184 223 270
#     4   8  16  30  47  68  91 117 151 191 233 274
#     4  10  19  32  51  72  94 121 155 194 234 278
#     4   8  14  25  40  57  82 118 153 184 223 270
#     4   9  15  21  33  57  86 113 146 189 228 263
#
# _framework density 21.588246000000002
#
# number of rings (size 3 to 8) (size 9 to 14) (size 15 to 20)
#    0.000    3.125    0.000    2.625    0.000    4.000 
#    0.000    3.125    0.000    3.750    0.000    0.875 
#    0.000    0.000    0.000    0.000    0.000    0.000 
#
# Total GULP energy -178378.563419 kJ/mol
# GULP energy per Si atom -5574.330107 kJ/mol
# Density = 2.153911 g / cm^3
# Si number density = 21.588246 Si / 1000 Ang^3
#
#
#
# Elastic Constant Matrix: (Units=GPa)
#
#
# Indices 1 2 3 4 5 6 
#
# 1 27.2428 12.1823 64.6537 0.0000 18.8621 0.0000
# 2 12.1823 53.6709 59.7513 0.0000 2.6423 0.0000
# 3 64.6537 59.7513 130.0903 0.0000 -13.1871 0.0000
# 4 0.0000 0.0000 0.0000 35.1979 0.0000 1.1980
# 5 18.8621 2.6423 -13.1871 0.0000 18.7180 0.0000
# 6 0.0000 0.0000 0.0000 1.1980 0.0000 0.0721
#
#
#
# Elastic Compliance Matrix: (Units=1/GPa)
#
#
# Indices 1 2 3 4 5 6 
#
# 1 -0.011927 -0.016486 0.016104 0.000000 0.025691 0.000000
# 2 -0.016486 0.022931 -0.001059 0.000000 0.012630 0.000000
# 3 0.016104 -0.001059 -0.001572 0.000000 -0.017186 0.000000
# 4 0.000000 0.000000 0.000000 0.065422 0.000000 -1.087443
# 5 0.025691 0.012630 -0.017186 0.000000 0.013645 0.000000
# 6 0.000000 0.000000 0.000000 -1.087443 0.000000 31.950313
#
#
# Mechanical properties :
#
#
# Convention : Reuss Voigt Hill
#
# Bulk Modulus (GPa) = 152.66257 53.79763 103.23010
# Shear Modulus (GPa) = 0.15604 15.75871 7.95737
#
# Velocity S-wave (km/s) = 0.26914 2.70472 1.92197
# Velocity P-wave (km/s) = 8.42411 5.89305 7.26958
#
# Compressibility (1/GPa) = 0.00655039
#
# Stress axis : x y z
#
# Youngs Moduli (GPa) = -83.84612 43.60906 -636.04295
#
# Poissons Ratio (x) = 0.71893 10.24265
# Poissons Ratio (y) = -1.38227 -0.67345
# Poissons Ratio (z) = 1.35023 0.04617
#
# Static dielectric constant tensor:
#      x y z
#    x 1.878960 0.000000 0.031730 
#    y 0.000000 1.720580 0.000000 
#    z 0.031730 0.000000 1.830100 
# 
# From -- ./inp_files/365194.got.cif
#   From: 2010.05.17/outbox.cif.g08.bks.cpg/sg12_183_cif.got.tgz:365194.got - 2010.06.03 13:09:07.
