data_PCOD9180743
_publ_section_title
;
Structure prediction by ZEFSAII (Michael W. Deem and Ramdas Pophale) SiO2 
 PCOD9180743
Probable space group: C 2/M
;
_chemical_formula_sum "Si O2"
_cell_formula_units_Z 48
_cell_length_a 17.179593
_cell_length_b 9.440207
_cell_length_c 26.468890
_cell_angle_alpha 90.000000
_cell_angle_beta 148.557062
_cell_angle_gamma 90.000000
_cell_volume 2239.281111
_symmetry_space_group_name_H-M "C 2/M"
_symmetry_group_IT_number 12
_symmetry_cell_setting 'monoclinic'
loop_
_space_group_symop_operation_xyz
x,y,z
-x,y,-z
-x,-y,-z
x,-y,z
1/2+x,1/2+y,z
1/2-x,1/2+y,-z
1/2-x,1/2-y,-z
1/2+x,1/2-y,z
loop_
_atom_site_type_symbol
_atom_site_label
_atom_site_fract_x
_atom_site_fract_y
_atom_site_fract_z
Si Si1 0.332368 0.842343 0.681378
Si Si2 0.102756 0.338150 0.608186
Si Si3 0.586582 0.657502 0.102777
Si Si4 0.665071 0.833415 0.829184
Si Si5 0.839575 0.666128 0.007237
Si Si6 0.862082 0.839498 0.527346
O O1 0.260167 0.730631 0.679522
O O2 0.491940 0.809850 0.744626
O O3 0.219317 0.850288 0.571839
O O4 0.341857 0.000000 0.709853
O O5 0.118074 0.500000 0.633429
O O6 0.000000 0.339885 0.500000
O O7 0.013819 0.243589 0.599267
O O8 0.563484 0.500000 0.111314
O O9 0.759544 0.677008 0.184156
O O10 0.505896 0.773153 0.092006
O O11 0.500000 0.658293 0.000000
O O12 0.695155 0.000000 0.861168
O O13 0.750950 0.714901 0.908458
O O14 0.838891 0.500000 0.015364
O O15 0.750000 0.750000 0.000000
O O16 0.750000 0.750000 0.500000
O O17 0.884607 0.000000 0.559117
#
# Coordination Sequence:
#
# PCOD9180743 Si02
#       6
#     8   8   8   8   8   8
#     4   9  18  33  53  75  99 129 164 202 247 297
#     4   9  17  30  49  72  98 130 167 204 242 291
#     4   8  15  30  51  72  96 128 162 197 242 295
#     4   9  18  34  54  75 100 128 160 202 250 298
#     4  11  21  33  51  74 100 131 167 205 244 290
#     4  10  19  32  51  74 100 132 168 206 249 296
#
# _framework density 21.435452000000002
#
# number of rings (size 3 to 8) (size 9 to 14) (size 15 to 20)
#    0.000    2.667    0.000    3.500    0.000    6.333 
#    0.000    1.667    0.000    6.000    0.000    0.000 
#    0.000    0.000    0.000    0.000    0.000    0.000 
#
# Total GULP energy -133863.768990 kJ/mol
# GULP energy per Si atom -5577.657041 kJ/mol
# Density = 2.138666 g / cm^3
# Si number density = 21.435452 Si / 1000 Ang^3
#
#
#
# Elastic Constant Matrix: (Units=GPa)
#
#
# Indices 1 2 3 4 5 6 
#
# 1 114.5982 102.4449 27.0926 0.0000 55.6475 0.0000
# 2 102.4449 204.2537 34.6402 0.0000 43.5712 0.0000
# 3 27.0926 34.6402 65.5296 0.0001 31.1811 0.0000
# 4 0.0000 0.0000 0.0001 16.8643 0.0000 11.0080
# 5 55.6475 43.5712 31.1811 0.0000 49.4897 0.0000
# 6 0.0000 0.0000 0.0000 11.0080 0.0000 40.6245
#
#
#
# Elastic Compliance Matrix: (Units=1/GPa)
#
#
# Indices 1 2 3 4 5 6 
#
# 1 0.030785 -0.010220 0.006947 0.000000 -0.029995 0.000000
# 2 -0.010220 0.009462 -0.003257 0.000000 0.005214 0.000000
# 3 0.006947 -0.003257 0.023511 0.000000 -0.019757 0.000000
# 4 0.000000 0.000000 0.000000 0.072038 0.000000 -0.019520
# 5 -0.029995 0.005214 -0.019757 0.000000 0.061791 0.000000
# 6 0.000000 0.000000 0.000000 -0.019520 0.000000 0.029905
#
#
# Mechanical properties :
#
#
# Convention : Reuss Voigt Hill
#
# Bulk Modulus (GPa) = 19.72475 79.19300 49.45887
# Shear Modulus (GPa) = 19.42108 36.07598 27.74853
#
# Velocity S-wave (km/s) = 3.01329 4.10690 3.60184
# Velocity P-wave (km/s) = 4.61828 7.71452 6.35776
#
# Compressibility (1/GPa) = 0.05069772
#
# Stress axis : x y z
#
# Youngs Moduli (GPa) = 32.48307 105.68387 42.53360
#
# Poissons Ratio (x) = 1.08012 -0.29549
# Poissons Ratio (y) = 0.33199 0.13854
# Poissons Ratio (z) = -0.22567 0.34423
#
# Static dielectric constant tensor:
#      x y z
#    x 1.853470 0.000000 -0.055490 
#    y 0.000000 1.754550 0.000000 
#    z -0.055490 0.000000 1.871970 
# 
# From -- ./inp_files/274577.got.cif
#   From: 2010.05.17/outbox.cif.g08.bks.cpg/sg12_138_cif.got.tgz:274577.got - 2010.06.03 13:09:07.
