data_PCOD9180608
_publ_section_title
;
Structure prediction by ZEFSAII (Michael W. Deem and Ramdas Pophale) SiO2 
 PCOD9180608
Probable space group: C 2/M
;
_chemical_formula_sum "Si O2"
_cell_formula_units_Z 34
_cell_length_a 24.165924
_cell_length_b 7.654998
_cell_length_c 6.601302
_cell_angle_alpha 90.000000
_cell_angle_beta 100.395992
_cell_angle_gamma 90.000000
_cell_volume 1201.128817
_symmetry_space_group_name_H-M "C 2/M"
_symmetry_group_IT_number 12
_symmetry_cell_setting 'monoclinic'
loop_
_space_group_symop_operation_xyz
x,y,z
-x,y,-z
-x,-y,-z
x,-y,z
1/2+x,1/2+y,z
1/2-x,1/2+y,-z
1/2-x,1/2-y,-z
1/2+x,1/2-y,z
loop_
_atom_site_type_symbol
_atom_site_label
_atom_site_fract_x
_atom_site_fract_y
_atom_site_fract_z
Si Si1 0.326674 0.293339 0.873711
Si Si2 0.084283 0.197719 0.507048
Si Si3 0.206227 0.790064 0.696344
Si Si4 0.942795 0.702534 0.068838
Si Si5 0.500000 0.000000 0.500000
O O1 0.335556 0.500000 0.887441
O O2 0.270291 0.268582 0.704042
O O3 0.308094 0.224918 0.084546
O O4 0.388514 0.212342 0.887674
O O5 0.149677 0.254861 0.535960
O O6 0.073716 0.189304 0.744671
O O7 0.040210 0.345318 0.423588
O O8 0.076543 0.000000 0.422003
O O9 0.207412 0.000000 0.699442
O O10 0.949945 0.500000 0.151297
O O11 0.000000 0.758114 0.000000
#
# Coordination Sequence:
#
# PCOD9180608 Si02
#       5
#     8   8   8   8   2
#     4   9  16  24  42  69 100 134 160 195 254 313
#     4  10  21  35  53  77 105 137 174 215 259 303
#     4   8  15  27  43  67  99 129 160 203 251 304
#     4  10  19  32  50  75 109 141 169 206 259 319
#     4  12  22  36  54  74 104 140 176 226 248 298
#
# _framework density 28.306704
#
# number of rings (size 3 to 8) (size 9 to 14) (size 15 to 20)
#    0.000    2.588    1.176    3.176    1.647    4.706 
#    0.000    0.000    0.000    0.000    0.000    1.647 
#    0.000    0.000    0.000    0.000    0.000    0.000 
#
# Total GULP energy -95034.845735 kJ/mol
# GULP energy per Si atom -5590.285043 kJ/mol
# Density = 2.824228 g / cm^3
# Si number density = 28.306704 Si / 1000 Ang^3
#
#
#
# Elastic Constant Matrix: (Units=GPa)
#
#
# Indices 1 2 3 4 5 6 
#
# 1 336.3202 67.8847 47.1332 0.0000 -0.0322 0.0000
# 2 67.8847 133.7857 22.6804 0.0000 31.0244 0.0000
# 3 47.1332 22.6804 95.8766 0.0000 19.7859 0.0000
# 4 0.0000 0.0000 0.0000 23.8095 0.0000 27.1806
# 5 -0.0322 31.0244 19.7859 0.0000 56.2142 0.0000
# 6 0.0000 0.0000 0.0000 27.1806 0.0000 44.9552
#
#
#
# Elastic Compliance Matrix: (Units=1/GPa)
#
#
# Indices 1 2 3 4 5 6 
#
# 1 0.003593 -0.001925 -0.001651 0.000000 0.001646 0.000000
# 2 -0.001925 0.009719 -0.000265 0.000000 -0.005272 0.000000
# 3 -0.001651 -0.000265 0.012157 0.000000 -0.004134 0.000000
# 4 0.000000 0.000000 0.000000 0.135582 0.000000 -0.081975
# 5 0.001646 -0.005272 -0.004134 0.000000 0.022154 0.000000
# 6 0.000000 0.000000 0.000000 -0.081975 0.000000 0.071808
#
#
# Mechanical properties :
#
#
# Convention : Reuss Voigt Hill
#
# Bulk Modulus (GPa) = 56.21648 93.48656 74.85152
# Shear Modulus (GPa) = 18.61332 53.54805 36.08069
#
# Velocity S-wave (km/s) = 2.56707 4.35410 3.57407
# Velocity P-wave (km/s) = 5.35625 7.64039 6.59791
#
# Compressibility (1/GPa) = 0.01778838
#
# Stress axis : x y z
#
# Youngs Moduli (GPa) = 278.28586 102.89301 82.25503
#
# Poissons Ratio (x) = 0.19808 0.13578
# Poissons Ratio (y) = 0.53573 0.02178
# Poissons Ratio (z) = 0.45937 0.02724
#
# Static dielectric constant tensor:
#      x y z
#    x 2.133910 0.000000 -0.186940 
#    y 0.000000 2.002650 0.000000 
#    z -0.186940 0.000000 1.884480 
# 
# From -- ./inp_files/92479.got.cif
#   From: 2010.05.17/outbox.cif.g08.bks.cpg/sg12_47_cif.got.tgz:92479.got - 2010.06.03 13:09:07.
