data_PCOD9180293
_publ_section_title
;
Structure prediction by ZEFSAII (Michael W. Deem and Ramdas Pophale) SiO2 
 PCOD9180293
Probable space group: C 2/M
;
_chemical_formula_sum "Si O2"
_cell_formula_units_Z 40
_cell_length_a 14.462553
_cell_length_b 34.179927
_cell_length_c 5.054203
_cell_angle_alpha 90.000000
_cell_angle_beta 105.964224
_cell_angle_gamma 90.000000
_cell_volume 2402.083388
_symmetry_space_group_name_H-M "C 2/M"
_symmetry_group_IT_number 12
_symmetry_cell_setting 'monoclinic'
loop_
_space_group_symop_operation_xyz
x,y,z
-x,y,-z
-x,-y,-z
x,-y,z
1/2+x,1/2+y,z
1/2-x,1/2+y,-z
1/2-x,1/2-y,-z
1/2+x,1/2-y,z
loop_
_atom_site_type_symbol
_atom_site_label
_atom_site_fract_x
_atom_site_fract_y
_atom_site_fract_z
Si Si1 0.386075 0.202974 0.420967
Si Si2 0.431062 0.543271 0.193762
Si Si3 0.884264 0.122499 0.374247
Si Si4 0.297487 0.662610 0.806728
Si Si5 0.114066 0.753927 0.082329
O O1 0.500000 0.194387 0.500000
O O2 0.317346 0.166992 0.295407
O O3 0.364389 0.219384 0.694587
O O4 0.364721 0.237653 0.193004
O O5 0.500000 0.539097 0.500000
O O6 0.388217 0.500000 0.105543
O O7 0.365883 0.579487 0.233074
O O8 0.500000 0.553772 0.000000
O O9 0.837146 0.132879 0.617443
O O10 0.000000 0.126671 0.500000
O O11 0.841134 0.151619 0.123908
O O12 0.334749 0.706677 0.786899
O O13 0.000000 0.761736 0.000000
#
# Coordination Sequence:
#
# PCOD9180293 Si02
#       5
#     8   8   8   8   8
#     4  10  21  35  49  65  89 124 168 204 235 280
#     4   9  17  31  49  68  96 132 158 178 216 278
#     4  11  21  32  47  73 101 124 152 188 232 283
#     4  12  21  32  49  70  96 124 156 199 245 277
#     4  10  19  32  48  66  90 124 159 196 242 288
#
# _framework density 16.652213
#
# number of rings (size 3 to 8) (size 9 to 14) (size 15 to 20)
#    0.000    1.600    0.000    7.800    0.000    1.600 
#    0.000    0.000    0.000    0.000    0.000    0.000 
#    0.000    4.800    0.000    0.000    0.000    0.000 
#
# Total GULP energy -111539.743730 kJ/mol
# GULP energy per Si atom -5576.987187 kJ/mol
# Density = 1.661431 g / cm^3
# Si number density = 16.652213 Si / 1000 Ang^3
#
#
#
# Elastic Constant Matrix: (Units=GPa)
#
#
# Indices 1 2 3 4 5 6 
#
# 1 37.6427 28.1149 19.7396 0.0000 8.9029 0.0000
# 2 28.1149 50.4910 1.1850 0.0000 10.1769 0.0000
# 3 19.7396 1.1850 83.1244 0.0000 -2.5685 0.0000
# 4 0.0000 0.0000 0.0000 12.3943 0.0000 -3.8966
# 5 8.9029 10.1769 -2.5685 0.0000 26.7800 0.0000
# 6 0.0000 0.0000 0.0000 -3.8966 0.0000 12.3803
#
#
#
# Elastic Compliance Matrix: (Units=1/GPa)
#
#
# Indices 1 2 3 4 5 6 
#
# 1 0.058840 -0.030571 -0.013823 0.000000 -0.009269 0.000000
# 2 -0.030571 0.037358 0.006622 0.000000 -0.003398 0.000000
# 3 -0.013823 0.006622 0.015328 0.000000 0.003549 0.000000
# 4 0.000000 0.000000 0.000000 0.089543 0.000000 0.028183
# 5 -0.009269 -0.003398 0.003549 0.000000 0.042055 0.000000
# 6 0.000000 0.000000 0.000000 0.028183 0.000000 0.089644
#
#
# Mechanical properties :
#
#
# Convention : Reuss Voigt Hill
#
# Bulk Modulus (GPa) = 27.79214 29.92634 28.85924
# Shear Modulus (GPa) = 11.89610 18.45883 15.17747
#
# Velocity S-wave (km/s) = 2.67570 3.33301 3.02228
# Velocity P-wave (km/s) = 5.12560 5.72908 5.43572
#
# Compressibility (1/GPa) = 0.03598139
#
# Stress axis : x y z
#
# Youngs Moduli (GPa) = 16.99521 26.76802 65.23982
#
# Poissons Ratio (x) = 0.81833 0.90183
# Poissons Ratio (y) = 0.51956 -0.43203
# Poissons Ratio (z) = 0.23493 -0.17726
#
# Static dielectric constant tensor:
#      x y z
#    x 1.529590 0.000000 0.016060 
#    y 0.000000 1.608740 0.000000 
#    z 0.016060 0.000000 1.562210 
# 
# From -- ./inp_files/12606.got.cif
#   From: 2010.05.17/outbox.cif.g08.bks.cpg/sg12_7_cif.got.tgz:12606.got - 2010.06.03 13:09:07.
