data_PCOD9180558
_publ_section_title
;
Structure prediction by ZEFSAII (Michael W. Deem and Ramdas Pophale) SiO2 
 PCOD9180558
Probable space group: C 2/M
;
_chemical_formula_sum "Si O2"
_cell_formula_units_Z 64
_cell_length_a 35.128581
_cell_length_b 7.531178
_cell_length_c 16.351697
_cell_angle_alpha 90.000000
_cell_angle_beta 39.656171
_cell_angle_gamma 90.000000
_cell_volume 2760.761612
_symmetry_space_group_name_H-M "C 2/M"
_symmetry_group_IT_number 12
_symmetry_cell_setting 'monoclinic'
loop_
_space_group_symop_operation_xyz
x,y,z
-x,y,-z
-x,-y,-z
x,-y,z
1/2+x,1/2+y,z
1/2-x,1/2+y,-z
1/2-x,1/2-y,-z
1/2+x,1/2-y,z
loop_
_atom_site_type_symbol
_atom_site_label
_atom_site_fract_x
_atom_site_fract_y
_atom_site_fract_z
Si Si1 0.259310 0.299972 0.080192
Si Si2 0.065481 0.294031 0.392399
Si Si3 0.606516 0.214595 0.492642
Si Si4 0.233828 0.282137 0.302154
Si Si5 0.100756 0.205574 0.155550
Si Si6 0.059106 0.783258 0.848932
Si Si7 0.998176 0.797371 0.220592
Si Si8 0.303483 0.286589 0.345311
O O1 0.234664 0.500000 0.123567
O O2 0.238617 0.215853 0.200378
O O3 0.250000 0.250000 0.000000
O O4 0.330090 0.294010 0.976833
O O5 0.057195 0.500000 0.427439
O O6 0.106424 0.226976 0.397850
O O7 0.091682 0.286174 0.259371
O O8 0.000000 0.210018 0.500000
O O9 0.666668 0.268077 0.438807
O O10 0.546936 0.291489 0.629322
O O11 0.603925 0.000000 0.503354
O O12 0.238163 0.500000 0.291793
O O13 0.280095 0.223638 0.294744
O O14 0.059265 0.284425 0.153349
O O15 0.081933 0.000000 0.195364
O O16 0.038855 0.719954 0.792767
O O17 0.127746 0.723530 0.753053
O O18 0.062291 0.000000 0.847188
O O19 0.000000 0.734127 0.000000
O O20 0.012178 0.000000 0.171987
O O21 0.307125 0.500000 0.336376
O O22 0.250000 0.250000 0.500000
#
# Coordination Sequence:
#
# PCOD9180558 Si02
#       8
#     8   8   8   8   8   8   8   8
#     4  10  21  38  56  77 106 141 181 223 264 314
#     4  10  19  32  50  73 102 139 178 213 251 304
#     4  10  19  33  52  75 103 138 177 213 255 311
#     4   9  19  34  56  80 104 140 183 221 261 317
#     4  10  21  33  51  77 106 136 170 215 267 310
#     4   9  19  34  56  83 109 139 180 225 269 322
#     4  10  20  33  51  79 108 134 166 215 269 313
#     4  10  20  36  59  85 112 145 184 229 279 329
#
# _framework density 23.182009999999998
#
# number of rings (size 3 to 8) (size 9 to 14) (size 15 to 20)
#    0.000    2.250    1.250    1.500    1.750    2.250 
#    0.000    1.250    0.000    1.500    0.000    0.000 
#    0.000    0.000    0.000    0.000    0.000    0.000 
#
# Total GULP energy -178275.455363 kJ/mol
# GULP energy per Si atom -5571.107980 kJ/mol
# Density = 2.312925 g / cm^3
# Si number density = 23.182010 Si / 1000 Ang^3
#
#
#
# Elastic Constant Matrix: (Units=GPa)
#
#
# Indices 1 2 3 4 5 6 
#
# 1 199.1890 15.6574 56.4880 0.0003 -20.1793 -0.0007
# 2 15.6574 50.4624 -1.1772 0.0023 -2.6546 -0.0022
# 3 56.4880 -1.1772 84.1161 0.0012 -9.3503 -0.0002
# 4 0.0003 0.0023 0.0012 21.3597 0.0002 8.2199
# 5 -20.1793 -2.6546 -9.3503 0.0002 33.6556 0.0003
# 6 -0.0007 -0.0022 -0.0002 8.2199 0.0003 -4.1109
#
#
#
# Elastic Compliance Matrix: (Units=1/GPa)
#
#
# Indices 1 2 3 4 5 6 
#
# 1 0.006636 -0.002017 -0.004189 0.000000 0.002656 0.000001
# 2 -0.002017 0.020530 0.001741 0.000001 0.000894 -0.000008
# 3 -0.004189 0.001741 0.014923 0.000000 0.001771 -0.000002
# 4 0.000000 0.000001 0.000000 0.026458 -0.000001 0.052904
# 5 0.002656 0.000894 0.001771 -0.000001 0.031868 0.000000
# 6 0.000001 -0.000008 -0.000002 0.052904 0.000000 -0.137472
#
#
# Mechanical properties :
#
#
# Convention : Reuss Voigt Hill
#
# Bulk Modulus (GPa) = 30.15798 52.85599 41.50699
# Shear Modulus (GPa) = -292.85002 27.70081 -132.57460
#
# Velocity S-wave (km/s) = -11.25170 3.46052 -7.57052
# Velocity P-wave (km/s) = 12.48052 6.23032 7.64678
#
# Compressibility (1/GPa) = 0.03315872
#
# Stress axis : x y z
#
# Youngs Moduli (GPa) = 150.69212 48.70867 67.01060
#
# Poissons Ratio (x) = 0.09825 0.28074
# Poissons Ratio (y) = 0.30395 -0.11668
# Poissons Ratio (z) = 0.63131 -0.08481
#
# Static dielectric constant tensor:
#      x y z
#    x 1.912720 0.000000 0.013560 
#    y 0.000000 1.900360 0.000000 
#    z 0.013560 0.000000 1.910180 
# 
# From -- ./inp_files/250796.got.cif
#   From: 2010.05.17/outbox.cif.g08.bks.cpg/sg12_126_cif.got.tgz:250796.got - 2010.06.03 13:09:07.
