data_PCOD9180080
_publ_section_title
;
Structure prediction by ZEFSAII (Michael W. Deem and Ramdas Pophale) SiO2 
 PCOD9180080
Probable space group: C 2/M
;
_chemical_formula_sum "Si O2"
_cell_formula_units_Z 48
_cell_length_a 22.535857
_cell_length_b 12.699847
_cell_length_c 16.792156
_cell_angle_alpha 90.000000
_cell_angle_beta 30.481760
_cell_angle_gamma 90.000000
_cell_volume 2437.884369
_symmetry_space_group_name_H-M "C 2/M"
_symmetry_group_IT_number 12
_symmetry_cell_setting 'monoclinic'
loop_
_space_group_symop_operation_xyz
x,y,z
-x,y,-z
-x,-y,-z
x,-y,z
1/2+x,1/2+y,z
1/2-x,1/2+y,-z
1/2-x,1/2-y,-z
1/2+x,1/2-y,z
loop_
_atom_site_type_symbol
_atom_site_label
_atom_site_fract_x
_atom_site_fract_y
_atom_site_fract_z
Si Si1 0.943609 0.216374 0.261490
Si Si2 0.339386 0.618900 0.689333
Si Si3 0.435060 0.117169 0.991397
Si Si4 0.125450 0.212234 0.179134
Si Si5 0.556527 0.174785 0.512858
Si Si6 0.781337 0.617067 0.542332
O O1 0.856930 0.293630 0.410725
O O2 0.855035 0.142916 0.314429
O O3 0.017921 0.291682 0.118738
O O4 0.037589 0.165864 0.213797
O O5 0.374502 0.500000 0.627283
O O6 0.356176 0.640011 0.764339
O O7 0.400935 0.708998 0.565868
O O8 0.201689 0.629074 0.834618
O O9 0.453898 0.000000 0.934219
O O10 0.500000 0.121398 0.000000
O O11 0.049907 0.310003 0.301973
O O12 0.250000 0.250000 0.000000
O O13 0.500000 0.123907 0.500000
O O14 0.667304 0.123095 0.427549
O O15 0.804527 0.500000 0.483820
#
# Coordination Sequence:
#
# PCOD9180080 Si02
#       6
#     8   8   8   8   8   8
#     4  10  20  36  57  81 114 151 189 243 291 339
#     4  10  20  35  58  88 119 151 190 237 289 344
#     4  10  19  31  53  83 112 147 187 232 287 342
#     4  10  19  35  55  82 117 156 187 230 286 347
#     4   9  20  36  57  84 116 154 192 237 293 337
#     4  10  21  37  58  82 110 150 197 240 291 348
#
# _framework density 19.689202000000002
#
# number of rings (size 3 to 8) (size 9 to 14) (size 15 to 20)
#    0.000    2.167    1.667    1.500    0.000    4.000 
#    0.000    8.333    0.000    5.500    0.000    0.000 
#    0.000    0.000    0.000    0.000    0.000    0.000 
#
# Total GULP energy -133738.826810 kJ/mol
# GULP energy per Si atom -5572.451117 kJ/mol
# Density = 1.964439 g / cm^3
# Si number density = 19.689202 Si / 1000 Ang^3
#
#
#
# Elastic Constant Matrix: (Units=GPa)
#
#
# Indices 1 2 3 4 5 6 
#
# 1 119.4243 17.7695 50.6233 0.0000 -42.0886 0.0000
# 2 17.7695 62.3908 16.4914 0.0000 -7.5679 0.0000
# 3 50.6233 16.4914 109.1620 0.0000 -25.6970 0.0000
# 4 0.0000 0.0000 0.0000 15.7827 0.0000 5.4300
# 5 -42.0886 -7.5679 -25.6970 0.0000 42.6376 0.0000
# 6 0.0000 0.0000 0.0000 5.4300 0.0000 -3.6979
#
#
#
# Elastic Compliance Matrix: (Units=1/GPa)
#
#
# Indices 1 2 3 4 5 6 
#
# 1 0.014240 -0.001694 -0.003624 0.000000 0.011572 0.000000
# 2 -0.001694 0.017000 -0.001708 0.000000 0.000315 0.000000
# 3 -0.003624 -0.001708 0.011870 0.000000 0.003274 0.000000
# 4 0.000000 0.000000 0.000000 0.042095 0.000000 0.061811
# 5 0.011572 0.000315 0.003274 0.000000 0.036905 0.000000
# 6 0.000000 0.000000 0.000000 0.061811 0.000000 -0.179659
#
#
# Mechanical properties :
#
#
# Convention : Reuss Voigt Hill
#
# Bulk Modulus (GPa) = 34.41432 51.19395 42.80413
# Shear Modulus (GPa) = -147.88324 24.68399 -61.59962
#
# Velocity S-wave (km/s) = -8.67594 3.54458 -5.59946
# Velocity P-wave (km/s) = 9.10196 6.54290 4.47416
#
# Compressibility (1/GPa) = 0.02905767
#
# Stress axis : x y z
#
# Youngs Moduli (GPa) = 70.22506 58.82226 84.24707
#
# Poissons Ratio (x) = 0.09966 0.30529
# Poissons Ratio (y) = 0.11897 0.14392
# Poissons Ratio (z) = 0.25447 0.10049
#
# Static dielectric constant tensor:
#      x y z
#    x 1.746940 0.000000 -0.019490 
#    y 0.000000 1.698770 0.000000 
#    z -0.019490 0.000000 1.677140 
# 
# From -- ./inp_files/283989.got.cif
#   From: 2010.05.17/outbox.cif.g08.bks.cpg/sg12_142_cif.got.tgz:283989.got - 2010.06.03 13:09:07.
