data_PCOD9180924
_publ_section_title
;
Structure prediction by ZEFSAII (Michael W. Deem and Ramdas Pophale) SiO2 
 PCOD9180924
Probable space group: C 2/M
;
_chemical_formula_sum "Si O2"
_cell_formula_units_Z 64
_cell_length_a 30.989684
_cell_length_b 9.339621
_cell_length_c 24.577524
_cell_angle_alpha 90.000000
_cell_angle_beta 151.351863
_cell_angle_gamma 90.000000
_cell_volume 3410.429882
_symmetry_space_group_name_H-M "C 2/M"
_symmetry_group_IT_number 12
_symmetry_cell_setting 'monoclinic'
loop_
_space_group_symop_operation_xyz
x,y,z
-x,y,-z
-x,-y,-z
x,-y,z
1/2+x,1/2+y,z
1/2-x,1/2+y,-z
1/2-x,1/2-y,-z
1/2+x,1/2-y,z
loop_
_atom_site_type_symbol
_atom_site_label
_atom_site_fract_x
_atom_site_fract_y
_atom_site_fract_z
Si Si1 0.889703 0.170837 0.101404
Si Si2 0.257257 0.826204 0.745594
Si Si3 0.918364 0.173246 0.255391
Si Si4 0.123511 0.826917 0.504475
Si Si5 0.570216 0.841998 0.126054
Si Si6 0.253867 0.834304 0.447900
Si Si7 0.457314 0.340472 0.807707
Si Si8 0.744281 0.173451 0.130300
O O1 0.887189 0.223038 0.160854
O O2 0.991497 0.190206 0.191571
O O3 0.869391 0.000000 0.078140
O O4 0.825933 0.252428 0.988414
O O5 0.166801 0.794542 0.611549
O O6 0.340522 0.772060 0.800865
O O7 0.262728 0.779702 0.814372
O O8 0.265655 0.000000 0.756833
O O9 0.843334 0.209292 0.216763
O O10 0.019570 0.217501 0.382623
O O11 0.921241 0.000000 0.255195
O O12 0.183682 0.748128 0.525835
O O13 0.129571 0.000000 0.503429
O O14 0.519847 0.766164 0.119235
O O15 0.597183 0.000000 0.175569
O O16 0.500000 0.852994 0.000000
O O17 0.250000 0.750000 0.500000
O O18 0.149885 0.835370 0.314560
O O19 0.282599 0.000000 0.486258
O O20 0.485431 0.500000 0.854818
O O21 0.732794 0.000000 0.115288
#
# Coordination Sequence:
#
# PCOD9180924 Si02
#       8
#     8   8   8   8   8   8   8   8
#     4  10  20  36  54  78 110 143 180 227 282 332
#     4   9  18  32  53  81 112 143 180 227 275 326
#     4   9  19  35  58  82 108 143 184 233 283 330
#     4  10  19  36  58  80 111 149 183 227 280 329
#     4  10  19  32  51  77 110 143 176 221 272 318
#     4  11  22  36  55  81 111 146 184 227 271 325
#     4  10  21  35  52  76 107 142 181 217 263 327
#     4  10  20  36  57  83 109 141 186 231 279 334
#
# _framework density 18.765961999999998
#
# number of rings (size 3 to 8) (size 9 to 14) (size 15 to 20)
#    0.000    2.125    1.250    2.250    0.000    4.750 
#    0.000    6.250    0.000    0.000    0.000    1.750 
#    0.000    0.000    0.000    0.000    0.000    0.000 
#
# Total GULP energy -178380.915850 kJ/mol
# GULP energy per Si atom -5574.403620 kJ/mol
# Density = 1.872325 g / cm^3
# Si number density = 18.765962 Si / 1000 Ang^3
#
#
#
# Elastic Constant Matrix: (Units=GPa)
#
#
# Indices 1 2 3 4 5 6 
#
# 1 85.9900 15.9778 17.0150 0.0000 -5.0687 0.0000
# 2 15.9778 27.4914 9.0339 0.0000 -3.5573 0.0000
# 3 17.0150 9.0339 76.1647 0.0000 0.1448 0.0000
# 4 0.0000 0.0000 0.0000 19.9259 0.0000 -0.5404
# 5 -5.0687 -3.5573 0.1448 0.0000 34.1549 0.0000
# 6 0.0000 0.0000 0.0000 -0.5404 0.0000 17.1705
#
#
#
# Elastic Compliance Matrix: (Units=1/GPa)
#
#
# Indices 1 2 3 4 5 6 
#
# 1 0.013422 -0.006918 -0.002180 0.000000 0.001280 0.000000
# 2 -0.006918 0.041960 -0.003438 0.000000 0.003358 0.000000
# 3 -0.002180 -0.003438 0.014026 0.000000 -0.000741 0.000000
# 4 0.000000 0.000000 0.000000 0.050229 0.000000 0.001581
# 5 0.001280 0.003358 -0.000741 0.000000 0.029821 0.000000
# 6 0.000000 0.000000 0.000000 0.001581 0.000000 0.058289
#
#
# Mechanical properties :
#
#
# Convention : Reuss Voigt Hill
#
# Bulk Modulus (GPa) = 22.55565 30.41105 26.48335
# Shear Modulus (GPa) = 20.19406 24.09156 22.14281
#
# Velocity S-wave (km/s) = 3.28396 3.58689 3.43876
# Velocity P-wave (km/s) = 5.14050 5.77884 5.46899
#
# Compressibility (1/GPa) = 0.04433480
#
# Stress axis : x y z
#
# Youngs Moduli (GPa) = 74.50650 23.83212 71.29795
#
# Poissons Ratio (x) = 0.16488 0.15544
# Poissons Ratio (y) = 0.51547 0.24510
# Poissons Ratio (z) = 0.16244 0.08193
#
# Static dielectric constant tensor:
#      x y z
#    x 1.670330 0.000000 -0.014230 
#    y 0.000000 1.658530 0.000000 
#    z -0.014230 0.000000 1.692670 
# 
# From -- ./inp_files/249720.got.cif
#   From: 2010.05.17/outbox.cif.g08.bks.cpg/sg12_125_cif.got.tgz:249720.got - 2010.06.03 13:09:07.
