data_PCOD9180879
_publ_section_title
;
Structure prediction by ZEFSAII (Michael W. Deem and Ramdas Pophale) SiO2 
 PCOD9180879
Probable space group: C 2/M
;
_chemical_formula_sum "Si O2"
_cell_formula_units_Z 64
_cell_length_a 15.956299
_cell_length_b 7.554760
_cell_length_c 29.321191
_cell_angle_alpha 90.000000
_cell_angle_beta 57.562115
_cell_angle_gamma 90.000000
_cell_volume 2983.068498
_symmetry_space_group_name_H-M "C 2/M"
_symmetry_group_IT_number 12
_symmetry_cell_setting 'monoclinic'
loop_
_space_group_symop_operation_xyz
x,y,z
-x,y,-z
-x,-y,-z
x,-y,z
1/2+x,1/2+y,z
1/2-x,1/2+y,-z
1/2-x,1/2-y,-z
1/2+x,1/2-y,z
loop_
_atom_site_type_symbol
_atom_site_label
_atom_site_fract_x
_atom_site_fract_y
_atom_site_fract_z
Si Si1 0.338826 0.289747 0.938826
Si Si2 0.888720 0.282340 0.742480
Si Si3 0.338819 0.788384 0.439456
Si Si4 0.884061 0.712514 0.327114
Si Si5 0.528151 0.783576 0.441360
Si Si6 0.800805 0.710441 0.672247
Si Si7 0.971205 0.783208 0.059994
Si Si8 0.253905 0.208447 0.864636
O O1 0.348083 0.500000 0.932561
O O2 0.442958 0.223626 0.929933
O O3 0.305508 0.225043 0.898879
O O4 0.250000 0.250000 0.000000
O O5 0.889726 0.500000 0.742523
O O6 0.839137 0.223343 0.709556
O O7 0.824616 0.220475 0.804226
O O8 0.003211 0.224652 0.710476
O O9 0.250000 0.750000 0.500000
O O10 0.335267 0.719833 0.388782
O O11 0.441136 0.728891 0.432520
O O12 0.343686 0.000000 0.435112
O O13 0.888186 0.500000 0.328720
O O14 0.812953 0.757057 0.306143
O O15 0.500000 0.721729 0.500000
O O16 0.631138 0.721724 0.389383
O O17 0.529689 0.000000 0.442840
O O18 0.816400 0.500000 0.668871
O O19 0.858939 0.720915 0.102245
O O20 0.971281 0.000000 0.060675
O O21 0.000000 0.731749 0.000000
O O22 0.243133 0.000000 0.858551
#
# Coordination Sequence:
#
# PCOD9180879 Si02
#       8
#     8   8   8   8   8   8   8   8
#     4  11  21  35  57  85 117 149 184 227 275 324
#     4   9  19  37  59  79 106 147 189 222 266 335
#     4  10  19  32  51  76 108 140 176 224 277 332
#     4  10  20  36  55  79 111 144 175 225 288 329
#     4   9  16  28  49  75 102 133 175 223 266 318
#     4  10  19  35  58  81 103 140 191 227 261 327
#     4   9  17  32  54  79 109 144 178 216 266 318
#     4  10  20  37  59  81 108 147 189 226 270 327
#
# _framework density 21.454418
#
# number of rings (size 3 to 8) (size 9 to 14) (size 15 to 20)
#    0.000    2.250    2.500    1.125    0.000    2.500 
#    0.000    5.625    0.000    2.250    0.000    0.000 
#    0.000    0.000    0.000    0.000    0.000    0.000 
#
# Total GULP energy -178696.909155 kJ/mol
# GULP energy per Si atom -5584.278411 kJ/mol
# Density = 2.140559 g / cm^3
# Si number density = 21.454418 Si / 1000 Ang^3
#
#
#
# Elastic Constant Matrix: (Units=GPa)
#
#
# Indices 1 2 3 4 5 6 
#
# 1 200.5744 -7.7924 98.3540 0.0000 -9.7274 -0.0002
# 2 -7.7924 44.7008 0.6757 -0.0004 -2.9285 -0.0005
# 3 98.3540 0.6757 176.8409 0.0000 -6.9084 0.0000
# 4 0.0000 -0.0004 0.0000 3.7436 0.0000 6.4940
# 5 -9.7274 -2.9285 -6.9084 0.0000 27.0520 0.0000
# 6 -0.0002 -0.0005 0.0000 6.4940 0.0000 15.1531
#
#
#
# Elastic Compliance Matrix: (Units=1/GPa)
#
#
# Indices 1 2 3 4 5 6 
#
# 1 0.007001 0.001389 -0.003833 0.000000 0.001689 0.000000
# 2 0.001389 0.022806 -0.000751 0.000004 0.002777 -0.000001
# 3 -0.003833 -0.000751 0.007810 0.000000 0.000535 0.000000
# 4 0.000000 0.000004 0.000000 1.041101 -0.000002 -0.446173
# 5 0.001689 0.002777 0.000535 -0.000002 0.038010 0.000001
# 6 0.000000 -0.000001 0.000000 -0.446173 0.000001 0.257204
#
#
# Mechanical properties :
#
#
# Convention : Reuss Voigt Hill
#
# Bulk Modulus (GPa) = 32.02326 67.17675 49.60001
# Shear Modulus (GPa) = 3.59523 31.24833 17.42178
#
# Velocity S-wave (km/s) = 1.29591 3.82055 2.85272
# Velocity P-wave (km/s) = 4.14702 7.13032 5.83264
#
# Compressibility (1/GPa) = 0.03122730
#
# Stress axis : x y z
#
# Youngs Moduli (GPa) = 142.83228 43.84744 128.03290
#
# Poissons Ratio (x) = -0.06091 0.49078
# Poissons Ratio (y) = -0.19840 0.09618
# Poissons Ratio (z) = 0.54751 0.03294
#
# Static dielectric constant tensor:
#      x y z
#    x 1.756220 0.000000 -0.015020 
#    y 0.000000 1.828710 0.000000 
#    z -0.015020 0.000000 1.751770 
# 
# From -- ./inp_files/374999.got.cif
#   From: 2010.05.17/outbox.cif.g08.bks.cpg/sg12_188_cif.got.tgz:374999.got - 2010.06.03 13:09:07.
