data_PCOD9180284
_publ_section_title
;
Structure prediction by ZEFSAII (Michael W. Deem and Ramdas Pophale) SiO2 
 PCOD9180284
Probable space group: C 2/M
;
_chemical_formula_sum "Si O2"
_cell_formula_units_Z 32
_cell_length_a 5.202969
_cell_length_b 29.320919
_cell_length_c 11.857231
_cell_angle_alpha 90.000000
_cell_angle_beta 75.598737
_cell_angle_gamma 90.000000
_cell_volume 1752.050233
_symmetry_space_group_name_H-M "C 2/M"
_symmetry_group_IT_number 12
_symmetry_cell_setting 'monoclinic'
loop_
_space_group_symop_operation_xyz
x,y,z
-x,y,-z
-x,-y,-z
x,-y,z
1/2+x,1/2+y,z
1/2-x,1/2+y,-z
1/2-x,1/2-y,-z
1/2+x,1/2-y,z
loop_
_atom_site_type_symbol
_atom_site_label
_atom_site_fract_x
_atom_site_fract_y
_atom_site_fract_z
Si Si1 0.146159 0.269518 0.632418
Si Si2 0.291260 0.500000 0.424737
Si Si3 0.204967 0.000000 0.080022
Si Si4 0.956001 0.080374 0.733568
Si Si5 0.514961 0.875000 0.363649
O O1 0.250000 0.250000 0.500000
O O2 0.388250 0.259892 0.688546
O O3 0.070653 0.322046 0.632424
O O4 0.500000 0.500000 0.500000
O O5 0.353299 0.544296 0.348107
O O6 0.000000 0.500000 0.500000
O O7 0.158399 0.047300 0.155464
O O8 0.500000 0.000000 0.000000
O O9 0.000000 0.000000 0.000000
O O10 0.710130 0.097423 0.683067
O O11 0.186030 0.119129 0.720919
O O12 0.500000 0.886556 0.500000
#
# Coordination Sequence:
#
# PCOD9180284 Si02
#       5
#     8   4   4   8   8
#     4  10  19  32  47  73 114 170 201 204 254 318
#     4  11  20  35  46  70 116 148 174 206 261 340
#     4  11  24  47  67  76 109 146 188 266 312 336
#     4  11  24  35  55  87 104 146 205 226 284 347
#     4  12  21  33  54  83 128 159 183 232 258 327
#
# _framework density 18.264316000000001
#
# number of rings (size 3 to 8) (size 9 to 14) (size 15 to 20)
#    0.000    1.000    2.500    7.500    3.500    4.000 
#    0.000    1.875    0.000    0.000    0.000    0.000 
#    0.000   70.000    0.000    0.000    0.000    0.000 
#
# Total GULP energy -89083.326527 kJ/mol
# GULP energy per Si atom -5567.707908 kJ/mol
# Density = 1.822275 g / cm^3
# Si number density = 18.264316 Si / 1000 Ang^3
#
#
#
# Elastic Constant Matrix: (Units=GPa)
#
#
# Indices 1 2 3 4 5 6 
#
# 1 195.1066 50.2414 61.5134 0.0000 -15.0146 0.0000
# 2 50.2414 117.1440 47.3357 0.0000 -0.7176 0.0000
# 3 61.5134 47.3357 80.2140 0.0000 -12.8105 0.0000
# 4 0.0000 0.0000 0.0000 19.0561 0.0000 -4.7248
# 5 -15.0146 -0.7176 -12.8105 0.0000 30.4309 0.0000
# 6 0.0000 0.0000 0.0000 -4.7248 0.0000 33.3747
#
#
#
# Elastic Compliance Matrix: (Units=1/GPa)
#
#
# Indices 1 2 3 4 5 6 
#
# 1 0.006928 -0.001202 -0.004355 0.000000 0.001557 0.000000
# 2 -0.001202 0.011629 -0.006424 0.000000 -0.003023 0.000000
# 3 -0.004355 -0.006424 0.020615 0.000000 0.006378 0.000000
# 4 0.000000 0.000000 0.000000 0.054386 0.000000 0.007699
# 5 0.001557 -0.003023 0.006378 0.000000 0.036243 0.000000
# 6 0.000000 0.000000 0.000000 0.007699 0.000000 0.031053
#
#
# Mechanical properties :
#
#
# Convention : Reuss Voigt Hill
#
# Bulk Modulus (GPa) = 65.73872 78.96065 72.34968
# Shear Modulus (GPa) = 26.33172 32.13062 29.23117
#
# Velocity S-wave (km/s) = 3.80110 4.19883 4.00491
# Velocity P-wave (km/s) = 7.43879 8.17514 7.81564
#
# Compressibility (1/GPa) = 0.01521174
#
# Stress axis : x y z
#
# Youngs Moduli (GPa) = 144.34890 85.99084 48.50734
#
# Poissons Ratio (x) = 0.10336 0.21123
# Poissons Ratio (y) = 0.17351 0.31159
# Poissons Ratio (z) = 0.62859 0.55237
#
# Static dielectric constant tensor:
#      x y z
#    x 1.698670 0.000000 -0.010890 
#    y 0.000000 1.889400 0.000000 
#    z -0.010890 0.000000 1.588820 
# 
# From -- ./inp_files/115192.got.cif
#   From: 2010.05.17/outbox.cif.g08.bks.cpg/sg12_58_cif.got.tgz:115192.got - 2010.06.03 13:09:07.
