data_PCOD9180439
_publ_section_title
;
Structure prediction by ZEFSAII (Michael W. Deem and Ramdas Pophale) SiO2 
 PCOD9180439
Probable space group: C 2/M
;
_chemical_formula_sum "Si O2"
_cell_formula_units_Z 56
_cell_length_a 20.009809
_cell_length_b 8.364077
_cell_length_c 32.959217
_cell_angle_alpha 90.000000
_cell_angle_beta 145.850440
_cell_angle_gamma 90.000000
_cell_volume 3096.531349
_symmetry_space_group_name_H-M "C 2/M"
_symmetry_group_IT_number 12
_symmetry_cell_setting 'monoclinic'
loop_
_space_group_symop_operation_xyz
x,y,z
-x,y,-z
-x,-y,-z
x,-y,z
1/2+x,1/2+y,z
1/2-x,1/2+y,-z
1/2-x,1/2-y,-z
1/2+x,1/2-y,z
loop_
_atom_site_type_symbol
_atom_site_label
_atom_site_fract_x
_atom_site_fract_y
_atom_site_fract_z
Si Si1 0.618859 0.193579 0.700046
Si Si2 0.835911 0.305245 0.187299
Si Si3 0.064656 0.193930 0.899501
Si Si4 0.108463 0.690980 0.311027
Si Si5 0.353749 0.689672 0.581324
Si Si6 0.185118 0.193001 0.263518
Si Si7 0.279388 0.307323 0.950197
O O1 0.676085 0.244988 0.772013
O O2 0.483106 0.250290 0.631612
O O3 0.699278 0.248652 0.703044
O O4 0.617151 0.000000 0.699203
O O5 0.833257 0.500000 0.185927
O O6 0.741824 0.249220 0.106344
O O7 0.969315 0.256324 0.240552
O O8 0.163004 0.258232 0.917524
O O9 0.934298 0.246376 0.820162
O O10 0.067671 0.000000 0.899732
O O11 0.108407 0.245737 0.966297
O O12 0.108304 0.500000 0.310828
O O13 0.161217 0.749182 0.380112
O O14 0.174483 0.752009 0.304380
O O15 0.354007 0.500000 0.581868
O O16 0.250000 0.750000 0.500000
O O17 0.185528 0.000000 0.263324
O O18 0.284125 0.500000 0.951127
#
# Coordination Sequence:
#
# PCOD9180439 Si02
#       7
#     8   8   8   8   8   8   8
#     4   9  19  35  53  75 108 144 175 213 263 312
#     4   8  14  27  47  69  94 132 179 220 258 305
#     4   9  17  26  41  68 101 134 175 225 270 306
#     4  10  19  33  55  80 106 138 177 216 257 308
#     4  11  22  39  62  86 109 133 167 207 252 308
#     4  10  19  32  49  75 110 144 178 220 266 309
#     4   9  15  26  43  66  95 133 181 227 267 308
#
# _framework density 18.084752000000002
#
# number of rings (size 3 to 8) (size 9 to 14) (size 15 to 20)
#    0.000    2.571    1.429    2.571    0.000    0.571 
#    0.000    1.429    0.000    8.571    0.000    0.000 
#    0.000    8.286    0.000    0.000    0.000    0.000 
#
# Total GULP energy -156081.142169 kJ/mol
# GULP energy per Si atom -5574.326506 kJ/mol
# Density = 1.804359 g / cm^3
# Si number density = 18.084752 Si / 1000 Ang^3
#
#
#
# Elastic Constant Matrix: (Units=GPa)
#
#
# Indices 1 2 3 4 5 6 
#
# 1 141.5107 23.9616 72.6304 0.0000 -16.0125 0.0001
# 2 23.9616 19.1936 18.6479 -0.0001 -1.9770 0.0001
# 3 72.6304 18.6479 142.3034 0.0000 -22.4566 0.0000
# 4 0.0000 -0.0001 0.0000 16.2741 0.0000 -1.1986
# 5 -16.0125 -1.9770 -22.4566 0.0000 19.4165 0.0000
# 6 0.0001 0.0001 0.0000 -1.1986 0.0000 21.4309
#
#
#
# Elastic Compliance Matrix: (Units=1/GPa)
#
#
# Indices 1 2 3 4 5 6 
#
# 1 0.011092 -0.009783 -0.003784 0.000000 0.003776 0.000000
# 2 -0.009783 0.068540 -0.005089 0.000000 -0.006975 0.000000
# 3 -0.003784 -0.005089 0.011072 0.000000 0.009167 0.000000
# 4 0.000000 0.000000 0.000000 0.061701 0.000000 0.003451
# 5 0.003776 -0.006975 0.009167 0.000000 0.064508 0.000000
# 6 0.000000 0.000000 0.000000 0.003451 0.000000 0.046855
#
#
# Mechanical properties :
#
#
# Convention : Reuss Voigt Hill
#
# Bulk Modulus (GPa) = 18.72919 59.27640 39.00280
# Shear Modulus (GPa) = 15.67998 23.94216 19.81107
#
# Velocity S-wave (km/s) = 2.94773 3.64247 3.31336
# Velocity P-wave (km/s) = 4.68661 7.10903 6.02091
#
# Compressibility (1/GPa) = 0.05339258
#
# Stress axis : x y z
#
# Youngs Moduli (GPa) = 90.15289 14.58997 90.31851
#
# Poissons Ratio (x) = 0.14273 0.34173
# Poissons Ratio (y) = 0.88195 0.45967
# Poissons Ratio (z) = 0.34110 0.07425
#
# Static dielectric constant tensor:
#      x y z
#    x 1.602220 0.000000 -0.007080 
#    y 0.000000 1.646750 0.000000 
#    z -0.007080 0.000000 1.611160 
# 
# From -- ./inp_files/377734.got.cif
#   From: 2010.05.17/outbox.cif.g08.bks.cpg/sg12_189_cif.got.tgz:377734.got - 2010.06.03 13:09:07.
