data_PCOD9180642
_publ_section_title
;
Structure prediction by ZEFSAII (Michael W. Deem and Ramdas Pophale) SiO2 
 PCOD9180642
Probable space group: C 2/M
;
_chemical_formula_sum "Si O2"
_cell_formula_units_Z 48
_cell_length_a 14.361284
_cell_length_b 25.172280
_cell_length_c 11.595022
_cell_angle_alpha 90.000000
_cell_angle_beta 140.853262
_cell_angle_gamma 90.000000
_cell_volume 2646.239434
_symmetry_space_group_name_H-M "C 2/M"
_symmetry_group_IT_number 12
_symmetry_cell_setting 'monoclinic'
loop_
_space_group_symop_operation_xyz
x,y,z
-x,y,-z
-x,-y,-z
x,-y,z
1/2+x,1/2+y,z
1/2-x,1/2+y,-z
1/2-x,1/2-y,-z
1/2+x,1/2-y,z
loop_
_atom_site_type_symbol
_atom_site_label
_atom_site_fract_x
_atom_site_fract_y
_atom_site_fract_z
Si Si1 0.994708 0.263854 0.762935
Si Si2 0.585303 0.938850 0.205683
Si Si3 0.296882 0.741539 0.361142
Si Si4 0.361111 0.673985 0.948179
Si Si5 0.663946 0.875089 0.927972
Si Si6 0.833767 0.122604 0.324552
O O1 0.849488 0.269468 0.702759
O O2 0.930906 0.257415 0.573409
O O3 0.096156 0.315512 0.875238
O O4 0.075929 0.211279 0.887982
O O5 0.476312 0.913739 0.195653
O O6 0.728998 0.903392 0.320614
O O7 0.620441 0.000000 0.263708
O O8 0.500000 0.936837 0.000000
O O9 0.247709 0.788237 0.229172
O O10 0.329332 0.686118 0.331841
O O11 0.265878 0.627242 0.913072
O O12 0.500000 0.659518 0.000000
O O13 0.766942 0.889348 0.135288
O O14 0.000000 0.103824 0.500000
#
# Coordination Sequence:
#
# PCOD9180642 Si02
#       6
#     8   8   8   8   8   8
#     4  10  19  32  50  77 113 152 184 217 268 332
#     4   9  20  38  59  81 106 140 187 237 286 332
#     4  10  20  31  48  78 118 149 181 218 265 331
#     4  10  21  33  48  75 116 155 182 220 269 322
#     4  11  20  35  56  77 110 150 186 226 273 331
#     4  11  21  32  54  82 114 146 178 222 281 332
#
# _framework density 18.138949
#
# number of rings (size 3 to 8) (size 9 to 14) (size 15 to 20)
#    0.000    1.833    3.333    1.500    2.333    0.333 
#    0.000    0.000    0.000    0.500    0.000    2.333 
#    0.000    0.000    0.000    0.000    0.000    0.000 
#
# Total GULP energy -133976.205454 kJ/mol
# GULP energy per Si atom -5582.341894 kJ/mol
# Density = 1.809766 g / cm^3
# Si number density = 18.138949 Si / 1000 Ang^3
#
#
#
# Elastic Constant Matrix: (Units=GPa)
#
#
# Indices 1 2 3 4 5 6 
#
# 1 118.6203 48.2884 39.8794 0.0000 19.3984 0.0000
# 2 48.2884 48.2913 5.5793 0.0000 7.5682 0.0000
# 3 39.8794 5.5793 93.5609 0.0000 8.2456 0.0000
# 4 0.0000 0.0000 0.0000 6.9392 0.0000 -0.9066
# 5 19.3984 7.5682 8.2456 0.0000 25.3939 0.0000
# 6 0.0000 0.0000 0.0000 -0.9066 0.0000 13.9799
#
#
#
# Elastic Compliance Matrix: (Units=1/GPa)
#
#
# Indices 1 2 3 4 5 6 
#
# 1 0.018464 -0.016625 -0.006251 0.000000 -0.007120 0.000000
# 2 -0.016625 0.036742 0.004881 0.000000 0.000165 0.000000
# 3 -0.006251 0.004881 0.013145 0.000000 -0.000948 0.000000
# 4 0.000000 0.000000 0.000000 0.145341 0.000000 0.009425
# 5 -0.007120 0.000165 -0.000948 0.000000 0.045077 0.000000
# 6 0.000000 0.000000 0.000000 0.009425 0.000000 0.072142
#
#
# Mechanical properties :
#
#
# Convention : Reuss Voigt Hill
#
# Bulk Modulus (GPa) = 30.90214 49.77408 40.33811
# Shear Modulus (GPa) = 13.23842 20.37763 16.80803
#
# Velocity S-wave (km/s) = 2.70447 3.35538 3.04736
# Velocity P-wave (km/s) = 5.17934 6.52008 5.88800
#
# Compressibility (1/GPa) = 0.03236022
#
# Stress axis : x y z
#
# Youngs Moduli (GPa) = 54.15970 27.21699 76.07346
#
# Poissons Ratio (x) = 0.45248 0.47555
# Poissons Ratio (y) = 0.90039 -0.37128
# Poissons Ratio (z) = 0.33856 -0.13284
#
# Static dielectric constant tensor:
#      x y z
#    x 1.679950 0.000000 0.008730 
#    y 0.000000 1.577370 0.000000 
#    z 0.008730 0.000000 1.628330 
# 
# From -- ./inp_files/78653.got.cif
#   From: 2010.05.17/outbox.cif.g08.bks.cpg/sg12_40_cif.got.tgz:78653.got - 2010.06.03 13:09:07.
