data_PCOD9180700
_publ_section_title
;
Structure prediction by ZEFSAII (Michael W. Deem and Ramdas Pophale) SiO2 
 PCOD9180700
Probable space group: C 2/M
;
_chemical_formula_sum "Si O2"
_cell_formula_units_Z 64
_cell_length_a 31.360906
_cell_length_b 7.444746
_cell_length_c 14.986769
_cell_angle_alpha 90.000000
_cell_angle_beta 120.368914
_cell_angle_gamma 90.000000
_cell_volume 3018.913307
_symmetry_space_group_name_H-M "C 2/M"
_symmetry_group_IT_number 12
_symmetry_cell_setting 'monoclinic'
loop_
_space_group_symop_operation_xyz
x,y,z
-x,y,-z
-x,-y,-z
x,-y,z
1/2+x,1/2+y,z
1/2-x,1/2+y,-z
1/2-x,1/2-y,-z
1/2+x,1/2-y,z
loop_
_atom_site_type_symbol
_atom_site_label
_atom_site_fract_x
_atom_site_fract_y
_atom_site_fract_z
Si Si1 0.664564 0.708449 0.159684
Si Si2 0.700186 0.215376 0.891373
Si Si3 0.898508 0.717287 0.733306
Si Si4 0.636564 0.218947 0.498277
Si Si5 0.113626 0.293498 0.923768
Si Si6 0.504351 0.781293 0.786318
Si Si7 0.223662 0.280270 0.716368
Si Si8 0.969621 0.718426 0.552815
O O1 0.669872 0.500000 0.140895
O O2 0.630725 0.724095 0.210697
O O3 0.719762 0.777968 0.236386
O O4 0.639255 0.794534 0.047080
O O5 0.652598 0.286593 0.894590
O O6 0.706102 0.278453 0.796139
O O7 0.695384 0.000000 0.881871
O O8 0.750000 0.250000 0.000000
O O9 0.898617 0.500000 0.733397
O O10 0.872023 0.775385 0.613129
O O11 0.955696 0.778172 0.788849
O O12 0.685947 0.279500 0.599896
O O13 0.587583 0.273542 0.501310
O O14 0.637003 0.000000 0.497728
O O15 0.106311 0.500000 0.887151
O O16 0.058459 0.215974 0.871275
O O17 0.494755 0.732608 0.673068
O O18 0.503473 0.000000 0.791531
O O19 0.222943 0.500000 0.714269
O O20 0.969566 0.500000 0.549578
O O21 0.000000 0.783182 0.500000
#
# Coordination Sequence:
#
# PCOD9180700 Si02
#       8
#     8   8   8   8   8   8   8   8
#     4  11  22  35  51  71  99 132 171 213 250 288
#     4  10  19  32  51  73 102 136 165 200 243 291
#     4   9  18  35  55  73  99 130 163 206 252 297
#     4   8  15  28  47  71  99 130 160 194 244 298
#     4  10  20  33  52  76 101 132 169 202 243 299
#     4   8  16  30  47  72 102 129 159 201 250 293
#     4   9  18  31  47  71 102 133 161 197 246 293
#     4   8  13  21  39  69 102 128 153 192 241 294
#
# _framework density 21.199680000000001
#
# number of rings (size 3 to 8) (size 9 to 14) (size 15 to 20)
#    0.000    2.875    1.250    1.875    1.750    1.000 
#    0.000    3.125    0.000    1.500    0.000    0.000 
#    0.000    3.000    0.000    0.000    0.000    0.000 
#
# Total GULP energy -178590.829323 kJ/mol
# GULP energy per Si atom -5580.963416 kJ/mol
# Density = 2.115143 g / cm^3
# Si number density = 21.199680 Si / 1000 Ang^3
#
#
#
# Elastic Constant Matrix: (Units=GPa)
#
#
# Indices 1 2 3 4 5 6 
#
# 1 184.9464 -0.6223 81.6406 0.0000 10.9846 0.0000
# 2 -0.6223 63.3145 -1.9537 0.0000 3.6420 0.0000
# 3 81.6406 -1.9537 64.3680 0.0000 34.5534 0.0000
# 4 0.0000 0.0000 0.0000 1.7401 0.0000 7.8197
# 5 10.9846 3.6420 34.5534 0.0000 42.1676 0.0000
# 6 0.0000 0.0000 0.0000 7.8197 0.0000 -0.2304
#
#
#
# Elastic Compliance Matrix: (Units=1/GPa)
#
#
# Indices 1 2 3 4 5 6 
#
# 1 0.028895 -0.003884 -0.058747 0.000000 0.040948 0.000000
# 2 -0.003884 0.016567 0.010095 0.000000 -0.008691 0.000000
# 3 -0.058747 0.010095 0.147479 0.000000 -0.106417 0.000000
# 4 0.000000 0.000000 0.000000 0.003743 0.000000 0.127049
# 5 0.040948 -0.008691 -0.106417 0.000000 0.101000 0.000000
# 6 0.000000 0.000000 0.000000 0.127049 0.000000 -0.028273
#
#
# Mechanical properties :
#
#
# Convention : Reuss Voigt Hill
#
# Bulk Modulus (GPa) = 11.38071 52.30647 31.84359
# Shear Modulus (GPa) = 12.38317 24.30641 18.34479
#
# Velocity S-wave (km/s) = 2.41948 3.38974 2.94485
# Velocity P-wave (km/s) = 3.63114 6.32829 5.15909
#
# Compressibility (1/GPa) = 0.08786800
#
# Stress axis : x y z
#
# Youngs Moduli (GPa) = 34.60866 60.35943 6.78063
#
# Poissons Ratio (x) = 0.23445 0.39834
# Poissons Ratio (y) = 0.13443 -0.06845
# Poissons Ratio (z) = 2.03316 -0.60931
#
# Static dielectric constant tensor:
#      x y z
#    x 1.753840 0.000000 0.018970 
#    y 0.000000 1.877140 0.000000 
#    z 0.018970 0.000000 1.714870 
# 
# From -- ./inp_files/249199.got.cif
#   From: 2010.05.17/outbox.cif.g08.bks.cpg/sg12_125_cif.got.tgz:249199.got - 2010.06.03 13:09:07.
