data_PCOD9180777
_publ_section_title
;
Structure prediction by ZEFSAII (Michael W. Deem and Ramdas Pophale) SiO2 
 PCOD9180777
Probable space group: C 2/M
;
_chemical_formula_sum "Si O2"
_cell_formula_units_Z 56
_cell_length_a 31.471503
_cell_length_b 14.044869
_cell_length_c 9.264927
_cell_angle_alpha 90.000000
_cell_angle_beta 130.124204
_cell_angle_gamma 90.000000
_cell_volume 3131.406394
_symmetry_space_group_name_H-M "C 2/M"
_symmetry_group_IT_number 12
_symmetry_cell_setting 'monoclinic'
loop_
_space_group_symop_operation_xyz
x,y,z
-x,y,-z
-x,-y,-z
x,-y,z
1/2+x,1/2+y,z
1/2-x,1/2+y,-z
1/2-x,1/2-y,-z
1/2+x,1/2-y,z
loop_
_atom_site_type_symbol
_atom_site_label
_atom_site_fract_x
_atom_site_fract_y
_atom_site_fract_z
Si Si1 0.334795 0.889775 0.858879
Si Si2 0.126569 0.110898 0.585504
Si Si3 0.179768 0.610273 0.517420
Si Si4 0.557324 0.390973 0.715196
Si Si5 0.945413 0.718241 0.073968
Si Si6 0.931159 0.719644 0.700659
Si Si7 0.759924 0.223495 0.187193
O O1 0.319816 0.880148 0.655755
O O2 0.293752 0.824705 0.860705
O O3 0.328527 0.000000 0.884771
O O4 0.398231 0.855902 0.016908
O O5 0.107247 0.119732 0.709572
O O6 0.086173 0.180616 0.408542
O O7 0.188257 0.150243 0.694353
O O8 0.121256 0.000000 0.534004
O O9 0.189515 0.500000 0.575156
O O10 0.118501 0.645031 0.432762
O O11 0.222328 0.682776 0.684570
O O12 0.500000 0.377047 0.500000
O O13 0.556842 0.500000 0.767642
O O14 0.561547 0.314235 0.849877
O O15 0.009381 0.686250 0.228507
O O16 0.936232 0.734547 0.883443
O O17 0.750000 0.250000 0.000000
#
# Coordination Sequence:
#
# PCOD9180777 Si02
#       7
#     8   8   8   8   8   8   8
#     4  10  21  38  58  81 109 144 181 222 269 321
#     4  10  20  35  53  76 106 141 178 219 269 319
#     4   9  20  38  59  81 108 141 181 224 271 323
#     4  10  19  32  51  74 105 143 178 214 263 317
#     4  10  19  34  54  79 110 140 179 220 265 318
#     4   9  19  33  54  81 107 139 176 223 270 314
#     4  11  22  37  58  81 109 143 180 226 272 323
#
# _framework density 17.883337000000001
#
# number of rings (size 3 to 8) (size 9 to 14) (size 15 to 20)
#    0.000    2.143    1.429    1.714    0.000    2.286 
#    0.000    5.000    0.000    0.429    0.000    0.000 
#    0.000    0.000    0.000    0.000    0.000    0.000 
#
# Total GULP energy -156229.736058 kJ/mol
# GULP energy per Si atom -5579.633431 kJ/mol
# Density = 1.784263 g / cm^3
# Si number density = 17.883337 Si / 1000 Ang^3
#
#
#
# Elastic Constant Matrix: (Units=GPa)
#
#
# Indices 1 2 3 4 5 6 
#
# 1 116.7906 67.5933 33.0596 0.0000 20.0964 0.0000
# 2 67.5933 131.2649 47.1190 0.0000 4.4400 0.0000
# 3 33.0596 47.1190 51.6847 0.0000 15.8293 0.0000
# 4 0.0000 0.0000 0.0000 22.3999 0.0000 -3.1151
# 5 20.0964 4.4400 15.8293 0.0000 17.8160 0.0000
# 6 0.0000 0.0000 0.0000 -3.1151 0.0000 21.1453
#
#
#
# Elastic Compliance Matrix: (Units=1/GPa)
#
#
# Indices 1 2 3 4 5 6 
#
# 1 0.015948 -0.008930 0.003803 0.000000 -0.019143 0.000000
# 2 -0.008930 0.017405 -0.016366 0.000000 0.020276 0.000000
# 3 0.003803 -0.016366 0.043826 0.000000 -0.039150 0.000000
# 4 0.000000 0.000000 0.000000 0.045577 0.000000 0.006714
# 5 -0.019143 0.020276 -0.039150 0.000000 0.107454 0.000000
# 6 0.000000 0.000000 0.000000 0.006714 0.000000 0.048281
#
#
# Mechanical properties :
#
#
# Convention : Reuss Voigt Hill
#
# Bulk Modulus (GPa) = 29.24509 66.14264 47.69386
# Shear Modulus (GPa) = 15.02067 22.40346 18.71207
#
# Velocity S-wave (km/s) = 2.90129 3.54327 3.23823
# Velocity P-wave (km/s) = 5.25472 7.33523 6.38035
#
# Compressibility (1/GPa) = 0.03419378
#
# Stress axis : x y z
#
# Youngs Moduli (GPa) = 62.70393 57.45373 22.81739
#
# Poissons Ratio (x) = 0.51305 -0.08677
# Poissons Ratio (y) = 0.55993 0.37343
# Poissons Ratio (z) = -0.23845 0.94028
#
# Static dielectric constant tensor:
#      x y z
#    x 1.616870 0.000000 0.017810 
#    y 0.000000 1.575720 0.000000 
#    z 0.017810 0.000000 1.600960 
# 
# From -- ./inp_files/111588.got.cif
#   From: 2010.05.17/outbox.cif.g08.bks.cpg/sg12_56_cif.got.tgz:111588.got - 2010.06.03 13:09:07.
