data_PCOD9180264
_publ_section_title
;
Structure prediction by ZEFSAII (Michael W. Deem and Ramdas Pophale) SiO2 
 PCOD9180264
Probable space group: C 2/M
;
_chemical_formula_sum "Si O2"
_cell_formula_units_Z 64
_cell_length_a 25.219671
_cell_length_b 8.566334
_cell_length_c 16.527669
_cell_angle_alpha 90.000000
_cell_angle_beta 98.109080
_cell_angle_gamma 90.000000
_cell_volume 3534.937981
_symmetry_space_group_name_H-M "C 2/M"
_symmetry_group_IT_number 12
_symmetry_cell_setting 'monoclinic'
loop_
_space_group_symop_operation_xyz
x,y,z
-x,y,-z
-x,-y,-z
x,-y,z
1/2+x,1/2+y,z
1/2-x,1/2+y,-z
1/2-x,1/2-y,-z
1/2+x,1/2-y,z
loop_
_atom_site_type_symbol
_atom_site_label
_atom_site_fract_x
_atom_site_fract_y
_atom_site_fract_z
Si Si1 0.707323 0.678381 0.430585
Si Si2 0.386869 0.686404 0.781424
Si Si3 0.898708 0.822225 0.484359
Si Si4 0.775876 0.682068 0.735257
Si Si5 0.551571 0.688170 0.765078
Si Si6 0.654054 0.309735 0.694864
Si Si7 0.453934 0.815066 0.644586
Si Si8 0.487574 0.690147 0.907310
O O1 0.720364 0.500000 0.408444
O O2 0.750000 0.750000 0.500000
O O3 0.652170 0.672605 0.466723
O O4 0.708042 0.790499 0.354383
O O5 0.387529 0.500000 0.773502
O O6 0.326613 0.738362 0.788988
O O7 0.411013 0.750499 0.701684
O O8 0.429613 0.734473 0.859129
O O9 0.874087 0.756381 0.395314
O O10 0.941701 0.736567 0.550026
O O11 0.917088 0.000000 0.472100
O O12 0.775098 0.500000 0.756035
O O13 0.714665 0.744112 0.725754
O O14 0.547658 0.500000 0.761400
O O15 0.612051 0.730478 0.755797
O O16 0.510683 0.752386 0.689107
O O17 0.530339 0.739610 0.848218
O O18 0.657757 0.500000 0.688040
O O19 0.452401 0.000000 0.648602
O O20 0.488637 0.500000 0.909703
O O21 0.500000 0.746863 0.000000
#
# Coordination Sequence:
#
# PCOD9180264 Si02
#       8
#     8   8   8   8   8   8   8   8
#     4  11  20  30  46  67  96 132 174 220 258 289
#     4  10  19  32  51  77 104 130 163 202 252 302
#     4  10  19  32  47  65  94 132 177 216 250 289
#     4  11  20  32  49  71 100 132 171 213 250 292
#     4   9  18  35  56  73  96 130 167 203 246 299
#     4   9  19  34  50  69  94 134 178 209 240 290
#     4  11  21  32  48  71 100 131 168 214 260 294
#     4   8  15  30  56  85 103 118 152 203 249 295
#
# _framework density 18.104984999999999
#
# number of rings (size 3 to 8) (size 9 to 14) (size 15 to 20)
#    0.000    2.125    2.500    3.000    0.000    1.000 
#    0.000    4.375    0.000   10.125    0.000    0.000 
#    0.000    0.000    0.000    0.000    0.000    0.625 
#
# Total GULP energy -178329.504142 kJ/mol
# GULP energy per Si atom -5572.797004 kJ/mol
# Density = 1.806378 g / cm^3
# Si number density = 18.104985 Si / 1000 Ang^3
#
#
#
# Elastic Constant Matrix: (Units=GPa)
#
#
# Indices 1 2 3 4 5 6 
#
# 1 126.3990 18.9789 64.0689 0.0000 4.3653 0.0000
# 2 18.9789 32.6341 11.7150 0.0000 0.6772 0.0000
# 3 64.0689 11.7150 98.0859 0.0000 13.8133 0.0000
# 4 0.0000 0.0000 0.0000 8.3636 0.0000 5.4916
# 5 4.3653 0.6772 13.8133 0.0000 14.7667 0.0000
# 6 0.0000 0.0000 0.0000 5.4916 0.0000 19.6258
#
#
#
# Elastic Compliance Matrix: (Units=1/GPa)
#
#
# Indices 1 2 3 4 5 6 
#
# 1 0.012659 -0.004458 -0.008336 0.000000 0.004260 0.000000
# 2 -0.004458 0.033661 -0.001240 0.000000 0.000934 0.000000
# 3 -0.008336 -0.001240 0.017775 0.000000 -0.014106 0.000000
# 4 0.000000 0.000000 0.000000 0.146478 0.000000 -0.040987
# 5 0.004260 0.000934 -0.014106 0.000000 0.079613 0.000000
# 6 0.000000 0.000000 0.000000 -0.040987 0.000000 0.062422
#
#
# Mechanical properties :
#
#
# Convention : Reuss Voigt Hill
#
# Bulk Modulus (GPa) = 27.75722 49.62719 38.69221
# Shear Modulus (GPa) = 12.73277 19.37495 16.05386
#
# Velocity S-wave (km/s) = 2.65481 3.27486 2.98100
# Velocity P-wave (km/s) = 4.97613 6.46296 5.76766
#
# Compressibility (1/GPa) = 0.03602667
#
# Stress axis : x y z
#
# Youngs Moduli (GPa) = 78.99357 29.70785 56.25845
#
# Poissons Ratio (x) = 0.13244 0.46900
# Poissons Ratio (y) = 0.35215 0.06976
# Poissons Ratio (z) = 0.65853 0.03684
#
# Static dielectric constant tensor:
#      x y z
#    x 1.655450 0.000000 0.014580 
#    y 0.000000 1.639460 0.000000 
#    z 0.014580 0.000000 1.623390 
# 
# From -- ./inp_files/287707.got.cif
#   From: 2010.05.17/outbox.cif.g08.bks.cpg/sg12_144_cif.got.tgz:287707.got - 2010.06.03 13:09:07.
