data_PCOD9180059
_publ_section_title
;
Structure prediction by ZEFSAII (Michael W. Deem and Ramdas Pophale) SiO2 
 PCOD9180059
Probable space group: C 2/M
;
_chemical_formula_sum "Si O2"
_cell_formula_units_Z 50
_cell_length_a 14.984802
_cell_length_b 7.470604
_cell_length_c 18.188026
_cell_angle_alpha 90.000000
_cell_angle_beta 95.055125
_cell_angle_gamma 90.000000
_cell_volume 2028.148536
_symmetry_space_group_name_H-M "C 2/M"
_symmetry_group_IT_number 12
_symmetry_cell_setting 'monoclinic'
loop_
_space_group_symop_operation_xyz
x,y,z
-x,y,-z
-x,-y,-z
x,-y,z
1/2+x,1/2+y,z
1/2-x,1/2+y,-z
1/2-x,1/2-y,-z
1/2+x,1/2-y,z
loop_
_atom_site_type_symbol
_atom_site_label
_atom_site_fract_x
_atom_site_fract_y
_atom_site_fract_z
Si Si1 0.503784 0.793001 0.109246
Si Si2 0.436648 0.719049 0.561123
Si Si3 0.845522 0.216585 0.776086
Si Si4 0.172315 0.296679 0.835132
Si Si5 0.586386 0.294297 0.677249
Si Si6 0.000000 0.000000 0.000000
Si Si7 0.260484 0.715678 0.612848
O O1 0.559723 0.782190 0.188696
O O2 0.403524 0.717770 0.117850
O O3 0.500268 0.000000 0.087150
O O4 0.545459 0.658575 0.054345
O O5 0.500000 0.781000 0.500000
O O6 0.435851 0.500000 0.559993
O O7 0.493183 0.771325 0.637633
O O8 0.333035 0.776563 0.557412
O O9 0.769433 0.283828 0.827786
O O10 0.810779 0.265693 0.692986
O O11 0.846593 0.000000 0.776760
O O12 0.185201 0.500000 0.861224
O O13 0.128227 0.301897 0.750294
O O14 0.574392 0.500000 0.699049
O O15 0.660749 0.288878 0.617140
O O16 0.252845 0.500000 0.608847
#
# Coordination Sequence:
#
# PCOD9180059 Si02
#       7
#     8   8   8   8   8   2   8
#     4  11  23  41  65  88 119 158 198 238 286 345
#     4   9  18  32  49  72 108 154 197 230 282 355
#     4   9  17  35  60  86 115 148 188 245 300 345
#     4   9  20  37  61  88 117 146 188 241 293 345
#     4  10  19  31  53  82 108 140 189 242 290 340
#     4  12  26  44  64  86 128 162 192 236 280 354
#     4   9  18  33  54  79 110 145 185 238 295 341
#
# _framework density 24.653027999999999
#
# number of rings (size 3 to 8) (size 9 to 14) (size 15 to 20)
#    0.000    2.400    0.800    2.640    1.120    4.480 
#    0.000    2.400    0.000    3.360    0.000    0.000 
#    0.000    0.000    0.000    0.000    0.000    0.000 
#
# Total GULP energy -139393.254782 kJ/mol
# GULP energy per Si atom -5575.730191 kJ/mol
# Density = 2.459692 g / cm^3
# Si number density = 24.653028 Si / 1000 Ang^3
#
#
#
# Elastic Constant Matrix: (Units=GPa)
#
#
# Indices 1 2 3 4 5 6 
#
# 1 134.9065 -2.6275 -3.2464 0.0000 -10.0174 0.0000
# 2 -2.6275 109.1241 2.1435 0.0000 -2.9768 0.0000
# 3 -3.2464 2.1435 38.9139 0.0000 0.8645 0.0000
# 4 0.0000 0.0000 0.0000 8.2026 0.0000 7.3627
# 5 -10.0174 -2.9768 0.8645 0.0000 14.1229 0.0000
# 6 0.0000 0.0000 0.0000 7.3627 0.0000 1.0072
#
#
#
# Elastic Compliance Matrix: (Units=1/GPa)
#
#
# Indices 1 2 3 4 5 6 
#
# 1 0.007848 0.000332 0.000512 0.000000 0.005605 0.000000
# 2 0.000332 0.009243 -0.000531 0.000000 0.002216 0.000000
# 3 0.000512 -0.000531 0.025799 0.000000 -0.001328 0.000000
# 4 0.000000 0.000000 0.000000 -0.021921 0.000000 0.160241
# 5 0.005605 0.002216 -0.001328 0.000000 0.075331 0.000000
# 6 0.000000 0.000000 0.000000 0.160241 0.000000 -0.178519
#
#
# Mechanical properties :
#
#
# Convention : Reuss Voigt Hill
#
# Bulk Modulus (GPa) = 22.98036 30.60931 26.79484
# Shear Modulus (GPa) = -73.16330 23.77819 -24.69256
#
# Velocity S-wave (km/s) = -5.45359 3.10903 -3.16825
# Velocity P-wave (km/s) = 5.50579 5.03300 1.57839
#
# Compressibility (1/GPa) = 0.04351541
#
# Stress axis : x y z
#
# Youngs Moduli (GPa) = 127.42901 108.19294 38.76093
#
# Poissons Ratio (x) = -0.03590 -0.01984
# Poissons Ratio (y) = -0.04228 0.02057
# Poissons Ratio (z) = -0.06523 0.05741
#
# Static dielectric constant tensor:
#      x y z
#    x 1.991440 0.000000 -0.088920 
#    y 0.000000 1.503620 0.000000 
#    z -0.088920 0.000000 2.050910 
# 
# From -- ./inp_files/308536.got.cif
#   From: 2010.05.17/outbox.cif.g08.bks.cpg/sg12_155_cif.got.tgz:308536.got - 2010.06.03 13:09:07.
