data_PCOD9180574
_publ_section_title
;
Structure prediction by ZEFSAII (Michael W. Deem and Ramdas Pophale) SiO2 
 PCOD9180574
Probable space group: C 2/M
;
_chemical_formula_sum "Si O2"
_cell_formula_units_Z 56
_cell_length_a 26.563371
_cell_length_b 13.456538
_cell_length_c 12.161579
_cell_angle_alpha 90.000000
_cell_angle_beta 36.532885
_cell_angle_gamma 90.000000
_cell_volume 2587.800256
_symmetry_space_group_name_H-M "C 2/M"
_symmetry_group_IT_number 12
_symmetry_cell_setting 'monoclinic'
loop_
_space_group_symop_operation_xyz
x,y,z
-x,y,-z
-x,-y,-z
x,-y,z
1/2+x,1/2+y,z
1/2-x,1/2+y,-z
1/2-x,1/2-y,-z
1/2+x,1/2-y,z
loop_
_atom_site_type_symbol
_atom_site_label
_atom_site_fract_x
_atom_site_fract_y
_atom_site_fract_z
Si Si1 0.426727 0.666653 0.707457
Si Si2 0.764013 0.829239 0.841966
Si Si3 0.716841 0.112199 0.237928
Si Si4 0.401984 0.891956 0.748493
Si Si5 0.802837 0.880916 0.303590
Si Si6 0.655955 0.380064 0.531759
Si Si7 0.963596 0.114508 0.885760
O O1 0.500000 0.627354 0.500000
O O2 0.342851 0.651686 0.783101
O O3 0.443529 0.785402 0.697005
O O4 0.429938 0.617714 0.820527
O O5 0.741817 0.711874 0.883364
O O6 0.796097 0.850283 0.663094
O O7 0.683283 0.887208 0.028120
O O8 0.629062 0.111197 0.324790
O O9 0.725707 0.130642 0.352980
O O10 0.751773 0.000000 0.158161
O O11 0.442302 0.000000 0.698581
O O12 0.796566 0.848140 0.440178
O O13 0.813607 0.000000 0.291365
O O14 0.889529 0.841673 0.093374
O O15 0.651667 0.500000 0.534367
O O16 0.558711 0.342643 0.713939
O O17 0.973806 0.000000 0.903403
#
# Coordination Sequence:
#
# PCOD9180574 Si02
#       7
#     8   8   8   8   8   8   8
#     4  11  21  35  53  78 106 137 178 217 256 309
#     4  11  20  34  52  78 108 135 169 217 262 313
#     4   9  18  33  52  73  97 132 172 206 250 304
#     4  10  21  36  55  76 105 142 173 211 262 311
#     4   9  17  31  50  72 100 134 171 208 253 312
#     4  10  20  31  47  74 106 136 168 212 261 308
#     4  10  19  32  50  74 105 138 168 208 263 313
#
# _framework density 21.640001000000002
#
# number of rings (size 3 to 8) (size 9 to 14) (size 15 to 20)
#    0.000    2.000    1.429    4.286    0.000    5.143 
#    0.000    0.000    0.000    0.000    0.000    0.000 
#    0.000    3.714    0.000    0.000    0.000    0.000 
#
# Total GULP energy -156087.849255 kJ/mol
# GULP energy per Si atom -5574.566045 kJ/mol
# Density = 2.159075 g / cm^3
# Si number density = 21.640001 Si / 1000 Ang^3
#
#
#
# Elastic Constant Matrix: (Units=GPa)
#
#
# Indices 1 2 3 4 5 6 
#
# 1 83.9209 -0.0915 27.8746 0.0000 33.8681 0.0000
# 2 -0.0915 71.0373 -8.8550 0.0000 -6.9837 0.0000
# 3 27.8746 -8.8550 84.0691 0.0000 26.7244 0.0000
# 4 0.0000 0.0000 0.0000 19.6618 0.0000 5.8641
# 5 33.8681 -6.9837 26.7244 0.0000 32.7618 0.0000
# 6 0.0000 0.0000 0.0000 5.8641 0.0000 15.6573
#
#
#
# Elastic Compliance Matrix: (Units=1/GPa)
#
#
# Indices 1 2 3 4 5 6 
#
# 1 0.020758 -0.002136 -0.000191 0.000000 -0.021759 0.000000
# 2 -0.002136 0.014631 0.000751 0.000000 0.004715 0.000000
# 3 -0.000191 0.000751 0.016098 0.000000 -0.012774 0.000000
# 4 0.000000 0.000000 0.000000 0.057256 0.000000 -0.021444
# 5 -0.021759 0.004715 -0.012774 0.000000 0.064442 0.000000
# 6 0.000000 0.000000 0.000000 -0.021444 0.000000 0.071899
#
#
# Mechanical properties :
#
#
# Convention : Reuss Voigt Hill
#
# Bulk Modulus (GPa) = 20.68902 30.76483 25.72692
# Shear Modulus (GPa) = 18.91434 28.28946 23.60190
#
# Velocity S-wave (km/s) = 2.95963 3.61955 3.30610
# Velocity P-wave (km/s) = 4.61091 5.63167 5.14666
#
# Compressibility (1/GPa) = 0.04833483
#
# Stress axis : x y z
#
# Youngs Moduli (GPa) = 48.17328 68.34589 62.11931
#
# Poissons Ratio (x) = 0.14600 0.01186
# Poissons Ratio (y) = 0.10291 -0.04663
# Poissons Ratio (z) = 0.00920 -0.05130
#
# Static dielectric constant tensor:
#      x y z
#    x 1.812480 0.000000 -0.023220 
#    y 0.000000 1.826430 0.000000 
#    z -0.023220 0.000000 1.828670 
# 
# From -- ./inp_files/155976.got.cif
#   From: 2010.05.17/outbox.cif.g08.bks.cpg/sg12_78_cif.got.tgz:155976.got - 2010.06.03 13:09:07.
