data_PCOD9180562
_publ_section_title
;
Structure prediction by ZEFSAII (Michael W. Deem and Ramdas Pophale) SiO2 
 PCOD9180562
Probable space group: C 2/M
;
_chemical_formula_sum "Si O2"
_cell_formula_units_Z 64
_cell_length_a 32.254435
_cell_length_b 8.860190
_cell_length_c 14.978140
_cell_angle_alpha 90.000000
_cell_angle_beta 62.053005
_cell_angle_gamma 90.000000
_cell_volume 3781.278571
_symmetry_space_group_name_H-M "C 2/M"
_symmetry_group_IT_number 12
_symmetry_cell_setting 'monoclinic'
loop_
_space_group_symop_operation_xyz
x,y,z
-x,y,-z
-x,-y,-z
x,-y,z
1/2+x,1/2+y,z
1/2-x,1/2+y,-z
1/2-x,1/2-y,-z
1/2+x,1/2-y,z
loop_
_atom_site_type_symbol
_atom_site_label
_atom_site_fract_x
_atom_site_fract_y
_atom_site_fract_z
Si Si1 0.698697 0.681758 0.653007
Si Si2 0.300085 0.681910 0.553541
Si Si3 0.968393 0.319448 0.184174
Si Si4 0.386119 0.318108 0.591315
Si Si5 0.971359 0.181011 0.373784
Si Si6 0.421587 0.819826 0.931187
Si Si7 0.389816 0.680534 0.138868
Si Si8 0.926323 0.680632 0.721916
O O1 0.702198 0.500000 0.652051
O O2 0.687669 0.725205 0.561228
O O3 0.749077 0.751109 0.625357
O O4 0.657197 0.727956 0.761175
O O5 0.297572 0.500000 0.558345
O O6 0.340324 0.729188 0.581791
O O7 0.963821 0.500000 0.194011
O O8 0.957444 0.246522 0.291291
O O9 0.933873 0.253766 0.145322
O O10 0.023095 0.285706 0.109462
O O11 0.385167 0.500000 0.602119
O O12 0.432009 0.280007 0.486034
O O13 0.391885 0.242017 0.681262
O O14 0.022208 0.248099 0.345557
O O15 0.974546 0.000000 0.365246
O O16 0.411768 0.779695 0.838025
O O17 0.415662 0.000000 0.947597
O O18 0.391608 0.734548 0.035204
O O19 0.393466 0.500000 0.140204
O O20 0.930455 0.500000 0.713435
#
# Coordination Sequence:
#
# PCOD9180562 Si02
#       8
#     8   8   8   8   8   8   8   8
#     4   9  19  35  52  75 105 129 156 198 245 294
#     4   9  18  34  54  75 101 131 160 194 242 298
#     4  10  20  33  49  72 104 137 168 205 246 291
#     4  10  20  33  51  75 102 132 167 207 249 294
#     4  10  19  32  50  73 104 137 167 204 248 292
#     4   9  20  36  49  67  99 134 168 209 249 285
#     4  11  21  32  51  76 100 130 167 206 248 297
#     4  10  21  35  50  71 101 135 171 210 247 288
#
# _framework density 16.925491999999998
#
# number of rings (size 3 to 8) (size 9 to 14) (size 15 to 20)
#    0.000    2.250    0.000    3.750    0.000   10.500 
#    0.000    2.500    0.000    0.750    0.000    0.000 
#    0.000    0.000    0.000    0.000    0.000    0.000 
#
# Total GULP energy -178632.312836 kJ/mol
# GULP energy per Si atom -5582.259776 kJ/mol
# Density = 1.688697 g / cm^3
# Si number density = 16.925492 Si / 1000 Ang^3
#
#
#
# Elastic Constant Matrix: (Units=GPa)
#
#
# Indices 1 2 3 4 5 6 
#
# 1 118.6432 35.1118 74.8519 0.0000 21.0820 0.0000
# 2 35.1118 31.8043 45.5355 0.0000 3.2194 0.0000
# 3 74.8519 45.5355 131.7800 0.0000 5.8639 0.0000
# 4 0.0000 0.0000 0.0000 23.5984 0.0000 3.6805
# 5 21.0820 3.2194 5.8639 0.0000 14.1722 0.0000
# 6 0.0000 0.0000 0.0000 3.6805 0.0000 29.5171
#
#
#
# Elastic Compliance Matrix: (Units=1/GPa)
#
#
# Indices 1 2 3 4 5 6 
#
# 1 0.020105 -0.009727 -0.006954 0.000000 -0.024821 0.000000
# 2 -0.009727 0.067332 -0.018037 0.000000 0.006636 0.000000
# 3 -0.006954 -0.018037 0.017450 0.000000 0.007222 0.000000
# 4 0.000000 0.000000 0.000000 0.043216 0.000000 -0.005389
# 5 -0.024821 0.006636 0.007222 0.000000 0.102987 0.000000
# 6 0.000000 0.000000 0.000000 -0.005389 0.000000 0.034551
#
#
# Mechanical properties :
#
#
# Convention : Reuss Voigt Hill
#
# Bulk Modulus (GPa) = 28.20736 65.91398 47.06067
# Shear Modulus (GPa) = 13.62794 21.90611 17.76702
#
# Velocity S-wave (km/s) = 2.84063 3.60150 3.24345
# Velocity P-wave (km/s) = 5.24030 7.50483 6.47237
#
# Compressibility (1/GPa) = 0.03545175
#
# Stress axis : x y z
#
# Youngs Moduli (GPa) = 49.73858 14.85171 57.30782
#
# Poissons Ratio (x) = 0.14446 0.39855
# Poissons Ratio (y) = 0.48378 1.03364
# Poissons Ratio (z) = 0.34591 0.26788
#
# Static dielectric constant tensor:
#      x y z
#    x 1.555160 0.000000 0.013010 
#    y 0.000000 1.566060 0.000000 
#    z 0.013010 0.000000 1.569850 
# 
# From -- ./inp_files/248990.got.cif
#   From: 2010.05.17/outbox.cif.g08.bks.cpg/sg12_125_cif.got.tgz:248990.got - 2010.06.03 13:09:07.
