data_PCOD9180260
_publ_section_title
;
Structure prediction by ZEFSAII (Michael W. Deem and Ramdas Pophale) SiO2 
 PCOD9180260
Probable space group: C 2/M
;
_chemical_formula_sum "Si O2"
_cell_formula_units_Z 64
_cell_length_a 34.569102
_cell_length_b 21.191940
_cell_length_c 20.947268
_cell_angle_alpha 90.000000
_cell_angle_beta 162.566565
_cell_angle_gamma 90.000000
_cell_volume 4597.529420
_symmetry_space_group_name_H-M "C 2/M"
_symmetry_group_IT_number 12
_symmetry_cell_setting 'monoclinic'
loop_
_space_group_symop_operation_xyz
x,y,z
-x,y,-z
-x,-y,-z
x,-y,z
1/2+x,1/2+y,z
1/2-x,1/2+y,-z
1/2-x,1/2-y,-z
1/2+x,1/2-y,z
loop_
_atom_site_type_symbol
_atom_site_label
_atom_site_fract_x
_atom_site_fract_y
_atom_site_fract_z
Si Si1 0.542312 0.649292 0.740225
Si Si2 0.646488 0.850705 0.948575
Si Si3 0.214850 0.283083 0.828618
Si Si4 0.194987 0.924942 0.576207
Si Si5 0.512686 0.783080 0.626454
Si Si6 0.887292 0.576436 0.774583
Si Si7 0.113170 0.075186 0.726339
Si Si8 0.932540 0.424942 0.051315
O O1 0.426219 0.617286 0.595699
O O2 0.500678 0.714447 0.640089
O O3 0.583027 0.602140 0.748171
O O4 0.668213 0.668010 0.979301
O O5 0.546033 0.831987 0.734944
O O6 0.587268 0.882715 0.917793
O O7 0.721852 0.785549 0.082439
O O8 0.752743 0.897852 0.087595
O O9 0.113798 0.297819 0.613798
O O10 0.132714 0.280841 0.765428
O O11 0.255248 0.906138 0.602191
O O12 0.163337 0.000000 0.525466
O O13 0.309112 0.917841 0.809110
O O14 0.889316 0.500000 0.778631
O O15 0.938644 0.593862 0.785589
O O16 0.000000 0.598015 0.000000
O O17 0.000000 0.096772 0.500000
O O18 0.114411 0.000000 0.728815
O O19 0.939072 0.500000 0.076939
#
# Coordination Sequence:
#
# PCOD9180260 Si02
#       8
#     8   8   8   8   8   8   8   8
#     4  11  18  29  44  66  86 111 144 177 213 254
#     4  11  18  29  44  66  86 111 144 177 213 254
#     4  10  19  32  47  59  80 117 155 184 205 240
#     4   9  16  26  43  67  93 116 138 171 216 263
#     4  10  19  32  47  59  80 117 155 184 205 240
#     4   7  12  24  40  61  89 117 141 165 203 260
#     4  11  20  27  39  63  93 113 129 168 222 263
#     4   9  16  26  43  67  93 116 138 171 216 263
#
# _framework density 13.92052
#
# number of rings (size 3 to 8) (size 9 to 14) (size 15 to 20)
#    0.000    2.250    2.500    5.250    0.000    2.000 
#    0.000    0.000    0.000    6.750    0.000    2.625 
#    0.000    3.000    0.000    0.000    0.000    0.000 
#
# Total GULP energy -178232.376872 kJ/mol
# GULP energy per Si atom -5569.761777 kJ/mol
# Density = 1.388884 g / cm^3
# Si number density = 13.920520 Si / 1000 Ang^3
#
#
#
# Elastic Constant Matrix: (Units=GPa)
#
#
# Indices 1 2 3 4 5 6 
#
# 1 133.3645 52.3204 60.6735 0.0000 22.9786 0.0000
# 2 52.3204 55.5897 39.9930 0.0000 5.6284 0.0000
# 3 60.6735 39.9930 85.7777 0.0000 -1.2751 0.0000
# 4 0.0000 0.0000 0.0000 1.7828 0.0000 -45.4806
# 5 22.9786 5.6284 -1.2751 0.0000 22.1896 0.0000
# 6 0.0000 0.0000 0.0000 -45.4806 0.0000 -98.1356
#
#
#
# Elastic Compliance Matrix: (Units=1/GPa)
#
#
# Indices 1 2 3 4 5 6 
#
# 1 0.017796 -0.008762 -0.008751 0.000000 -0.016709 0.000000
# 2 -0.008762 0.032726 -0.009057 0.000000 0.000252 0.000000
# 3 -0.008751 -0.009057 0.022258 0.000000 0.012638 0.000000
# 4 0.000000 0.000000 0.000000 0.043743 0.000000 -0.020273
# 5 -0.016709 0.000252 0.012638 0.000000 0.063031 0.000000
# 6 0.000000 0.000000 0.000000 -0.020273 0.000000 -0.000795
#
#
# Mechanical properties :
#
#
# Convention : Reuss Voigt Hill
#
# Bulk Modulus (GPa) = 50.91403 64.52287 57.71845
# Shear Modulus (GPa) = 20.96921 -6.71630 7.12646
#
# Velocity S-wave (km/s) = 3.88539 -2.19891 2.26506
# Velocity P-wave (km/s) = 7.53542 6.32492 6.95655
#
# Compressibility (1/GPa) = 0.01964095
#
# Stress axis : x y z
#
# Youngs Moduli (GPa) = 56.19374 30.55711 44.92712
#
# Poissons Ratio (x) = 0.26773 0.39315
# Poissons Ratio (y) = 0.49235 0.40690
# Poissons Ratio (z) = 0.49174 0.27675
#
# Static dielectric constant tensor:
#      x y z
#    x 1.469780 0.000000 0.005400 
#    y 0.000000 1.444220 0.000000 
#    z 0.005400 0.000000 1.457940 
# 
# From -- ./inp_files/297081.got.cif
#   From: 2010.05.17/outbox.cif.g08.bks.cpg/sg12_149_cif.got.tgz:297081.got - 2010.06.03 13:09:07.
