data_PCOD9180936
_publ_section_title
;
Structure prediction by ZEFSAII (Michael W. Deem and Ramdas Pophale) SiO2 
 PCOD9180936
Probable space group: C 2/M
;
_chemical_formula_sum "Si O2"
_cell_formula_units_Z 56
_cell_length_a 19.637410
_cell_length_b 8.801636
_cell_length_c 28.779803
_cell_angle_alpha 90.000000
_cell_angle_beta 39.403705
_cell_angle_gamma 90.000000
_cell_volume 3157.613659
_symmetry_space_group_name_H-M "C 2/M"
_symmetry_group_IT_number 12
_symmetry_cell_setting 'monoclinic'
loop_
_space_group_symop_operation_xyz
x,y,z
-x,y,-z
-x,-y,-z
x,-y,z
1/2+x,1/2+y,z
1/2-x,1/2+y,-z
1/2-x,1/2-y,-z
1/2+x,1/2-y,z
loop_
_atom_site_type_symbol
_atom_site_label
_atom_site_fract_x
_atom_site_fract_y
_atom_site_fract_z
Si Si1 0.277833 0.817492 0.264874
Si Si2 0.146638 0.818159 0.579407
Si Si3 0.558786 0.815933 0.900117
Si Si4 0.887251 0.318985 0.812613
Si Si5 0.418088 0.181592 0.687467
Si Si6 0.884556 0.818841 0.295951
Si Si7 0.337435 0.183476 0.055173
O O1 0.373801 0.765069 0.179671
O O2 0.168348 0.754267 0.301140
O O3 0.304823 0.755678 0.301298
O O4 0.275262 0.000000 0.266231
O O5 0.250000 0.750000 0.500000
O O6 0.146674 0.781422 0.634460
O O7 0.036664 0.747860 0.617759
O O8 0.144428 0.000000 0.575740
O O9 0.620811 0.774506 0.914957
O O10 0.556958 0.000000 0.900491
O O11 0.434926 0.767909 0.970104
O O12 0.893889 0.500000 0.814119
O O13 0.885973 0.281824 0.757939
O O14 0.777670 0.256893 0.892106
O O15 0.995332 0.244388 0.775119
O O16 0.419020 0.000000 0.682221
O O17 0.884485 0.000000 0.290971
O O18 0.327809 0.000000 0.058728
#
# Coordination Sequence:
#
# PCOD9180936 Si02
#       7
#     8   8   8   8   8   8   8
#     4  11  20  34  55  81 111 143 182 225 268 317
#     4  10  21  39  63  87 111 139 174 215 261 315
#     4   8  16  28  48  75 104 140 180 224 273 319
#     4  10  19  32  51  78 106 138 183 231 269 312
#     4  10  20  34  55  82 112 144 179 218 262 316
#     4  10  22  38  56  79 109 145 177 213 267 324
#     4   9  15  29  50  73 102 139 183 227 273 321
#
# _framework density 17.734912000000001
#
# number of rings (size 3 to 8) (size 9 to 14) (size 15 to 20)
#    0.000    2.286    1.429    3.000    0.000    2.857 
#    0.000    4.286    0.000    4.286    0.000    0.000 
#    0.000    0.000    0.000    0.000    0.000    0.000 
#
# Total GULP energy -156253.402529 kJ/mol
# GULP energy per Si atom -5580.478662 kJ/mol
# Density = 1.769455 g / cm^3
# Si number density = 17.734912 Si / 1000 Ang^3
#
#
#
# Elastic Constant Matrix: (Units=GPa)
#
#
# Indices 1 2 3 4 5 6 
#
# 1 116.4363 49.1089 53.0500 0.0000 -19.3853 0.0002
# 2 49.1089 46.1317 40.4716 0.0000 -9.3091 0.0002
# 3 53.0500 40.4716 126.9638 0.0000 -25.9736 0.0000
# 4 0.0000 0.0000 0.0000 26.8738 0.0000 -5.1779
# 5 -19.3853 -9.3091 -25.9736 0.0000 19.6715 0.0000
# 6 0.0002 0.0002 0.0000 -5.1779 0.0000 27.5177
#
#
#
# Elastic Compliance Matrix: (Units=1/GPa)
#
#
# Indices 1 2 3 4 5 6 
#
# 1 0.016918 -0.016117 -0.000111 0.000000 0.008898 0.000000
# 2 -0.016117 0.045513 -0.009066 0.000000 -0.006314 0.000000
# 3 -0.000111 -0.009066 0.013581 0.000000 0.013532 0.000000
# 4 0.000000 0.000000 0.000000 0.038611 0.000000 0.007265
# 5 0.008898 -0.006314 0.013532 0.000000 0.074483 0.000000
# 6 0.000000 0.000000 0.000000 0.007265 0.000000 0.037707
#
#
# Mechanical properties :
#
#
# Convention : Reuss Voigt Hill
#
# Bulk Modulus (GPa) = 39.33127 63.86586 51.59856
# Shear Modulus (GPa) = 17.49019 24.60602 21.04811
#
# Velocity S-wave (km/s) = 3.14379 3.72887 3.44876
# Velocity P-wave (km/s) = 5.95007 7.39113 6.70940
#
# Compressibility (1/GPa) = 0.02542507
#
# Stress axis : x y z
#
# Youngs Moduli (GPa) = 59.10889 21.97179 73.63344
#
# Poissons Ratio (x) = 0.35411 0.00818
# Poissons Ratio (y) = 0.95264 0.66752
# Poissons Ratio (z) = 0.00657 0.19919
#
# Static dielectric constant tensor:
#      x y z
#    x 1.587700 0.000000 0.007370 
#    y 0.000000 1.587570 0.000000 
#    z 0.007370 0.000000 1.601810 
# 
# From -- ./inp_files/342211.got.cif
#   From: 2010.05.17/outbox.cif.g08.bks.cpg/sg12_172_cif.got.tgz:342211.got - 2010.06.03 13:09:07.
