data_PCOD9180448
_publ_section_title
;
Structure prediction by ZEFSAII (Michael W. Deem and Ramdas Pophale) SiO2 
 PCOD9180448
Probable space group: C 2/M
;
_chemical_formula_sum "Si O2"
_cell_formula_units_Z 56
_cell_length_a 21.018154
_cell_length_b 18.408304
_cell_length_c 20.697119
_cell_angle_alpha 90.000000
_cell_angle_beta 21.000220
_cell_angle_gamma 90.000000
_cell_volume 2869.800786
_symmetry_space_group_name_H-M "C 2/M"
_symmetry_group_IT_number 12
_symmetry_cell_setting 'monoclinic'
loop_
_space_group_symop_operation_xyz
x,y,z
-x,y,-z
-x,-y,-z
x,-y,z
1/2+x,1/2+y,z
1/2-x,1/2+y,-z
1/2-x,1/2-y,-z
1/2+x,1/2-y,z
loop_
_atom_site_type_symbol
_atom_site_label
_atom_site_fract_x
_atom_site_fract_y
_atom_site_fract_z
Si Si1 0.810061 0.580066 0.819651
Si Si2 0.680638 0.694665 0.122087
Si Si3 0.855165 0.419552 0.579252
Si Si4 0.788247 0.182679 0.510789
Si Si5 0.288686 0.273076 0.140134
Si Si6 0.557469 0.914505 0.165386
Si Si7 0.199835 0.761956 0.727209
O O1 0.735438 0.500000 0.878704
O O2 0.717862 0.640166 0.863291
O O3 0.821302 0.595102 0.884947
O O4 0.016657 0.578871 0.604024
O O5 0.485732 0.660095 0.301137
O O6 0.666274 0.743057 0.199864
O O7 0.750000 0.750000 0.000000
O O8 0.828125 0.633069 0.992708
O O9 0.771465 0.500000 0.666159
O O10 0.736836 0.348289 0.683805
O O11 0.000000 0.411503 0.500000
O O12 0.750000 0.250000 0.500000
O O13 0.635046 0.122737 0.646579
O O14 0.771796 0.214238 0.599758
O O15 0.229776 0.248134 0.266748
O O16 0.489128 0.250744 0.933921
O O17 0.542927 0.000000 0.166227
#
# Coordination Sequence:
#
# PCOD9180448 Si02
#       7
#     8   8   8   8   8   8   8
#     4  10  20  35  55  80 119 165 198 245 306 367
#     4  12  22  39  66  92 126 164 208 260 316 361
#     4  10  19  32  49  76 120 163 200 242 297 365
#     4  12  23  40  67  92 125 167 211 260 314 370
#     4  11  21  37  56  88 125 153 209 264 301 373
#     4  11  24  43  64  93 128 162 210 263 317 375
#     4  11  23  34  58  88 118 165 211 253 309 364
#
# _framework density 19.513549000000001
#
# number of rings (size 3 to 8) (size 9 to 14) (size 15 to 20)
#    0.000    1.000    5.714    1.714    0.000    1.143 
#    0.000    1.429    0.000    1.714    0.000    2.000 
#    0.000    0.000    0.000    0.000    0.000    0.000 
#
# Total GULP energy -156110.109520 kJ/mol
# GULP energy per Si atom -5575.361054 kJ/mol
# Density = 1.946913 g / cm^3
# Si number density = 19.513549 Si / 1000 Ang^3
#
#
#
# Elastic Constant Matrix: (Units=GPa)
#
#
# Indices 1 2 3 4 5 6 
#
# 1 72.7315 16.0157 4.1798 -0.0041 19.0050 -0.0048
# 2 16.0157 101.5195 28.4703 -0.0212 0.1176 -0.0022
# 3 4.1798 28.4703 101.4758 -0.0719 -1.7135 0.0187
# 4 -0.0041 -0.0212 -0.0719 29.1987 0.0108 -6.6760
# 5 19.0050 0.1176 -1.7135 0.0108 26.1405 0.0052
# 6 -0.0048 -0.0022 0.0187 -6.6760 0.0052 21.7394
#
#
#
# Elastic Compliance Matrix: (Units=1/GPa)
#
#
# Indices 1 2 3 4 5 6 
#
# 1 0.017729 -0.002731 -0.000182 0.000007 -0.012889 0.000009
# 2 -0.002731 0.011114 -0.002976 0.000000 0.001740 0.000003
# 3 -0.000182 -0.002976 0.010711 0.000023 0.000848 -0.000003
# 4 0.000007 0.000000 0.000023 0.036834 -0.000021 0.011311
# 5 -0.012889 0.001740 0.000848 -0.000021 0.047674 -0.000021
# 6 0.000009 0.000003 -0.000003 0.011311 -0.000021 0.049473
#
#
# Mechanical properties :
#
#
# Convention : Reuss Voigt Hill
#
# Bulk Modulus (GPa) = 36.00187 41.45092 38.72640
# Shear Modulus (GPa) = 25.69744 30.55312 28.12528
#
# Velocity S-wave (km/s) = 3.63285 3.96123 3.80059
# Velocity P-wave (km/s) = 6.00721 6.49693 6.25686
#
# Compressibility (1/GPa) = 0.02777633
#
# Stress axis : x y z
#
# Youngs Moduli (GPa) = 56.40465 89.97810 93.35849
#
# Poissons Ratio (x) = 0.24573 0.01696
# Poissons Ratio (y) = 0.15404 0.27786
# Poissons Ratio (z) = 0.01025 0.26780
#
# Static dielectric constant tensor:
#      x y z
#    x 1.758170 -0.000020 0.005160 
#    y -0.000020 1.736900 0.000050 
#    z 0.005160 0.000050 1.750920 
# 
# From -- ./inp_files/322646.got.cif
#   From: 2010.05.17/outbox.cif.g08.bks.cpg/sg12_162_cif.got.tgz:322646.got - 2010.06.03 13:09:07.
