data_PCOD9180085
_publ_section_title
;
Structure prediction by ZEFSAII (Michael W. Deem and Ramdas Pophale) SiO2 
 PCOD9180085
Probable space group: C 2/M
;
_chemical_formula_sum "Si O2"
_cell_formula_units_Z 60
_cell_length_a 30.002200
_cell_length_b 11.338805
_cell_length_c 27.745176
_cell_angle_alpha 90.000000
_cell_angle_beta 19.678415
_cell_angle_gamma 90.000000
_cell_volume 3178.361532
_symmetry_space_group_name_H-M "C 2/M"
_symmetry_group_IT_number 12
_symmetry_cell_setting 'monoclinic'
loop_
_space_group_symop_operation_xyz
x,y,z
-x,y,-z
-x,-y,-z
x,-y,z
1/2+x,1/2+y,z
1/2-x,1/2+y,-z
1/2-x,1/2-y,-z
1/2+x,1/2-y,z
loop_
_atom_site_type_symbol
_atom_site_label
_atom_site_fract_x
_atom_site_fract_y
_atom_site_fract_z
Si Si1 0.896581 0.364189 0.780193
Si Si2 0.000000 0.276087 0.000000
Si Si3 0.407664 0.630897 0.939204
Si Si4 0.001317 0.643037 0.574055
Si Si5 0.965786 0.637282 0.140113
Si Si6 0.471315 0.723439 0.277663
Si Si7 0.766112 0.363203 0.420717
Si Si8 0.723222 0.142279 0.273200
O O1 0.933268 0.500000 0.753069
O O2 0.986917 0.319805 0.643825
O O3 0.913909 0.291332 0.811130
O O4 0.748578 0.362618 0.910491
O O5 0.973257 0.350558 0.075329
O O6 0.867544 0.198849 0.126246
O O7 0.438219 0.500000 0.929981
O O8 0.452720 0.749453 0.921572
O O9 0.473832 0.636353 0.818749
O O10 0.998796 0.500000 0.576600
O O11 0.871882 0.678214 0.674663
O O12 0.134757 0.676153 0.410020
O O13 0.004314 0.500000 0.114139
O O14 0.820365 0.657849 0.311620
O O15 0.376526 0.676341 0.416182
O O16 0.375876 0.807525 0.343975
O O17 0.769735 0.500000 0.425319
O O18 0.735293 0.000000 0.259969
#
# Coordination Sequence:
#
# PCOD9180085 Si02
#       8
#     8   4   8   8   8   8   8   8
#     4  10  19  31  53  83 115 148 189 233 281 339
#     4  12  22  32  58  86 109 144 195 250 283 338
#     4  10  21  38  59  87 116 147 187 240 285 330
#     4   8  16  32  50  72 113 161 191 226 287 352
#     4  10  23  41  58  80 114 156 190 229 288 350
#     4  10  19  32  55  81 112 145 185 231 283 334
#     4   9  19  36  53  72 106 151 189 224 275 336
#     4   9  18  32  51  80 116 151 189 239 294 340
#
# _framework density 18.877649999999999
#
# number of rings (size 3 to 8) (size 9 to 14) (size 15 to 20)
#    0.000    2.400    0.000    3.200    1.867    2.667 
#    0.000    2.000    0.000    0.000    0.000    4.667 
#    0.000    0.000    0.000    0.000    0.000    0.000 
#
# Total GULP energy -167019.342374 kJ/mol
# GULP energy per Si atom -5567.311412 kJ/mol
# Density = 1.883468 g / cm^3
# Si number density = 18.877650 Si / 1000 Ang^3
#
#
#
# Elastic Constant Matrix: (Units=GPa)
#
#
# Indices 1 2 3 4 5 6 
#
# 1 74.2033 38.7730 31.0544 0.0005 19.8060 -0.0145
# 2 38.7730 85.8560 25.6044 -0.0003 6.4705 -0.0106
# 3 31.0544 25.6044 97.0178 0.0006 15.0700 -0.0259
# 4 0.0005 -0.0003 0.0006 17.9221 -0.0005 25.7180
# 5 19.8060 6.4705 15.0700 -0.0005 23.9575 0.0158
# 6 -0.0145 -0.0106 -0.0259 25.7180 0.0158 -872.1084
#
#
#
# Elastic Compliance Matrix: (Units=1/GPa)
#
#
# Indices 1 2 3 4 5 6 
#
# 1 0.023085 -0.008450 -0.002825 0.000000 -0.015025 0.000000
# 2 -0.008450 0.015782 -0.002087 0.000001 0.004037 0.000000
# 3 -0.002825 -0.002087 0.012537 0.000000 -0.004987 0.000000
# 4 0.000000 0.000001 0.000000 0.053532 0.000000 0.001579
# 5 -0.015025 0.004037 -0.004987 0.000000 0.056209 0.000001
# 6 0.000000 0.000000 0.000000 0.001579 0.000001 -0.001100
#
#
# Mechanical properties :
#
#
# Convention : Reuss Voigt Hill
#
# Bulk Modulus (GPa) = 40.52119 49.77120 45.14619
# Shear Modulus (GPa) = 25.64161 -155.26940 -64.81389
#
# Velocity S-wave (km/s) = 3.68952 -9.07904 -5.86585
# Velocity P-wave (km/s) = 6.29776 9.13690 4.68087
#
# Compressibility (1/GPa) = 0.02467845
#
# Stress axis : x y z
#
# Youngs Moduli (GPa) = 43.31868 63.36392 79.76283
#
# Poissons Ratio (x) = 0.53544 0.22534
# Poissons Ratio (y) = 0.36606 0.16648
# Poissons Ratio (z) = 0.12238 0.13225
#
# Static dielectric constant tensor:
#      x y z
#    x 1.661050 0.000000 0.035600 
#    y 0.000000 1.656960 0.000000 
#    z 0.035600 0.000000 1.705000 
# 
# From -- ./inp_files/370874.got.cif
#   From: 2010.05.17/outbox.cif.g08.bks.cpg/sg12_186_cif.got.tgz:370874.got - 2010.06.03 13:09:07.
