data_PCOD9180162
_publ_section_title
;
Structure prediction by ZEFSAII (Michael W. Deem and Ramdas Pophale) SiO2 
 PCOD9180162
Probable space group: C 2/M
;
_chemical_formula_sum "Si O2"
_cell_formula_units_Z 40
_cell_length_a 25.889624
_cell_length_b 7.806486
_cell_length_c 22.081001
_cell_angle_alpha 90.000000
_cell_angle_beta 31.746354
_cell_angle_gamma 90.000000
_cell_volume 2348.106325
_symmetry_space_group_name_H-M "C 2/M"
_symmetry_group_IT_number 12
_symmetry_cell_setting 'monoclinic'
loop_
_space_group_symop_operation_xyz
x,y,z
-x,y,-z
-x,-y,-z
x,-y,z
1/2+x,1/2+y,z
1/2-x,1/2+y,-z
1/2-x,1/2-y,-z
1/2+x,1/2-y,z
loop_
_atom_site_type_symbol
_atom_site_label
_atom_site_fract_x
_atom_site_fract_y
_atom_site_fract_z
Si Si1 0.106906 0.203442 0.115823
Si Si2 0.112867 0.703550 0.673785
Si Si3 0.883936 0.000000 0.687942
Si Si4 0.697583 0.196544 0.149889
Si Si5 0.309397 0.803448 0.536485
Si Si6 0.618937 0.500000 0.451719
O O1 0.130920 0.292388 0.155737
O O2 0.998903 0.249990 0.201327
O O3 0.112874 0.000000 0.120835
O O4 0.193627 0.245844 0.982433
O O5 0.127635 0.500000 0.664491
O O6 0.194340 0.791854 0.634126
O O7 0.136008 0.748609 0.580624
O O8 0.841106 0.832310 0.763526
O O9 0.860572 0.000000 0.640121
O O10 0.001573 0.000000 0.577650
O O11 0.698171 0.000000 0.170900
O O12 0.337563 0.668048 0.559292
O O13 0.335464 0.000000 0.525092
#
# Coordination Sequence:
#
# PCOD9180162 Si02
#       6
#     8   8   4   8   8   4
#     4  10  19  31  54  86 118 145 176 225 281 336
#     4  10  19  31  55  87 116 145 178 222 282 339
#     4  11  24  40  59  77 111 151 189 234 268 326
#     4  10  21  36  54  83 114 146 185 225 278 329
#     4  10  21  36  54  82 116 145 182 229 276 327
#     4  11  24  40  57  81 107 151 195 224 276 326
#
# _framework density 17.035005000000002
#
# number of rings (size 3 to 8) (size 9 to 14) (size 15 to 20)
#    0.000    1.800    2.000    2.400    5.600    3.200 
#    0.000    2.000    0.000    2.400    0.000    4.200 
#    0.000    0.000    0.000    0.000    0.000    0.000 
#
# Total GULP energy -111694.560295 kJ/mol
# GULP energy per Si atom -5584.728015 kJ/mol
# Density = 1.699623 g / cm^3
# Si number density = 17.035005 Si / 1000 Ang^3
#
#
#
# Elastic Constant Matrix: (Units=GPa)
#
#
# Indices 1 2 3 4 5 6 
#
# 1 95.8587 59.7099 59.3715 -0.0005 3.6818 -0.0007
# 2 59.7099 107.6634 53.7485 -0.0014 20.8762 -0.0021
# 3 59.3715 53.7485 92.7287 0.0001 0.9767 -0.0009
# 4 -0.0005 -0.0014 0.0001 21.0795 0.0000 -8.5385
# 5 3.6818 20.8762 0.9767 0.0000 24.3393 0.0004
# 6 -0.0007 -0.0021 -0.0009 -8.5385 0.0004 13.0267
#
#
#
# Elastic Compliance Matrix: (Units=1/GPa)
#
#
# Indices 1 2 3 4 5 6 
#
# 1 0.020503 -0.007830 -0.008630 -0.000001 0.003961 -0.000001
# 2 -0.007830 0.019782 -0.006289 0.000003 -0.015530 0.000005
# 3 -0.008630 -0.006289 0.019893 -0.000001 0.005902 -0.000001
# 4 -0.000001 0.000003 -0.000001 0.064588 -0.000003 0.042335
# 5 0.003961 -0.015530 0.005902 -0.000003 0.053570 -0.000006
# 6 -0.000001 0.000005 -0.000001 0.042335 -0.000006 0.104514
#
#
# Mechanical properties :
#
#
# Convention : Reuss Voigt Hill
#
# Bulk Modulus (GPa) = 68.12809 71.32339 69.72574
# Shear Modulus (GPa) = 15.00410 19.91716 17.46063
#
# Velocity S-wave (km/s) = 2.97101 3.42305 3.20501
# Velocity P-wave (km/s) = 7.20063 7.58832 7.39702
#
# Compressibility (1/GPa) = 0.01467823
#
# Stress axis : x y z
#
# Youngs Moduli (GPa) = 48.77427 50.55103 50.26873
#
# Poissons Ratio (x) = 0.39583 0.43383
# Poissons Ratio (y) = 0.38192 0.31615
# Poissons Ratio (z) = 0.42093 0.31792
#
# Static dielectric constant tensor:
#      x y z
#    x 1.547260 0.000000 -0.020650 
#    y 0.000000 1.597180 0.000000 
#    z -0.020650 0.000000 1.573260 
# 
# From -- ./inp_files/172614.got.cif
#   From: 2010.05.17/outbox.cif.g08.bks.cpg/sg12_87_cif.got.tgz:172614.got - 2010.06.03 13:09:07.
