data_PCOD9180157
_publ_section_title
;
Structure prediction by ZEFSAII (Michael W. Deem and Ramdas Pophale) SiO2 
 PCOD9180157
Probable space group: C 2/M
;
_chemical_formula_sum "Si O2"
_cell_formula_units_Z 52
_cell_length_a 11.869628
_cell_length_b 18.175184
_cell_length_c 12.606726
_cell_angle_alpha 90.000000
_cell_angle_beta 116.610885
_cell_angle_gamma 90.000000
_cell_volume 2431.584413
_symmetry_space_group_name_H-M "C 2/M"
_symmetry_group_IT_number 12
_symmetry_cell_setting 'monoclinic'
loop_
_space_group_symop_operation_xyz
x,y,z
-x,y,-z
-x,-y,-z
x,-y,z
1/2+x,1/2+y,z
1/2-x,1/2+y,-z
1/2-x,1/2-y,-z
1/2+x,1/2-y,z
loop_
_atom_site_type_symbol
_atom_site_label
_atom_site_fract_x
_atom_site_fract_y
_atom_site_fract_z
Si Si1 0.694749 0.168200 0.992730
Si Si2 0.225110 0.173069 0.584338
Si Si3 0.465793 0.761975 0.802143
Si Si4 0.375665 0.365908 0.244043
Si Si5 0.019971 0.000000 0.193359
Si Si6 0.681642 0.368733 0.163778
Si Si7 0.354891 0.838788 0.435781
O O1 0.551232 0.179672 0.899725
O O2 0.763953 0.122087 0.930224
O O3 0.750000 0.250000 0.000000
O O4 0.742354 0.140307 0.125400
O O5 0.359702 0.197367 0.689945
O O6 0.149850 0.130029 0.642225
O O7 0.259208 0.133721 0.488173
O O8 0.152130 0.250981 0.544658
O O9 0.548344 0.708637 0.759166
O O10 0.398969 0.706093 0.855772
O O11 0.449469 0.435039 0.231798
O O12 0.095449 0.936033 0.158336
O O13 0.793301 0.358391 0.297205
O O14 0.500000 0.863061 0.500000
#
# Coordination Sequence:
#
# PCOD9180157 Si02
#       7
#     8   8   8   8   4   8   8
#     4  10  19  31  54  86 113 137 177 231 283 331
#     4  10  19  32  55  84 115 143 174 230 298 337
#     4   9  17  32  53  83 112 135 175 232 289 336
#     4  10  21  34  53  82 112 147 186 224 274 334
#     4  10  24  43  56  77 115 157 200 226 259 339
#     4  10  21  36  55  80 111 153 189 224 277 326
#     4  10  19  34  57  85 112 140 183 237 289 337
#
# _framework density 21.385234000000001
#
# number of rings (size 3 to 8) (size 9 to 14) (size 15 to 20)
#    0.000    2.154    0.000    5.538    0.000   11.077 
#    0.000    1.923    0.000    4.615    0.000    0.000 
#    0.000    0.000    0.000    0.000    0.000    0.000 
#
# Total GULP energy -144776.889816 kJ/mol
# GULP energy per Si atom -5568.341916 kJ/mol
# Density = 2.133656 g / cm^3
# Si number density = 21.385234 Si / 1000 Ang^3
#
#
#
# Elastic Constant Matrix: (Units=GPa)
#
#
# Indices 1 2 3 4 5 6 
#
# 1 86.5534 18.4568 25.0182 0.0000 -9.6029 0.0000
# 2 18.4568 53.7085 -0.9982 0.0000 -10.9813 0.0000
# 3 25.0182 -0.9982 64.6161 0.0000 -17.2586 0.0000
# 4 0.0000 0.0000 0.0000 -1.7004 0.0000 -10.0485
# 5 -9.6029 -10.9813 -17.2586 0.0000 34.8441 0.0000
# 6 0.0000 0.0000 0.0000 -10.0485 0.0000 10.8396
#
#
#
# Elastic Compliance Matrix: (Units=1/GPa)
#
#
# Indices 1 2 3 4 5 6 
#
# 1 0.014242 -0.005108 -0.005733 0.000000 -0.000524 0.000000
# 2 -0.005108 0.022031 0.004375 0.000000 0.007702 0.000000
# 3 -0.005733 0.004375 0.020410 0.000000 0.009908 0.000000
# 4 0.000000 0.000000 0.000000 -0.090781 0.000000 -0.084156
# 5 -0.000524 0.007702 0.009908 0.000000 0.035890 0.000000
# 6 0.000000 0.000000 0.000000 -0.084156 0.000000 0.014240
#
#
# Mechanical properties :
#
#
# Convention : Reuss Voigt Hill
#
# Bulk Modulus (GPa) = 22.85691 32.20352 27.53021
# Shear Modulus (GPa) = 114.82093 19.62342 67.22217
#
# Velocity S-wave (km/s) = 7.33541 3.03250 5.61268
# Velocity P-wave (km/s) = 9.08051 5.23000 7.40974
#
# Compressibility (1/GPa) = 0.04375045
#
# Stress axis : x y z
#
# Youngs Moduli (GPa) = 70.21603 45.39161 48.99618
#
# Poissons Ratio (x) = 0.23186 0.28090
# Poissons Ratio (y) = 0.35866 -0.21437
# Poissons Ratio (z) = 0.40256 -0.19860
#
# Static dielectric constant tensor:
#      x y z
#    x 1.862330 0.000000 -0.004390 
#    y 0.000000 1.738500 0.000000 
#    z -0.004390 0.000000 1.843750 
# 
# From -- ./inp_files/133355.got.cif
#   From: 2010.05.17/outbox.cif.g08.bks.cpg/sg12_67_cif.got.tgz:133355.got - 2010.06.03 13:09:07.
