data_PCOD9180255
_publ_section_title
;
Structure prediction by ZEFSAII (Michael W. Deem and Ramdas Pophale) SiO2 
 PCOD9180255
Probable space group: C 2/M
;
_chemical_formula_sum "Si O2"
_cell_formula_units_Z 64
_cell_length_a 28.830545
_cell_length_b 16.559393
_cell_length_c 9.046558
_cell_angle_alpha 90.000000
_cell_angle_beta 133.352211
_cell_angle_gamma 90.000000
_cell_volume 3140.531496
_symmetry_space_group_name_H-M "C 2/M"
_symmetry_group_IT_number 12
_symmetry_cell_setting 'monoclinic'
loop_
_space_group_symop_operation_xyz
x,y,z
-x,y,-z
-x,-y,-z
x,-y,z
1/2+x,1/2+y,z
1/2-x,1/2+y,-z
1/2-x,1/2-y,-z
1/2+x,1/2-y,z
loop_
_atom_site_type_symbol
_atom_site_label
_atom_site_fract_x
_atom_site_fract_y
_atom_site_fract_z
Si Si1 0.218108 0.800483 0.150283
Si Si2 0.531885 0.406480 0.869419
Si Si3 0.172982 0.910870 0.648296
Si Si4 0.653907 0.331972 0.303242
Si Si5 0.452478 0.756652 0.774727
Si Si6 0.701750 0.861361 0.924599
Si Si7 0.593087 0.343218 0.727100
Si Si8 0.936187 0.663098 0.422541
O O1 0.206297 0.805387 0.297941
O O2 0.280413 0.832474 0.202991
O O3 0.206498 0.714288 0.048005
O O4 0.159298 0.852422 0.959839
O O5 0.513171 0.500000 0.856371
O O6 0.484702 0.332025 0.808433
O O7 0.545212 0.394118 0.723279
O O8 0.597835 0.386016 0.102768
O O9 0.183711 0.875574 0.509753
O O10 0.118339 0.863647 0.619278
O O11 0.147356 0.000000 0.576915
O O12 0.239174 0.912225 0.884333
O O13 0.614197 0.258714 0.288479
O O14 0.444407 0.809862 0.610751
O O15 0.500000 0.793966 0.000000
O O16 0.628314 0.885663 0.753658
O O17 0.571309 0.250193 0.678025
O O18 0.000000 0.623932 0.500000
#
# Coordination Sequence:
#
# PCOD9180255 Si02
#       8
#     8   8   8   8   8   8   8   8
#     4   8  17  34  54  74 103 132 176 225 270 314
#     4  10  19  32  46  67 108 158 193 214 246 301
#     4  11  21  34  52  80 112 142 181 222 264 323
#     4  10  20  32  49  75 106 145 177 215 269 312
#     4  10  21  32  45  72 108 143 180 219 257 310
#     4   9  20  36  56  79 101 136 181 229 269 309
#     4   9  17  32  51  74  99 141 184 226 260 301
#     4  11  19  36  56  75 106 135 179 227 270 314
#
# _framework density 20.378717000000002
#
# number of rings (size 3 to 8) (size 9 to 14) (size 15 to 20)
#    0.000    2.250    2.500    1.500    1.750    3.250 
#    0.000    1.250    0.000    0.375    0.000    0.000 
#    0.000    1.500    0.000    0.000    0.000    0.000 
#
# Total GULP energy -178216.865351 kJ/mol
# GULP energy per Si atom -5569.277042 kJ/mol
# Density = 2.033233 g / cm^3
# Si number density = 20.378717 Si / 1000 Ang^3
#
#
#
# Elastic Constant Matrix: (Units=GPa)
#
#
# Indices 1 2 3 4 5 6 
#
# 1 109.9826 19.0325 31.9184 0.0000 -11.0980 0.0000
# 2 19.0325 12.0252 3.0339 0.0000 -8.7895 0.0000
# 3 31.9184 3.0339 108.5821 0.0000 -1.4762 0.0000
# 4 0.0000 0.0000 0.0000 8.3539 0.0000 -0.5393
# 5 -11.0980 -8.7895 -1.4762 0.0000 34.0682 0.0000
# 6 0.0000 0.0000 0.0000 -0.5393 0.0000 -3.3394
#
#
#
# Elastic Compliance Matrix: (Units=1/GPa)
#
#
# Indices 1 2 3 4 5 6 
#
# 1 0.013738 -0.021829 -0.003446 0.000000 -0.001306 0.000000
# 2 -0.021829 0.137855 0.002953 0.000000 0.028583 0.000000
# 3 -0.003446 0.002953 0.010141 0.000000 0.000079 0.000000
# 4 0.000000 0.000000 0.000000 0.118469 0.000000 -0.019133
# 5 -0.001306 0.028583 0.000079 0.000000 0.036305 0.000000
# 6 0.000000 0.000000 0.000000 -0.019133 0.000000 -0.296362
#
#
# Mechanical properties :
#
#
# Convention : Reuss Voigt Hill
#
# Bulk Modulus (GPa) = 8.54034 37.61773 23.07903
# Shear Modulus (GPa) = 48.16005 19.59022 33.87514
#
# Velocity S-wave (km/s) = 4.86660 3.10386 4.08153
# Velocity P-wave (km/s) = 5.98150 5.59863 5.79323
#
# Compressibility (1/GPa) = 0.11709136
#
# Stress axis : x y z
#
# Youngs Moduli (GPa) = 72.78966 7.25400 98.60748
#
# Poissons Ratio (x) = 0.15835 0.33983
# Poissons Ratio (y) = 1.58891 -0.29124
# Poissons Ratio (z) = 0.25085 -0.02142
#
# Static dielectric constant tensor:
#      x y z
#    x 2.055390 0.000000 0.043760 
#    y 0.000000 1.709360 0.000000 
#    z 0.043760 0.000000 1.812530 
# 
# From -- ./inp_files/106405.got.cif
#   From: 2010.05.17/outbox.cif.g08.bks.cpg/sg12_54_cif.got.tgz:106405.got - 2010.06.03 13:09:07.
