data_PCOD9180560
_publ_section_title
;
Structure prediction by ZEFSAII (Michael W. Deem and Ramdas Pophale) SiO2 
 PCOD9180560
Probable space group: C 2/M
;
_chemical_formula_sum "Si O2"
_cell_formula_units_Z 56
_cell_length_a 15.128624
_cell_length_b 7.610666
_cell_length_c 24.070766
_cell_angle_alpha 90.000000
_cell_angle_beta 117.434197
_cell_angle_gamma 90.000000
_cell_volume 2459.802342
_symmetry_space_group_name_H-M "C 2/M"
_symmetry_group_IT_number 12
_symmetry_cell_setting 'monoclinic'
loop_
_space_group_symop_operation_xyz
x,y,z
-x,y,-z
-x,-y,-z
x,-y,z
1/2+x,1/2+y,z
1/2-x,1/2+y,-z
1/2-x,1/2-y,-z
1/2+x,1/2-y,z
loop_
_atom_site_type_symbol
_atom_site_label
_atom_site_fract_x
_atom_site_fract_y
_atom_site_fract_z
Si Si1 0.736221 0.211258 0.931691
Si Si2 0.721824 0.211108 0.664177
Si Si3 0.475183 0.790423 0.331673
Si Si4 0.804890 0.791783 0.572975
Si Si5 0.310406 0.789298 0.801672
Si Si6 0.936601 0.301741 0.932303
Si Si7 0.603508 0.799841 0.801413
O O1 0.827411 0.304735 0.927774
O O2 0.635556 0.271500 0.870999
O O3 0.743575 0.000000 0.925883
O O4 0.750000 0.250000 0.000000
O O5 0.616819 0.278561 0.658275
O O6 0.750173 0.281374 0.612014
O O7 0.804301 0.252253 0.734772
O O8 0.713646 0.000000 0.658210
O O9 0.580448 0.763754 0.390753
O O10 0.467574 0.718065 0.266158
O O11 0.460190 0.000000 0.321626
O O12 0.750000 0.750000 0.500000
O O13 0.804586 0.000000 0.578351
O O14 0.408477 0.727650 0.863615
O O15 0.210849 0.703886 0.799699
O O16 0.304049 0.000000 0.807563
O O17 0.978231 0.500000 0.936498
O O18 0.000000 0.213860 0.000000
O O19 0.569716 0.000000 0.801679
#
# Coordination Sequence:
#
# PCOD9180560 Si02
#       7
#     8   8   8   8   8   8   8
#     4  10  19  32  50  73 103 141 183 227 275 330
#     4   9  20  39  60  81 113 153 186 221 280 343
#     4   9  18  37  62  84 108 146 190 228 273 336
#     4  11  24  41  60  86 119 151 183 229 279 332
#     4   9  16  28  52  80 102 134 181 230 271 317
#     4   9  18  33  50  71 104 141 178 225 278 330
#     4   8  16  32  53  74 102 143 182 220 274 335
#
# _framework density 22.766055999999999
#
# number of rings (size 3 to 8) (size 9 to 14) (size 15 to 20)
#    0.000    2.714    0.000    2.143    0.000    5.429 
#    2.571    2.857    0.000    0.000    0.000    0.000 
#    0.000    0.000    0.000    0.000    0.000    0.000 
#
# Total GULP energy -156101.748009 kJ/mol
# GULP energy per Si atom -5575.062429 kJ/mol
# Density = 2.271424 g / cm^3
# Si number density = 22.766056 Si / 1000 Ang^3
#
#
#
# Elastic Constant Matrix: (Units=GPa)
#
#
# Indices 1 2 3 4 5 6 
#
# 1 69.7668 0.4141 68.3357 0.0000 0.6083 0.0000
# 2 0.4141 65.1122 -9.1207 0.0000 -1.7416 0.0000
# 3 68.3357 -9.1207 245.9619 0.0000 2.3428 0.0000
# 4 0.0000 0.0000 0.0000 18.3861 0.0000 -2.4376
# 5 0.6083 -1.7416 2.3428 0.0000 36.6854 0.0000
# 6 0.0000 0.0000 0.0000 -2.4376 0.0000 11.1408
#
#
#
# Elastic Compliance Matrix: (Units=1/GPa)
#
#
# Indices 1 2 3 4 5 6 
#
# 1 0.019745 -0.000899 -0.005519 0.000000 -0.000018 0.000000
# 2 -0.000899 0.015497 0.000818 0.000000 0.000698 0.000000
# 3 -0.005519 0.000818 0.005631 0.000000 -0.000229 0.000000
# 4 0.000000 0.000000 0.000000 0.056014 0.000000 0.012256
# 5 -0.000018 0.000698 -0.000229 0.000000 0.027307 0.000000
# 6 0.000000 0.000000 0.000000 0.012256 0.000000 0.092442
#
#
# Mechanical properties :
#
#
# Convention : Reuss Voigt Hill
#
# Bulk Modulus (GPa) = 33.70082 55.56658 44.63370
# Shear Modulus (GPa) = 21.03253 34.65658 27.84456
#
# Velocity S-wave (km/s) = 3.04280 3.90589 3.50104
# Velocity P-wave (km/s) = 5.21345 6.69342 5.99925
#
# Compressibility (1/GPa) = 0.02967287
#
# Stress axis : x y z
#
# Youngs Moduli (GPa) = 50.64686 64.52835 177.57335
#
# Poissons Ratio (x) = 0.05802 0.97999
# Poissons Ratio (y) = 0.04554 -0.14522
# Poissons Ratio (z) = 0.27951 -0.05277
#
# Static dielectric constant tensor:
#      x y z
#    x 1.850250 0.000000 -0.036600 
#    y 0.000000 1.902550 0.000000 
#    z -0.036600 0.000000 1.854670 
# 
# From -- ./inp_files/339009.got.cif
#   From: 2010.05.17/outbox.cif.g08.bks.cpg/sg12_170_cif.got.tgz:339009.got - 2010.06.03 13:09:07.
