data_PCOD9180870
_publ_section_title
;
Structure prediction by ZEFSAII (Michael W. Deem and Ramdas Pophale) SiO2 
 PCOD9180870
Probable space group: C 2/M
;
_chemical_formula_sum "Si O2"
_cell_formula_units_Z 56
_cell_length_a 19.732120
_cell_length_b 21.600957
_cell_length_c 8.435321
_cell_angle_alpha 90.000000
_cell_angle_beta 55.427109
_cell_angle_gamma 90.000000
_cell_volume 2960.477918
_symmetry_space_group_name_H-M "C 2/M"
_symmetry_group_IT_number 12
_symmetry_cell_setting 'monoclinic'
loop_
_space_group_symop_operation_xyz
x,y,z
-x,y,-z
-x,-y,-z
x,-y,z
1/2+x,1/2+y,z
1/2-x,1/2+y,-z
1/2-x,1/2-y,-z
1/2+x,1/2-y,z
loop_
_atom_site_type_symbol
_atom_site_label
_atom_site_fract_x
_atom_site_fract_y
_atom_site_fract_z
Si Si1 0.679036 0.169800 0.009570
Si Si2 0.094609 0.072397 0.356331
Si Si3 0.716948 0.570027 0.933476
Si Si4 0.097258 0.569631 0.904053
Si Si5 0.794572 0.619578 0.527908
Si Si6 0.812073 0.178872 0.586633
Si Si7 0.594656 0.788879 0.417228
O O1 0.731340 0.121540 0.043766
O O2 0.637477 0.215811 0.187758
O O3 0.616753 0.125295 0.998058
O O4 0.739163 0.200258 0.802046
O O5 0.152148 0.114608 0.390718
O O6 0.000000 0.091363 0.500000
O O7 0.101627 0.000000 0.391675
O O8 0.126750 0.077608 0.131819
O O9 0.742676 0.500000 0.939797
O O10 0.737003 0.580524 0.722928
O O11 0.116847 0.500000 0.937314
O O12 0.154617 0.582475 0.673866
O O13 0.000000 0.571105 0.000000
O O14 0.733024 0.666423 0.518691
O O15 0.862623 0.655429 0.542671
O O16 0.884242 0.228646 0.506706
O O17 0.500000 0.798538 0.500000
#
# Coordination Sequence:
#
# PCOD9180870 Si02
#       7
#     8   8   8   8   8   8   8
#     4   9  19  33  51  74 100 134 177 215 252 308
#     4   9  18  34  56  81 107 136 175 219 262 312
#     4   9  17  31  52  76 103 136 170 208 257 313
#     4  10  19  32  51  76 107 141 176 216 262 308
#     4  10  21  34  51  77 107 137 174 219 262 312
#     4  10  20  35  55  75 102 139 177 213 260 318
#     4  11  21  35  54  75 102 135 174 220 266 310
#
# _framework density 18.915863999999999
#
# number of rings (size 3 to 8) (size 9 to 14) (size 15 to 20)
#    0.000    2.286    0.000    3.000    0.000    4.000 
#    0.000    0.714    0.000   12.857    0.000    0.000 
#    0.000    0.000    0.000    0.000    0.000    0.000 
#
# Total GULP energy -155988.674879 kJ/mol
# GULP energy per Si atom -5571.024103 kJ/mol
# Density = 1.887281 g / cm^3
# Si number density = 18.915864 Si / 1000 Ang^3
#
#
#
# Elastic Constant Matrix: (Units=GPa)
#
#
# Indices 1 2 3 4 5 6 
#
# 1 89.8089 16.3817 29.3655 0.0000 -12.8236 0.0000
# 2 16.3817 33.7192 -0.0366 0.0000 -8.7892 0.0000
# 3 29.3655 -0.0366 74.9573 0.0000 -9.7441 0.0000
# 4 0.0000 0.0000 0.0000 15.3863 0.0000 0.9718
# 5 -12.8236 -8.7892 -9.7441 0.0000 20.8424 0.0000
# 6 0.0000 0.0000 0.0000 0.9718 0.0000 36.5285
#
#
#
# Elastic Compliance Matrix: (Units=1/GPa)
#
#
# Indices 1 2 3 4 5 6 
#
# 1 0.014485 -0.006009 -0.005162 0.000000 0.003965 0.000000
# 2 -0.006009 0.036085 0.004120 0.000000 0.013446 0.000000
# 3 -0.005162 0.004120 0.016160 0.000000 0.006116 0.000000
# 4 0.000000 0.000000 0.000000 0.065102 0.000000 -0.001732
# 5 0.003965 0.013446 0.006116 0.000000 0.058948 0.000000
# 6 0.000000 0.000000 0.000000 -0.001732 0.000000 0.027422
#
#
# Mechanical properties :
#
#
# Convention : Reuss Voigt Hill
#
# Bulk Modulus (GPa) = 19.00160 32.21186 25.60673
# Shear Modulus (GPa) = 20.01208 24.73642 22.37425
#
# Velocity S-wave (km/s) = 3.25615 3.62015 3.44296
# Velocity P-wave (km/s) = 4.91973 5.87707 5.41958
#
# Compressibility (1/GPa) = 0.05262714
#
# Stress axis : x y z
#
# Youngs Moduli (GPa) = 69.03735 27.71199 61.87958
#
# Poissons Ratio (x) = 0.16653 0.31944
# Poissons Ratio (y) = 0.41487 -0.25493
# Poissons Ratio (z) = 0.35639 -0.11417
#
# Static dielectric constant tensor:
#      x y z
#    x 1.642380 0.000000 -0.001160 
#    y 0.000000 1.669340 0.000000 
#    z -0.001160 0.000000 1.683630 
# 
# From -- ./inp_files/79579.got.cif
#   From: 2010.05.17/outbox.cif.g08.bks.cpg/sg12_40_cif.got.tgz:79579.got - 2010.06.03 13:09:07.
