data_PCOD9180489
_publ_section_title
;
Structure prediction by ZEFSAII (Michael W. Deem and Ramdas Pophale) SiO2 
 PCOD9180489
Probable space group: C 2/M
;
_chemical_formula_sum "Si O2"
_cell_formula_units_Z 64
_cell_length_a 31.982290
_cell_length_b 22.766138
_cell_length_c 5.001799
_cell_angle_alpha 90.000000
_cell_angle_beta 85.469793
_cell_angle_gamma 90.000000
_cell_volume 3630.498177
_symmetry_space_group_name_H-M "C 2/M"
_symmetry_group_IT_number 12
_symmetry_cell_setting 'monoclinic'
loop_
_space_group_symop_operation_xyz
x,y,z
-x,y,-z
-x,-y,-z
x,-y,z
1/2+x,1/2+y,z
1/2-x,1/2+y,-z
1/2-x,1/2-y,-z
1/2+x,1/2-y,z
loop_
_atom_site_type_symbol
_atom_site_label
_atom_site_fract_x
_atom_site_fract_y
_atom_site_fract_z
Si Si1 0.252024 0.931953 0.783572
Si Si2 0.619901 0.433284 0.668031
Si Si3 0.958226 0.939042 0.691797
Si Si4 0.601183 0.314865 0.863644
Si Si5 0.807783 0.243033 0.198760
Si Si6 0.696614 0.432483 0.297172
Si Si7 0.044946 0.191245 0.358515
Si Si8 0.218672 0.687121 0.301933
O O1 0.233923 0.931345 0.493437
O O2 0.285989 0.880594 0.779896
O O3 0.263136 0.000000 0.843134
O O4 0.214983 0.912940 0.007156
O O5 0.630985 0.500000 0.754225
O O6 0.580320 0.438686 0.493971
O O7 0.610326 0.385381 0.899796
O O8 0.656936 0.405982 0.466946
O O9 0.963613 0.872166 0.780826
O O10 0.000000 0.945053 0.500000
O O11 0.954234 0.000000 0.863213
O O12 0.646702 0.285604 0.813886
O O13 0.574925 0.312748 0.601801
O O14 0.573858 0.282689 0.107537
O O15 0.802661 0.296493 0.409374
O O16 0.768844 0.200358 0.296487
O O17 0.798619 0.268174 0.909898
O O18 0.683769 0.500000 0.261830
O O19 0.000000 0.212430 0.500000
#
# Coordination Sequence:
#
# PCOD9180489 Si02
#       8
#     8   8   8   8   8   8   8   8
#     4  10  19  32  50  71  94 123 156 192 236 278
#     4   9  18  30  45  65  87 114 150 200 252 287
#     4   8  15  28  43  59  81 109 142 183 237 297
#     4  11  21  34  52  69  91 120 160 199 238 297
#     4  10  21  34  49  70  94 130 165 196 237 274
#     4   9  18  29  43  66  93 117 148 190 235 280
#     4  10  21  35  50  68  89 116 152 199 248 291
#     4  10  20  34  50  69  99 127 161 201 231 277
#
# _framework density 17.628435
#
# number of rings (size 3 to 8) (size 9 to 14) (size 15 to 20)
#    0.000    2.375    0.000    2.625    0.000    6.500 
#    0.000    3.750    0.000    7.500    0.000    0.000 
#    0.000    0.000    0.000    0.000    0.000   43.750 
#
# Total GULP energy -178271.929023 kJ/mol
# GULP energy per Si atom -5570.997782 kJ/mol
# Density = 1.758831 g / cm^3
# Si number density = 17.628435 Si / 1000 Ang^3
#
#
#
# Elastic Constant Matrix: (Units=GPa)
#
#
# Indices 1 2 3 4 5 6 
#
# 1 82.3468 22.3341 22.5206 0.0000 -6.2557 0.0000
# 2 22.3341 42.6980 9.5623 0.0000 -11.1998 0.0000
# 3 22.5206 9.5623 80.4370 0.0000 -5.3640 0.0000
# 4 0.0000 0.0000 0.0000 17.0556 0.0000 -4.5881
# 5 -6.2557 -11.1998 -5.3640 0.0000 24.4369 0.0000
# 6 0.0000 0.0000 0.0000 -4.5881 0.0000 15.9597
#
#
#
# Elastic Compliance Matrix: (Units=1/GPa)
#
#
# Indices 1 2 3 4 5 6 
#
# 1 0.014983 -0.007129 -0.003359 0.000000 -0.000169 0.000000
# 2 -0.007129 0.030472 -0.000829 0.000000 0.011959 0.000000
# 3 -0.003359 -0.000829 0.013587 0.000000 0.001743 0.000000
# 4 0.000000 0.000000 0.000000 0.063546 0.000000 0.018268
# 5 -0.000169 0.011959 0.001743 0.000000 0.046742 0.000000
# 6 0.000000 0.000000 0.000000 0.018268 0.000000 0.067910
#
#
# Mechanical properties :
#
#
# Convention : Reuss Voigt Hill
#
# Bulk Modulus (GPa) = 27.46636 34.92396 31.19516
# Shear Modulus (GPa) = 18.38171 21.56143 19.97157
#
# Velocity S-wave (km/s) = 3.23264 3.50109 3.36954
# Velocity P-wave (km/s) = 5.43579 6.01645 5.73347
#
# Compressibility (1/GPa) = 0.03640817
#
# Stress axis : x y z
#
# Youngs Moduli (GPa) = 66.74191 32.81717 73.59865
#
# Poissons Ratio (x) = 0.23397 0.24719
# Poissons Ratio (y) = 0.47583 0.06101
# Poissons Ratio (z) = 0.22416 0.02720
#
# Static dielectric constant tensor:
#      x y z
#    x 1.620430 0.000000 -0.027150 
#    y 0.000000 1.667640 0.000000 
#    z -0.027150 0.000000 1.664790 
# 
# From -- ./inp_files/32487.got.cif
#   From: 2010.05.17/outbox.cif.g08.bks.cpg/sg12_17_cif.got.tgz:32487.got - 2010.06.03 13:09:07.
