data_PCOD9180124
_publ_section_title
;
Structure prediction by ZEFSAII (Michael W. Deem and Ramdas Pophale) SiO2 
 PCOD9180124
Probable space group: C 2/M
;
_chemical_formula_sum "Si O2"
_cell_formula_units_Z 40
_cell_length_a 8.032672
_cell_length_b 13.754350
_cell_length_c 22.701982
_cell_angle_alpha 90.000000
_cell_angle_beta 38.986638
_cell_angle_gamma 90.000000
_cell_volume 1578.013016
_symmetry_space_group_name_H-M "C 2/M"
_symmetry_group_IT_number 12
_symmetry_cell_setting 'monoclinic'
loop_
_space_group_symop_operation_xyz
x,y,z
-x,y,-z
-x,-y,-z
x,-y,z
1/2+x,1/2+y,z
1/2-x,1/2+y,-z
1/2-x,1/2-y,-z
1/2+x,1/2-y,z
loop_
_atom_site_type_symbol
_atom_site_label
_atom_site_fract_x
_atom_site_fract_y
_atom_site_fract_z
Si Si1 0.991315 0.616201 0.282269
Si Si2 0.183403 0.392690 0.892122
Si Si3 0.895731 0.618026 0.619479
Si Si4 0.916309 0.118026 0.402630
Si Si5 0.196714 0.688387 0.106260
O O1 0.972812 0.500000 0.292982
O O2 0.694536 0.652927 0.350473
O O3 0.089653 0.652311 0.318047
O O4 0.165118 0.636350 0.177269
O O5 0.303024 0.500000 0.846873
O O6 0.359117 0.301446 0.863603
O O7 0.001329 0.357594 0.887378
O O8 0.000000 0.403954 0.000000
O O9 0.895998 0.500000 0.619522
O O10 0.648600 0.646108 0.646686
O O11 0.166268 0.645658 0.511416
O O12 0.925382 0.000000 0.401299
O O13 0.500000 0.681401 0.000000
#
# Coordination Sequence:
#
# PCOD9180124 Si02
#       5
#     8   8   8   8   8
#     4  10  19  31  53  91 135 181 229 281 345 413
#     4  10  22  44  72  98 130 179 233 289 353 407
#     4   8  14  27  49  81 126 177 226 285 350 408
#     4   8  14  27  48  81 127 175 228 286 346 411
#     4  11  23  43  66  98 139 180 230 283 339 417
#
# _framework density 25.348334000000001
#
# number of rings (size 3 to 8) (size 9 to 14) (size 15 to 20)
#    0.000    2.600    0.000    4.800    0.000    4.000 
#    7.200    2.000    0.000    0.600    0.000    5.600 
#    0.000    3.200    0.000    2.400    0.000    0.400 
#
# Total GULP energy -112010.768368 kJ/mol
# GULP energy per Si atom -5600.538418 kJ/mol
# Density = 2.529064 g / cm^3
# Si number density = 25.348334 Si / 1000 Ang^3
#
#
#
# Elastic Constant Matrix: (Units=GPa)
#
#
# Indices 1 2 3 4 5 6 
#
# 1 145.8591 32.9024 105.7501 -0.0034 36.0813 -0.0009
# 2 32.9024 119.6468 -6.0515 -0.0007 10.0024 0.0092
# 3 105.7501 -6.0515 134.2438 0.0023 17.4335 0.0245
# 4 -0.0034 -0.0007 0.0023 -10.0231 0.0023 3.9627
# 5 36.0813 10.0024 17.4335 0.0023 52.6200 -0.0050
# 6 -0.0009 0.0092 0.0245 3.9627 -0.0050 -43.8097
#
#
#
# Elastic Compliance Matrix: (Units=1/GPa)
#
#
# Indices 1 2 3 4 5 6 
#
# 1 0.023041 -0.006472 -0.017294 -0.000018 -0.008839 -0.000012
# 2 -0.006472 0.010360 0.005481 0.000005 0.000653 0.000006
# 3 -0.017294 0.005481 0.020810 0.000017 0.003922 0.000014
# 4 -0.000018 0.000005 0.000017 -0.103470 0.000010 -0.009359
# 5 -0.008839 0.000653 0.003922 0.000010 0.023642 0.000001
# 6 -0.000012 0.000006 0.000014 -0.009359 0.000001 -0.023673
#
#
# Mechanical properties :
#
#
# Convention : Reuss Voigt Hill
#
# Bulk Modulus (GPa) = 56.68868 73.88353 65.28611
# Shear Modulus (GPa) = -731.29559 17.56735 -356.86412
#
# Velocity S-wave (km/s) = -17.00367 2.63542 -11.87812
# Velocity P-wave (km/s) = 19.05485 6.20251 12.74002
#
# Compressibility (1/GPa) = 0.01764020
#
# Stress axis : x y z
#
# Youngs Moduli (GPa) = 43.40062 96.52194 48.05272
#
# Poissons Ratio (x) = 0.62469 0.83105
# Poissons Ratio (y) = 0.28089 -0.26336
# Poissons Ratio (z) = 0.75059 -0.52899
#
# Static dielectric constant tensor:
#      x y z
#    x 1.964550 0.000000 -0.019430 
#    y 0.000000 2.068590 0.000000 
#    z -0.019430 0.000000 1.929930 
# 
# From -- ./inp_files/300581.got.cif
#   From: 2010.05.17/outbox.cif.g08.bks.cpg/sg12_151_cif.got.tgz:300581.got - 2010.06.03 13:09:07.
