data_PCOD9180394
_publ_section_title
;
Structure prediction by ZEFSAII (Michael W. Deem and Ramdas Pophale) SiO2 
 PCOD9180394
Probable space group: C 2/M
;
_chemical_formula_sum "Si O2"
_cell_formula_units_Z 48
_cell_length_a 8.450331
_cell_length_b 25.441409
_cell_length_c 17.805584
_cell_angle_alpha 90.000000
_cell_angle_beta 137.126507
_cell_angle_gamma 90.000000
_cell_volume 2604.496946
_symmetry_space_group_name_H-M "C 2/M"
_symmetry_group_IT_number 12
_symmetry_cell_setting 'monoclinic'
loop_
_space_group_symop_operation_xyz
x,y,z
-x,y,-z
-x,-y,-z
x,-y,z
1/2+x,1/2+y,z
1/2-x,1/2+y,-z
1/2-x,1/2-y,-z
1/2+x,1/2-y,z
loop_
_atom_site_type_symbol
_atom_site_label
_atom_site_fract_x
_atom_site_fract_y
_atom_site_fract_z
Si Si1 0.507654 0.000000 0.133230
Si Si2 0.523523 0.612568 0.884016
Si Si3 0.439117 0.794074 0.725534
Si Si4 0.372728 0.500000 0.125131
Si Si5 0.262524 0.716508 0.081664
Si Si6 0.008287 0.718382 0.421046
Si Si7 0.605429 0.890920 0.857018
O O1 0.697260 0.000000 0.133702
O O2 0.514709 0.947377 0.184003
O O3 0.263084 0.000000 0.002347
O O4 0.508035 0.557478 0.833993
O O5 0.559270 0.667665 0.854296
O O6 0.306970 0.613286 0.864871
O O7 0.758095 0.613110 0.016859
O O8 0.653606 0.757438 0.826204
O O9 0.486792 0.811913 0.656399
O O10 0.434819 0.843184 0.780275
O O11 0.206009 0.759572 0.652060
O O12 0.250000 0.750000 0.000000
O O13 0.000000 0.697290 0.000000
O O14 0.250000 0.750000 0.500000
O O15 0.000000 0.690677 0.500000
#
# Coordination Sequence:
#
# PCOD9180394 Si02
#       7
#     4   8   8   4   8   8   8
#     4   9  19  31  49  69  98 136 188 229 247 291
#     4  10  20  32  46  68 107 148 186 216 246 295
#     4  11  20  33  54  77 105 141 176 213 267 322
#     4   9  19  31  47  65  93 149 198 219 245 274
#     4  12  23  32  47  76 115 148 173 209 254 317
#     4   9  20  37  54  74  98 128 174 225 267 314
#     4  10  19  32  49  71 103 143 180 215 256 305
#
# _framework density 18.429663999999999
#
# number of rings (size 3 to 8) (size 9 to 14) (size 15 to 20)
#    0.000    1.833    1.667    3.500    4.667    2.000 
#    0.000    0.000    0.000    0.000    0.000    5.833 
#    0.000    5.333    0.000    1.333    0.000    0.000 
#
# Total GULP energy -133749.313434 kJ/mol
# GULP energy per Si atom -5572.888060 kJ/mol
# Density = 1.838772 g / cm^3
# Si number density = 18.429664 Si / 1000 Ang^3
#
#
#
# Elastic Constant Matrix: (Units=GPa)
#
#
# Indices 1 2 3 4 5 6 
#
# 1 48.5106 13.8884 8.3529 0.0000 0.8350 0.0000
# 2 13.8884 110.6699 10.9248 0.0000 -7.7505 0.0000
# 3 8.3529 10.9248 52.2880 0.0000 -5.2601 0.0000
# 4 0.0000 0.0000 0.0000 9.0144 0.0000 -4.1475
# 5 0.8350 -7.7505 -5.2601 0.0000 28.8378 0.0000
# 6 0.0000 0.0000 0.0000 -4.1475 0.0000 27.4196
#
#
#
# Elastic Compliance Matrix: (Units=1/GPa)
#
#
# Indices 1 2 3 4 5 6 
#
# 1 0.021927 -0.002573 -0.003157 0.000000 -0.001902 0.000000
# 2 -0.002573 0.009663 -0.001364 0.000000 0.002423 0.000000
# 3 -0.003157 -0.001364 0.020258 0.000000 0.003420 0.000000
# 4 0.000000 0.000000 0.000000 0.119232 0.000000 0.018035
# 5 -0.001902 0.002423 0.003420 0.000000 0.036007 0.000000
# 6 0.000000 0.000000 0.000000 0.018035 0.000000 0.039198
#
#
# Mechanical properties :
#
#
# Convention : Reuss Voigt Hill
#
# Bulk Modulus (GPa) = 26.55314 30.86675 28.70995
# Shear Modulus (GPa) = 18.31324 24.94118 21.62721
#
# Velocity S-wave (km/s) = 3.15569 3.68274 3.42936
# Velocity P-wave (km/s) = 5.26469 5.90493 5.59398
#
# Compressibility (1/GPa) = 0.03766033
#
# Stress axis : x y z
#
# Youngs Moduli (GPa) = 45.60583 103.48592 49.36285
#
# Poissons Ratio (x) = 0.26630 0.15581
# Poissons Ratio (y) = 0.11736 0.06734
# Poissons Ratio (z) = 0.14396 0.14117
#
# Static dielectric constant tensor:
#      x y z
#    x 1.658500 0.000000 -0.020200 
#    y 0.000000 1.684920 0.000000 
#    z -0.020200 0.000000 1.662400 
# 
# From -- ./inp_files/259037.got.cif
#   From: 2010.05.17/outbox.cif.g08.bks.cpg/sg12_130_cif.got.tgz:259037.got - 2010.06.03 13:09:07.
