data_PCOD9180362
_publ_section_title
;
Structure prediction by ZEFSAII (Michael W. Deem and Ramdas Pophale) SiO2 
 PCOD9180362
Probable space group: C 2/M
;
_chemical_formula_sum "Si O2"
_cell_formula_units_Z 56
_cell_length_a 19.686495
_cell_length_b 7.499272
_cell_length_c 19.457347
_cell_angle_alpha 90.000000
_cell_angle_beta 60.190020
_cell_angle_gamma 90.000000
_cell_volume 2492.471235
_symmetry_space_group_name_H-M "C 2/M"
_symmetry_group_IT_number 12
_symmetry_cell_setting 'monoclinic'
loop_
_space_group_symop_operation_xyz
x,y,z
-x,y,-z
-x,-y,-z
x,-y,z
1/2+x,1/2+y,z
1/2-x,1/2+y,-z
1/2-x,1/2-y,-z
1/2+x,1/2-y,z
loop_
_atom_site_type_symbol
_atom_site_label
_atom_site_fract_x
_atom_site_fract_y
_atom_site_fract_z
Si Si1 0.176176 0.206554 0.759253
Si Si2 0.580407 0.217156 0.423913
Si Si3 0.833364 0.280569 0.752024
Si Si4 0.424784 0.291559 0.311480
Si Si5 0.985178 0.282958 0.085494
Si Si6 0.165642 0.710870 0.511310
Si Si7 0.417391 0.798131 0.838023
O O1 0.250728 0.279913 0.762023
O O2 0.146225 0.279187 0.701011
O O3 0.098836 0.219441 0.845048
O O4 0.196863 0.000000 0.735239
O O5 0.500000 0.275603 0.500000
O O6 0.601442 0.275299 0.336724
O O7 0.648630 0.273498 0.442715
O O8 0.577749 0.000000 0.422219
O O9 0.833675 0.500000 0.755196
O O10 0.853981 0.216517 0.818214
O O11 0.435915 0.500000 0.289115
O O12 0.399543 0.276551 0.402511
O O13 0.503845 0.197571 0.248393
O O14 0.984160 0.500000 0.089300
O O15 0.051710 0.219367 0.105827
O O16 0.000000 0.229176 0.000000
O O17 0.157164 0.500000 0.513243
O O18 0.250000 0.750000 0.500000
O O19 0.391994 0.000000 0.866423
#
# Coordination Sequence:
#
# PCOD9180362 Si02
#       7
#     8   8   8   8   8   8   8
#     4   9  18  32  51  73  97 128 164 202 240 281
#     4   9  17  29  47  70  94 124 164 207 244 277
#     4   9  16  29  49  72  96 123 164 209 240 276
#     4  10  19  32  49  69  95 125 160 202 244 286
#     4   9  18  33  52  75 102 127 153 191 241 295
#     4  11  21  32  48  69  94 125 162 205 250 291
#     4   9  17  31  53  74  92 123 162 194 231 284
#
# _framework density 22.467659999999999
#
# number of rings (size 3 to 8) (size 9 to 14) (size 15 to 20)
#    0.000    2.571    0.000    2.571    0.000    5.429 
#    0.000    1.429    0.000    9.429    0.000    0.000 
#    0.000    0.000    0.000    0.000    0.000    0.000 
#
# Total GULP energy -156287.358533 kJ/mol
# GULP energy per Si atom -5581.691376 kJ/mol
# Density = 2.241652 g / cm^3
# Si number density = 22.467660 Si / 1000 Ang^3
#
#
#
# Elastic Constant Matrix: (Units=GPa)
#
#
# Indices 1 2 3 4 5 6 
#
# 1 125.4113 -1.1897 17.0571 0.0005 30.2994 -0.0007
# 2 -1.1897 65.9748 -9.1115 0.0009 2.9727 -0.0009
# 3 17.0571 -9.1115 73.2765 0.0004 35.3451 -0.0007
# 4 0.0005 0.0009 0.0004 8.6975 -0.0005 -6.3259
# 5 30.2994 2.9727 35.3451 -0.0005 35.4752 0.0006
# 6 -0.0007 -0.0009 -0.0007 -6.3259 0.0006 10.2015
#
#
#
# Elastic Compliance Matrix: (Units=1/GPa)
#
#
# Indices 1 2 3 4 5 6 
#
# 1 0.010639 0.001357 0.004101 -0.000001 -0.013286 0.000002
# 2 0.001357 0.016329 0.005648 -0.000001 -0.008154 0.000002
# 3 0.004101 0.005648 0.029480 -0.000001 -0.033348 0.000004
# 4 -0.000001 -0.000001 -0.000001 0.209433 0.000002 0.129869
# 5 -0.013286 -0.008154 -0.033348 0.000002 0.073445 -0.000007
# 6 0.000002 0.000002 0.000004 0.129869 -0.000007 0.178557
#
#
# Mechanical properties :
#
#
# Convention : Reuss Voigt Hill
#
# Bulk Modulus (GPa) = 12.71309 30.90827 21.81068
# Shear Modulus (GPa) = 9.58054 28.06861 18.82457
#
# Velocity S-wave (km/s) = 2.06722 3.53836 2.89771
# Velocity P-wave (km/s) = 3.37173 5.52087 4.57431
#
# Compressibility (1/GPa) = 0.07865908
#
# Stress axis : x y z
#
# Youngs Moduli (GPa) = 93.99542 61.24000 33.92136
#
# Poissons Ratio (x) = -0.08309 -0.13911
# Poissons Ratio (y) = -0.12754 -0.19158
# Poissons Ratio (z) = -0.38546 -0.34588
#
# Static dielectric constant tensor:
#      x y z
#    x 1.883340 0.000000 0.030820 
#    y 0.000000 1.850870 0.000000 
#    z 0.030820 0.000000 1.771710 
# 
# From -- ./inp_files/319011.got.cif
#   From: 2010.05.17/outbox.cif.g08.bks.cpg/sg12_160_cif.got.tgz:319011.got - 2010.06.03 13:09:07.
