data_PCOD9180770
_publ_section_title
;
Structure prediction by ZEFSAII (Michael W. Deem and Ramdas Pophale) SiO2 
 PCOD9180770
Probable space group: C 2/M
;
_chemical_formula_sum "Si O2"
_cell_formula_units_Z 64
_cell_length_a 28.744227
_cell_length_b 13.698786
_cell_length_c 8.527902
_cell_angle_alpha 90.000000
_cell_angle_beta 81.932053
_cell_angle_gamma 90.000000
_cell_volume 3324.719399
_symmetry_space_group_name_H-M "C 2/M"
_symmetry_group_IT_number 12
_symmetry_cell_setting 'monoclinic'
loop_
_space_group_symop_operation_xyz
x,y,z
-x,y,-z
-x,-y,-z
x,-y,z
1/2+x,1/2+y,z
1/2-x,1/2+y,-z
1/2-x,1/2-y,-z
1/2+x,1/2-y,z
loop_
_atom_site_type_symbol
_atom_site_label
_atom_site_fract_x
_atom_site_fract_y
_atom_site_fract_z
Si Si1 0.757593 0.383026 0.829066
Si Si2 0.845887 0.615332 0.581665
Si Si3 0.032728 0.700332 0.714390
Si Si4 0.433436 0.219954 0.657758
Si Si5 0.181993 0.254256 0.971343
Si Si6 0.378075 0.112723 0.217965
Si Si7 0.884527 0.112257 0.840453
Si Si8 0.049904 0.105103 0.888241
O O1 0.749379 0.500000 0.848673
O O2 0.793649 0.366170 0.668821
O O3 0.711031 0.317165 0.841969
O O4 0.784525 0.335687 0.965855
O O5 0.853619 0.500000 0.583169
O O6 0.884785 0.660941 0.679177
O O7 0.855560 0.643802 0.396928
O O8 0.047130 0.703121 0.525641
O O9 0.065891 0.623125 0.785018
O O10 0.048409 0.804104 0.775450
O O11 0.976419 0.688829 0.750260
O O12 0.418967 0.330585 0.705814
O O13 0.141449 0.314116 0.902808
O O14 0.161054 0.179272 0.110038
O O15 0.365728 0.000000 0.191656
O O16 0.875181 0.000000 0.801741
O O17 0.910852 0.112590 0.996109
O O18 0.055338 0.000000 0.804746
O O19 0.000000 0.105266 0.000000
#
# Coordination Sequence:
#
# PCOD9180770 Si02
#       8
#     8   8   8   8   8   8   8   8
#     4  10  21  37  59  85 109 140 181 225 274 329
#     4   9  19  37  58  80 110 146 182 221 273 328
#     4  10  20  34  54  80 111 146 187 230 265 319
#     4  10  20  34  54  80 111 148 186 225 271 317
#     4  11  21  36  59  83 110 143 178 229 273 329
#     4  10  21  37  57  81 111 147 182 225 275 323
#     4  11  21  34  53  77 108 144 182 226 273 322
#     4  10  19  32  51  74 103 142 183 223 272 324
#
# _framework density 19.249742999999999
#
# number of rings (size 3 to 8) (size 9 to 14) (size 15 to 20)
#    0.000    1.875    3.750    0.750    0.000    1.500 
#    0.000    3.750    0.000    1.125    0.000    0.000 
#    0.000    0.000    0.000    0.000    0.000    0.000 
#
# Total GULP energy -178313.910313 kJ/mol
# GULP energy per Si atom -5572.309697 kJ/mol
# Density = 1.920593 g / cm^3
# Si number density = 19.249743 Si / 1000 Ang^3
#
#
#
# Elastic Constant Matrix: (Units=GPa)
#
#
# Indices 1 2 3 4 5 6 
#
# 1 47.2456 25.6726 0.1239 0.0000 -3.4461 0.0000
# 2 25.6726 67.0973 5.2228 0.0000 -0.2597 0.0000
# 3 0.1239 5.2228 5.1837 0.0000 -0.8214 0.0000
# 4 0.0000 0.0000 0.0000 27.1389 0.0000 -5.2190
# 5 -3.4461 -0.2597 -0.8214 0.0000 23.3927 0.0000
# 6 0.0000 0.0000 0.0000 -5.2190 0.0000 24.9210
#
#
#
# Elastic Compliance Matrix: (Units=1/GPa)
#
#
# Indices 1 2 3 4 5 6 
#
# 1 0.027692 -0.011481 0.011597 0.000000 0.004359 0.000000
# 2 -0.011481 0.020936 -0.021168 0.000000 -0.002202 0.000000
# 3 0.011597 -0.021168 0.215396 0.000000 0.009037 0.000000
# 4 0.000000 0.000000 0.000000 0.038394 0.000000 0.008041
# 5 0.004359 -0.002202 0.009037 0.000000 0.043683 0.000000
# 6 0.000000 0.000000 0.000000 0.008041 0.000000 0.041811
#
#
# Mechanical properties :
#
#
# Convention : Reuss Voigt Hill
#
# Bulk Modulus (GPa) = 4.50616 20.17389 12.34003
# Shear Modulus (GPa) = 9.92081 20.99100 15.45591
#
# Velocity S-wave (km/s) = 2.27265 3.30579 2.83665
# Velocity P-wave (km/s) = 3.03851 5.00738 4.14164
#
# Compressibility (1/GPa) = 0.22191862
#
# Stress axis : x y z
#
# Youngs Moduli (GPa) = 36.11098 47.76482 4.64261
#
# Poissons Ratio (x) = 0.54841 -0.05384
# Poissons Ratio (y) = 0.41461 0.09828
# Poissons Ratio (z) = -0.41877 1.01110
#
# Static dielectric constant tensor:
#      x y z
#    x 1.719730 0.000000 -0.037550 
#    y 0.000000 1.668290 0.000000 
#    z -0.037550 0.000000 1.720440 
# 
# From -- ./inp_files/111178.got.cif
#   From: 2010.05.17/outbox.cif.g08.bks.cpg/sg12_56_cif.got.tgz:111178.got - 2010.06.03 13:09:07.
