data_PCOD9180807
_publ_section_title
;
Structure prediction by ZEFSAII (Michael W. Deem and Ramdas Pophale) SiO2 
 PCOD9180807
Probable space group: C 2/M
;
_chemical_formula_sum "Si O2"
_cell_formula_units_Z 56
_cell_length_a 26.105044
_cell_length_b 8.982612
_cell_length_c 19.672026
_cell_angle_alpha 90.000000
_cell_angle_beta 131.815655
_cell_angle_gamma 90.000000
_cell_volume 3437.982805
_symmetry_space_group_name_H-M "C 2/M"
_symmetry_group_IT_number 12
_symmetry_cell_setting 'monoclinic'
loop_
_space_group_symop_operation_xyz
x,y,z
-x,y,-z
-x,-y,-z
x,-y,z
1/2+x,1/2+y,z
1/2-x,1/2+y,-z
1/2-x,1/2-y,-z
1/2+x,1/2-y,z
loop_
_atom_site_type_symbol
_atom_site_label
_atom_site_fract_x
_atom_site_fract_y
_atom_site_fract_z
Si Si1 0.708417 0.178573 0.711687
Si Si2 0.356695 0.321369 0.600945
Si Si3 0.514753 0.679127 0.718840
Si Si4 0.060533 0.179108 0.606334
Si Si5 0.737025 0.321664 0.093080
Si Si6 0.746644 0.177559 0.387567
Si Si7 0.359844 0.177499 0.097493
O O1 0.631325 0.241491 0.650223
O O2 0.748615 0.219691 0.816489
O O3 0.743107 0.246266 0.675728
O O4 0.706312 0.000000 0.705652
O O5 0.353298 0.500000 0.608322
O O6 0.435855 0.277893 0.662039
O O7 0.318382 0.240146 0.628652
O O8 0.312787 0.288807 0.494018
O O9 0.519195 0.500000 0.728117
O O10 0.537182 0.719217 0.661929
O O11 0.567903 0.752430 0.817751
O O12 0.000000 0.216246 0.500000
O O13 0.070786 0.000000 0.612576
O O14 0.727843 0.500000 0.080673
O O15 0.804929 0.283984 0.108698
O O16 0.673471 0.242093 0.000481
O O17 0.742108 0.000000 0.376237
O O18 0.364765 0.000000 0.098193
#
# Coordination Sequence:
#
# PCOD9180807 Si02
#       7
#     8   8   8   8   8   8   8
#     4  11  21  34  52  76 106 138 172 213 258 308
#     4   9  19  36  55  76 103 138 179 216 254 304
#     4  10  19  32  52  75 104 139 171 209 258 309
#     4  10  20  33  49  73 106 141 173 207 251 305
#     4   9  19  34  50  72 103 136 172 211 255 309
#     4  10  20  35  55  78 104 136 178 220 257 302
#     4  10  19  32  51  75 103 133 172 215 255 307
#
# _framework density 16.288620000000002
#
# number of rings (size 3 to 8) (size 9 to 14) (size 15 to 20)
#    0.000    2.143    1.429    2.143    0.000    5.429 
#    0.000    1.429    0.000    0.857    0.000    6.000 
#    0.000    0.000    0.000    0.000    0.000    0.000 
#
# Total GULP energy -156284.574598 kJ/mol
# GULP energy per Si atom -5581.591950 kJ/mol
# Density = 1.625155 g / cm^3
# Si number density = 16.288620 Si / 1000 Ang^3
#
#
#
# Elastic Constant Matrix: (Units=GPa)
#
#
# Indices 1 2 3 4 5 6 
#
# 1 83.5752 34.6540 57.8854 0.0000 -16.4794 0.0000
# 2 34.6540 28.6446 41.2497 0.0000 -9.6670 0.0000
# 3 57.8854 41.2497 117.2806 0.0000 -16.6539 0.0000
# 4 0.0000 0.0000 0.0000 22.4917 0.0000 1.9122
# 5 -16.4794 -9.6670 -16.6539 0.0000 24.6579 0.0000
# 6 0.0000 0.0000 0.0000 1.9122 0.0000 28.5700
#
#
#
# Elastic Compliance Matrix: (Units=1/GPa)
#
#
# Indices 1 2 3 4 5 6 
#
# 1 0.025229 -0.024102 -0.003232 0.000000 0.005229 0.000000
# 2 -0.024102 0.097181 -0.021194 0.000000 0.007677 0.000000
# 3 -0.003232 -0.021194 0.017796 0.000000 0.001550 0.000000
# 4 0.000000 0.000000 0.000000 0.044715 0.000000 -0.002993
# 5 0.005229 0.007677 0.001550 0.000000 0.048106 0.000000
# 6 0.000000 0.000000 0.000000 -0.002993 0.000000 0.035202
#
#
# Mechanical properties :
#
#
# Convention : Reuss Voigt Hill
#
# Bulk Modulus (GPa) = 23.17578 55.23095 39.20336
# Shear Modulus (GPa) = 13.16932 21.52467 17.34700
#
# Velocity S-wave (km/s) = 2.84649 3.63913 3.26694
# Velocity P-wave (km/s) = 5.00624 7.18602 6.19279
#
# Compressibility (1/GPa) = 0.04314849
#
# Stress axis : x y z
#
# Youngs Moduli (GPa) = 39.63697 10.29010 56.19104
#
# Poissons Ratio (x) = 0.24802 0.18163
# Poissons Ratio (y) = 0.95535 1.19092
# Poissons Ratio (z) = 0.12812 0.21809
#
# Static dielectric constant tensor:
#      x y z
#    x 1.520100 0.000000 -0.004880 
#    y 0.000000 1.540650 0.000000 
#    z -0.004880 0.000000 1.532350 
# 
# From -- ./inp_files/287390.got.cif
#   From: 2010.05.17/outbox.cif.g08.bks.cpg/sg12_144_cif.got.tgz:287390.got - 2010.06.03 13:09:07.
