data_PCOD9180182
_publ_section_title
;
Structure prediction by ZEFSAII (Michael W. Deem and Ramdas Pophale) SiO2 
 PCOD9180182
Probable space group: C 2/M
;
_chemical_formula_sum "Si O2"
_cell_formula_units_Z 50
_cell_length_a 29.133418
_cell_length_b 7.469656
_cell_length_c 13.290832
_cell_angle_alpha 90.000000
_cell_angle_beta 55.766577
_cell_angle_gamma 90.000000
_cell_volume 2391.221196
_symmetry_space_group_name_H-M "C 2/M"
_symmetry_group_IT_number 12
_symmetry_cell_setting 'monoclinic'
loop_
_space_group_symop_operation_xyz
x,y,z
-x,y,-z
-x,-y,-z
x,-y,z
1/2+x,1/2+y,z
1/2-x,1/2+y,-z
1/2-x,1/2-y,-z
1/2+x,1/2-y,z
loop_
_atom_site_type_symbol
_atom_site_label
_atom_site_fract_x
_atom_site_fract_y
_atom_site_fract_z
Si Si1 0.000000 0.000000 0.000000
Si Si2 0.442099 0.715859 0.770122
Si Si3 0.130261 0.780907 0.332845
Si Si4 0.567514 0.207651 0.830193
Si Si5 0.632842 0.789409 0.944100
Si Si6 0.249336 0.714670 0.881759
Si Si7 0.930292 0.216310 0.390059
O O1 0.984222 0.158200 0.101304
O O2 0.443125 0.500000 0.766753
O O3 0.407361 0.775387 0.715287
O O4 0.505595 0.778928 0.686209
O O5 0.408709 0.768863 0.911118
O O6 0.193338 0.720367 0.237335
O O7 0.103499 0.722963 0.470852
O O8 0.130499 0.000000 0.332065
O O9 0.605522 0.280799 0.874943
O O10 0.593664 0.224105 0.687832
O O11 0.553257 0.000000 0.865154
O O12 0.692627 0.714211 0.902423
O O13 0.640170 0.000000 0.916170
O O14 0.248488 0.500000 0.871286
O O15 0.250000 0.750000 0.000000
O O16 0.930411 0.000000 0.392180
#
# Coordination Sequence:
#
# PCOD9180182 Si02
#       7
#     2   8   8   8   8   8   8
#     4  12  22  40  64  90 118 164 210 244 302 350
#     4  10  19  31  55  85 114 149 190 240 297 363
#     4   9  18  34  57  85 116 155 197 245 300 358
#     4  11  24  40  58  88 126 163 202 251 301 356
#     4  10  22  36  55  83 122 155 193 249 308 356
#     4  10  19  36  58  85 115 152 198 252 304 353
#     4  10  20  36  57  84 120 159 202 241 297 371
#
# _framework density 20.909818999999999
#
# number of rings (size 3 to 8) (size 9 to 14) (size 15 to 20)
#    0.000    1.920    2.400    1.680    3.360    3.840 
#    0.000    2.400    0.000    1.920    0.000    0.000 
#    0.000    0.000    0.000    0.000    0.000    0.000 
#
# Total GULP energy -139443.274286 kJ/mol
# GULP energy per Si atom -5577.730971 kJ/mol
# Density = 2.086223 g / cm^3
# Si number density = 20.909819 Si / 1000 Ang^3
#
#
#
# Elastic Constant Matrix: (Units=GPa)
#
#
# Indices 1 2 3 4 5 6 
#
# 1 144.2377 5.7019 108.7096 0.0000 5.6736 0.0000
# 2 5.7019 88.8288 -2.2625 -0.0001 -0.9297 -0.0001
# 3 108.7096 -2.2625 186.7240 0.0000 8.6472 0.0000
# 4 0.0000 -0.0001 0.0000 8.3461 0.0000 -6.6210
# 5 5.6736 -0.9297 8.6472 0.0000 37.6693 0.0000
# 6 0.0000 -0.0001 0.0000 -6.6210 0.0000 -6.2687
#
#
#
# Elastic Compliance Matrix: (Units=1/GPa)
#
#
# Indices 1 2 3 4 5 6 
#
# 1 0.012441 -0.000986 -0.007244 0.000000 -0.000235 0.000000
# 2 -0.000986 0.011341 0.000699 0.000000 0.000268 0.000000
# 3 -0.007244 0.000699 0.009633 0.000000 -0.001103 0.000000
# 4 0.000000 0.000000 0.000000 0.065193 0.000000 -0.068856
# 5 -0.000235 0.000268 -0.001103 0.000000 0.026842 0.000000
# 6 0.000000 0.000000 0.000000 -0.068856 0.000000 -0.086797
#
#
# Mechanical properties :
#
#
# Convention : Reuss Voigt Hill
#
# Bulk Modulus (GPa) = 54.48630 71.56537 63.02583
# Shear Modulus (GPa) = 83.56654 28.45876 56.01265
#
# Velocity S-wave (km/s) = 6.32866 3.69321 5.18130
# Velocity P-wave (km/s) = 8.91723 7.24475 8.12414
#
# Compressibility (1/GPa) = 0.01835324
#
# Stress axis : x y z
#
# Youngs Moduli (GPa) = 80.37951 88.17196 103.81502
#
# Poissons Ratio (x) = 0.08690 0.75205
# Poissons Ratio (y) = 0.07922 -0.07255
# Poissons Ratio (z) = 0.58228 -0.06161
#
# Static dielectric constant tensor:
#      x y z
#    x 1.825330 0.000000 0.000930 
#    y 0.000000 1.795840 0.000000 
#    z 0.000930 0.000000 1.734600 
# 
# From -- ./inp_files/180579.got.cif
#   From: 2010.05.17/outbox.cif.g08.bks.cpg/sg12_91_cif.got.tgz:180579.got - 2010.06.03 13:09:07.
