data_PCOD9180094
_publ_section_title
;
Structure prediction by ZEFSAII (Michael W. Deem and Ramdas Pophale) SiO2 
 PCOD9180094
Probable space group: C 2/M
;
_chemical_formula_sum "Si O2"
_cell_formula_units_Z 48
_cell_length_a 21.736200
_cell_length_b 15.944858
_cell_length_c 11.570511
_cell_angle_alpha 90.000000
_cell_angle_beta 28.180824
_cell_angle_gamma 90.000000
_cell_volume 1893.799942
_symmetry_space_group_name_H-M "C 2/M"
_symmetry_group_IT_number 12
_symmetry_cell_setting 'monoclinic'
loop_
_space_group_symop_operation_xyz
x,y,z
-x,y,-z
-x,-y,-z
x,-y,z
1/2+x,1/2+y,z
1/2-x,1/2+y,-z
1/2-x,1/2-y,-z
1/2+x,1/2-y,z
loop_
_atom_site_type_symbol
_atom_site_label
_atom_site_fract_x
_atom_site_fract_y
_atom_site_fract_z
Si Si1 0.400625 0.857891 0.075846
Si Si2 0.005280 0.835500 0.729603
Si Si3 0.192386 0.906482 0.603545
Si Si4 0.901983 0.642055 0.426742
Si Si5 0.293015 0.145610 0.838113
Si Si6 0.800152 0.831821 0.774430
O O1 0.496306 0.903294 0.826871
O O2 0.500000 0.812670 0.000000
O O3 0.303254 0.908221 0.319131
O O4 0.301267 0.808810 0.159117
O O5 0.068186 0.868599 0.744023
O O6 0.042015 0.736827 0.661640
O O7 0.081713 0.872991 0.490788
O O8 0.854976 0.855773 0.963603
O O9 0.264153 0.856998 0.587134
O O10 0.165538 0.000000 0.689014
O O11 0.881404 0.608019 0.589932
O O12 0.340625 0.243129 0.763573
O O13 0.275232 0.118230 0.000186
#
# Coordination Sequence:
#
# PCOD9180094 Si02
#       6
#     8   8   8   8   8   8
#     4   9  18  34  56  80 111 144 185 235 276 328
#     4  10  19  35  56  83 116 149 190 240 283 340
#     4  10  22  39  59  81 112 155 198 236 281 343
#     4  10  20  34  55  86 114 148 187 241 291 336
#     4  10  19  31  53  84 117 154 179 236 289 334
#     4   9  18  32  52  83 118 147 191 227 279 344
#
# _framework density 25.345865
#
# number of rings (size 3 to 8) (size 9 to 14) (size 15 to 20)
#    0.000    2.333    1.667    1.000    0.000    5.667 
#    0.000    1.667    0.000   12.000    0.000    9.333 
#    0.000    0.000    0.000    0.000    0.000    0.000 
#
# Total GULP energy -133851.653826 kJ/mol
# GULP energy per Si atom -5577.152243 kJ/mol
# Density = 2.528818 g / cm^3
# Si number density = 25.345865 Si / 1000 Ang^3
#
#
#
# Elastic Constant Matrix: (Units=GPa)
#
#
# Indices 1 2 3 4 5 6 
#
# 1 118.0925 15.6502 26.6645 0.0000 3.8326 0.0000
# 2 15.6502 32.9871 -3.3502 0.0000 1.3228 0.0000
# 3 26.6645 -3.3502 125.6544 0.0000 24.3350 0.0000
# 4 0.0000 0.0000 0.0000 -6.1358 0.0000 -0.3421
# 5 3.8326 1.3228 24.3350 0.0000 56.7041 0.0000
# 6 0.0000 0.0000 0.0000 -0.3421 0.0000 -22.6269
#
#
#
# Elastic Compliance Matrix: (Units=1/GPa)
#
#
# Indices 1 2 3 4 5 6 
#
# 1 0.009597 -0.004799 -0.002247 0.000000 0.000428 0.000000
# 2 -0.004799 0.032866 0.002160 0.000000 -0.001369 0.000000
# 3 -0.002247 0.002160 0.009241 0.000000 -0.003864 0.000000
# 4 0.000000 0.000000 0.000000 -0.163114 0.000000 0.002466
# 5 0.000428 -0.001369 -0.003864 0.000000 0.019297 0.000000
# 6 0.000000 0.000000 0.000000 0.002466 0.000000 -0.044232
#
#
# Mechanical properties :
#
#
# Convention : Reuss Voigt Hill
#
# Bulk Modulus (GPa) = 23.84828 39.40701 31.62764
# Shear Modulus (GPa) = -44.40687 21.43957 -11.48365
#
# Velocity S-wave (km/s) = -4.19027 2.91156 -2.13087
# Velocity P-wave (km/s) = 3.73920 5.18501 2.53995
#
# Compressibility (1/GPa) = 0.04193175
#
# Stress axis : x y z
#
# Youngs Moduli (GPa) = 104.19410 30.42668 108.21054
#
# Poissons Ratio (x) = 0.14601 0.24319
# Poissons Ratio (y) = 0.50001 -0.23371
# Poissons Ratio (z) = 0.23417 -0.06572
#
# Static dielectric constant tensor:
#      x y z
#    x 2.038340 0.000000 0.033420 
#    y 0.000000 1.994580 0.000000 
#    z 0.033420 0.000000 2.138940 
# 
# From -- ./inp_files/177686.got.cif
#   From: 2010.05.17/outbox.cif.g08.bks.cpg/sg12_89_cif.got.tgz:177686.got - 2010.06.03 13:09:07.
