data_PCOD9180527
_publ_section_title
;
Structure prediction by ZEFSAII (Michael W. Deem and Ramdas Pophale) SiO2 
 PCOD9180527
Probable space group: C 2/M
;
_chemical_formula_sum "Si O2"
_cell_formula_units_Z 64
_cell_length_a 28.709246
_cell_length_b 7.560863
_cell_length_c 19.808412
_cell_angle_alpha 90.000000
_cell_angle_beta 130.868537
_cell_angle_gamma 90.000000
_cell_volume 3251.523481
_symmetry_space_group_name_H-M "C 2/M"
_symmetry_group_IT_number 12
_symmetry_cell_setting 'monoclinic'
loop_
_space_group_symop_operation_xyz
x,y,z
-x,y,-z
-x,-y,-z
x,-y,z
1/2+x,1/2+y,z
1/2-x,1/2+y,-z
1/2-x,1/2-y,-z
1/2+x,1/2-y,z
loop_
_atom_site_type_symbol
_atom_site_label
_atom_site_fract_x
_atom_site_fract_y
_atom_site_fract_z
Si Si1 0.869770 0.784072 0.052532
Si Si2 0.937664 0.705111 0.907791
Si Si3 0.314739 0.202693 0.291967
Si Si4 0.513957 0.713367 0.338842
Si Si5 0.313521 0.293220 0.862736
Si Si6 0.870120 0.785873 0.204073
Si Si7 0.012752 0.213761 0.186846
Si Si8 0.062425 0.706578 0.526563
O O1 0.851045 0.730729 0.110379
O O2 0.941248 0.731668 0.109177
O O3 0.869622 0.000000 0.051693
O O4 0.829267 0.718727 0.951800
O O5 0.935169 0.500000 0.925082
O O6 0.875264 0.784973 0.877282
O O7 0.946444 0.721023 0.836095
O O8 0.000000 0.783189 0.000000
O O9 0.246668 0.284391 0.230478
O O10 0.332066 0.207317 0.229212
O O11 0.373619 0.285042 0.385698
O O12 0.310557 0.000000 0.313044
O O13 0.515994 0.500000 0.342302
O O14 0.442192 0.763499 0.281081
O O15 0.531723 0.770485 0.280118
O O16 0.554186 0.781468 0.438644
O O17 0.299150 0.500000 0.860055
O O18 0.866422 0.000000 0.204258
O O19 0.013567 0.000000 0.186251
O O20 0.063304 0.500000 0.548226
O O21 0.000000 0.785110 0.500000
#
# Coordination Sequence:
#
# PCOD9180527 Si02
#       8
#     8   8   8   8   8   8   8   8
#     4   8  15  29  49  72  97 131 170 202 240 294
#     4  11  22  34  51  79 108 130 162 208 253 300
#     4  10  21  34  48  73 102 134 177 212 245 298
#     4   9  18  31  51  79 102 126 169 214 246 293
#     4  10  20  35  54  71  97 138 177 209 244 297
#     4   9  17  30  48  71 101 134 167 205 248 295
#     4   9  17  32  54  77 100 129 168 207 246 298
#     4  10  19  32  50  72 103 138 168 208 259 301
#
# _framework density 19.683081000000001
#
# number of rings (size 3 to 8) (size 9 to 14) (size 15 to 20)
#    0.000    2.500    2.500    1.875    0.000    2.750 
#    0.000    2.500    0.000    0.750    0.000    0.000 
#    0.000    0.000    0.000    0.000    0.000    0.000 
#
# Total GULP energy -178534.910408 kJ/mol
# GULP energy per Si atom -5579.215950 kJ/mol
# Density = 1.963828 g / cm^3
# Si number density = 19.683081 Si / 1000 Ang^3
#
#
#
# Elastic Constant Matrix: (Units=GPa)
#
#
# Indices 1 2 3 4 5 6 
#
# 1 78.5442 -5.8378 62.0695 0.0000 4.5762 0.0000
# 2 -5.8378 46.8856 4.1114 -0.0001 5.9967 -0.0001
# 3 62.0695 4.1114 151.7372 0.0000 15.1565 -0.0001
# 4 0.0000 -0.0001 0.0000 6.4209 0.0000 -9.7517
# 5 4.5762 5.9967 15.1565 0.0000 26.5890 0.0000
# 6 0.0000 -0.0001 -0.0001 -9.7517 0.0000 16.9626
#
#
#
# Elastic Compliance Matrix: (Units=1/GPa)
#
#
# Indices 1 2 3 4 5 6 
#
# 1 0.019259 0.003028 -0.008017 0.000001 0.000573 0.000001
# 2 0.003028 0.022440 -0.001367 0.000004 -0.004803 0.000003
# 3 -0.008017 -0.001367 0.010326 0.000000 -0.004198 0.000000
# 4 0.000001 0.000004 0.000000 1.227395 -0.000001 0.705621
# 5 0.000573 -0.004803 -0.004198 -0.000001 0.040987 0.000000
# 6 0.000001 0.000003 0.000000 0.705621 0.000000 0.464610
#
#
# Mechanical properties :
#
#
# Convention : Reuss Voigt Hill
#
# Bulk Modulus (GPa) = 25.43741 44.20593 34.82167
# Shear Modulus (GPa) = 2.76116 24.44941 13.60529
#
# Velocity S-wave (km/s) = 1.18569 3.52824 2.63195
# Velocity P-wave (km/s) = 3.85046 6.25345 5.19286
#
# Compressibility (1/GPa) = 0.03931218
#
# Stress axis : x y z
#
# Youngs Moduli (GPa) = 51.92367 44.56404 96.84034
#
# Poissons Ratio (x) = -0.13493 0.77640
# Poissons Ratio (y) = -0.15721 0.13236
# Poissons Ratio (z) = 0.41629 0.06091
#
# Static dielectric constant tensor:
#      x y z
#    x 1.668710 0.000000 0.011770 
#    y 0.000000 1.738920 0.000000 
#    z 0.011770 0.000000 1.725530 
# 
# From -- ./inp_files/326908.got.cif
#   From: 2010.05.17/outbox.cif.g08.bks.cpg/sg12_164_cif.got.tgz:326908.got - 2010.06.03 13:09:07.
