data_PCOD9180989
_publ_section_title
;
Structure prediction by ZEFSAII (Michael W. Deem and Ramdas Pophale) SiO2 
 PCOD9180989
Probable space group: C 2/M
;
_chemical_formula_sum "Si O2"
_cell_formula_units_Z 56
_cell_length_a 22.186230
_cell_length_b 13.131569
_cell_length_c 12.149982
_cell_angle_alpha 90.000000
_cell_angle_beta 119.943636
_cell_angle_gamma 90.000000
_cell_volume 3067.275456
_symmetry_space_group_name_H-M "C 2/M"
_symmetry_group_IT_number 12
_symmetry_cell_setting 'monoclinic'
loop_
_space_group_symop_operation_xyz
x,y,z
-x,y,-z
-x,-y,-z
x,-y,z
1/2+x,1/2+y,z
1/2-x,1/2+y,-z
1/2-x,1/2-y,-z
1/2+x,1/2-y,z
loop_
_atom_site_type_symbol
_atom_site_label
_atom_site_fract_x
_atom_site_fract_y
_atom_site_fract_z
Si Si1 0.471313 0.617385 0.349416
Si Si2 0.644073 0.119764 0.224455
Si Si3 0.170515 0.382828 0.596953
Si Si4 0.222507 0.115656 0.508276
Si Si5 0.814382 0.621265 0.981916
Si Si6 0.088126 0.258042 0.364455
Si Si7 0.829150 0.764649 0.197225
O O1 0.500000 0.619822 0.500000
O O2 0.472486 0.500000 0.312732
O O3 0.521097 0.690498 0.324308
O O4 0.394463 0.663275 0.278699
O O5 0.721684 0.138870 0.344995
O O6 0.644738 0.137421 0.095329
O O7 0.593644 0.189261 0.250795
O O8 0.630386 0.000000 0.233299
O O9 0.163854 0.500000 0.626317
O O10 0.232641 0.378727 0.563241
O O11 0.101926 0.344958 0.468806
O O12 0.183973 0.307496 0.709761
O O13 0.156041 0.186578 0.442232
O O14 0.198767 0.000000 0.503053
O O15 0.812952 0.500000 0.003224
O O16 0.737004 0.665076 0.890229
O O17 0.843134 0.688467 0.107997
#
# Coordination Sequence:
#
# PCOD9180989 Si02
#       7
#     8   8   8   8   8   8   8
#     4  11  24  39  57  84 116 148 184 221 273 348
#     4   9  18  32  53  81 108 141 188 233 275 320
#     4  10  19  32  51  81 114 144 183 233 283 327
#     4   9  17  28  50  81 110 140 180 230 281 327
#     4  10  21  37  61  85 109 146 193 238 275 320
#     4  11  18  33  54  78 113 147 181 224 279 332
#     4  11  21  38  57  82 116 150 186 228 279 326
#
# _framework density 18.257245000000001
#
# number of rings (size 3 to 8) (size 9 to 14) (size 15 to 20)
#    0.000    1.857    1.429    6.000    0.000    0.000 
#    0.000    4.286    0.000    5.143    0.000    0.000 
#    0.000    0.000    0.000    0.000    0.000    0.000 
#
# Total GULP energy -156332.192083 kJ/mol
# GULP energy per Si atom -5583.292574 kJ/mol
# Density = 1.821569 g / cm^3
# Si number density = 18.257245 Si / 1000 Ang^3
#
#
#
# Elastic Constant Matrix: (Units=GPa)
#
#
# Indices 1 2 3 4 5 6 
#
# 1 30.7434 21.6488 7.5860 0.0000 -3.4319 0.0000
# 2 21.6488 88.5356 13.7403 0.0000 -3.1588 0.0000
# 3 7.5860 13.7403 60.8826 0.0000 -15.0129 0.0000
# 4 0.0000 0.0000 0.0000 18.8739 0.0000 -7.6347
# 5 -3.4319 -3.1588 -15.0129 0.0000 25.7891 0.0000
# 6 0.0000 0.0000 0.0000 -7.6347 0.0000 24.9521
#
#
#
# Elastic Compliance Matrix: (Units=1/GPa)
#
#
# Indices 1 2 3 4 5 6 
#
# 1 0.039956 -0.009332 -0.002152 0.000000 0.002921 0.000000
# 2 -0.009332 0.013885 -0.002169 0.000000 -0.000804 0.000000
# 3 -0.002152 -0.002169 0.019904 0.000000 0.011035 0.000000
# 4 0.000000 0.000000 0.000000 0.060467 0.000000 0.018502
# 5 0.002921 -0.000804 0.011035 0.000000 0.045490 0.000000
# 6 0.000000 0.000000 0.000000 0.018502 0.000000 0.045738
#
#
# Mechanical properties :
#
#
# Convention : Reuss Voigt Hill
#
# Bulk Modulus (GPa) = 21.53398 29.56798 25.55098
# Shear Modulus (GPa) = 18.64112 23.06880 20.85496
#
# Velocity S-wave (km/s) = 3.19882 3.55849 3.38344
# Velocity P-wave (km/s) = 5.04615 5.75449 5.41192
#
# Compressibility (1/GPa) = 0.04643823
#
# Stress axis : x y z
#
# Youngs Moduli (GPa) = 25.02779 72.02209 50.24184
#
# Poissons Ratio (x) = 0.67209 0.10812
# Poissons Ratio (y) = 0.23355 0.10898
# Poissons Ratio (z) = 0.05386 0.15622
#
# Static dielectric constant tensor:
#      x y z
#    x 1.620910 0.000000 -0.019620 
#    y 0.000000 1.645640 0.000000 
#    z -0.019620 0.000000 1.621040 
# 
# From -- ./inp_files/174790.got.cif
#   From: 2010.05.17/outbox.cif.g08.bks.cpg/sg12_88_cif.got.tgz:174790.got - 2010.06.03 13:09:07.
