data_PCOD9180425
_publ_section_title
;
Structure prediction by ZEFSAII (Michael W. Deem and Ramdas Pophale) SiO2 
 PCOD9180425
Probable space group: C 2/M
;
_chemical_formula_sum "Si O2"
_cell_formula_units_Z 48
_cell_length_a 20.936139
_cell_length_b 7.972637
_cell_length_c 19.967171
_cell_angle_alpha 90.000000
_cell_angle_beta 130.117884
_cell_angle_gamma 90.000000
_cell_volume 2548.694290
_symmetry_space_group_name_H-M "C 2/M"
_symmetry_group_IT_number 12
_symmetry_cell_setting 'monoclinic'
loop_
_space_group_symop_operation_xyz
x,y,z
-x,y,-z
-x,-y,-z
x,-y,z
1/2+x,1/2+y,z
1/2-x,1/2+y,-z
1/2-x,1/2-y,-z
1/2+x,1/2-y,z
loop_
_atom_site_type_symbol
_atom_site_label
_atom_site_fract_x
_atom_site_fract_y
_atom_site_fract_z
Si Si1 0.862964 0.797737 0.261861
Si Si2 0.526545 0.294849 0.443169
Si Si3 0.406531 0.800345 0.927278
Si Si4 0.765706 0.804561 0.934612
Si Si5 0.215046 0.797765 0.547978
Si Si6 0.218769 0.295816 0.268366
O O1 0.817076 0.730486 0.165306
O O2 0.802721 0.754709 0.283686
O O3 0.955955 0.740332 0.342705
O O4 0.863250 0.000000 0.256777
O O5 0.500000 0.244701 0.500000
O O6 0.526450 0.500000 0.442445
O O7 0.619844 0.237419 0.491191
O O8 0.343696 0.777491 0.947620
O O9 0.357919 0.733020 0.828783
O O10 0.414775 0.000000 0.922846
O O11 0.500000 0.731541 0.000000
O O12 0.783378 0.000000 0.946116
O O13 0.750000 0.750000 0.000000
O O14 0.250000 0.750000 0.500000
O O15 0.270150 0.736967 0.648247
O O16 0.212911 0.000000 0.551155
O O17 0.213725 0.500000 0.265984
#
# Coordination Sequence:
#
# PCOD9180425 Si02
#       6
#     8   8   8   8   8   8
#     4   9  16  31  56  81 101 129 177 225 264 307
#     4   9  15  28  55  81  98 129 179 222 251 301
#     4   9  18  35  59  83 106 137 178 220 267 324
#     4  11  22  37  56  79 110 142 176 220 272 321
#     4  10  19  32  49  73 106 139 172 210 258 308
#     4   8  14  28  52  75  98 134 173 209 251 306
#
# _framework density 18.833172000000001
#
# number of rings (size 3 to 8) (size 9 to 14) (size 15 to 20)
#    0.000    2.667    1.667    2.500    0.000    0.333 
#    3.000    4.167    0.000    1.000    0.000    0.000 
#    0.000    0.000    0.000    0.000    0.000    0.000 
#
# Total GULP energy -133794.931233 kJ/mol
# GULP energy per Si atom -5574.788801 kJ/mol
# Density = 1.879031 g / cm^3
# Si number density = 18.833172 Si / 1000 Ang^3
#
#
#
# Elastic Constant Matrix: (Units=GPa)
#
#
# Indices 1 2 3 4 5 6 
#
# 1 119.0036 -3.5513 99.6555 0.0000 4.7809 0.0000
# 2 -3.5513 10.2449 3.9922 0.0000 4.3734 0.0000
# 3 99.6555 3.9922 178.9177 0.0000 -0.6634 0.0000
# 4 0.0000 0.0000 0.0000 16.5659 0.0000 -8.3165
# 5 4.7809 4.3734 -0.6634 0.0000 38.7612 0.0000
# 6 0.0000 0.0000 0.0000 -8.3165 0.0000 16.0121
#
#
#
# Elastic Compliance Matrix: (Units=1/GPa)
#
#
# Indices 1 2 3 4 5 6 
#
# 1 0.017057 0.011228 -0.009764 0.000000 -0.003538 0.000000
# 2 0.011228 0.110922 -0.008781 0.000000 -0.014050 0.000000
# 3 -0.009764 -0.008781 0.011233 0.000000 0.002387 0.000000
# 4 0.000000 0.000000 0.000000 0.081657 0.000000 0.042412
# 5 -0.003538 -0.014050 0.002387 0.000000 0.027862 0.000000
# 6 0.000000 0.000000 0.000000 0.042412 0.000000 0.084481
#
#
# Mechanical properties :
#
#
# Convention : Reuss Voigt Hill
#
# Bulk Modulus (GPa) = 8.02717 56.48432 32.25575
# Shear Modulus (GPa) = 12.84122 28.13915 20.49019
#
# Velocity S-wave (km/s) = 2.61404 3.86959 3.30204
# Velocity P-wave (km/s) = 3.65820 7.07262 5.63047
#
# Compressibility (1/GPa) = 0.12457683
#
# Stress axis : x y z
#
# Youngs Moduli (GPa) = 58.62675 9.01536 89.02695
#
# Poissons Ratio (x) = -0.10122 0.86928
# Poissons Ratio (y) = -0.65826 0.78174
# Poissons Ratio (z) = 0.57245 0.07916
#
# Static dielectric constant tensor:
#      x y z
#    x 1.967830 0.000000 -0.098380 
#    y 0.000000 1.679680 0.000000 
#    z -0.098380 0.000000 1.716230 
# 
# From -- ./inp_files/274627.got.cif
#   From: 2010.05.17/outbox.cif.g08.bks.cpg/sg12_138_cif.got.tgz:274627.got - 2010.06.03 13:09:07.
