data_PCOD9180802
_publ_section_title
;
Structure prediction by ZEFSAII (Michael W. Deem and Ramdas Pophale) SiO2 
 PCOD9180802
Probable space group: C 2/M
;
_chemical_formula_sum "Si O2"
_cell_formula_units_Z 48
_cell_length_a 15.804019
_cell_length_b 7.996248
_cell_length_c 24.993612
_cell_angle_alpha 90.000000
_cell_angle_beta 35.200504
_cell_angle_gamma 90.000000
_cell_volume 1820.692309
_symmetry_space_group_name_H-M "C 2/M"
_symmetry_group_IT_number 12
_symmetry_cell_setting 'monoclinic'
loop_
_space_group_symop_operation_xyz
x,y,z
-x,y,-z
-x,-y,-z
x,-y,z
1/2+x,1/2+y,z
1/2-x,1/2+y,-z
1/2-x,1/2-y,-z
1/2+x,1/2-y,z
loop_
_atom_site_type_symbol
_atom_site_label
_atom_site_fract_x
_atom_site_fract_y
_atom_site_fract_z
Si Si1 0.479614 0.191955 0.315939
Si Si2 0.158624 0.199292 0.353775
Si Si3 0.525534 0.310699 0.799905
Si Si4 0.401703 0.202567 0.969674
Si Si5 0.661709 0.700020 0.481498
Si Si6 0.709194 0.198456 0.863173
O O1 0.476593 0.199458 0.252114
O O2 0.322416 0.271614 0.414139
O O3 0.638929 0.267083 0.244770
O O4 0.478522 0.000000 0.332286
O O5 0.310991 0.286079 0.260180
O O6 0.155644 0.218633 0.420050
O O7 0.998429 0.263213 0.417074
O O8 0.169785 0.000000 0.336608
O O9 0.506638 0.500000 0.790475
O O10 0.407648 0.276072 0.907236
O O11 0.561501 0.254211 0.910804
O O12 0.395696 0.000000 0.967602
O O13 0.296061 0.259378 0.072528
O O14 0.663406 0.500000 0.490012
O O15 0.694413 0.000000 0.874385
#
# Coordination Sequence:
#
# PCOD9180802 Si02
#       6
#     8   8   8   8   8   8
#     4  10  19  32  51  75 103 132 161 197 244 291
#     4   8  13  26  46  66  93 128 163 196 236 286
#     4  11  21  31  47  75 105 129 162 205 242 281
#     4   9  19  37  56  71  94 129 163 197 245 300
#     4   7  12  24  44  68  93 126 163 193 230 287
#     4   9  19  36  56  75  94 122 163 205 244 292
#
# _framework density 26.363599000000001
#
# number of rings (size 3 to 8) (size 9 to 14) (size 15 to 20)
#    0.000    3.000    0.000    5.000    0.000    2.000 
#    0.000    9.167    0.000    1.000    0.000    0.000 
#    0.000    0.000    0.000    0.000    0.000    0.000 
#
# Total GULP energy -134161.140402 kJ/mol
# GULP energy per Si atom -5590.047517 kJ/mol
# Density = 2.630359 g / cm^3
# Si number density = 26.363599 Si / 1000 Ang^3
#
#
#
# Elastic Constant Matrix: (Units=GPa)
#
#
# Indices 1 2 3 4 5 6 
#
# 1 83.3655 -0.7516 8.1439 0.0000 -11.8372 0.0001
# 2 -0.7516 42.9351 2.4917 0.0000 8.8104 0.0004
# 3 8.1439 2.4917 191.1265 0.0000 8.5760 0.0000
# 4 0.0000 0.0000 0.0000 29.7977 0.0000 -2.3099
# 5 -11.8372 8.8104 8.5760 0.0000 55.2872 0.0000
# 6 0.0001 0.0004 0.0000 -2.3099 0.0000 23.5932
#
#
#
# Elastic Compliance Matrix: (Units=1/GPa)
#
#
# Indices 1 2 3 4 5 6 
#
# 1 0.012457 -0.000323 -0.000653 0.000000 0.002820 0.000000
# 2 -0.000323 0.024091 -0.000126 0.000000 -0.003889 0.000000
# 3 -0.000653 -0.000126 0.005304 0.000000 -0.000943 0.000000
# 4 0.000000 0.000000 0.000000 0.033816 0.000000 0.003311
# 5 0.002820 -0.003889 -0.000943 0.000000 0.019457 0.000000
# 6 0.000000 0.000000 0.000000 0.003311 0.000000 0.042709
#
#
# Mechanical properties :
#
#
# Convention : Reuss Voigt Hill
#
# Bulk Modulus (GPa) = 25.22198 37.46611 31.34404
# Shear Modulus (GPa) = 32.62582 42.23848 37.43215
#
# Velocity S-wave (km/s) = 3.52167 4.00703 3.77217
# Velocity P-wave (km/s) = 5.11116 5.97081 5.55763
#
# Compressibility (1/GPa) = 0.03964796
#
# Stress axis : x y z
#
# Youngs Moduli (GPa) = 80.27843 41.51000 188.54067
#
# Poissons Ratio (x) = 0.01339 0.12313
# Poissons Ratio (y) = 0.02590 0.02373
# Poissons Ratio (z) = 0.05243 0.00522
#
# Static dielectric constant tensor:
#      x y z
#    x 2.238150 0.000000 -0.025900 
#    y 0.000000 1.900410 0.000000 
#    z -0.025900 0.000000 2.115730 
# 
# From -- ./inp_files/274598.got.cif
#   From: 2010.05.17/outbox.cif.g08.bks.cpg/sg12_138_cif.got.tgz:274598.got - 2010.06.03 13:09:07.
