data_PCOD9180973
_publ_section_title
;
Structure prediction by ZEFSAII (Michael W. Deem and Ramdas Pophale) SiO2 
 PCOD9180973
Probable space group: C 2/M
;
_chemical_formula_sum "Si O2"
_cell_formula_units_Z 64
_cell_length_a 21.043847
_cell_length_b 8.600928
_cell_length_c 33.828296
_cell_angle_alpha 90.000000
_cell_angle_beta 36.157740
_cell_angle_gamma 90.000000
_cell_volume 3612.519268
_symmetry_space_group_name_H-M "C 2/M"
_symmetry_group_IT_number 12
_symmetry_cell_setting 'monoclinic'
loop_
_space_group_symop_operation_xyz
x,y,z
-x,y,-z
-x,-y,-z
x,-y,z
1/2+x,1/2+y,z
1/2-x,1/2+y,-z
1/2-x,1/2-y,-z
1/2+x,1/2-y,z
loop_
_atom_site_type_symbol
_atom_site_label
_atom_site_fract_x
_atom_site_fract_y
_atom_site_fract_z
Si Si1 0.840083 0.313092 0.363497
Si Si2 0.041779 0.187340 0.769638
Si Si3 0.767369 0.813223 0.791360
Si Si4 0.334395 0.313263 0.490023
Si Si5 0.493304 0.186302 0.650276
Si Si6 0.670406 0.187071 0.006126
Si Si7 0.058488 0.186793 0.852165
Si Si8 0.696798 0.310818 0.136689
O O1 0.843632 0.500000 0.359717
O O2 0.872115 0.244901 0.305415
O O3 0.723074 0.269100 0.439892
O O4 0.930641 0.265150 0.350605
O O5 0.062201 0.237507 0.804305
O O6 0.923073 0.241359 0.815353
O O7 0.040905 0.000000 0.769573
O O8 0.875948 0.756170 0.715582
O O9 0.662184 0.747090 0.823181
O O10 0.774323 0.760299 0.833661
O O11 0.763996 0.000000 0.792472
O O12 0.338706 0.500000 0.485711
O O13 0.250000 0.250000 0.500000
O O14 0.447458 0.244034 0.419224
O O15 0.488884 0.000000 0.652338
O O16 0.551373 0.249575 0.073773
O O17 0.670203 0.000000 0.007737
O O18 0.750000 0.250000 0.000000
O O19 0.719047 0.236350 0.939343
O O20 0.055666 0.000000 0.854354
O O21 0.694964 0.500000 0.137792
#
# Coordination Sequence:
#
# PCOD9180973 Si02
#       8
#     8   8   8   8   8   8   8   8
#     4   9  18  30  49  81 114 140 180 233 274 315
#     4  10  19  35  57  79 108 147 184 224 274 329
#     4  11  22  38  59  82 110 148 188 227 276 331
#     4   9  17  29  46  75 112 147 182 226 276 324
#     4  10  19  32  51  79 113 148 182 225 277 328
#     4  11  21  38  61  85 112 144 184 229 278 329
#     4  11  24  41  57  81 115 147 184 228 277 333
#     4   9  19  36  58  83 109 142 184 227 274 330
#
# _framework density 17.716168
#
# number of rings (size 3 to 8) (size 9 to 14) (size 15 to 20)
#    0.000    2.000    2.500    2.625    0.000    4.000 
#    0.000    5.000    0.000    0.750    0.000    5.250 
#    0.000    0.000    0.000    0.000    0.000    0.000 
#
# Total GULP energy -178553.497645 kJ/mol
# GULP energy per Si atom -5579.796801 kJ/mol
# Density = 1.767585 g / cm^3
# Si number density = 17.716168 Si / 1000 Ang^3
#
#
#
# Elastic Constant Matrix: (Units=GPa)
#
#
# Indices 1 2 3 4 5 6 
#
# 1 120.4755 29.7246 89.0871 0.0003 1.3525 0.0228
# 2 29.7246 42.5075 41.5057 0.0027 0.1473 0.0039
# 3 89.0871 41.5057 204.1988 -0.0023 10.8922 0.0002
# 4 0.0003 0.0027 -0.0023 33.1350 -0.0011 -1.8662
# 5 1.3525 0.1473 10.8922 -0.0011 25.2567 0.0014
# 6 0.0228 0.0039 0.0002 -1.8662 0.0014 24.7817
#
#
#
# Elastic Compliance Matrix: (Units=1/GPa)
#
#
# Indices 1 2 3 4 5 6 
#
# 1 0.012928 -0.004322 -0.004837 -0.000001 0.001419 -0.000011
# 2 -0.004322 0.030945 -0.004511 -0.000003 0.001996 -0.000001
# 3 -0.004837 -0.004511 0.008096 0.000001 -0.003206 0.000005
# 4 -0.000001 -0.000003 0.000001 0.030308 0.000001 0.002282
# 5 0.001419 0.001996 -0.003206 0.000001 0.040888 -0.000004
# 6 -0.000011 -0.000001 0.000005 0.002282 -0.000004 0.040524
#
#
# Mechanical properties :
#
#
# Convention : Reuss Voigt Hill
#
# Bulk Modulus (GPa) = 40.60357 76.42408 58.51382
# Shear Modulus (GPa) = 25.09551 30.42564 27.76057
#
# Velocity S-wave (km/s) = 3.76777 4.14864 3.96278
# Velocity P-wave (km/s) = 6.47277 8.13511 7.35108
#
# Compressibility (1/GPa) = 0.02462838
#
# Stress axis : x y z
#
# Youngs Moduli (GPa) = 77.35238 32.31527 123.52488
#
# Poissons Ratio (x) = 0.13966 0.59754
# Poissons Ratio (y) = 0.33429 0.55722
# Poissons Ratio (z) = 0.37418 0.14577
#
# Static dielectric constant tensor:
#      x y z
#    x 1.576450 0.000000 0.017870 
#    y 0.000000 1.600230 0.000000 
#    z 0.017870 0.000000 1.611660 
# 
# From -- ./inp_files/378230.got.cif
#   From: 2010.05.17/outbox.cif.g08.bks.cpg/sg12_190_cif.got.tgz:378230.got - 2010.06.03 13:09:07.
