data_PCOD9180280
_publ_section_title
;
Structure prediction by ZEFSAII (Michael W. Deem and Ramdas Pophale) SiO2 
 PCOD9180280
Probable space group: C 2/M
;
_chemical_formula_sum "Si O2"
_cell_formula_units_Z 56
_cell_length_a 31.622965
_cell_length_b 7.540489
_cell_length_c 12.602829
_cell_angle_alpha 90.000000
_cell_angle_beta 73.537915
_cell_angle_gamma 90.000000
_cell_volume 2881.987758
_symmetry_space_group_name_H-M "C 2/M"
_symmetry_group_IT_number 12
_symmetry_cell_setting 'monoclinic'
loop_
_space_group_symop_operation_xyz
x,y,z
-x,y,-z
-x,-y,-z
x,-y,z
1/2+x,1/2+y,z
1/2-x,1/2+y,-z
1/2-x,1/2-y,-z
1/2+x,1/2-y,z
loop_
_atom_site_type_symbol
_atom_site_label
_atom_site_fract_x
_atom_site_fract_y
_atom_site_fract_z
Si Si1 0.288125 0.294126 0.780771
Si Si2 0.310582 0.216605 0.122322
Si Si3 0.363734 0.706217 0.872889
Si Si4 0.205158 0.288770 0.468054
Si Si5 0.643246 0.209619 0.693955
Si Si6 0.550204 0.713156 0.845859
Si Si7 0.951375 0.782780 0.908798
O O1 0.286514 0.500000 0.815423
O O2 0.240098 0.221049 0.845435
O O3 0.330353 0.214047 0.810296
O O4 0.292927 0.287817 0.650926
O O5 0.332721 0.278116 0.216795
O O6 0.311364 0.000000 0.120254
O O7 0.338229 0.282500 0.002940
O O8 0.370831 0.500000 0.839000
O O9 0.412309 0.781883 0.860944
O O10 0.201314 0.500000 0.457226
O O11 0.250000 0.250000 0.500000
O O12 0.165571 0.220594 0.571017
O O13 0.591263 0.234216 0.744927
O O14 0.652375 0.000000 0.686657
O O15 0.549276 0.500000 0.849316
O O16 0.501299 0.772221 0.846813
O O17 0.557545 0.772579 0.962697
O O18 0.950414 0.000000 0.909389
#
# Coordination Sequence:
#
# PCOD9180280 Si02
#       7
#     8   8   8   8   8   8   8
#     4  10  21  36  51  72 103 136 171 209 246 291
#     4  10  19  32  47  70 107 136 159 201 251 298
#     4  10  19  32  52  75 102 135 170 204 245 300
#     4  11  22  37  55  73  99 133 170 212 251 291
#     4  10  20  33  49  72 103 130 158 206 254 291
#     4   9  16  29  50  73  99 129 164 203 246 300
#     4   8  15  28  47  74 102 127 160 205 249 287
#
# _framework density 19.431032999999999
#
# number of rings (size 3 to 8) (size 9 to 14) (size 15 to 20)
#    0.000    2.286    2.857    1.714    0.000    2.286 
#    0.000    2.143    0.000    0.857    0.000    6.000 
#    0.000    0.000    0.000    0.000    0.000    0.000 
#
# Total GULP energy -156241.638221 kJ/mol
# GULP energy per Si atom -5580.058508 kJ/mol
# Density = 1.938681 g / cm^3
# Si number density = 19.431033 Si / 1000 Ang^3
#
#
#
# Elastic Constant Matrix: (Units=GPa)
#
#
# Indices 1 2 3 4 5 6 
#
# 1 162.0796 -9.3888 36.0291 0.0000 -5.6039 0.0000
# 2 -9.3888 46.3416 -16.9542 0.0000 2.0584 0.0000
# 3 36.0291 -16.9542 36.0272 0.0000 -8.4728 0.0000
# 4 0.0000 0.0000 0.0000 18.9825 0.0000 -5.5521
# 5 -5.6039 2.0584 -8.4728 0.0000 32.7444 0.0000
# 6 0.0000 0.0000 0.0000 -5.5521 0.0000 9.4142
#
#
#
# Elastic Compliance Matrix: (Units=1/GPa)
#
#
# Indices 1 2 3 4 5 6 
#
# 1 0.008051 -0.001631 -0.009019 0.000000 -0.000853 0.000000
# 2 -0.001631 0.026480 0.014518 0.000000 0.001813 0.000000
# 3 -0.009019 0.014518 0.045820 0.000000 0.009400 0.000000
# 4 0.000000 0.000000 0.000000 0.063661 0.000000 0.037545
# 5 -0.000853 0.001813 0.009400 0.000000 0.032712 0.000000
# 6 0.000000 0.000000 0.000000 0.037545 0.000000 0.128365
#
#
# Mechanical properties :
#
#
# Convention : Reuss Voigt Hill
#
# Bulk Modulus (GPa) = 11.35248 29.31340 20.33294
# Shear Modulus (GPa) = 15.30392 27.87904 21.59148
#
# Velocity S-wave (km/s) = 2.80947 3.79194 3.33706
# Velocity P-wave (km/s) = 4.04713 5.85580 5.03337
#
# Compressibility (1/GPa) = 0.08808644
#
# Stress axis : x y z
#
# Youngs Moduli (GPa) = 124.21173 37.76499 21.82472
#
# Poissons Ratio (x) = 0.06159 0.19684
# Poissons Ratio (y) = 0.20256 -0.31686
# Poissons Ratio (z) = 1.12031 -0.54829
#
# Static dielectric constant tensor:
#      x y z
#    x 1.712320 0.000000 0.012080 
#    y 0.000000 1.724420 0.000000 
#    z 0.012080 0.000000 1.780560 
# 
# From -- ./inp_files/186478.got.cif
#   From: 2010.05.17/outbox.cif.g08.bks.cpg/sg12_94_cif.got.tgz:186478.got - 2010.06.03 13:09:07.
