data_PCOD9180811
_publ_section_title
;
Structure prediction by ZEFSAII (Michael W. Deem and Ramdas Pophale) SiO2 
 PCOD9180811
Probable space group: C 2/M
;
_chemical_formula_sum "Si O2"
_cell_formula_units_Z 56
_cell_length_a 15.371603
_cell_length_b 15.679615
_cell_length_c 15.103428
_cell_angle_alpha 90.000000
_cell_angle_beta 49.320794
_cell_angle_gamma 90.000000
_cell_volume 2760.652682
_symmetry_space_group_name_H-M "C 2/M"
_symmetry_group_IT_number 12
_symmetry_cell_setting 'monoclinic'
loop_
_space_group_symop_operation_xyz
x,y,z
-x,y,-z
-x,-y,-z
x,-y,z
1/2+x,1/2+y,z
1/2-x,1/2+y,-z
1/2-x,1/2-y,-z
1/2+x,1/2-y,z
loop_
_atom_site_type_symbol
_atom_site_label
_atom_site_fract_x
_atom_site_fract_y
_atom_site_fract_z
Si Si1 0.397922 0.723428 0.413437
Si Si2 0.138738 0.092696 0.416843
Si Si3 0.876600 0.095711 0.273747
Si Si4 0.730765 0.869709 0.201708
Si Si5 0.526810 0.096952 0.586421
Si Si6 0.330007 0.318296 0.774952
Si Si7 0.357804 0.596330 0.935051
O O1 0.341506 0.673251 0.532901
O O2 0.354965 0.673374 0.355237
O O3 0.397155 0.825534 0.425805
O O4 0.534140 0.702074 0.323468
O O5 0.190555 0.110943 0.285901
O O6 0.000000 0.088617 0.500000
O O7 0.176708 0.000000 0.425611
O O8 0.787841 0.095256 0.252512
O O9 0.005101 0.109388 0.150404
O O10 0.876643 0.000000 0.315712
O O11 0.598332 0.898109 0.284829
O O12 0.734328 0.767745 0.205717
O O13 0.798669 0.894466 0.068666
O O14 0.500000 0.114254 0.500000
O O15 0.572464 0.000000 0.563584
O O16 0.308992 0.344485 0.889816
O O17 0.341243 0.500000 0.913947
#
# Coordination Sequence:
#
# PCOD9180811 Si02
#       7
#     8   8   8   8   8   8   8
#     4   9  17  31  50  74 101 133 170 208 255 306
#     4   9  15  27  49  73  99 131 165 205 255 303
#     4  10  20  33  51  78 109 137 169 212 261 312
#     4  11  20  33  52  75 104 139 174 212 260 308
#     4  10  20  35  54  74 100 137 180 220 254 298
#     4   9  18  30  47  74 103 130 167 213 255 305
#     4  10  19  32  51  75 103 134 171 215 263 311
#
# _framework density 20.285057999999999
#
# number of rings (size 3 to 8) (size 9 to 14) (size 15 to 20)
#    0.000    2.286    0.000    5.143    0.000    4.571 
#    0.000    2.857    0.000    3.429    0.000    0.000 
#    0.000   12.571    0.000    0.000    0.000    0.000 
#
# Total GULP energy -156253.951605 kJ/mol
# GULP energy per Si atom -5580.498272 kJ/mol
# Density = 2.023889 g / cm^3
# Si number density = 20.285058 Si / 1000 Ang^3
#
#
#
# Elastic Constant Matrix: (Units=GPa)
#
#
# Indices 1 2 3 4 5 6 
#
# 1 48.1192 43.2064 38.4116 0.0000 6.5176 0.0000
# 2 43.2064 162.5623 35.2816 0.0000 14.9970 0.0000
# 3 38.4116 35.2816 64.9039 0.0000 6.3444 0.0000
# 4 0.0000 0.0000 0.0000 24.3811 0.0000 7.3951
# 5 6.5176 14.9970 6.3444 0.0000 26.9258 0.0000
# 6 0.0000 0.0000 0.0000 7.3951 0.0000 42.7332
#
#
#
# Elastic Compliance Matrix: (Units=1/GPa)
#
#
# Indices 1 2 3 4 5 6 
#
# 1 0.045718 -0.006979 -0.023093 0.000000 -0.001738 0.000000
# 2 -0.006979 0.008295 -0.000095 0.000000 -0.002909 0.000000
# 3 -0.023093 -0.000095 0.029248 0.000000 -0.001249 0.000000
# 4 0.000000 0.000000 0.000000 0.043287 0.000000 -0.007491
# 5 -0.001738 -0.002909 -0.001249 0.000000 0.039474 0.000000
# 6 0.000000 0.000000 0.000000 -0.007491 0.000000 0.024697
#
#
# Mechanical properties :
#
#
# Convention : Reuss Voigt Hill
#
# Bulk Modulus (GPa) = 43.61569 56.59828 50.10699
# Shear Modulus (GPa) = 19.32770 29.38710 24.35740
#
# Velocity S-wave (km/s) = 3.09010 3.81032 3.46895
# Velocity P-wave (km/s) = 5.85489 6.87896 6.38748
#
# Compressibility (1/GPa) = 0.02292753
#
# Stress axis : x y z
#
# Youngs Moduli (GPa) = 21.87335 120.55159 34.19016
#
# Poissons Ratio (x) = 0.84128 0.78957
# Poissons Ratio (y) = 0.15265 0.00324
# Poissons Ratio (z) = 0.50513 0.01143
#
# Static dielectric constant tensor:
#      x y z
#    x 1.702990 0.000000 -0.000330 
#    y 0.000000 1.746650 0.000000 
#    z -0.000330 0.000000 1.700250 
# 
# From -- ./inp_files/225209.got.cif
#   From: 2010.05.17/outbox.cif.g08.bks.cpg/sg12_113_cif.got.tgz:225209.got - 2010.06.03 13:09:07.
