data_PCOD9180189
_publ_section_title
;
Structure prediction by ZEFSAII (Michael W. Deem and Ramdas Pophale) SiO2 
 PCOD9180189
Probable space group: C 2/M
;
_chemical_formula_sum "Si O2"
_cell_formula_units_Z 64
_cell_length_a 15.074143
_cell_length_b 7.654454
_cell_length_c 26.883047
_cell_angle_alpha 90.000000
_cell_angle_beta 119.698674
_cell_angle_gamma 90.000000
_cell_volume 2694.428442
_symmetry_space_group_name_H-M "C 2/M"
_symmetry_group_IT_number 12
_symmetry_cell_setting 'monoclinic'
loop_
_space_group_symop_operation_xyz
x,y,z
-x,y,-z
-x,-y,-z
x,-y,z
1/2+x,1/2+y,z
1/2-x,1/2+y,-z
1/2-x,1/2-y,-z
1/2+x,1/2-y,z
loop_
_atom_site_type_symbol
_atom_site_label
_atom_site_fract_x
_atom_site_fract_y
_atom_site_fract_z
Si Si1 0.097365 0.290257 0.376674
Si Si2 0.422167 0.293257 0.895207
Si Si3 0.436044 0.801063 0.258061
Si Si4 0.768676 0.211534 0.346676
Si Si5 0.489425 0.709734 0.440877
Si Si6 0.397502 0.706828 0.775488
Si Si7 0.791473 0.714996 0.137422
Si Si8 0.359628 0.793594 0.052724
O O1 0.095342 0.500000 0.370574
O O2 0.995860 0.217269 0.320553
O O3 0.083507 0.250137 0.430529
O O4 0.195617 0.231176 0.372547
O O5 0.407565 0.500000 0.888070
O O6 0.408651 0.226583 0.834809
O O7 0.325960 0.228511 0.899965
O O8 0.537203 0.266033 0.945022
O O9 0.523048 0.800897 0.239143
O O10 0.339298 0.723544 0.202711
O O11 0.409142 0.000000 0.264180
O O12 0.883147 0.275498 0.387700
O O13 0.713295 0.269504 0.280626
O O14 0.769662 0.000000 0.346400
O O15 0.500000 0.775702 0.500000
O O16 0.481948 0.500000 0.441448
O O17 0.420750 0.500000 0.781101
O O18 0.797203 0.500000 0.139027
O O19 0.855660 0.777789 0.108088
O O20 0.367215 0.000000 0.057273
O O21 0.250000 0.750000 0.000000
#
# Coordination Sequence:
#
# PCOD9180189 Si02
#       8
#     8   8   8   8   8   8   8   8
#     4   9  19  34  56  82 110 145 186 231 274 330
#     4  10  21  37  58  86 115 146 188 232 275 331
#     4   9  17  34  58  81 114 152 187 221 275 347
#     4   9  20  38  56  77 111 152 186 222 280 346
#     4  10  22  39  57  79 111 150 191 234 281 335
#     4  10  19  31  55  87 117 142 179 235 282 322
#     4   9  19  36  59  83 111 153 190 219 273 344
#     4  11  23  41  63  83 112 153 194 234 279 331
#
# _framework density 23.752717000000001
#
# number of rings (size 3 to 8) (size 9 to 14) (size 15 to 20)
#    0.000    2.375    1.250    1.500    1.750    4.250 
#    0.000    4.375    0.000    0.000    0.000    0.000 
#    0.000    0.000    0.000    0.000    0.000    0.000 
#
# Total GULP energy -178713.593007 kJ/mol
# GULP energy per Si atom -5584.799781 kJ/mol
# Density = 2.369865 g / cm^3
# Si number density = 23.752717 Si / 1000 Ang^3
#
#
#
# Elastic Constant Matrix: (Units=GPa)
#
#
# Indices 1 2 3 4 5 6 
#
# 1 88.5883 1.1039 2.1521 0.0000 11.1629 0.0000
# 2 1.1039 49.5581 -2.2812 0.0000 -0.7964 0.0000
# 3 2.1521 -2.2812 27.9558 0.0000 -0.1050 0.0000
# 4 0.0000 0.0000 0.0000 18.0129 0.0000 0.9310
# 5 11.1629 -0.7964 -0.1050 0.0000 30.3627 0.0000
# 6 0.0000 0.0000 0.0000 0.9310 0.0000 12.3919
#
#
#
# Elastic Compliance Matrix: (Units=1/GPa)
#
#
# Indices 1 2 3 4 5 6 
#
# 1 0.011868 -0.000379 -0.000961 0.000000 -0.004376 0.000000
# 2 -0.000379 0.020275 0.001686 0.000000 0.000677 0.000000
# 3 -0.000961 0.001686 0.035984 0.000000 0.000522 0.000000
# 4 0.000000 0.000000 0.000000 0.055732 0.000000 -0.004187
# 5 -0.004376 0.000677 0.000522 0.000000 0.034564 0.000000
# 6 0.000000 0.000000 0.000000 -0.004187 0.000000 0.081013
#
#
# Mechanical properties :
#
#
# Convention : Reuss Voigt Hill
#
# Bulk Modulus (GPa) = 14.53070 18.67244 16.60157
# Shear Modulus (GPa) = 19.10709 23.16199 21.13454
#
# Velocity S-wave (km/s) = 2.83930 3.12609 2.98614
# Velocity P-wave (km/s) = 4.10848 4.57255 4.34671
#
# Compressibility (1/GPa) = 0.06881979
#
# Stress axis : x y z
#
# Youngs Moduli (GPa) = 84.26223 49.32115 27.78994
#
# Poissons Ratio (x) = 0.01869 0.02671
# Poissons Ratio (y) = 0.03193 -0.04686
# Poissons Ratio (z) = 0.08097 -0.08316
#
# Static dielectric constant tensor:
#      x y z
#    x 1.887350 0.000000 0.005050 
#    y 0.000000 1.894980 0.000000 
#    z 0.005050 0.000000 1.928010 
# 
# From -- ./inp_files/359962.got.cif
#   From: 2010.05.17/outbox.cif.g08.bks.cpg/sg12_180_cif.got.tgz:359962.got - 2010.06.03 13:09:07.
