data_PCOD9180906
_publ_section_title
;
Structure prediction by ZEFSAII (Michael W. Deem and Ramdas Pophale) SiO2 
 PCOD9180906
Probable space group: C 2/M
;
_chemical_formula_sum "Si O2"
_cell_formula_units_Z 40
_cell_length_a 20.995678
_cell_length_b 8.732647
_cell_length_c 18.664574
_cell_angle_alpha 90.000000
_cell_angle_beta 43.050592
_cell_angle_gamma 90.000000
_cell_volume 2336.082037
_symmetry_space_group_name_H-M "C 2/M"
_symmetry_group_IT_number 12
_symmetry_cell_setting 'monoclinic'
loop_
_space_group_symop_operation_xyz
x,y,z
-x,y,-z
-x,-y,-z
x,-y,z
1/2+x,1/2+y,z
1/2-x,1/2+y,-z
1/2-x,1/2-y,-z
1/2+x,1/2-y,z
loop_
_atom_site_type_symbol
_atom_site_label
_atom_site_fract_x
_atom_site_fract_y
_atom_site_fract_z
Si Si1 0.533297 0.183656 0.730095
Si Si2 0.346981 0.684180 0.948307
Si Si3 0.105886 0.815641 0.928374
Si Si4 0.190666 0.683724 0.718886
Si Si5 0.671014 0.683980 0.511841
O O1 0.433612 0.252337 0.831481
O O2 0.606339 0.228413 0.733713
O O3 0.576058 0.246556 0.620723
O O4 0.530033 0.000000 0.730535
O O5 0.346519 0.500000 0.945501
O O6 0.250000 0.750000 0.000000
O O7 0.363529 0.731580 0.017423
O O8 0.171527 0.755849 0.811261
O O9 0.105454 0.000000 0.926493
O O10 0.000000 0.762019 0.000000
O O11 0.187725 0.500000 0.727204
O O12 0.288191 0.724947 0.599850
O O13 0.668615 0.500000 0.519270
O O14 0.750000 0.750000 0.500000
#
# Coordination Sequence:
#
# PCOD9180906 Si02
#       5
#     8   8   8   8   8
#     4  10  19  32  51  77 106 140 178 217 263 314
#     4  11  23  38  55  77 107 143 179 218 264 317
#     4  10  20  34  53  78 106 138 175 218 266 312
#     4   9  18  30  49  78 108 137 172 215 262 311
#     4   9  17  29  46  74 107 139 174 215 264 313
#
# _framework density 17.122686999999999
#
# number of rings (size 3 to 8) (size 9 to 14) (size 15 to 20)
#    0.000    2.200    2.000    3.000    0.000    6.000 
#    0.000    0.000    0.000    1.200    0.000    8.400 
#    0.000    0.000    0.000    0.000    0.000    0.000 
#
# Total GULP energy -111522.690114 kJ/mol
# GULP energy per Si atom -5576.134506 kJ/mol
# Density = 1.708371 g / cm^3
# Si number density = 17.122687 Si / 1000 Ang^3
#
#
#
# Elastic Constant Matrix: (Units=GPa)
#
#
# Indices 1 2 3 4 5 6 
#
# 1 84.4017 30.8587 71.9893 0.0000 -3.2388 0.0000
# 2 30.8587 43.9279 51.9764 0.0000 -2.6006 0.0000
# 3 71.9893 51.9764 207.4834 0.0000 2.5301 0.0000
# 4 0.0000 0.0000 0.0000 37.3564 0.0000 0.5221
# 5 -3.2388 -2.6006 2.5301 0.0000 19.3238 0.0000
# 6 0.0000 0.0000 0.0000 0.5221 0.0000 20.8956
#
#
#
# Elastic Compliance Matrix: (Units=1/GPa)
#
#
# Indices 1 2 3 4 5 6 
#
# 1 0.018623 -0.007442 -0.004630 0.000000 0.002726 0.000000
# 2 -0.007442 0.035907 -0.006467 0.000000 0.004432 0.000000
# 3 -0.004630 -0.006467 0.008079 0.000000 -0.002704 0.000000
# 4 0.000000 0.000000 0.000000 0.026779 0.000000 -0.000669
# 5 0.002726 0.004432 -0.002704 0.000000 0.053157 0.000000
# 6 0.000000 0.000000 0.000000 -0.000669 0.000000 0.047874
#
#
# Mechanical properties :
#
#
# Convention : Reuss Voigt Hill
#
# Bulk Modulus (GPa) = 39.16955 71.71797 55.44376
# Shear Modulus (GPa) = 21.18577 27.58106 24.38342
#
# Velocity S-wave (km/s) = 3.52133 4.01782 3.77774
# Velocity P-wave (km/s) = 6.28160 7.96866 7.17489
#
# Compressibility (1/GPa) = 0.02553004
#
# Stress axis : x y z
#
# Youngs Moduli (GPa) = 53.69626 27.85005 123.77420
#
# Poissons Ratio (x) = 0.20727 0.57314
# Poissons Ratio (y) = 0.39962 0.80042
# Poissons Ratio (z) = 0.24864 0.18010
#
# Static dielectric constant tensor:
#      x y z
#    x 0.716350 0.000000 0.745600 
#    y 0.000000 1.575300 0.000000 
#    z 0.745600 0.000000 0.948320 
# 
# From -- ./inp_files/162744.got.cif
#   From: 2010.05.17/outbox.cif.g08.bks.cpg/sg12_82_cif.got.tgz:162744.got - 2010.06.03 13:09:07.
