data_PCOD9180884
_publ_section_title
;
Structure prediction by ZEFSAII (Michael W. Deem and Ramdas Pophale) SiO2 
 PCOD9180884
Probable space group: C 2/M
;
_chemical_formula_sum "Si O2"
_cell_formula_units_Z 64
_cell_length_a 31.753068
_cell_length_b 7.462315
_cell_length_c 11.487035
_cell_angle_alpha 90.000000
_cell_angle_beta 94.232188
_cell_angle_gamma 90.000000
_cell_volume 2714.446916
_symmetry_space_group_name_H-M "C 2/M"
_symmetry_group_IT_number 12
_symmetry_cell_setting 'monoclinic'
loop_
_space_group_symop_operation_xyz
x,y,z
-x,y,-z
-x,-y,-z
x,-y,z
1/2+x,1/2+y,z
1/2-x,1/2+y,-z
1/2-x,1/2-y,-z
1/2+x,1/2-y,z
loop_
_atom_site_type_symbol
_atom_site_label
_atom_site_fract_x
_atom_site_fract_y
_atom_site_fract_z
Si Si1 0.395279 0.204117 0.149422
Si Si2 0.182467 0.719725 0.715022
Si Si3 0.617688 0.281140 0.346747
Si Si4 0.359396 0.716695 0.894903
Si Si5 0.798132 0.804020 0.534400
Si Si6 0.528458 0.714955 0.395609
Si Si7 0.988254 0.715809 0.131456
Si Si8 0.763903 0.212924 0.871700
O O1 0.357930 0.280795 0.220258
O O2 0.441333 0.287307 0.151478
O O3 0.401133 0.000000 0.192179
O O4 0.377184 0.203779 0.015853
O O5 0.182908 0.500000 0.709943
O O6 0.181140 0.799796 0.587834
O O7 0.226576 0.779696 0.781724
O O8 0.619545 0.500000 0.358227
O O9 0.612005 0.239593 0.209707
O O10 0.664545 0.210508 0.386573
O O11 0.577219 0.219751 0.410918
O O12 0.358648 0.500000 0.907398
O O13 0.311334 0.779197 0.864997
O O14 0.750000 0.750000 0.500000
O O15 0.793494 0.000000 0.587800
O O16 0.500000 0.780759 0.500000
O O17 0.529320 0.500000 0.407123
O O18 0.513477 0.748465 0.258120
O O19 0.986954 0.500000 0.121126
O O20 0.000000 0.777687 0.000000
O O21 0.765314 0.000000 0.855823
O O22 0.750000 0.250000 0.000000
#
# Coordination Sequence:
#
# PCOD9180884 Si02
#       8
#     8   8   8   8   8   8   8   8
#     4  10  21  36  56  83 117 154 188 237 296 350
#     4  10  21  37  55  79 115 152 191 238 291 345
#     4   9  20  39  60  84 117 154 190 240 297 342
#     4  10  19  33  56  82 110 147 192 236 287 350
#     4  11  23  40  62  85 116 154 195 240 290 347
#     4  10  22  40  64  92 121 157 204 253 303 361
#     4  10  22  40  61  88 123 160 200 248 306 366
#     4  10  19  32  51  76 109 148 185 233 288 341
#
# _framework density 23.577546000000002
#
# number of rings (size 3 to 8) (size 9 to 14) (size 15 to 20)
#    0.000    2.000    1.250    1.875    1.750    4.000 
#    0.000    3.750    0.000    0.000    0.000    0.000 
#    0.000    0.000    0.000    0.000    0.000    0.000 
#
# Total GULP energy -178526.350662 kJ/mol
# GULP energy per Si atom -5578.948458 kJ/mol
# Density = 2.352388 g / cm^3
# Si number density = 23.577546 Si / 1000 Ang^3
#
#
#
# Elastic Constant Matrix: (Units=GPa)
#
#
# Indices 1 2 3 4 5 6 
#
# 1 169.2066 6.8693 40.7629 0.0000 -13.8192 0.0000
# 2 6.8693 71.8223 -7.3767 0.0000 -3.8623 0.0000
# 3 40.7629 -7.3767 113.6687 0.0000 -5.9084 0.0000
# 4 0.0000 0.0000 0.0000 5.2139 0.0000 -11.4884
# 5 -13.8192 -3.8623 -5.9084 0.0000 27.8542 0.0000
# 6 0.0000 0.0000 0.0000 -11.4884 0.0000 -36.1363
#
#
#
# Elastic Compliance Matrix: (Units=1/GPa)
#
#
# Indices 1 2 3 4 5 6 
#
# 1 0.006721 -0.000733 -0.002315 0.000000 0.002742 0.000000
# 2 -0.000733 0.014226 0.001284 0.000000 0.001881 0.000000
# 3 -0.002315 0.001284 0.009768 0.000000 0.001101 0.000000
# 4 0.000000 0.000000 0.000000 0.112787 0.000000 -0.035857
# 5 0.002742 0.001881 0.001101 0.000000 0.037756 0.000000
# 6 0.000000 0.000000 0.000000 -0.035857 0.000000 -0.016273
#
#
# Mechanical properties :
#
#
# Convention : Reuss Voigt Hill
#
# Bulk Modulus (GPa) = 36.78247 48.35651 42.56949
# Shear Modulus (GPa) = 28.15671 20.34917 24.25294
#
# Velocity S-wave (km/s) = 3.45949 2.94100 3.21073
# Velocity P-wave (km/s) = 5.62067 5.66451 5.64264
#
# Compressibility (1/GPa) = 0.02718687
#
# Stress axis : x y z
#
# Youngs Moduli (GPa) = 148.77776 70.29174 102.37077
#
# Poissons Ratio (x) = 0.05154 0.23703
# Poissons Ratio (y) = 0.10909 -0.13144
# Poissons Ratio (z) = 0.34449 -0.09025
#
# Static dielectric constant tensor:
#      x y z
#    x 1.924660 0.000000 0.028940 
#    y 0.000000 1.894010 0.000000 
#    z 0.028940 0.000000 1.889160 
# 
# From -- ./inp_files/187473.got.cif
#   From: 2010.05.17/outbox.cif.g08.bks.cpg/sg12_94_cif.got.tgz:187473.got - 2010.06.03 13:09:07.
