data_PCOD9180054
_publ_section_title
;
Structure prediction by ZEFSAII (Michael W. Deem and Ramdas Pophale) SiO2 
 PCOD9180054
Probable space group: C 2/M
;
_chemical_formula_sum "Si O2"
_cell_formula_units_Z 48
_cell_length_a 20.176004
_cell_length_b 7.431218
_cell_length_c 15.451533
_cell_angle_alpha 90.000000
_cell_angle_beta 64.690845
_cell_angle_gamma 90.000000
_cell_volume 2094.315026
_symmetry_space_group_name_H-M "C 2/M"
_symmetry_group_IT_number 12
_symmetry_cell_setting 'monoclinic'
loop_
_space_group_symop_operation_xyz
x,y,z
-x,y,-z
-x,-y,-z
x,-y,z
1/2+x,1/2+y,z
1/2-x,1/2+y,-z
1/2-x,1/2-y,-z
1/2+x,1/2-y,z
loop_
_atom_site_type_symbol
_atom_site_label
_atom_site_fract_x
_atom_site_fract_y
_atom_site_fract_z
Si Si1 0.340686 0.286820 0.747400
Si Si2 0.661345 0.282542 0.630681
Si Si3 0.935478 0.709203 0.152022
Si Si4 0.169076 0.208103 0.435024
Si Si5 0.408366 0.783473 0.883471
Si Si6 0.812042 0.279739 0.088201
O O1 0.329287 0.500000 0.741236
O O2 0.355517 0.212786 0.643228
O O3 0.401286 0.264309 0.787134
O O4 0.265228 0.214701 0.831489
O O5 0.664270 0.500000 0.628398
O O6 0.602303 0.222382 0.733241
O O7 0.742050 0.216704 0.613876
O O8 0.646769 0.216055 0.541013
O O9 0.944252 0.500000 0.123115
O O10 0.876902 0.781197 0.116417
O O11 0.016936 0.785511 0.114729
O O12 0.145306 0.000000 0.450499
O O13 0.410054 0.000000 0.886842
O O14 0.338043 0.722298 0.978356
O O15 0.809396 0.500000 0.090383
#
# Coordination Sequence:
#
# PCOD9180054 Si02
#       6
#     8   8   8   8   8   8
#     4  10  19  34  55  76 104 139 169 208 261 314
#     4  10  19  31  53  82 105 128 169 221 259 297
#     4  10  19  35  55  75 105 141 174 210 256 310
#     4   9  18  34  54  77 104 136 171 207 257 313
#     4  10  21  34  52  78 106 137 175 217 255 299
#     4   9  17  33  56  77  98 136 182 213 249 306
#
# _framework density 22.919187999999998
#
# number of rings (size 3 to 8) (size 9 to 14) (size 15 to 20)
#    0.000    2.333    1.667    1.500    0.000    4.000 
#    0.000    1.667    0.000    7.000    0.000    0.000 
#    0.000    0.000    0.000    0.000    0.000    0.000 
#
# Total GULP energy -134026.970451 kJ/mol
# GULP energy per Si atom -5584.457102 kJ/mol
# Density = 2.286702 g / cm^3
# Si number density = 22.919188 Si / 1000 Ang^3
#
#
#
# Elastic Constant Matrix: (Units=GPa)
#
#
# Indices 1 2 3 4 5 6 
#
# 1 48.6610 -8.4710 -3.2980 0.0000 18.8196 0.0000
# 2 -8.4710 74.5634 -2.8721 0.0001 5.6132 0.0003
# 3 -3.2980 -2.8721 79.9824 0.0000 14.3156 0.0000
# 4 0.0000 0.0001 0.0000 9.0866 0.0000 2.1573
# 5 18.8196 5.6132 14.3156 0.0000 35.3035 0.0000
# 6 0.0000 0.0003 0.0000 2.1573 0.0000 10.7273
#
#
#
# Elastic Compliance Matrix: (Units=1/GPa)
#
#
# Indices 1 2 3 4 5 6 
#
# 1 0.028587 0.004766 0.004543 0.000000 -0.017839 0.000000
# 2 0.004766 0.014434 0.001704 0.000000 -0.005526 0.000000
# 3 0.004543 0.001704 0.014269 0.000000 -0.008479 0.000000
# 4 0.000000 0.000000 0.000000 0.115570 0.000000 -0.023241
# 5 -0.017839 -0.005526 -0.008479 0.000000 0.042152 0.000000
# 6 0.000000 0.000000 0.000000 -0.023241 0.000000 0.097894
#
#
# Mechanical properties :
#
#
# Convention : Reuss Voigt Hill
#
# Bulk Modulus (GPa) = 12.60793 19.32496 15.96644
# Shear Modulus (GPa) = 15.75695 25.54667 20.65181
#
# Velocity S-wave (km/s) = 2.62487 3.34225 3.00504
# Velocity P-wave (km/s) = 3.83400 4.83159 4.36141
#
# Compressibility (1/GPa) = 0.07931518
#
# Stress axis : x y z
#
# Youngs Moduli (GPa) = 34.98087 69.27850 70.08299
#
# Poissons Ratio (x) = -0.33016 -0.31837
# Poissons Ratio (y) = -0.16671 -0.11942
# Poissons Ratio (z) = -0.15891 -0.11805
#
# Static dielectric constant tensor:
#      x y z
#    x 1.826910 0.000000 0.028170 
#    y 0.000000 2.164980 0.000000 
#    z 0.028170 0.000000 1.863300 
# 
# From -- ./inp_files/229850.got.cif
#   From: 2010.05.17/outbox.cif.g08.bks.cpg/sg12_115_cif.got.tgz:229850.got - 2010.06.03 13:09:07.
