data_PCOD9180981
_publ_section_title
;
Structure prediction by ZEFSAII (Michael W. Deem and Ramdas Pophale) SiO2 
 PCOD9180981
Probable space group: C 2/M
;
_chemical_formula_sum "Si O2"
_cell_formula_units_Z 58
_cell_length_a 30.325981
_cell_length_b 7.329093
_cell_length_c 21.634593
_cell_angle_alpha 90.000000
_cell_angle_beta 147.345225
_cell_angle_gamma 90.000000
_cell_volume 2594.575936
_symmetry_space_group_name_H-M "C 2/M"
_symmetry_group_IT_number 12
_symmetry_cell_setting 'monoclinic'
loop_
_space_group_symop_operation_xyz
x,y,z
-x,y,-z
-x,-y,-z
x,-y,z
1/2+x,1/2+y,z
1/2-x,1/2+y,-z
1/2-x,1/2-y,-z
1/2+x,1/2-y,z
loop_
_atom_site_type_symbol
_atom_site_label
_atom_site_fract_x
_atom_site_fract_y
_atom_site_fract_z
Si Si1 0.327578 0.221286 0.945623
Si Si2 0.500000 0.000000 0.500000
Si Si3 0.202767 0.280836 0.227048
Si Si4 0.992092 0.222094 0.317155
Si Si5 0.690180 0.717085 0.871514
Si Si6 0.548436 0.710390 0.116339
Si Si7 0.609275 0.280972 0.569935
Si Si8 0.002995 0.791944 0.195435
O O1 0.334087 0.278222 0.882371
O O2 0.242086 0.281864 0.874026
O O3 0.330275 0.000000 0.951121
O O4 0.404452 0.291639 0.074555
O O5 0.428964 0.838934 0.421175
O O6 0.199680 0.500000 0.225561
O O7 0.143619 0.214068 0.210963
O O8 0.297882 0.232267 0.337780
O O9 0.900470 0.288923 0.223583
O O10 0.051921 0.267069 0.443701
O O11 0.021683 0.287708 0.284787
O O12 0.989493 0.000000 0.310459
O O13 0.680967 0.500000 0.853011
O O14 0.750000 0.750000 0.000000
O O15 0.520541 0.500000 0.087749
O O16 0.531707 0.792064 0.164228
O O17 0.500000 0.791227 0.000000
O O18 0.605805 0.500000 0.578201
O O19 0.034198 0.000000 0.232869
#
# Coordination Sequence:
#
# PCOD9180981 Si02
#       8
#     8   2   8   8   8   8   8   8
#     4  10  20  32  50  83 117 150 193 248 305 364
#     4  12  26  44  68 102 118 168 220 252 308 372
#     4  10  22  39  61  84 119 162 204 255 316 375
#     4   9  19  38  61  79 118 166 203 246 305 377
#     4  10  19  32  51  80 112 151 192 238 300 363
#     4  10  20  34  57  89 123 156 199 262 321 367
#     4  10  24  46  66  92 130 168 210 263 309 367
#     4  10  19  35  57  85 114 159 203 243 313 376
#
# _framework density 22.354327999999999
#
# number of rings (size 3 to 8) (size 9 to 14) (size 15 to 20)
#    0.000    2.069    2.759    0.207    2.897    0.828 
#    2.483    0.690    0.000    0.000    0.000    0.000 
#    0.000    0.000    0.000    0.000    0.000    0.000 
#
# Total GULP energy -161766.620419 kJ/mol
# GULP energy per Si atom -5578.159325 kJ/mol
# Density = 2.230345 g / cm^3
# Si number density = 22.354328 Si / 1000 Ang^3
#
#
#
# Elastic Constant Matrix: (Units=GPa)
#
#
# Indices 1 2 3 4 5 6 
#
# 1 101.9043 7.5694 -1.5947 0.0000 15.7171 0.0000
# 2 7.5694 99.6631 1.5940 0.0000 6.5612 0.0000
# 3 -1.5947 1.5940 68.8361 0.0000 14.2198 0.0000
# 4 0.0000 0.0000 0.0000 14.7065 0.0000 10.0801
# 5 15.7171 6.5612 14.2198 0.0000 37.6456 0.0000
# 6 0.0000 0.0000 0.0000 10.0801 0.0000 8.4588
#
#
#
# Elastic Compliance Matrix: (Units=1/GPa)
#
#
# Indices 1 2 3 4 5 6 
#
# 1 0.010613 -0.000509 0.001252 0.000000 -0.004815 0.000000
# 2 -0.000509 0.010176 0.000081 0.000000 -0.001592 0.000000
# 3 0.001252 0.000081 0.015906 0.000000 -0.006545 0.000000
# 4 0.000000 0.000000 0.000000 0.371150 0.000000 -0.442289
# 5 -0.004815 -0.001592 -0.006545 0.000000 0.031324 0.000000
# 6 0.000000 0.000000 0.000000 -0.442289 0.000000 0.645285
#
#
# Mechanical properties :
#
#
# Convention : Reuss Voigt Hill
#
# Bulk Modulus (GPa) = 26.07897 31.72677 28.90287
# Shear Modulus (GPa) = 4.56377 29.68449 17.12413
#
# Velocity S-wave (km/s) = 1.43038 3.64800 2.77073
# Velocity P-wave (km/s) = 3.79730 5.65397 4.81596
#
# Compressibility (1/GPa) = 0.03834507
#
# Stress axis : x y z
#
# Youngs Moduli (GPa) = 94.22196 98.27079 62.86740
#
# Poissons Ratio (x) = 0.05003 -0.07873
# Poissons Ratio (y) = 0.04797 -0.00512
# Poissons Ratio (z) = -0.11800 -0.00800
#
# Static dielectric constant tensor:
#      x y z
#    x 1.871630 0.000000 -0.023030 
#    y 0.000000 1.963580 0.000000 
#    z -0.023030 0.000000 1.784010 
# 
# From -- ./inp_files/353066.got.cif
#   From: 2010.05.17/outbox.cif.g08.bks.cpg/sg12_177_cif.got.tgz:353066.got - 2010.06.03 13:09:07.
