data_PCOD9180017
_publ_section_title
;
Structure prediction by ZEFSAII (Michael W. Deem and Ramdas Pophale) SiO2 
 PCOD9180017
Probable space group: C 2/M
;
_chemical_formula_sum "Si O2"
_cell_formula_units_Z 56
_cell_length_a 24.491445
_cell_length_b 17.548474
_cell_length_c 18.389570
_cell_angle_alpha 90.000000
_cell_angle_beta 158.764619
_cell_angle_gamma 90.000000
_cell_volume 2862.688254
_symmetry_space_group_name_H-M "C 2/M"
_symmetry_group_IT_number 12
_symmetry_cell_setting 'monoclinic'
loop_
_space_group_symop_operation_xyz
x,y,z
-x,y,-z
-x,-y,-z
x,-y,z
1/2+x,1/2+y,z
1/2-x,1/2+y,-z
1/2-x,1/2-y,-z
1/2+x,1/2-y,z
loop_
_atom_site_type_symbol
_atom_site_label
_atom_site_fract_x
_atom_site_fract_y
_atom_site_fract_z
Si Si1 0.614201 0.818650 0.471775
Si Si2 0.012464 0.585845 0.936078
Si Si3 0.826904 0.705850 0.297340
Si Si4 0.730873 0.830463 0.935057
Si Si5 0.051096 0.861803 0.365889
Si Si6 0.277322 0.090487 0.527937
Si Si7 0.348232 0.613505 0.350565
O O1 0.704219 0.822587 0.659963
O O2 0.443528 0.853113 0.268106
O O3 0.584815 0.729361 0.415596
O O4 0.705590 0.861982 0.523803
O O5 0.950354 0.500000 0.868289
O O6 0.911745 0.620092 0.747931
O O7 0.186131 0.581089 0.129880
O O8 0.000000 0.624280 0.000000
O O9 0.744697 0.680949 0.121556
O O10 0.829675 0.797365 0.306699
O O11 0.000000 0.682428 0.500000
O O12 0.750000 0.750000 0.000000
O O13 0.872003 0.877169 0.141307
O O14 0.128616 0.893372 0.390077
O O15 0.124764 0.896018 0.529955
O O16 0.293809 0.000000 0.534635
O O17 0.500000 0.586542 0.500000
#
# Coordination Sequence:
#
# PCOD9180017 Si02
#       7
#     8   8   8   8   8   8   8
#     4   9  19  35  58  80 107 139 186 226 269 331
#     4  10  21  36  50  69 105 152 184 213 267 328
#     4   8  16  32  52  83 110 134 165 222 281 325
#     4   9  17  31  57  84 111 135 170 229 283 321
#     4  10  20  34  53  83 109 141 177 227 282 326
#     4  11  23  38  54  74 110 153 189 225 269 326
#     4  10  19  31  53  78 109 138 175 218 274 332
#
# _framework density 19.562031999999999
#
# number of rings (size 3 to 8) (size 9 to 14) (size 15 to 20)
#    0.000    2.429    1.429    3.000    6.000    0.286 
#    0.000    1.429    0.000    5.571    0.000    0.000 
#    0.000    0.000    0.000    0.000    0.000    0.000 
#
# Total GULP energy -155973.434499 kJ/mol
# GULP energy per Si atom -5570.479804 kJ/mol
# Density = 1.951751 g / cm^3
# Si number density = 19.562032 Si / 1000 Ang^3
#
#
#
# Elastic Constant Matrix: (Units=GPa)
#
#
# Indices 1 2 3 4 5 6 
#
# 1 95.8690 13.8656 -2.8097 0.0008 -1.0191 0.0007
# 2 13.8656 20.4635 -4.0558 0.0007 0.5341 0.0006
# 3 -2.8097 -4.0558 58.0994 0.0017 4.7093 0.0015
# 4 0.0008 0.0007 0.0017 10.9707 0.0005 12.2684
# 5 -1.0191 0.5341 4.7093 0.0005 36.3888 0.0004
# 6 0.0007 0.0006 0.0015 12.2684 0.0004 10.7810
#
#
#
# Elastic Compliance Matrix: (Units=1/GPa)
#
#
# Indices 1 2 3 4 5 6 
#
# 1 0.011571 -0.007857 -0.000025 0.000000 0.000443 0.000000
# 2 -0.007857 0.054939 0.003576 0.000000 -0.001489 -0.000004
# 3 -0.000025 0.003576 0.017650 0.000000 -0.002337 -0.000003
# 4 0.000000 0.000000 0.000000 -0.334404 0.000000 0.380541
# 5 0.000443 -0.001489 -0.002337 0.000000 0.027818 -0.000001
# 6 0.000000 -0.000004 -0.000003 0.380541 -0.000001 -0.340288
#
#
# Mechanical properties :
#
#
# Convention : Reuss Voigt Hill
#
# Bulk Modulus (GPa) = 13.23657 20.93691 17.08674
# Shear Modulus (GPa) = -9.45321 22.79021 6.66850
#
# Velocity S-wave (km/s) = -2.20066 3.41695 1.84832
# Velocity P-wave (km/s) = 0.56914 5.12771 3.64811
#
# Compressibility (1/GPa) = 0.07554827
#
# Stress axis : x y z
#
# Youngs Moduli (GPa) = 86.42137 18.20212 56.65800
#
# Poissons Ratio (x) = 0.14301 0.00140
# Poissons Ratio (y) = 0.67900 -0.20260
# Poissons Ratio (z) = 0.00214 -0.06509
#
# Static dielectric constant tensor:
#      x y z
#    x 1.732660 0.000000 -0.011340 
#    y 0.000000 1.703460 0.000000 
#    z -0.011340 0.000000 1.706210 
# 
# From -- ./inp_files/89675.got.cif
#   From: 2010.05.17/outbox.cif.g08.bks.cpg/sg12_45_cif.got.tgz:89675.got - 2010.06.03 13:09:07.
