data_PCOD9180250
_publ_section_title
;
Structure prediction by ZEFSAII (Michael W. Deem and Ramdas Pophale) SiO2 
 PCOD9180250
Probable space group: C 2/M
;
_chemical_formula_sum "Si O2"
_cell_formula_units_Z 56
_cell_length_a 12.310057
_cell_length_b 31.947116
_cell_length_c 9.903726
_cell_angle_alpha 90.000000
_cell_angle_beta 36.435752
_cell_angle_gamma 90.000000
_cell_volume 2313.231155
_symmetry_space_group_name_H-M "C 2/M"
_symmetry_group_IT_number 12
_symmetry_cell_setting 'monoclinic'
loop_
_space_group_symop_operation_xyz
x,y,z
-x,y,-z
-x,-y,-z
x,-y,z
1/2+x,1/2+y,z
1/2-x,1/2+y,-z
1/2-x,1/2-y,-z
1/2+x,1/2-y,z
loop_
_atom_site_type_symbol
_atom_site_label
_atom_site_fract_x
_atom_site_fract_y
_atom_site_fract_z
Si Si1 0.681626 0.192025 0.068373
Si Si2 0.277315 0.452745 0.711370
Si Si3 0.250001 0.250000 0.242700
Si Si4 0.384755 0.698512 0.365246
Si Si5 0.722685 0.452745 0.765999
Si Si6 0.177822 0.106404 0.572178
Si Si7 0.768822 0.403684 0.981178
O O1 0.640555 0.219392 0.973791
O O2 0.639239 0.142430 0.110760
O O3 0.900719 0.191996 0.849279
O O4 0.640557 0.219391 0.245096
O O5 0.500000 0.455017 0.500000
O O6 0.216206 0.500000 0.743517
O O7 0.246339 0.418471 0.629454
O O8 0.194803 0.432831 0.927542
O O9 0.342640 0.280139 0.262709
O O10 0.157363 0.219863 0.447987
O O11 0.279537 0.654957 0.470465
O O12 0.783794 0.500000 0.675930
O O13 0.753661 0.418471 0.622130
O O14 0.500000 0.455017 0.000000
O O15 0.805197 0.432830 0.817146
O O16 0.954397 0.103116 0.795603
#
# Coordination Sequence:
#
# PCOD9180250 Si02
#       7
#     8   8   8   8   8   8   8
#     4  10  19  32  46  63  87 114 151 188 216 259
#     4   9  15  22  33  52  76 103 140 175 197 228
#     4  10  20  30  46  66  82 110 152 186 228 260
#     4  10  19  32  46  63  87 114 151 188 216 259
#     4   9  15  22  33  52  76 103 140 175 197 228
#     4   9  16  25  38  53  75 109 141 173 206 235
#     4   9  16  25  38  53  75 109 141 173 206 235
#
# _framework density 24.208561
#
# number of rings (size 3 to 8) (size 9 to 14) (size 15 to 20)
#    0.000    2.571    0.000    3.429    0.000    8.000 
#    0.000    0.000    0.000    0.000    0.000    0.000 
#    0.000    0.000    0.000    0.000    0.000 1320.000 
#
# Total GULP energy -156283.689803 kJ/mol
# GULP energy per Si atom -5581.560350 kJ/mol
# Density = 2.415346 g / cm^3
# Si number density = 24.208561 Si / 1000 Ang^3
#
#
#
# Elastic Constant Matrix: (Units=GPa)
#
#
# Indices 1 2 3 4 5 6 
#
# 1 73.7289 44.6743 49.9907 0.0000 16.7011 0.0000
# 2 44.6743 246.7353 74.6045 0.0000 38.4588 0.0000
# 3 49.9907 74.6045 124.5994 0.0000 48.6638 0.0000
# 4 0.0000 0.0000 0.0000 28.9079 0.0000 13.2199
# 5 16.7011 38.4588 48.6638 0.0000 59.4371 0.0000
# 6 0.0000 0.0000 0.0000 13.2199 0.0000 18.6187
#
#
#
# Elastic Compliance Matrix: (Units=1/GPa)
#
#
# Indices 1 2 3 4 5 6 
#
# 1 0.019124 -0.001473 -0.007445 0.000000 0.001675 0.000000
# 2 -0.001473 0.005115 -0.001971 0.000000 -0.001282 0.000000
# 3 -0.007445 -0.001971 0.015992 0.000000 -0.009725 0.000000
# 4 0.000000 0.000000 0.000000 0.051226 0.000000 -0.036372
# 5 0.001675 -0.001282 -0.009725 0.000000 0.025146 0.000000
# 6 0.000000 0.000000 0.000000 -0.036372 0.000000 0.079534
#
#
# Mechanical properties :
#
#
# Convention : Reuss Voigt Hill
#
# Bulk Modulus (GPa) = 54.19208 87.06695 70.62952
# Shear Modulus (GPa) = 22.31474 39.77901 31.04688
#
# Velocity S-wave (km/s) = 3.03936 4.05801 3.58505
# Velocity P-wave (km/s) = 5.89500 7.61578 6.80996
#
# Compressibility (1/GPa) = 0.01845288
#
# Stress axis : x y z
#
# Youngs Moduli (GPa) = 52.28966 195.48554 62.53267
#
# Poissons Ratio (x) = 0.28786 0.46558
# Poissons Ratio (y) = 0.07700 0.12327
# Poissons Ratio (z) = 0.38932 0.38537
#
# Static dielectric constant tensor:
#      x y z
#    x 2.016050 0.000000 -0.162830 
#    y 0.000000 1.889910 0.000000 
#    z -0.162830 0.000000 1.889320 
# 
# From -- ./inp_files/67801.got.cif
#   From: 2010.05.17/outbox.cif.g08.bks.cpg/sg12_34_cif.got.tgz:67801.got - 2010.06.03 13:09:07.
