data_PCOD9180397
_publ_section_title
;
Structure prediction by ZEFSAII (Michael W. Deem and Ramdas Pophale) SiO2 
 PCOD9180397
Probable space group: C 2/M
;
_chemical_formula_sum "Si O2"
_cell_formula_units_Z 56
_cell_length_a 26.205689
_cell_length_b 8.823856
_cell_length_c 20.325476
_cell_angle_alpha 90.000000
_cell_angle_beta 130.249202
_cell_angle_gamma 90.000000
_cell_volume 3587.208983
_symmetry_space_group_name_H-M "C 2/M"
_symmetry_group_IT_number 12
_symmetry_cell_setting 'monoclinic'
loop_
_space_group_symop_operation_xyz
x,y,z
-x,y,-z
-x,-y,-z
x,-y,z
1/2+x,1/2+y,z
1/2-x,1/2+y,-z
1/2-x,1/2-y,-z
1/2+x,1/2-y,z
loop_
_atom_site_type_symbol
_atom_site_label
_atom_site_fract_x
_atom_site_fract_y
_atom_site_fract_z
Si Si1 0.799392 0.681609 0.095509
Si Si2 0.234367 0.672361 0.590416
Si Si3 0.090192 0.317238 0.908171
Si Si4 0.327364 0.820015 0.769343
Si Si5 0.809834 0.182703 0.898635
Si Si6 0.556352 0.682991 0.224338
Si Si7 0.355373 0.673937 0.584416
O O1 0.796177 0.500000 0.089042
O O2 0.872673 0.723901 0.130061
O O3 0.764306 0.723640 0.134945
O O4 0.750000 0.750000 0.000000
O O5 0.226853 0.500000 0.607181
O O6 0.262272 0.775558 0.672040
O O7 0.293503 0.673690 0.584803
O O8 0.168954 0.730146 0.497891
O O9 0.087307 0.500000 0.911415
O O10 0.016906 0.246813 0.849474
O O11 0.136276 0.250878 0.005120
O O12 0.321464 0.750078 0.836652
O O13 0.390688 0.748273 0.783887
O O14 0.334813 0.000000 0.778414
O O15 0.816087 0.000000 0.902765
O O16 0.557815 0.500000 0.222368
O O17 0.583075 0.728006 0.319481
O O18 0.366444 0.500000 0.573580
#
# Coordination Sequence:
#
# PCOD9180397 Si02
#       7
#     8   8   8   8   8   8   8
#     4   8  16  30  49  69  89 114 148 191 232 269
#     4   9  16  27  44  65  89 118 151 186 226 271
#     4  10  19  32  49  71  95 120 153 191 230 271
#     4  11  21  32  46  67  95 125 156 191 229 271
#     4  10  19  33  50  68  92 123 156 190 229 272
#     4  10  20  33  47  67  95 127 158 187 225 274
#     4   8  15  27  43  63  88 117 151 188 223 263
#
# _framework density 15.611022
#
# number of rings (size 3 to 8) (size 9 to 14) (size 15 to 20)
#    0.000    2.571    0.000    3.857    0.000    5.714 
#    0.000    2.857    0.000    0.000    0.000    1.000 
#    0.000    8.000    0.000    0.000    0.000    0.000 
#
# Total GULP energy -155897.224359 kJ/mol
# GULP energy per Si atom -5567.758013 kJ/mol
# Density = 1.557549 g / cm^3
# Si number density = 15.611022 Si / 1000 Ang^3
#
#
#
# Elastic Constant Matrix: (Units=GPa)
#
#
# Indices 1 2 3 4 5 6 
#
# 1 88.3895 40.6204 57.4659 0.0000 -8.1654 0.0000
# 2 40.6204 75.2568 42.9057 0.0000 -2.4982 0.0000
# 3 57.4659 42.9057 92.9258 0.0000 -2.7203 0.0000
# 4 0.0000 0.0000 0.0000 25.5218 0.0000 -0.4905
# 5 -8.1654 -2.4982 -2.7203 0.0000 -1.3160 0.0000
# 6 0.0000 0.0000 0.0000 -0.4905 0.0000 15.7909
#
#
#
# Elastic Compliance Matrix: (Units=1/GPa)
#
#
# Indices 1 2 3 4 5 6 
#
# 1 0.013159 -0.004620 -0.007673 0.000000 -0.057014 0.000000
# 2 -0.004620 0.019305 -0.005931 0.000000 0.004282 0.000000
# 3 -0.007673 -0.005931 0.018829 0.000000 0.019947 0.000000
# 4 0.000000 0.000000 0.000000 0.039206 0.000000 0.001218
# 5 -0.057014 0.004282 0.019947 0.000000 -0.455487 0.000000
# 6 0.000000 0.000000 0.000000 0.001218 0.000000 0.063366
#
#
# Mechanical properties :
#
#
# Convention : Reuss Voigt Hill
#
# Bulk Modulus (GPa) = 67.36888 59.83955 63.60422
# Shear Modulus (GPa) = -19.21403 15.70469 -1.75467
#
# Velocity S-wave (km/s) = -3.51208 3.17519 -1.06134
# Velocity P-wave (km/s) = 5.17707 7.20120 6.27134
#
# Compressibility (1/GPa) = 0.01484365
#
# Stress axis : x y z
#
# Youngs Moduli (GPa) = 75.99625 51.79938 53.11044
#
# Poissons Ratio (x) = 0.23934 0.40752
# Poissons Ratio (y) = 0.35114 0.31500
# Poissons Ratio (z) = 0.58312 0.30722
#
# Static dielectric constant tensor:
#      x y z
#    x 1.525930 0.000000 0.000400 
#    y 0.000000 1.526500 0.000000 
#    z 0.000400 0.000000 1.511310 
# 
# From -- ./inp_files/287844.got.cif
#   From: 2010.05.17/outbox.cif.g08.bks.cpg/sg12_144_cif.got.tgz:287844.got - 2010.06.03 13:09:07.
