data_PCOD9180101
_publ_section_title
;
Structure prediction by ZEFSAII (Michael W. Deem and Ramdas Pophale) SiO2 
 PCOD9180101
Probable space group: C 2/M
;
_chemical_formula_sum "Si O2"
_cell_formula_units_Z 64
_cell_length_a 21.286360
_cell_length_b 8.107456
_cell_length_c 35.363871
_cell_angle_alpha 90.000000
_cell_angle_beta 147.244842
_cell_angle_gamma 90.000000
_cell_volume 3302.047749
_symmetry_space_group_name_H-M "C 2/M"
_symmetry_group_IT_number 12
_symmetry_cell_setting 'monoclinic'
loop_
_space_group_symop_operation_xyz
x,y,z
-x,y,-z
-x,-y,-z
x,-y,z
1/2+x,1/2+y,z
1/2-x,1/2+y,-z
1/2-x,1/2-y,-z
1/2+x,1/2-y,z
loop_
_atom_site_type_symbol
_atom_site_label
_atom_site_fract_x
_atom_site_fract_y
_atom_site_fract_z
Si Si1 0.414322 0.201736 0.713338
Si Si2 0.909899 0.305512 0.796837
Si Si3 0.661709 0.201380 0.804073
Si Si4 0.688700 0.194361 0.731310
Si Si5 0.886306 0.797986 0.965446
Si Si6 0.561935 0.303398 0.415350
Si Si7 0.871273 0.195237 0.043569
Si Si8 0.776335 0.699937 0.572102
O O1 0.400276 0.260536 0.749114
O O2 0.538831 0.253148 0.759371
O O3 0.315481 0.253336 0.633524
O O4 0.412974 0.000000 0.713015
O O5 0.928928 0.500000 0.803340
O O6 0.793118 0.273865 0.761091
O O7 0.020392 0.237126 0.875107
O O8 0.678649 0.257159 0.769447
O O9 0.769354 0.252436 0.884595
O O10 0.659896 0.000000 0.802398
O O11 0.564075 0.223209 0.649065
O O12 0.713212 0.000000 0.745658
O O13 0.887208 0.000000 0.966140
O O14 0.887591 0.737890 0.009260
O O15 0.000000 0.745211 0.000000
O O16 0.547669 0.500000 0.410738
O O17 0.650298 0.247337 0.493091
O O18 0.628988 0.261106 0.410366
O O19 0.866261 0.000000 0.037315
O O20 0.750000 0.250000 0.000000
O O21 0.778783 0.500000 0.571959
#
# Coordination Sequence:
#
# PCOD9180101 Si02
#       8
#     8   8   8   8   8   8   8   8
#     4   9  17  33  56  80 103 141 192 232 266 320
#     4  11  23  38  58  82 113 146 185 234 279 328
#     4   9  16  29  54  80 100 133 186 231 262 313
#     4  11  21  36  58  81 112 150 186 225 275 336
#     4   9  17  30  51  79 105 134 181 230 265 312
#     4  10  19  31  53  85 116 142 177 229 283 327
#     4  11  22  38  60  83 110 145 185 228 279 335
#     4   9  17  33  56  81 109 145 188 228 269 327
#
# _framework density 19.381910999999999
#
# number of rings (size 3 to 8) (size 9 to 14) (size 15 to 20)
#    0.000    2.125    1.250    3.000    0.000    4.500 
#    0.000    1.875    0.000   12.750    0.000    0.000 
#    0.000    0.000    0.000    0.000    0.000    0.000 
#
# Total GULP energy -178670.983293 kJ/mol
# GULP energy per Si atom -5583.468228 kJ/mol
# Density = 1.933780 g / cm^3
# Si number density = 19.381911 Si / 1000 Ang^3
#
#
#
# Elastic Constant Matrix: (Units=GPa)
#
#
# Indices 1 2 3 4 5 6 
#
# 1 139.5354 2.8770 78.1310 0.0002 -23.4197 -0.0005
# 2 2.8770 10.7589 0.8788 0.0004 -5.1386 -0.0012
# 3 78.1310 0.8788 157.5067 -0.0001 -22.8351 0.0001
# 4 0.0002 0.0004 -0.0001 24.2036 -0.0001 2.4451
# 5 -23.4197 -5.1386 -22.8351 -0.0001 26.6221 0.0004
# 6 -0.0005 -0.0012 0.0001 2.4451 0.0004 24.2005
#
#
#
# Elastic Compliance Matrix: (Units=1/GPa)
#
#
# Indices 1 2 3 4 5 6 
#
# 1 0.010582 0.000173 -0.004449 0.000000 0.005526 0.000000
# 2 0.000173 0.103343 0.002571 -0.000002 0.022305 0.000005
# 3 -0.004449 0.002571 0.009189 0.000000 0.004464 0.000000
# 4 0.000000 -0.000002 0.000000 0.041742 0.000000 -0.004218
# 5 0.005526 0.022305 0.004464 0.000000 0.050559 0.000000
# 6 0.000000 0.000005 0.000000 -0.004218 0.000000 0.041748
#
#
# Mechanical properties :
#
#
# Convention : Reuss Voigt Hill
#
# Bulk Modulus (GPa) = 8.35387 52.39719 30.37553
# Shear Modulus (GPa) = 16.64046 30.06620 23.35333
#
# Velocity S-wave (km/s) = 2.93329 3.94286 3.47494
# Velocity P-wave (km/s) = 3.97388 6.91527 5.63971
#
# Compressibility (1/GPa) = 0.11970501
#
# Stress axis : x y z
#
# Youngs Moduli (GPa) = 94.50340 9.67648 108.83033
#
# Poissons Ratio (x) = -0.00168 0.48416
# Poissons Ratio (y) = -0.01637 -0.27983
# Poissons Ratio (z) = 0.42042 -0.02488
#
# Static dielectric constant tensor:
#      x y z
#    x 1.649000 0.000000 -0.029430 
#    y 0.000000 1.694800 0.000000 
#    z -0.029430 0.000000 1.672350 
# 
# From -- ./inp_files/378331.got.cif
#   From: 2010.05.17/outbox.cif.g08.bks.cpg/sg12_190_cif.got.tgz:378331.got - 2010.06.03 13:09:07.
