data_PCOD9180136
_publ_section_title
;
Structure prediction by ZEFSAII (Michael W. Deem and Ramdas Pophale) SiO2 
 PCOD9180136
Probable space group: C 2/M
;
_chemical_formula_sum "Si O2"
_cell_formula_units_Z 32
_cell_length_a 22.693464
_cell_length_b 7.609074
_cell_length_c 12.369165
_cell_angle_alpha 90.000000
_cell_angle_beta 60.694462
_cell_angle_gamma 90.000000
_cell_volume 1862.517700
_symmetry_space_group_name_H-M "C 2/M"
_symmetry_group_IT_number 12
_symmetry_cell_setting 'monoclinic'
loop_
_space_group_symop_operation_xyz
x,y,z
-x,y,-z
-x,-y,-z
x,-y,z
1/2+x,1/2+y,z
1/2-x,1/2+y,-z
1/2-x,1/2-y,-z
1/2+x,1/2-y,z
loop_
_atom_site_type_symbol
_atom_site_label
_atom_site_fract_x
_atom_site_fract_y
_atom_site_fract_z
Si Si1 0.600980 0.500000 0.488652
Si Si2 0.362890 0.799111 0.872946
Si Si3 0.287223 0.791567 0.578275
Si Si4 0.453847 0.500000 0.707943
Si Si5 0.270345 0.710661 0.142659
O O1 0.646922 0.670598 0.469489
O O2 0.534078 0.500000 0.621959
O O3 0.576928 0.500000 0.385784
O O4 0.424201 0.669628 0.795457
O O5 0.299381 0.738332 0.855458
O O6 0.378893 0.000000 0.830374
O O7 0.332593 0.789806 0.020949
O O8 0.250000 0.750000 0.500000
O O9 0.239155 0.746027 0.723589
O O10 0.302428 0.000000 0.571861
O O11 0.276073 0.500000 0.126534
#
# Coordination Sequence:
#
# PCOD9180136 Si02
#       5
#     4   8   8   4   8
#     4  11  24  38  57  83 119 162 184 223 291 344
#     4  10  19  31  54  82 113 148 181 237 285 332
#     4  11  22  37  59  85 113 147 194 238 276 331
#     4  11  22  38  55  83 127 152 184 227 285 359
#     4   9  18  31  52  84 113 139 188 237 285 324
#
# _framework density 17.181044
#
# number of rings (size 3 to 8) (size 9 to 14) (size 15 to 20)
#    0.000    1.750    5.000    0.000    3.500    1.000 
#    0.000    2.500    0.000    3.000    0.000    3.500 
#    0.000    0.000    0.000    0.000    0.000    0.000 
#
# Total GULP energy -89290.056997 kJ/mol
# GULP energy per Si atom -5580.628562 kJ/mol
# Density = 1.714194 g / cm^3
# Si number density = 17.181044 Si / 1000 Ang^3
#
#
#
# Elastic Constant Matrix: (Units=GPa)
#
#
# Indices 1 2 3 4 5 6 
#
# 1 52.6576 26.4631 46.1938 0.0000 5.1053 0.0000
# 2 26.4631 103.2089 56.6176 0.0000 -16.4679 0.0000
# 3 46.1938 56.6176 145.9125 0.0000 -2.6474 0.0000
# 4 0.0000 0.0000 0.0000 27.6060 0.0000 -2.0066
# 5 5.1053 -16.4679 -2.6474 0.0000 30.6908 0.0000
# 6 0.0000 0.0000 0.0000 -2.0066 0.0000 10.0449
#
#
#
# Elastic Compliance Matrix: (Units=1/GPa)
#
#
# Indices 1 2 3 4 5 6 
#
# 1 0.028515 -0.004477 -0.007431 0.000000 -0.007787 0.000000
# 2 -0.004477 0.014316 -0.003991 0.000000 0.008082 0.000000
# 3 -0.007431 -0.003991 0.010755 0.000000 0.000022 0.000000
# 4 0.000000 0.000000 0.000000 0.036758 0.000000 0.007343
# 5 -0.007787 0.008082 0.000022 0.000000 0.038217 0.000000
# 6 0.000000 0.000000 0.000000 0.007343 0.000000 0.101020
#
#
# Mechanical properties :
#
#
# Convention : Reuss Voigt Hill
#
# Bulk Modulus (GPa) = 45.89902 62.25864 54.07883
# Shear Modulus (GPa) = 18.61219 25.16865 21.89042
#
# Velocity S-wave (km/s) = 3.29492 3.83156 3.57333
# Velocity P-wave (km/s) = 6.42248 7.47596 6.96915
#
# Compressibility (1/GPa) = 0.02178696
#
# Stress axis : x y z
#
# Youngs Moduli (GPa) = 35.06968 69.85259 92.97936
#
# Poissons Ratio (x) = 0.31273 0.69097
# Poissons Ratio (y) = 0.15701 0.37107
# Poissons Ratio (z) = 0.26062 0.27878
#
# Static dielectric constant tensor:
#      x y z
#    x 1.547020 0.000000 0.020220 
#    y 0.000000 1.614890 0.000000 
#    z 0.020220 0.000000 1.593880 
# 
# From -- ./inp_files/151197.got.cif
#   From: 2010.05.17/outbox.cif.g08.bks.cpg/sg12_76_cif.got.tgz:151197.got - 2010.06.03 13:09:07.
