data_PCOD9180647
_publ_section_title
;
Structure prediction by ZEFSAII (Michael W. Deem and Ramdas Pophale) SiO2 
 PCOD9180647
Probable space group: C 2/M
;
_chemical_formula_sum "Si O2"
_cell_formula_units_Z 40
_cell_length_a 20.693912
_cell_length_b 8.018562
_cell_length_c 31.035696
_cell_angle_alpha 90.000000
_cell_angle_beta 26.982479
_cell_angle_gamma 90.000000
_cell_volume 2336.611968
_symmetry_space_group_name_H-M "C 2/M"
_symmetry_group_IT_number 12
_symmetry_cell_setting 'monoclinic'
loop_
_space_group_symop_operation_xyz
x,y,z
-x,y,-z
-x,-y,-z
x,-y,z
1/2+x,1/2+y,z
1/2-x,1/2+y,-z
1/2-x,1/2-y,-z
1/2+x,1/2-y,z
loop_
_atom_site_type_symbol
_atom_site_label
_atom_site_fract_x
_atom_site_fract_y
_atom_site_fract_z
Si Si1 0.217189 0.500000 0.900831
Si Si2 0.264808 0.187845 0.753841
Si Si3 0.791190 0.197359 0.427112
Si Si4 0.914670 0.500000 0.117830
Si Si5 0.490811 0.700037 0.455190
Si Si6 0.894321 0.313088 0.773154
O O1 0.149129 0.500000 0.893019
O O2 0.312917 0.665899 0.846267
O O3 0.084291 0.500000 0.012088
O O4 0.148136 0.333942 0.822908
O O5 0.381896 0.218859 0.647642
O O6 0.345626 0.200110 0.751960
O O7 0.206332 0.000000 0.785335
O O8 0.750000 0.250000 0.500000
O O9 0.658908 0.242631 0.475554
O O10 0.936640 0.285888 0.326607
O O11 0.816893 0.000000 0.411447
O O12 0.500000 0.742212 0.500000
O O13 0.502204 0.500000 0.443551
O O14 0.857688 0.500000 0.809700
#
# Coordination Sequence:
#
# PCOD9180647 Si02
#       6
#     4   8   8   4   8   8
#     4   9  18  32  50  76 107 142 174 231 278 316
#     4  10  19  32  52  76 107 145 181 221 268 328
#     4  12  22  33  53  80 110 149 187 220 270 331
#     4   9  18  32  51  74 108 140 181 223 278 326
#     4  11  23  37  53  78 115 149 184 229 273 327
#     4  10  19  32  50  78 110 140 180 224 267 324
#
# _framework density 17.118801999999999
#
# number of rings (size 3 to 8) (size 9 to 14) (size 15 to 20)
#    0.000    1.600    4.000    2.400    0.000    2.400 
#    0.000    4.000    0.000    0.000    0.000    1.400 
#    0.000    0.000    0.000    0.000    0.000    0.000 
#
# Total GULP energy -111649.804519 kJ/mol
# GULP energy per Si atom -5582.490226 kJ/mol
# Density = 1.707984 g / cm^3
# Si number density = 17.118802 Si / 1000 Ang^3
#
#
#
# Elastic Constant Matrix: (Units=GPa)
#
#
# Indices 1 2 3 4 5 6 
#
# 1 48.9152 30.2835 20.7071 -0.0014 -5.4505 -0.0017
# 2 30.2835 151.9732 76.2220 -0.0027 -0.6762 -0.0098
# 3 20.7071 76.2220 132.6395 -0.0020 -15.7104 -0.0008
# 4 -0.0014 -0.0027 -0.0020 19.4561 0.0000 -4.6128
# 5 -5.4505 -0.6762 -15.7104 0.0000 11.4679 0.0021
# 6 -0.0017 -0.0098 -0.0008 -4.6128 0.0021 17.0320
#
#
#
# Elastic Compliance Matrix: (Units=1/GPa)
#
#
# Indices 1 2 3 4 5 6 
#
# 1 0.024764 -0.005151 0.000540 0.000001 0.012206 -0.000002
# 2 -0.005151 0.010981 -0.006827 0.000002 -0.011154 0.000007
# 3 0.000540 -0.006827 0.013562 -0.000001 0.018433 -0.000006
# 4 0.000001 0.000002 -0.000001 0.054924 -0.000003 0.014875
# 5 0.012206 -0.011154 0.018433 -0.000003 0.117595 -0.000020
# 6 -0.000002 0.000007 -0.000006 0.014875 -0.000020 0.062742
#
#
# Mechanical properties :
#
#
# Convention : Reuss Voigt Hill
#
# Bulk Modulus (GPa) = 37.83650 65.32813 51.58231
# Shear Modulus (GPa) = 15.81001 23.34554 19.57778
#
# Velocity S-wave (km/s) = 3.04229 3.69689 3.38545
# Velocity P-wave (km/s) = 5.87290 7.51446 6.74381
#
# Compressibility (1/GPa) = 0.02642951
#
# Stress axis : x y z
#
# Youngs Moduli (GPa) = 40.38085 91.06492 73.73785
#
# Poissons Ratio (x) = 0.46909 -0.03980
# Poissons Ratio (y) = 0.20801 0.50343
# Poissons Ratio (z) = -0.02179 0.62173
#
# Static dielectric constant tensor:
#      x y z
#    x 1.546780 0.000000 -0.003440 
#    y 0.000000 1.607100 0.000000 
#    z -0.003440 0.000000 1.554760 
# 
# From -- ./inp_files/362606.got.cif
#   From: 2010.05.17/outbox.cif.g08.bks.cpg/sg12_182_cif.got.tgz:362606.got - 2010.06.03 13:09:07.
