data_PCOD9180923
_publ_section_title
;
Structure prediction by ZEFSAII (Michael W. Deem and Ramdas Pophale) SiO2 
 PCOD9180923
Probable space group: C 2/M
;
_chemical_formula_sum "Si O2"
_cell_formula_units_Z 48
_cell_length_a 12.931408
_cell_length_b 23.173652
_cell_length_c 8.729340
_cell_angle_alpha 90.000000
_cell_angle_beta 107.229683
_cell_angle_gamma 90.000000
_cell_volume 2498.514845
_symmetry_space_group_name_H-M "C 2/M"
_symmetry_group_IT_number 12
_symmetry_cell_setting 'monoclinic'
loop_
_space_group_symop_operation_xyz
x,y,z
-x,y,-z
-x,-y,-z
x,-y,z
1/2+x,1/2+y,z
1/2-x,1/2+y,-z
1/2-x,1/2-y,-z
1/2+x,1/2-y,z
loop_
_atom_site_type_symbol
_atom_site_label
_atom_site_fract_x
_atom_site_fract_y
_atom_site_fract_z
Si Si1 0.271861 0.340559 0.416666
Si Si2 0.464983 0.636782 0.738969
Si Si3 0.614844 0.138069 0.612563
Si Si4 0.180476 0.066071 0.784208
Si Si5 0.701913 0.566662 0.150256
Si Si6 0.419978 0.742850 0.317521
O O1 0.376853 0.356478 0.565345
O O2 0.176233 0.332384 0.494655
O O3 0.249728 0.394528 0.297425
O O4 0.309405 0.287587 0.327061
O O5 0.560076 0.593244 0.733252
O O6 0.396730 0.608986 0.846611
O O7 0.523059 0.699343 0.777324
O O8 0.500000 0.116805 0.500000
O O9 0.693285 0.089631 0.714035
O O10 0.599035 0.190322 0.726994
O O11 0.178009 0.000000 0.733552
O O12 0.219254 0.069304 0.976392
O O13 0.675948 0.500000 0.179109
O O14 0.500000 0.744131 0.500000
#
# Coordination Sequence:
#
# PCOD9180923 Si02
#       6
#     8   8   8   8   8   8
#     4   9  18  31  51  78 105 134 173 217 259 312
#     4   9  17  31  54  82 108 133 167 210 262 324
#     4  10  20  35  55  73  98 139 185 224 254 300
#     4  10  19  32  51  77 110 141 170 212 268 318
#     4  10  21  35  52  78 111 143 173 212 263 312
#     4   8  15  30  53  80 103 129 167 215 269 312
#
# _framework density 19.211413
#
# number of rings (size 3 to 8) (size 9 to 14) (size 15 to 20)
#    0.000    2.667    0.000    3.000    0.000    7.000 
#    0.000    4.167    0.000   14.000    0.000    0.000 
#    0.000    0.000    0.000    0.000    0.000    0.000 
#
# Total GULP energy -133763.658745 kJ/mol
# GULP energy per Si atom -5573.485781 kJ/mol
# Density = 1.916769 g / cm^3
# Si number density = 19.211413 Si / 1000 Ang^3
#
#
#
# Elastic Constant Matrix: (Units=GPa)
#
#
# Indices 1 2 3 4 5 6 
#
# 1 76.9590 18.4514 19.8365 0.0000 7.3895 0.0000
# 2 18.4514 71.2125 16.5316 0.0000 -15.2200 0.0000
# 3 19.8365 16.5316 24.4013 0.0000 -4.7929 0.0000
# 4 0.0000 0.0000 0.0000 -10.4365 0.0000 -31.2876
# 5 7.3895 -15.2200 -4.7929 0.0000 18.0458 0.0000
# 6 0.0000 0.0000 0.0000 -31.2876 0.0000 -0.4534
#
#
#
# Elastic Compliance Matrix: (Units=1/GPa)
#
#
# Indices 1 2 3 4 5 6 
#
# 1 0.019937 -0.004986 -0.016099 0.000000 -0.016645 0.000000
# 2 -0.004986 0.020615 -0.006432 0.000000 0.017720 0.000000
# 3 -0.016099 -0.006432 0.061884 0.000000 0.017603 0.000000
# 4 0.000000 0.000000 0.000000 0.000465 0.000000 -0.032117
# 5 -0.016645 0.017720 0.017603 0.000000 0.081851 0.000000
# 6 0.000000 0.000000 0.000000 -0.032117 0.000000 0.010713
#
#
# Mechanical properties :
#
#
# Convention : Reuss Voigt Hill
#
# Bulk Modulus (GPa) = 21.09636 31.35686 26.22661
# Shear Modulus (GPa) = 18.77570 9.28139 14.02855
#
# Velocity S-wave (km/s) = 3.12960 2.20038 2.70519
# Velocity P-wave (km/s) = 4.90553 4.77630 4.84134
#
# Compressibility (1/GPa) = 0.04740154
#
# Stress axis : x y z
#
# Youngs Moduli (GPa) = 50.15754 48.50865 16.15915
#
# Poissons Ratio (x) = 0.24186 0.26015
# Poissons Ratio (y) = 0.25009 0.10394
# Poissons Ratio (z) = 0.80749 0.31203
#
# Static dielectric constant tensor:
#      x y z
#    x 1.676260 0.000000 -0.019170 
#    y 0.000000 1.701770 0.000000 
#    z -0.019170 0.000000 1.669410 
# 
# From -- ./inp_files/50620.got.cif
#   From: 2010.05.17/outbox.cif.g08.bks.cpg/sg12_26_cif.got.tgz:50620.got - 2010.06.03 13:09:07.
