data_PCOD9180949
_publ_section_title
;
Structure prediction by ZEFSAII (Michael W. Deem and Ramdas Pophale) SiO2 
 PCOD9180949
Probable space group: C 2/M
;
_chemical_formula_sum "Si O2"
_cell_formula_units_Z 56
_cell_length_a 26.617119
_cell_length_b 7.482544
_cell_length_c 20.046803
_cell_angle_alpha 90.000000
_cell_angle_beta 37.418731
_cell_angle_gamma 90.000000
_cell_volume 2426.043580
_symmetry_space_group_name_H-M "C 2/M"
_symmetry_group_IT_number 12
_symmetry_cell_setting 'monoclinic'
loop_
_space_group_symop_operation_xyz
x,y,z
-x,y,-z
-x,-y,-z
x,-y,z
1/2+x,1/2+y,z
1/2-x,1/2+y,-z
1/2-x,1/2-y,-z
1/2+x,1/2-y,z
loop_
_atom_site_type_symbol
_atom_site_label
_atom_site_fract_x
_atom_site_fract_y
_atom_site_fract_z
Si Si1 0.555099 0.216075 0.880127
Si Si2 0.881017 0.204709 0.443826
Si Si3 0.795068 0.285690 0.780436
Si Si4 0.478821 0.216274 0.598814
Si Si5 0.817944 0.786011 0.984362
Si Si6 0.500068 0.288930 0.789830
Si Si7 0.756957 0.713971 0.314787
O O1 0.516116 0.267789 0.850899
O O2 0.649438 0.281787 0.783795
O O3 0.556974 0.000000 0.881406
O O4 0.500000 0.279992 0.000000
O O5 0.801692 0.286342 0.564539
O O6 0.954035 0.206574 0.421901
O O7 0.924395 0.287980 0.333233
O O8 0.858239 0.000000 0.451343
O O9 0.796559 0.500000 0.785087
O O10 0.884876 0.222865 0.710635
O O11 0.782638 0.246203 0.715907
O O12 0.720560 0.218131 0.905296
O O13 0.500000 0.261214 0.500000
O O14 0.482815 0.000000 0.600547
O O15 0.908744 0.714391 0.871198
O O16 0.826991 0.000000 0.981212
O O17 0.750000 0.750000 0.000000
O O18 0.498435 0.500000 0.775074
O O19 0.760242 0.500000 0.319490
#
# Coordination Sequence:
#
# PCOD9180949 Si02
#       7
#     8   8   8   8   8   8   8
#     4  10  22  40  60  82 107 137 179 228 274 322
#     4  10  21  36  54  79 112 145 180 220 267 323
#     4  10  20  34  53  79 109 141 179 224 268 314
#     4  10  19  32  51  78 112 145 180 220 262 314
#     4  10  21  36  55  80 110 142 179 220 264 317
#     4  10  22  39  57  81 112 144 179 222 268 320
#     4  10  21  36  55  80 107 138 179 224 268 319
#
# _framework density 23.082849
#
# number of rings (size 3 to 8) (size 9 to 14) (size 15 to 20)
#    0.000    2.000    1.429    1.714    0.000    4.000 
#    0.000    0.000    0.000    0.000    0.000    0.000 
#    0.000    0.000    0.000    0.000    0.000    0.000 
#
# Total GULP energy -156527.829886 kJ/mol
# GULP energy per Si atom -5590.279639 kJ/mol
# Density = 2.303031 g / cm^3
# Si number density = 23.082849 Si / 1000 Ang^3
#
#
#
# Elastic Constant Matrix: (Units=GPa)
#
#
# Indices 1 2 3 4 5 6 
#
# 1 66.6272 -17.3944 48.2713 -0.0061 -10.9817 0.0086
# 2 -17.3944 68.3860 10.8014 -0.0014 -5.8807 0.0055
# 3 48.2713 10.8014 226.6980 0.0035 -8.1966 -0.0087
# 4 -0.0061 -0.0014 0.0035 2.0632 -0.0019 5.4566
# 5 -10.9817 -5.8807 -8.1966 -0.0019 46.0971 0.0020
# 6 0.0086 0.0055 -0.0087 5.4566 0.0020 37.1159
#
#
#
# Elastic Compliance Matrix: (Units=1/GPa)
#
#
# Indices 1 2 3 4 5 6 
#
# 1 0.020812 0.006441 -0.004559 0.000158 0.004969 -0.000030
# 2 0.006441 0.016871 -0.002055 0.000081 0.003321 -0.000017
# 3 -0.004559 -0.002055 0.005466 -0.000052 -0.000376 0.000010
# 4 0.000158 0.000081 -0.000052 0.793044 0.000076 -0.116589
# 5 0.004969 0.003321 -0.000376 0.000076 0.023234 -0.000014
# 6 -0.000030 -0.000017 0.000010 -0.116589 -0.000014 0.044083
#
#
# Mechanical properties :
#
#
# Convention : Reuss Voigt Hill
#
# Bulk Modulus (GPa) = 23.36226 49.45197 36.40711
# Shear Modulus (GPa) = 5.44588 38.39075 21.91832
#
# Velocity S-wave (km/s) = 1.53766 4.08263 3.08482
# Velocity P-wave (km/s) = 3.64631 6.61014 5.33805
#
# Compressibility (1/GPa) = 0.04280409
#
# Stress axis : x y z
#
# Youngs Moduli (GPa) = 48.04820 59.27162 182.94214
#
# Poissons Ratio (x) = -0.38178 0.83401
# Poissons Ratio (y) = -0.30949 0.37600
# Poissons Ratio (z) = 0.21905 0.12182
#
# Static dielectric constant tensor:
#      x y z
#    x 1.799850 0.000000 -0.028940 
#    y 0.000000 1.897320 0.000010 
#    z -0.028940 0.000010 1.916050 
# 
# From -- ./inp_files/292407.got.cif
#   From: 2010.05.17/outbox.cif.g08.bks.cpg/sg12_147_cif.got.tgz:292407.got - 2010.06.03 13:09:07.
