data_PCOD9180238
_publ_section_title
;
Structure prediction by ZEFSAII (Michael W. Deem and Ramdas Pophale) SiO2 
 PCOD9180238
Probable space group: C 2/M
;
_chemical_formula_sum "Si O2"
_cell_formula_units_Z 48
_cell_length_a 20.230303
_cell_length_b 19.062315
_cell_length_c 12.254445
_cell_angle_alpha 90.000000
_cell_angle_beta 148.672366
_cell_angle_gamma 90.000000
_cell_volume 2457.069963
_symmetry_space_group_name_H-M "C 2/M"
_symmetry_group_IT_number 12
_symmetry_cell_setting 'monoclinic'
loop_
_space_group_symop_operation_xyz
x,y,z
-x,y,-z
-x,-y,-z
x,-y,z
1/2+x,1/2+y,z
1/2-x,1/2+y,-z
1/2-x,1/2-y,-z
1/2+x,1/2-y,z
loop_
_atom_site_type_symbol
_atom_site_label
_atom_site_fract_x
_atom_site_fract_y
_atom_site_fract_z
Si Si1 0.267622 0.646861 0.428093
Si Si2 0.241148 0.000000 0.628681
Si Si3 0.995992 0.000000 0.125219
Si Si4 0.150794 0.797299 0.225526
Si Si5 0.176465 0.000000 0.793700
Si Si6 0.309116 0.625103 0.928979
Si Si7 0.633750 0.000000 0.750913
Si Si8 0.972011 0.142483 0.344116
O O1 0.193597 0.574319 0.303359
O O2 0.190199 0.716589 0.291944
O O3 0.309101 0.658703 0.611610
O O4 0.393961 0.641003 0.530558
O O5 0.125214 0.000000 0.376793
O O6 0.195954 0.000000 0.691215
O O7 0.000000 0.000000 0.000000
O O8 0.919058 0.069007 0.051934
O O9 0.217081 0.828545 0.212537
O O10 0.000000 0.803006 0.000000
O O11 0.094641 0.067566 0.717544
O O12 0.313963 0.000000 0.048905
O O13 0.196296 0.573176 0.800139
O O14 0.367911 0.670293 0.111163
O O15 0.500000 0.000000 0.500000
O O16 0.000000 0.178018 0.500000
#
# Coordination Sequence:
#
# PCOD9180238 Si02
#       8
#     8   4   4   8   4   8   4   8
#     4  11  23  34  63  88 118 159 194 258 308 345
#     4  12  18  36  58  97 116 148 202 245 313 359
#     4  11  17  26  57  96 115 137 194 269 289 334
#     4  11  22  42  57  84 123 161 204 251 299 356
#     4  10  19  31  62  87 126 146 187 255 302 347
#     4  10  19  34  61  86 114 158 196 243 307 353
#     4   9  21  38  58  89 124 160 195 246 312 362
#     4  11  17  32  57  93 115 142 192 248 298 357
#
# _framework density 19.535464000000001
#
# number of rings (size 3 to 8) (size 9 to 14) (size 15 to 20)
#    0.000    1.333    5.000    2.750    0.000    0.667 
#    0.000    5.417    0.000    0.000    0.000    0.000 
#    0.000    0.000    0.000    0.000    0.000    0.000 
#
# Total GULP energy -133741.586767 kJ/mol
# GULP energy per Si atom -5572.566115 kJ/mol
# Density = 1.949100 g / cm^3
# Si number density = 19.535464 Si / 1000 Ang^3
#
#
#
# Elastic Constant Matrix: (Units=GPa)
#
#
# Indices 1 2 3 4 5 6 
#
# 1 75.1505 26.9991 41.1512 0.0000 -42.1050 0.0000
# 2 26.9991 86.4821 12.1844 0.0000 -18.4227 0.0000
# 3 41.1512 12.1844 93.5754 0.0000 -28.1871 0.0000
# 4 0.0000 0.0000 0.0000 13.3982 0.0000 -1.1588
# 5 -42.1050 -18.4227 -28.1871 0.0000 38.7433 0.0000
# 6 0.0000 0.0000 0.0000 -1.1588 0.0000 20.6444
#
#
#
# Elastic Compliance Matrix: (Units=1/GPa)
#
#
# Indices 1 2 3 4 5 6 
#
# 1 0.036738 -0.003382 -0.005345 0.000000 0.034429 0.000000
# 2 -0.003382 0.013181 0.000707 0.000000 0.003106 0.000000
# 3 -0.005345 0.000707 0.014467 0.000000 0.005053 0.000000
# 4 0.000000 0.000000 0.000000 0.075001 0.000000 0.004210
# 5 0.034429 0.003106 0.005053 0.000000 0.068380 0.000000
# 6 0.000000 0.000000 0.000000 0.004210 0.000000 0.048676
#
#
# Mechanical properties :
#
#
# Convention : Reuss Voigt Hill
#
# Bulk Modulus (GPa) = 20.68441 46.20861 33.44651
# Shear Modulus (GPa) = 17.32504 26.21541 21.77023
#
# Velocity S-wave (km/s) = 2.98123 3.66722 3.34188
# Velocity P-wave (km/s) = 4.73935 6.45263 5.66118
#
# Compressibility (1/GPa) = 0.04834558
#
# Stress axis : x y z
#
# Youngs Moduli (GPa) = 27.21941 75.86617 69.12265
#
# Poissons Ratio (x) = 0.25660 0.36946
# Poissons Ratio (y) = 0.09206 -0.04885
# Poissons Ratio (z) = 0.14549 -0.05362
#
# Static dielectric constant tensor:
#      x y z
#    x 1.711980 0.000000 -0.040240 
#    y 0.000000 1.719020 0.000000 
#    z -0.040240 0.000000 1.725870 
# 
# From -- ./inp_files/169779.got.cif
#   From: 2010.05.17/outbox.cif.g08.bks.cpg/sg12_85_cif.got.tgz:169779.got - 2010.06.03 13:09:07.
