data_PCOD9180727
_publ_section_title
;
Structure prediction by ZEFSAII (Michael W. Deem and Ramdas Pophale) SiO2 
 PCOD9180727
Probable space group: C 2/M
;
_chemical_formula_sum "Si O2"
_cell_formula_units_Z 56
_cell_length_a 9.018814
_cell_length_b 18.415758
_cell_length_c 15.323496
_cell_angle_alpha 90.000000
_cell_angle_beta 84.136997
_cell_angle_gamma 90.000000
_cell_volume 2531.740128
_symmetry_space_group_name_H-M "C 2/M"
_symmetry_group_IT_number 12
_symmetry_cell_setting 'monoclinic'
loop_
_space_group_symop_operation_xyz
x,y,z
-x,y,-z
-x,-y,-z
x,-y,z
1/2+x,1/2+y,z
1/2-x,1/2+y,-z
1/2-x,1/2-y,-z
1/2+x,1/2-y,z
loop_
_atom_site_type_symbol
_atom_site_label
_atom_site_fract_x
_atom_site_fract_y
_atom_site_fract_z
Si Si1 0.946793 0.582779 0.686389
Si Si2 0.523446 0.779453 0.899909
Si Si3 0.858354 0.191965 0.445502
Si Si4 0.306861 0.917245 0.171057
Si Si5 0.740672 0.799026 0.217147
Si Si6 0.602597 0.658447 0.305194
Si Si7 0.703170 0.913833 0.556147
O O1 0.904880 0.500000 0.670747
O O2 0.074126 0.582023 0.755402
O O3 0.043031 0.614189 0.599733
O O4 0.811403 0.629225 0.730265
O O5 0.628044 0.852045 0.892016
O O6 0.370278 0.796341 0.860078
O O7 0.601569 0.718738 0.835006
O O8 0.500000 0.755944 0.000000
O O9 0.750000 0.250000 0.500000
O O10 0.764780 0.118300 0.463436
O O11 0.000000 0.196203 0.500000
O O12 0.940513 0.186432 0.346601
O O13 0.147111 0.891820 0.219843
O O14 0.301701 0.000000 0.136966
O O15 0.695862 0.731511 0.281901
O O16 0.675772 0.612803 0.379987
O O17 0.694581 0.000000 0.555430
#
# Coordination Sequence:
#
# PCOD9180727 Si02
#       7
#     8   8   8   8   8   8   8
#     4   8  14  27  47  68  93 127 166 202 238 290
#     4  10  20  33  51  75 101 130 162 204 256 309
#     4  10  20  31  47  74 106 140 177 215 256 298
#     4   8  15  28  47  72  97 122 159 207 251 290
#     4  10  19  32  51  73  99 129 167 206 250 303
#     4   9  17  28  46  71 100 130 163 206 251 295
#     4   9  17  30  50  77 105 134 173 219 257 288
#
# _framework density 22.119174000000001
#
# number of rings (size 3 to 8) (size 9 to 14) (size 15 to 20)
#    0.000    2.857    0.000    3.429    0.000    5.714 
#    0.000    0.000    0.000    5.143    0.000    9.000 
#    0.000    0.000    0.000    0.000    0.000    0.000 
#
# Total GULP energy -156147.399287 kJ/mol
# GULP energy per Si atom -5576.692832 kJ/mol
# Density = 2.206883 g / cm^3
# Si number density = 22.119174 Si / 1000 Ang^3
#
#
#
# Elastic Constant Matrix: (Units=GPa)
#
#
# Indices 1 2 3 4 5 6 
#
# 1 65.5730 11.0243 14.4422 0.0000 -8.9767 0.0000
# 2 11.0243 91.9564 27.9150 0.0000 -15.7375 0.0000
# 3 14.4422 27.9150 115.4982 0.0000 -12.3864 0.0000
# 4 0.0000 0.0000 0.0000 20.5708 0.0000 -6.3556
# 5 -8.9767 -15.7375 -12.3864 0.0000 22.0252 0.0000
# 6 0.0000 0.0000 0.0000 -6.3556 0.0000 24.3485
#
#
#
# Elastic Compliance Matrix: (Units=1/GPa)
#
#
# Indices 1 2 3 4 5 6 
#
# 1 0.016397 -0.000627 -0.001309 0.000000 0.005498 0.000000
# 2 -0.000627 0.012950 -0.002221 0.000000 0.007749 0.000000
# 3 -0.001309 -0.002221 0.009717 0.000000 0.003345 0.000000
# 4 0.000000 0.000000 0.000000 0.052877 0.000000 0.013802
# 5 0.005498 0.007749 0.003345 0.000000 0.055061 0.000000
# 6 0.000000 0.000000 0.000000 0.013802 0.000000 0.044673
#
#
# Mechanical properties :
#
#
# Convention : Reuss Voigt Hill
#
# Bulk Modulus (GPa) = 32.52010 42.19897 37.35953
# Shear Modulus (GPa) = 23.78249 28.03198 25.90724
#
# Velocity S-wave (km/s) = 3.28258 3.56380 3.42608
# Velocity P-wave (km/s) = 5.39456 6.00447 5.70767
#
# Compressibility (1/GPa) = 0.03075021
#
# Stress axis : x y z
#
# Youngs Moduli (GPa) = 60.98804 77.21931 102.91047
#
# Poissons Ratio (x) = 0.04845 0.13471
# Poissons Ratio (y) = 0.03826 0.22851
# Poissons Ratio (z) = 0.07983 0.17147
#
# Static dielectric constant tensor:
#      x y z
#    x 1.900910 0.000000 0.028520 
#    y 0.000000 1.834060 0.000000 
#    z 0.028520 0.000000 1.867760 
# 
# From -- ./inp_files/305942.got.cif
#   From: 2010.05.17/outbox.cif.g08.bks.cpg/sg12_153_cif.got.tgz:305942.got - 2010.06.03 13:09:07.
