data_PCOD9180338
_publ_section_title
;
Structure prediction by ZEFSAII (Michael W. Deem and Ramdas Pophale) SiO2 
 PCOD9180338
Probable space group: C 2/M
;
_chemical_formula_sum "Si O2"
_cell_formula_units_Z 64
_cell_length_a 31.060447
_cell_length_b 8.547251
_cell_length_c 15.576374
_cell_angle_alpha 90.000000
_cell_angle_beta 100.967372
_cell_angle_gamma 90.000000
_cell_volume 4059.710850
_symmetry_space_group_name_H-M "C 2/M"
_symmetry_group_IT_number 12
_symmetry_cell_setting 'monoclinic'
loop_
_space_group_symop_operation_xyz
x,y,z
-x,y,-z
-x,-y,-z
x,-y,z
1/2+x,1/2+y,z
1/2-x,1/2+y,-z
1/2-x,1/2-y,-z
1/2+x,1/2-y,z
loop_
_atom_site_type_symbol
_atom_site_label
_atom_site_fract_x
_atom_site_fract_y
_atom_site_fract_z
Si Si1 0.943748 0.309567 0.061427
Si Si2 0.809470 0.687777 0.875430
Si Si3 0.213078 0.312635 0.794110
Si Si4 0.689466 0.689047 0.414493
Si Si5 0.216913 0.186986 0.610876
Si Si6 0.348176 0.190827 0.073840
Si Si7 0.540452 0.811308 0.130336
Si Si8 0.124647 0.813011 0.244729
O O1 0.943689 0.500000 0.062486
O O2 0.898667 0.256050 0.087192
O O3 0.989866 0.260009 0.120584
O O4 0.945149 0.265344 0.961218
O O5 0.809943 0.500000 0.872497
O O6 0.761199 0.747597 0.834505
O O7 0.844364 0.749495 0.819627
O O8 0.823922 0.737524 0.976549
O O9 0.215187 0.500000 0.797625
O O10 0.201203 0.259911 0.693732
O O11 0.178643 0.257459 0.853038
O O12 0.693426 0.500000 0.412356
O O13 0.733069 0.759281 0.387671
O O14 0.690472 0.734509 0.514986
O O15 0.647474 0.735944 0.342734
O O16 0.216041 0.000000 0.617658
O O17 0.348663 0.000000 0.074960
O O18 0.575722 0.746429 0.209712
O O19 0.541609 0.000000 0.133929
O O20 0.124968 0.000000 0.241229
#
# Coordination Sequence:
#
# PCOD9180338 Si02
#       8
#     8   8   8   8   8   8   8   8
#     4   8  14  28  48  69  89 119 159 195 225 264
#     4  11  20  32  48  66  91 127 168 195 215 265
#     4  11  21  32  46  67  96 127 156 194 237 272
#     4   9  19  33  48  66  91 121 153 191 238 279
#     4  10  19  32  49  67  88 120 158 195 229 276
#     4   9  18  31  48  67  92 126 163 194 227 270
#     4   9  16  28  50  70  90 119 156 193 226 274
#     4  11  20  30  46  70  99 124 147 186 238 285
#
# _framework density 15.764670000000001
#
# number of rings (size 3 to 8) (size 9 to 14) (size 15 to 20)
#    0.000    2.250    2.500    2.625    0.000    1.000 
#    0.000    3.125    0.000    0.000    0.000    0.875 
#    0.000    7.000    0.000    0.000    0.000    0.000 
#
# Total GULP energy -178446.498254 kJ/mol
# GULP energy per Si atom -5576.453070 kJ/mol
# Density = 1.572879 g / cm^3
# Si number density = 15.764670 Si / 1000 Ang^3
#
#
#
# Elastic Constant Matrix: (Units=GPa)
#
#
# Indices 1 2 3 4 5 6 
#
# 1 91.0029 18.4180 69.8871 0.0000 12.2420 0.0000
# 2 18.4180 18.9112 24.4136 0.0000 5.9983 0.0000
# 3 69.8871 24.4136 126.3013 0.0000 16.5052 0.0000
# 4 0.0000 0.0000 0.0000 20.1850 0.0000 2.8109
# 5 12.2420 5.9983 16.5052 0.0000 24.9996 0.0000
# 6 0.0000 0.0000 0.0000 2.8109 0.0000 16.5099
#
#
#
# Elastic Compliance Matrix: (Units=1/GPa)
#
#
# Indices 1 2 3 4 5 6 
#
# 1 0.019830 -0.006483 -0.009471 0.000000 -0.001902 0.000000
# 2 -0.006483 0.074338 -0.009703 0.000000 -0.008256 0.000000
# 3 -0.009471 -0.009703 0.015457 0.000000 -0.003239 0.000000
# 4 0.000000 0.000000 0.000000 0.050745 0.000000 -0.008639
# 5 -0.001902 -0.008256 -0.003239 0.000000 0.045051 0.000000
# 6 0.000000 0.000000 0.000000 -0.008639 0.000000 0.062041
#
#
# Mechanical properties :
#
#
# Convention : Reuss Voigt Hill
#
# Bulk Modulus (GPa) = 17.14952 51.29475 34.22213
# Shear Modulus (GPa) = 14.78362 20.57202 17.67782
#
# Velocity S-wave (km/s) = 3.06562 3.61632 3.35230
# Velocity P-wave (km/s) = 4.84074 7.07428 6.06128
#
# Compressibility (1/GPa) = 0.05831067
#
# Stress axis : x y z
#
# Youngs Moduli (GPa) = 50.42871 13.45215 64.69537
#
# Poissons Ratio (x) = 0.08721 0.61273
# Poissons Ratio (y) = 0.32692 0.62775
# Poissons Ratio (z) = 0.47761 0.13053
#
# Static dielectric constant tensor:
#      x y z
#    x 1.516630 0.000000 0.013990 
#    y 0.000000 1.540210 0.000000 
#    z 0.013990 0.000000 1.533030 
# 
# From -- ./inp_files/248494.got.cif
#   From: 2010.05.17/outbox.cif.g08.bks.cpg/sg12_125_cif.got.tgz:248494.got - 2010.06.03 13:09:07.
