data_PCOD9180226
_publ_section_title
;
Structure prediction by ZEFSAII (Michael W. Deem and Ramdas Pophale) SiO2 
 PCOD9180226
Probable space group: C 2/M
;
_chemical_formula_sum "Si O2"
_cell_formula_units_Z 58
_cell_length_a 26.637311
_cell_length_b 20.064824
_cell_length_c 12.360278
_cell_angle_alpha 90.000000
_cell_angle_beta 151.567960
_cell_angle_gamma 90.000000
_cell_volume 3145.334111
_symmetry_space_group_name_H-M "C 2/M"
_symmetry_group_IT_number 12
_symmetry_cell_setting 'monoclinic'
loop_
_space_group_symop_operation_xyz
x,y,z
-x,y,-z
-x,-y,-z
x,-y,z
1/2+x,1/2+y,z
1/2-x,1/2+y,-z
1/2-x,1/2-y,-z
1/2+x,1/2-y,z
loop_
_atom_site_type_symbol
_atom_site_label
_atom_site_fract_x
_atom_site_fract_y
_atom_site_fract_z
Si Si1 0.081959 0.419452 0.747123
Si Si2 0.119720 0.920578 0.504326
Si Si3 0.000000 0.500000 0.000000
Si Si4 0.009977 0.377899 0.848519
Si Si5 0.727756 0.829008 0.585594
Si Si6 0.319540 0.419464 0.144627
Si Si7 0.775243 0.677650 0.675526
Si Si8 0.880092 0.919993 0.017302
O O1 0.082845 0.500000 0.750800
O O2 0.046626 0.395290 0.797114
O O3 0.000000 0.397933 0.500000
O O4 0.199793 0.397555 0.940124
O O5 0.115557 0.902657 0.624232
O O6 0.209678 0.877202 0.618113
O O7 0.004782 0.909718 0.234872
O O8 0.144495 0.000000 0.544050
O O9 0.007184 0.442192 0.919538
O O10 0.893221 0.348361 0.624153
O O11 0.100357 0.330949 0.069201
O O12 0.744243 0.752283 0.648990
O O13 0.748227 0.833338 0.495698
O O14 0.805369 0.878409 0.796687
O O15 0.321422 0.500000 0.143237
O O16 0.357210 0.398192 0.097884
O O17 0.859354 0.000000 0.968527
#
# Coordination Sequence:
#
# PCOD9180226 Si02
#       8
#     8   8   2   8   8   8   8   8
#     4  10  19  31  57  94 126 155 191 254 322 370
#     4  10  21  38  65  92 121 162 205 253 299 364
#     4  12  24  36  70 104 122 162 204 266 304 372
#     4  12  23  41  65  93 127 159 207 259 309 368
#     4  11  26  42  62  87 125 168 202 257 309 368
#     4   9  17  34  59  90 123 157 199 249 307 369
#     4  11  25  43  63  86 122 169 212 244 306 378
#     4  10  22  39  63  94 124 158 202 257 311 360
#
# _framework density 18.440011999999999
#
# number of rings (size 3 to 8) (size 9 to 14) (size 15 to 20)
#    0.000    1.517    3.448    1.241    3.862    3.862 
#    0.000    2.069    0.000    0.000    0.000    0.000 
#    0.000    0.000    0.000    0.000    0.000    0.000 
#
# Total GULP energy -161625.412845 kJ/mol
# GULP energy per Si atom -5573.290098 kJ/mol
# Density = 1.839804 g / cm^3
# Si number density = 18.440012 Si / 1000 Ang^3
#
#
#
# Elastic Constant Matrix: (Units=GPa)
#
#
# Indices 1 2 3 4 5 6 
#
# 1 41.9563 16.6805 27.5625 0.0000 -1.6648 0.0000
# 2 16.6805 51.3983 44.5237 0.0000 6.2647 0.0000
# 3 27.5625 44.5237 118.3675 0.0000 0.9448 0.0000
# 4 0.0000 0.0000 0.0000 -6.7915 0.0000 -4.9781
# 5 -1.6648 6.2647 0.9448 0.0000 29.9567 0.0000
# 6 0.0000 0.0000 0.0000 -4.9781 0.0000 5.8488
#
#
#
# Elastic Compliance Matrix: (Units=1/GPa)
#
#
# Indices 1 2 3 4 5 6 
#
# 1 0.029338 -0.005857 -0.004652 0.000000 0.003002 0.000000
# 2 -0.005857 0.031034 -0.010258 0.000000 -0.006492 0.000000
# 3 -0.004652 -0.010258 0.013378 0.000000 0.001465 0.000000
# 4 0.000000 0.000000 0.000000 -0.090674 0.000000 -0.077175
# 5 0.003002 -0.006492 0.001465 0.000000 0.034860 0.000000
# 6 0.000000 0.000000 0.000000 -0.077175 0.000000 0.105290
#
#
# Mechanical properties :
#
#
# Convention : Reuss Voigt Hill
#
# Bulk Modulus (GPa) = 31.04036 43.25063 37.14550
# Shear Modulus (GPa) = 28.49027 13.99982 21.24505
#
# Velocity S-wave (km/s) = 3.93494 2.75836 3.39797
# Velocity P-wave (km/s) = 6.12493 5.80090 5.96512
#
# Compressibility (1/GPa) = 0.03221613
#
# Stress axis : x y z
#
# Youngs Moduli (GPa) = 34.08510 32.22323 74.74807
#
# Poissons Ratio (x) = 0.18873 0.34776
# Poissons Ratio (y) = 0.19964 0.76673
# Poissons Ratio (z) = 0.15858 0.33053
#
# Static dielectric constant tensor:
#      x y z
#    x 1.627500 0.000000 0.000210 
#    y 0.000000 1.606150 0.000000 
#    z 0.000210 0.000000 1.643470 
# 
# From -- ./inp_files/184457.got.cif
#   From: 2010.05.17/outbox.cif.g08.bks.cpg/sg12_93_cif.got.tgz:184457.got - 2010.06.03 13:09:07.
