data_PCOD9180774
_publ_section_title
;
Structure prediction by ZEFSAII (Michael W. Deem and Ramdas Pophale) SiO2 
 PCOD9180774
Probable space group: C 2/M
;
_chemical_formula_sum "Si O2"
_cell_formula_units_Z 40
_cell_length_a 5.160994
_cell_length_b 14.205514
_cell_length_c 27.063734
_cell_angle_alpha 90.000000
_cell_angle_beta 73.357903
_cell_angle_gamma 90.000000
_cell_volume 1901.054157
_symmetry_space_group_name_H-M "C 2/M"
_symmetry_group_IT_number 12
_symmetry_cell_setting 'monoclinic'
loop_
_space_group_symop_operation_xyz
x,y,z
-x,y,-z
-x,-y,-z
x,-y,z
1/2+x,1/2+y,z
1/2-x,1/2+y,-z
1/2-x,1/2-y,-z
1/2+x,1/2-y,z
loop_
_atom_site_type_symbol
_atom_site_label
_atom_site_fract_x
_atom_site_fract_y
_atom_site_fract_z
Si Si1 0.746486 0.689338 0.608688
Si Si2 0.715423 0.387540 0.720123
Si Si3 0.620748 0.885568 0.781680
Si Si4 0.000000 0.682352 0.500000
Si Si5 0.864277 0.311872 0.896454
Si Si6 0.195569 0.500000 0.036105
O O1 0.450117 0.722546 0.607379
O O2 0.727922 0.641619 0.662671
O O3 0.894459 0.633291 0.555816
O O4 0.714811 0.500000 0.721196
O O5 0.433828 0.357892 0.760567
O O6 0.968403 0.357287 0.739549
O O7 0.474669 0.840629 0.836421
O O8 0.606152 0.000000 0.787028
O O9 0.250000 0.750000 0.500000
O O10 0.574010 0.262924 0.907548
O O11 0.853080 0.406629 0.928959
O O12 0.500000 0.500000 0.000000
O O13 0.000000 0.500000 0.000000
#
# Coordination Sequence:
#
# PCOD9180774 Si02
#       6
#     8   8   8   4   8   4
#     4  10  19  32  51  74 104 141 191 244 292 356
#     4  10  21  34  55  82 117 155 191 241 305 365
#     4  10  21  40  59  84 125 164 195 245 312 370
#     4   8  16  30  47  68  97 140 184 236 300 350
#     4  12  26  44  72 103 132 172 222 263 312 382
#     4  12  28  50  74 100 140 178 212 267 322 363
#
# _framework density 21.040956999999999
#
# number of rings (size 3 to 8) (size 9 to 14) (size 15 to 20)
#    0.000    1.600    1.000    3.600    0.000    7.200 
#    0.000    0.500    0.000    0.000    0.000   12.600 
#    0.000    0.000    0.000    0.000    0.000    0.000 
#
# Total GULP energy -111782.004122 kJ/mol
# GULP energy per Si atom -5589.100206 kJ/mol
# Density = 2.099307 g / cm^3
# Si number density = 21.040957 Si / 1000 Ang^3
#
#
#
# Elastic Constant Matrix: (Units=GPa)
#
#
# Indices 1 2 3 4 5 6 
#
# 1 84.5360 -14.2894 -4.4207 0.0000 6.9760 0.0000
# 2 -14.2894 64.1160 17.0440 0.0000 6.4885 0.0000
# 3 -4.4207 17.0440 118.0223 0.0000 4.3627 0.0000
# 4 0.0000 0.0000 0.0000 33.4259 0.0000 10.3399
# 5 6.9760 6.4885 4.3627 0.0000 32.3518 0.0000
# 6 0.0000 0.0000 0.0000 10.3399 0.0000 18.4786
#
#
#
# Elastic Compliance Matrix: (Units=1/GPa)
#
#
# Indices 1 2 3 4 5 6 
#
# 1 0.012643 0.003120 0.000148 0.000000 -0.003372 0.000000
# 2 0.003120 0.017275 -0.002236 0.000000 -0.003836 0.000000
# 3 0.000148 -0.002236 0.008830 0.000000 -0.000774 0.000000
# 4 0.000000 0.000000 0.000000 0.036179 0.000000 -0.020244
# 5 -0.003372 -0.003836 -0.000774 0.000000 0.032511 0.000000
# 6 0.000000 0.000000 0.000000 -0.020244 0.000000 0.065444
#
#
# Mechanical properties :
#
#
# Convention : Reuss Voigt Hill
#
# Bulk Modulus (GPa) = 24.50407 29.26024 26.88215
# Shear Modulus (GPa) = 27.11165 34.74063 30.92614
#
# Velocity S-wave (km/s) = 3.59349 4.06778 3.83796
# Velocity P-wave (km/s) = 5.37482 5.99991 5.69595
#
# Compressibility (1/GPa) = 0.04080955
#
# Stress axis : x y z
#
# Youngs Moduli (GPa) = 79.09797 57.88856 113.24978
#
# Poissons Ratio (x) = -0.18059 -0.01672
# Poissons Ratio (y) = -0.24675 0.25323
# Poissons Ratio (z) = -0.01168 0.12944
#
# Static dielectric constant tensor:
#      x y z
#    x 1.724460 0.000000 0.006780 
#    y 0.000000 1.752280 0.000000 
#    z 0.006780 0.000000 1.770380 
# 
# From -- ./inp_files/330860.got.cif
#   From: 2010.05.17/outbox.cif.g08.bks.cpg/sg12_166_cif.got.tgz:330860.got - 2010.06.03 13:09:07.
