data_PCOD9180583
_publ_section_title
;
Structure prediction by ZEFSAII (Michael W. Deem and Ramdas Pophale) SiO2 
 PCOD9180583
Probable space group: C 2/M
;
_chemical_formula_sum "Si O2"
_cell_formula_units_Z 44
_cell_length_a 18.504850
_cell_length_b 10.255096
_cell_length_c 17.879977
_cell_angle_alpha 90.000000
_cell_angle_beta 136.443016
_cell_angle_gamma 90.000000
_cell_volume 2338.078920
_symmetry_space_group_name_H-M "C 2/M"
_symmetry_group_IT_number 12
_symmetry_cell_setting 'monoclinic'
loop_
_space_group_symop_operation_xyz
x,y,z
-x,y,-z
-x,-y,-z
x,-y,z
1/2+x,1/2+y,z
1/2-x,1/2+y,-z
1/2-x,1/2-y,-z
1/2+x,1/2-y,z
loop_
_atom_site_type_symbol
_atom_site_label
_atom_site_fract_x
_atom_site_fract_y
_atom_site_fract_z
Si Si1 0.024518 0.843339 0.676024
Si Si2 0.380985 0.348810 0.707108
Si Si3 0.059907 0.848915 0.966203
Si Si4 0.759539 0.858284 0.323372
Si Si5 0.238481 0.650736 0.129264
Si Si6 0.000000 0.201037 0.500000
O O1 0.139436 0.824411 0.798066
O O2 0.014358 0.750188 0.596124
O O3 0.931721 0.823221 0.664577
O O4 0.023343 0.000000 0.652928
O O5 0.347987 0.500000 0.685918
O O6 0.475118 0.331151 0.837367
O O7 0.288975 0.253501 0.662481
O O8 0.095315 0.000000 0.991438
O O9 0.156709 0.750729 0.033311
O O10 0.000000 0.827092 0.000000
O O11 0.733128 0.836531 0.215983
O O12 0.885158 0.862077 0.422950
O O13 0.717066 0.000000 0.313405
O O14 0.214130 0.500000 0.092495
#
# Coordination Sequence:
#
# PCOD9180583 Si02
#       6
#     8   8   8   8   8   4
#     4   9  18  34  54  77 104 136 172 213 259 307
#     4  10  21  35  52  77 109 138 170 211 256 307
#     4  10  19  32  50  74 107 146 173 198 253 316
#     4  10  19  33  55  80 103 132 173 217 256 302
#     4   9  18  32  53  78 103 134 177 218 249 292
#     4  10  19  36  59  78 101 136 173 212 265 314
#
# _framework density 18.818867999999998
#
# number of rings (size 3 to 8) (size 9 to 14) (size 15 to 20)
#    0.000    2.364    1.818    2.727    0.000    2.545 
#    0.000    1.364    0.000    2.182    0.000    0.000 
#    0.000    0.000    0.000    0.000    0.000    0.000 
#
# Total GULP energy -122489.318344 kJ/mol
# GULP energy per Si atom -5567.696288 kJ/mol
# Density = 1.877604 g / cm^3
# Si number density = 18.818868 Si / 1000 Ang^3
#
#
#
# Elastic Constant Matrix: (Units=GPa)
#
#
# Indices 1 2 3 4 5 6 
#
# 1 105.0269 58.0161 17.2813 0.0000 9.0329 0.0000
# 2 58.0161 70.4578 28.3624 0.0000 18.7388 0.0000
# 3 17.2813 28.3624 43.7115 0.0000 8.0435 0.0000
# 4 0.0000 0.0000 0.0000 1.8617 0.0000 -6.4274
# 5 9.0329 18.7388 8.0435 0.0000 22.5226 0.0000
# 6 0.0000 0.0000 0.0000 -6.4274 0.0000 6.8166
#
#
#
# Elastic Compliance Matrix: (Units=1/GPa)
#
#
# Indices 1 2 3 4 5 6 
#
# 1 0.018571 -0.018431 0.003389 0.000000 0.006677 0.000000
# 2 -0.018431 0.041351 -0.015599 0.000000 -0.021441 0.000000
# 3 0.003389 -0.015599 0.031597 0.000000 0.000335 0.000000
# 4 0.000000 0.000000 0.000000 -0.238166 0.000000 -0.224567
# 5 0.006677 -0.021441 0.000335 0.000000 0.059442 0.000000
# 6 0.000000 0.000000 0.000000 -0.224567 0.000000 -0.065045
#
#
# Mechanical properties :
#
#
# Convention : Reuss Voigt Hill
#
# Bulk Modulus (GPa) = 33.07226 47.39064 40.23145
# Shear Modulus (GPa) = -61.81357 13.94262 -23.93548
#
# Velocity S-wave (km/s) = -5.73741 2.72487 -3.57022
# Velocity P-wave (km/s) = 5.12625 5.92765 2.10460
#
# Compressibility (1/GPa) = 0.03023682
#
# Stress axis : x y z
#
# Youngs Moduli (GPa) = 53.84758 24.18306 31.64837
#
# Poissons Ratio (x) = 0.44573 -0.10725
# Poissons Ratio (y) = 0.99249 0.49367
# Poissons Ratio (z) = -0.18247 0.37722
#
# Static dielectric constant tensor:
#      x y z
#    x 1.651100 0.000000 -0.034260 
#    y 0.000000 1.637030 0.000000 
#    z -0.034260 0.000000 1.673210 
# 
# From -- ./inp_files/275874.got.cif
#   From: 2010.05.17/outbox.cif.g08.bks.cpg/sg12_138_cif.got.tgz:275874.got - 2010.06.03 13:09:07.
