data_PCOD9180146
_publ_section_title
;
Structure prediction by ZEFSAII (Michael W. Deem and Ramdas Pophale) SiO2 
 PCOD9180146
Probable space group: C 2/M
;
_chemical_formula_sum "Si O2"
_cell_formula_units_Z 56
_cell_length_a 15.363925
_cell_length_b 17.677104
_cell_length_c 14.192313
_cell_angle_alpha 90.000000
_cell_angle_beta 50.353416
_cell_angle_gamma 90.000000
_cell_volume 2967.933947
_symmetry_space_group_name_H-M "C 2/M"
_symmetry_group_IT_number 12
_symmetry_cell_setting 'monoclinic'
loop_
_space_group_symop_operation_xyz
x,y,z
-x,y,-z
-x,-y,-z
x,-y,z
1/2+x,1/2+y,z
1/2-x,1/2+y,-z
1/2-x,1/2-y,-z
1/2+x,1/2-y,z
loop_
_atom_site_type_symbol
_atom_site_label
_atom_site_fract_x
_atom_site_fract_y
_atom_site_fract_z
Si Si1 0.119606 0.729435 0.870130
Si Si2 0.964447 0.815615 0.253702
Si Si3 0.304086 0.676037 0.009391
Si Si4 0.248509 0.342502 0.491448
Si Si5 0.150707 0.589292 0.744528
Si Si6 0.512568 0.805277 0.596830
Si Si7 0.589277 0.087667 0.194576
O O1 0.096216 0.765052 0.784344
O O2 0.172448 0.793273 0.900963
O O3 0.176242 0.648157 0.811253
O O4 0.000000 0.711756 0.000000
O O5 0.863286 0.868019 0.361690
O O6 0.993189 0.762558 0.323299
O O7 0.078939 0.843836 0.124777
O O8 0.208029 0.613022 0.069203
O O9 0.250000 0.750000 0.000000
O O10 0.250000 0.250000 0.500000
O O11 0.229345 0.384294 0.603441
O O12 0.131445 0.350570 0.516966
O O13 0.161953 0.500000 0.757588
O O14 0.020643 0.602729 0.796596
O O15 0.500000 0.777059 0.500000
O O16 0.424733 0.864463 0.700330
O O17 0.587471 0.000000 0.216279
#
# Coordination Sequence:
#
# PCOD9180146 Si02
#       7
#     8   8   8   8   8   8   8
#     4  10  19  33  56  80 109 149 188 232 277 334
#     4  10  19  35  53  83 110 143 197 232 270 330
#     4  11  21  35  57  84 111 146 195 231 279 337
#     4   9  17  32  53  75 113 146 187 224 276 326
#     4  10  19  36  58  86 117 146 184 239 290 341
#     4  10  19  31  54  84 109 143 184 228 286 332
#     4  10  20  36  56  83 121 147 180 237 291 336
#
# _framework density 18.868344
#
# number of rings (size 3 to 8) (size 9 to 14) (size 15 to 20)
#    0.000    2.000    5.714    0.857    2.000    0.571 
#    0.000    1.429    0.000    3.857    0.000    1.000 
#    0.000    0.000    0.000    0.000    0.000    0.000 
#
# Total GULP energy -155867.963067 kJ/mol
# GULP energy per Si atom -5566.712967 kJ/mol
# Density = 1.882540 g / cm^3
# Si number density = 18.868344 Si / 1000 Ang^3
#
#
#
# Elastic Constant Matrix: (Units=GPa)
#
#
# Indices 1 2 3 4 5 6 
#
# 1 26.2010 -0.4376 36.6988 0.0000 2.9602 0.0000
# 2 -0.4376 24.5121 20.6500 0.0000 -7.8476 0.0000
# 3 36.6988 20.6500 122.6276 0.0000 -22.7163 0.0000
# 4 0.0000 0.0000 0.0000 17.1578 0.0000 -7.0748
# 5 2.9602 -7.8476 -22.7163 0.0000 40.2499 0.0000
# 6 0.0000 0.0000 0.0000 -7.0748 0.0000 15.7473
#
#
#
# Elastic Compliance Matrix: (Units=1/GPa)
#
#
# Indices 1 2 3 4 5 6 
#
# 1 0.090161 0.024213 -0.035081 0.000000 -0.021709 0.000000
# 2 0.024213 0.055080 -0.016597 0.000000 -0.000409 0.000000
# 3 -0.035081 -0.016597 0.023817 0.000000 0.012786 0.000000
# 4 0.000000 0.000000 0.000000 0.071535 0.000000 0.032139
# 5 -0.021709 -0.000409 0.012786 0.000000 0.033578 0.000000
# 6 0.000000 0.000000 0.000000 0.032139 0.000000 0.077942
#
#
# Mechanical properties :
#
#
# Convention : Reuss Voigt Hill
#
# Bulk Modulus (GPa) = 8.76218 31.90700 20.33459
# Shear Modulus (GPa) = 11.23380 22.39297 16.81338
#
# Velocity S-wave (km/s) = 2.44268 3.44873 2.98835
# Velocity P-wave (km/s) = 3.55099 5.72760 4.76524
#
# Compressibility (1/GPa) = 0.11412680
#
# Stress axis : x y z
#
# Youngs Moduli (GPa) = 11.09129 18.15551 41.98677
#
# Poissons Ratio (x) = -0.43960 1.47295
# Poissons Ratio (y) = -0.26856 0.69686
# Poissons Ratio (z) = 0.38910 0.30133
#
# Static dielectric constant tensor:
#      x y z
#    x 1.737230 0.000000 -0.009190 
#    y 0.000000 1.695960 0.000000 
#    z -0.009190 0.000000 1.707280 
# 
# From -- ./inp_files/216323.got.cif
#   From: 2010.05.17/outbox.cif.g08.bks.cpg/sg12_109_cif.got.tgz:216323.got - 2010.06.03 13:09:07.
