data_PCOD9180263
_publ_section_title
;
Structure prediction by ZEFSAII (Michael W. Deem and Ramdas Pophale) SiO2 
 PCOD9180263
Probable space group: C 2/M
;
_chemical_formula_sum "Si O2"
_cell_formula_units_Z 48
_cell_length_a 9.568196
_cell_length_b 22.115471
_cell_length_c 14.039568
_cell_angle_alpha 90.000000
_cell_angle_beta 67.810456
_cell_angle_gamma 90.000000
_cell_volume 2750.822845
_symmetry_space_group_name_H-M "C 2/M"
_symmetry_group_IT_number 12
_symmetry_cell_setting 'monoclinic'
loop_
_space_group_symop_operation_xyz
x,y,z
-x,y,-z
-x,-y,-z
x,-y,z
1/2+x,1/2+y,z
1/2-x,1/2+y,-z
1/2-x,1/2-y,-z
1/2+x,1/2-y,z
loop_
_atom_site_type_symbol
_atom_site_label
_atom_site_fract_x
_atom_site_fract_y
_atom_site_fract_z
Si Si1 0.360890 0.929929 0.744951
Si Si2 0.959131 0.426988 0.115017
Si Si3 0.353445 0.626489 0.343066
Si Si4 0.669678 0.571073 0.307276
Si Si5 0.419944 0.744863 0.422615
Si Si6 0.364097 0.121731 0.420854
O O1 0.427617 0.908013 0.829244
O O2 0.226543 0.890669 0.734807
O O3 0.506896 0.926261 0.637497
O O4 0.313628 0.000000 0.764559
O O5 0.971644 0.500000 0.109551
O O6 0.787634 0.414448 0.192035
O O7 0.000000 0.403597 0.000000
O O8 0.496905 0.584338 0.327523
O O9 0.419945 0.694094 0.341696
O O10 0.221192 0.618454 0.456598
O O11 0.687429 0.500000 0.326691
O O12 0.731295 0.611308 0.378475
O O13 0.500000 0.726273 0.500000
O O14 0.250000 0.750000 0.500000
O O15 0.452197 0.814087 0.386712
#
# Coordination Sequence:
#
# PCOD9180263 Si02
#       6
#     8   8   8   8   8   8
#     4  10  20  31  47  73  97 123 160 192 235 293
#     4   8  16  34  54  68  89 123 162 201 237 285
#     4  11  20  30  45  70 104 131 154 196 237 274
#     4  10  20  31  47  74 100 126 160 192 242 301
#     4  10  19  32  47  64  91 133 176 199 217 257
#     4  10  19  32  48  67  97 136 169 194 220 268
#
# _framework density 17.449324000000001
#
# number of rings (size 3 to 8) (size 9 to 14) (size 15 to 20)
#    0.000    2.167    0.000    7.000    0.000    4.000 
#    0.000    0.833    0.000    4.000    0.000   18.667 
#    0.000    0.000    0.000    0.000    0.000    0.000 
#
# Total GULP energy -133618.641993 kJ/mol
# GULP energy per Si atom -5567.443416 kJ/mol
# Density = 1.740961 g / cm^3
# Si number density = 17.449324 Si / 1000 Ang^3
#
#
#
# Elastic Constant Matrix: (Units=GPa)
#
#
# Indices 1 2 3 4 5 6 
#
# 1 118.1379 24.3644 30.8837 0.0000 23.5210 0.0000
# 2 24.3644 67.5352 24.3230 0.0000 9.4153 0.0000
# 3 30.8837 24.3230 75.9686 0.0000 19.7785 0.0000
# 4 0.0000 0.0000 0.0000 -6.3386 0.0000 3.6088
# 5 23.5210 9.4153 19.7785 0.0000 13.7237 0.0000
# 6 0.0000 0.0000 0.0000 3.6088 0.0000 25.6558
#
#
#
# Elastic Compliance Matrix: (Units=1/GPa)
#
#
# Indices 1 2 3 4 5 6 
#
# 1 0.013110 -0.001992 0.001284 0.000000 -0.022952 0.000000
# 2 -0.001992 0.017356 -0.004059 0.000000 -0.002644 0.000000
# 3 0.001284 -0.004059 0.022070 0.000000 -0.031223 0.000000
# 4 0.000000 0.000000 0.000000 -0.146066 0.000000 0.020546
# 5 -0.022952 -0.002644 -0.031223 0.000000 0.159016 0.000000
# 6 0.000000 0.000000 0.000000 0.020546 0.000000 0.036087
#
#
# Mechanical properties :
#
#
# Convention : Reuss Voigt Hill
#
# Bulk Modulus (GPa) = 23.25495 46.75378 35.00437
# Shear Modulus (GPa) = 39.85945 18.74623 29.30284
#
# Velocity S-wave (km/s) = 4.78462 3.28124 4.10239
# Velocity P-wave (km/s) = 6.62416 6.41932 6.52254
#
# Compressibility (1/GPa) = 0.04300160
#
# Stress axis : x y z
#
# Youngs Moduli (GPa) = 76.27979 57.61659 45.31090
#
# Poissons Ratio (x) = 0.11478 -0.05818
# Poissons Ratio (y) = 0.15196 0.18391
# Poissons Ratio (z) = -0.09794 0.23386
#
# Static dielectric constant tensor:
#      x y z
#    x 1.607480 0.000000 0.014480 
#    y 0.000000 1.722930 0.000000 
#    z 0.014480 0.000000 1.586540 
# 
# From -- ./inp_files/122044.got.cif
#   From: 2010.05.17/outbox.cif.g08.bks.cpg/sg12_62_cif.got.tgz:122044.got - 2010.06.03 13:09:07.
