data_PCOD9180937
_publ_section_title
;
Structure prediction by ZEFSAII (Michael W. Deem and Ramdas Pophale) SiO2 
 PCOD9180937
Probable space group: C 2/M
;
_chemical_formula_sum "Si O2"
_cell_formula_units_Z 64
_cell_length_a 29.081129
_cell_length_b 9.055844
_cell_length_c 14.564735
_cell_angle_alpha 90.000000
_cell_angle_beta 88.033253
_cell_angle_gamma 90.000000
_cell_volume 3833.424112
_symmetry_space_group_name_H-M "C 2/M"
_symmetry_group_IT_number 12
_symmetry_cell_setting 'monoclinic'
loop_
_space_group_symop_operation_xyz
x,y,z
-x,y,-z
-x,-y,-z
x,-y,z
1/2+x,1/2+y,z
1/2-x,1/2+y,-z
1/2-x,1/2-y,-z
1/2+x,1/2-y,z
loop_
_atom_site_type_symbol
_atom_site_label
_atom_site_fract_x
_atom_site_fract_y
_atom_site_fract_z
Si Si1 0.486669 0.822099 0.395415
Si Si2 0.156682 0.323744 0.453364
Si Si3 0.850784 0.175642 0.836198
Si Si4 0.611176 0.324225 0.630315
Si Si5 0.700990 0.321621 0.980481
Si Si6 0.315020 0.323790 0.228610
Si Si7 0.774473 0.824341 0.684487
Si Si8 0.418801 0.176014 0.699957
O O1 0.500000 0.788631 0.500000
O O2 0.439224 0.745492 0.372512
O O3 0.529859 0.776009 0.329686
O O4 0.481334 0.000000 0.389931
O O5 0.161108 0.500000 0.463478
O O6 0.142445 0.248012 0.548807
O O7 0.201924 0.255201 0.403642
O O8 0.114852 0.293889 0.384455
O O9 0.808444 0.205076 0.768938
O O10 0.895267 0.251021 0.789423
O O11 0.857906 0.000000 0.836748
O O12 0.834998 0.224306 0.938173
O O13 0.608743 0.500000 0.616052
O O14 0.636755 0.295488 0.724713
O O15 0.705357 0.500000 0.985471
O O16 0.686286 0.282127 0.878359
O O17 0.750000 0.250000 0.000000
O O18 0.305902 0.500000 0.235170
O O19 0.274754 0.239793 0.285232
O O20 0.772595 0.000000 0.669901
O O21 0.419275 0.000000 0.711748
#
# Coordination Sequence:
#
# PCOD9180937 Si02
#       8
#     8   8   8   8   8   8   8   8
#     4  10  19  36  57  78 103 135 175 215 261 316
#     4  10  19  34  53  74 104 144 178 210 259 313
#     4   9  18  31  50  79 108 130 165 216 262 302
#     4  11  23  36  51  77 107 139 179 219 260 308
#     4  10  19  34  55  78 104 138 175 217 262 308
#     4  10  22  37  52  73 107 145 178 213 261 318
#     4  10  19  32  51  78 107 136 177 221 257 304
#     4   9  18  32  53  78 103 132 169 209 257 315
#
# _framework density 16.695256000000001
#
# number of rings (size 3 to 8) (size 9 to 14) (size 15 to 20)
#    0.000    2.125    2.500    1.125    0.000    3.750 
#    0.000    0.000    0.000    0.750    0.000    5.250 
#    0.000    0.000    0.000    0.000    0.000    0.000 
#
# Total GULP energy -178582.830968 kJ/mol
# GULP energy per Si atom -5580.713468 kJ/mol
# Density = 1.665726 g / cm^3
# Si number density = 16.695256 Si / 1000 Ang^3
#
#
#
# Elastic Constant Matrix: (Units=GPa)
#
#
# Indices 1 2 3 4 5 6 
#
# 1 112.0283 48.3092 77.5364 0.0000 -10.3365 0.0000
# 2 48.3092 34.0903 44.9535 0.0000 2.0619 0.0000
# 3 77.5364 44.9535 116.6946 0.0000 -10.9071 0.0000
# 4 0.0000 0.0000 0.0000 20.9216 0.0000 -6.7034
# 5 -10.3365 2.0619 -10.9071 0.0000 25.0588 0.0000
# 6 0.0000 0.0000 0.0000 -6.7034 0.0000 29.2070
#
#
#
# Elastic Compliance Matrix: (Units=1/GPa)
#
#
# Indices 1 2 3 4 5 6 
#
# 1 0.028050 -0.035653 -0.003698 0.000000 0.012894 0.000000
# 2 -0.035653 0.111363 -0.022351 0.000000 -0.033598 0.000000
# 3 -0.003698 -0.022351 0.020500 0.000000 0.009236 0.000000
# 4 0.000000 0.000000 0.000000 0.051592 0.000000 0.011841
# 5 0.012894 -0.033598 0.009236 0.000000 0.052010 0.000000
# 6 0.000000 0.000000 0.000000 0.011841 0.000000 0.036956
#
#
# Mechanical properties :
#
#
# Convention : Reuss Voigt Hill
#
# Bulk Modulus (GPa) = 27.39034 67.15682 47.27358
# Shear Modulus (GPa) = 11.46680 21.17175 16.31927
#
# Velocity S-wave (km/s) = 2.62359 3.56494 3.12986
# Velocity P-wave (km/s) = 5.06155 7.56687 6.43727
#
# Compressibility (1/GPa) = 0.03650923
#
# Stress axis : x y z
#
# Youngs Moduli (GPa) = 35.65097 8.97967 48.78154
#
# Poissons Ratio (x) = 0.32015 0.18038
# Poissons Ratio (y) = 1.27107 1.09030
# Poissons Ratio (z) = 0.13183 0.20070
#
# Static dielectric constant tensor:
#      x y z
#    x 1.546580 0.000000 0.002610 
#    y 0.000000 1.556100 0.000000 
#    z 0.002610 0.000000 1.563530 
# 
# From -- ./inp_files/238802.got.cif
#   From: 2010.05.17/outbox.cif.g08.bks.cpg/sg12_120_cif.got.tgz:238802.got - 2010.06.03 13:09:07.
