data_PCOD9180578
_publ_section_title
;
Structure prediction by ZEFSAII (Michael W. Deem and Ramdas Pophale) SiO2 
 PCOD9180578
Probable space group: C 2/M
;
_chemical_formula_sum "Si O2"
_cell_formula_units_Z 48
_cell_length_a 27.930213
_cell_length_b 8.824243
_cell_length_c 11.995602
_cell_angle_alpha 90.000000
_cell_angle_beta 70.479724
_cell_angle_gamma 90.000000
_cell_volume 2786.543657
_symmetry_space_group_name_H-M "C 2/M"
_symmetry_group_IT_number 12
_symmetry_cell_setting 'monoclinic'
loop_
_space_group_symop_operation_xyz
x,y,z
-x,y,-z
-x,-y,-z
x,-y,z
1/2+x,1/2+y,z
1/2-x,1/2+y,-z
1/2-x,1/2-y,-z
1/2+x,1/2-y,z
loop_
_atom_site_type_symbol
_atom_site_label
_atom_site_fract_x
_atom_site_fract_y
_atom_site_fract_z
Si Si1 0.069399 0.321313 0.736469
Si Si2 0.032560 0.823779 0.131380
Si Si3 0.443454 0.681672 0.497962
Si Si4 0.804887 0.319572 0.978937
Si Si5 0.125367 0.177469 0.888061
Si Si6 0.103905 0.680765 0.258214
O O1 0.073809 0.500000 0.718049
O O2 0.064901 0.240071 0.620547
O O3 0.114104 0.258467 0.780189
O O4 0.016661 0.279511 0.839338
O O5 0.062158 0.770980 0.218663
O O6 0.016822 0.000000 0.151333
O O7 0.073658 0.809839 0.001582
O O8 0.500000 0.722360 0.500000
O O9 0.439222 0.500000 0.505185
O O10 0.402949 0.759293 0.611940
O O11 0.801418 0.500000 0.994004
O O12 0.842797 0.288779 0.845179
O O13 0.750000 0.250000 0.000000
O O14 0.831458 0.250688 0.068159
O O15 0.135571 0.000000 0.863434
O O16 0.094428 0.500000 0.259925
#
# Coordination Sequence:
#
# PCOD9180578 Si02
#       6
#     8   8   8   8   8   8
#     4  12  23  33  50  75 109 148 184 223 267 319
#     4  10  19  32  50  74 106 145 183 220 265 319
#     4  11  22  35  53  76 108 150 191 224 262 319
#     4  10  21  38  61  87 111 138 177 225 278 328
#     4  10  21  36  54  77 108 142 180 225 273 324
#     4  10  20  34  54  81 110 141 182 228 269 315
#
# _framework density 17.225642000000001
#
# number of rings (size 3 to 8) (size 9 to 14) (size 15 to 20)
#    0.000    1.500    1.667    4.500    0.000    6.667 
#    0.000    0.000    0.000    1.000    0.000    0.000 
#    0.000    0.000    0.000    0.000    0.000    0.000 
#
# Total GULP energy -134048.035214 kJ/mol
# GULP energy per Si atom -5585.334801 kJ/mol
# Density = 1.718644 g / cm^3
# Si number density = 17.225642 Si / 1000 Ang^3
#
#
#
# Elastic Constant Matrix: (Units=GPa)
#
#
# Indices 1 2 3 4 5 6 
#
# 1 93.7385 36.7897 46.8262 0.0000 11.5957 0.0000
# 2 36.7897 72.0556 41.4197 0.0000 7.9048 0.0000
# 3 46.8262 41.4197 82.0090 0.0000 22.3894 0.0000
# 4 0.0000 0.0000 0.0000 28.0001 0.0000 1.3760
# 5 11.5957 7.9048 22.3894 0.0000 19.5502 0.0000
# 6 0.0000 0.0000 0.0000 1.3760 0.0000 27.2361
#
#
#
# Elastic Compliance Matrix: (Units=1/GPa)
#
#
# Indices 1 2 3 4 5 6 
#
# 1 0.015719 -0.004014 -0.007050 0.000000 0.000373 0.000000
# 2 -0.004014 0.020916 -0.009621 0.000000 0.004942 0.000000
# 3 -0.007050 -0.009621 0.027461 0.000000 -0.023377 0.000000
# 4 0.000000 0.000000 0.000000 0.035803 0.000000 -0.001809
# 5 0.000373 0.004942 -0.023377 0.000000 0.075702 0.000000
# 6 0.000000 0.000000 0.000000 -0.001809 0.000000 0.036807
#
#
# Mechanical properties :
#
#
# Convention : Reuss Voigt Hill
#
# Bulk Modulus (GPa) = 44.00399 55.31935 49.66167
# Shear Modulus (GPa) = 19.13117 23.14180 21.13649
#
# Velocity S-wave (km/s) = 3.33621 3.66929 3.50671
# Velocity P-wave (km/s) = 6.35937 7.08066 6.72969
#
# Compressibility (1/GPa) = 0.02272521
#
# Stress axis : x y z
#
# Youngs Moduli (GPa) = 63.61762 47.81022 36.41582
#
# Poissons Ratio (x) = 0.19192 0.25673
# Poissons Ratio (y) = 0.25537 0.35036
# Poissons Ratio (z) = 0.44850 0.45999
#
# Static dielectric constant tensor:
#      x y z
#    x 1.568340 0.000000 0.003060 
#    y 0.000000 1.568960 0.000000 
#    z 0.003060 0.000000 1.606070 
# 
# From -- ./inp_files/172053.got.cif
#   From: 2010.05.17/outbox.cif.g08.bks.cpg/sg12_87_cif.got.tgz:172053.got - 2010.06.03 13:09:07.
