data_PCOD9180128
_publ_section_title
;
Structure prediction by ZEFSAII (Michael W. Deem and Ramdas Pophale) SiO2 
 PCOD9180128
Probable space group: C 2/M
;
_chemical_formula_sum "Si O2"
_cell_formula_units_Z 56
_cell_length_a 13.436572
_cell_length_b 13.823647
_cell_length_c 21.433816
_cell_angle_alpha 90.000000
_cell_angle_beta 128.011139
_cell_angle_gamma 90.000000
_cell_volume 3136.727434
_symmetry_space_group_name_H-M "C 2/M"
_symmetry_group_IT_number 12
_symmetry_cell_setting 'monoclinic'
loop_
_space_group_symop_operation_xyz
x,y,z
-x,y,-z
-x,-y,-z
x,-y,z
1/2+x,1/2+y,z
1/2-x,1/2+y,-z
1/2-x,1/2-y,-z
1/2+x,1/2-y,z
loop_
_atom_site_type_symbol
_atom_site_label
_atom_site_fract_x
_atom_site_fract_y
_atom_site_fract_z
Si Si1 0.158567 0.889694 0.453557
Si Si2 0.587639 0.613583 0.283565
Si Si3 0.933827 0.307678 0.538961
Si Si4 0.160018 0.613655 0.695964
Si Si5 0.349528 0.613055 0.876644
Si Si6 0.228074 0.387177 0.961962
Si Si7 0.566008 0.708363 0.880355
O O1 0.096213 0.876751 0.360974
O O2 0.105786 0.804802 0.476607
O O3 0.307613 0.868877 0.502305
O O4 0.138090 0.000000 0.466259
O O5 0.563469 0.500000 0.259238
O O6 0.725874 0.636306 0.308076
O O7 0.487276 0.678228 0.207658
O O8 0.000000 0.336261 0.500000
O O9 0.036752 0.326526 0.632179
O O10 0.129915 0.500000 0.677102
O O11 0.221614 0.628001 0.787482
O O12 0.386916 0.500000 0.882550
O O13 0.318584 0.628563 0.936654
O O14 0.456466 0.677800 0.886545
O O15 0.197723 0.500000 0.953567
O O16 0.107971 0.318786 0.904946
O O17 0.308977 0.351973 0.052407
#
# Coordination Sequence:
#
# PCOD9180128 Si02
#       7
#     8   8   8   8   8   8   8
#     4  10  22  36  52  77 105 134 169 210 255 302
#     4   9  17  32  53  77 102 131 169 214 253 295
#     4  11  21  34  55  77 101 134 170 210 255 304
#     4   9  17  30  53  79 101 130 168 213 254 294
#     4   9  18  33  53  77 103 133 171 213 253 297
#     4  10  20  33  52  79 105 135 172 210 254 300
#     4  10  19  31  54  78 104 136 170 212 253 299
#
# _framework density 17.853002
#
# number of rings (size 3 to 8) (size 9 to 14) (size 15 to 20)
#    0.000    2.286    1.429    3.000    2.000    2.000 
#    0.000    0.000    0.000   12.000    0.000    0.000 
#    0.000    0.000    0.000    0.000    0.000    0.000 
#
# Total GULP energy -156194.075485 kJ/mol
# GULP energy per Si atom -5578.359839 kJ/mol
# Density = 1.781237 g / cm^3
# Si number density = 17.853002 Si / 1000 Ang^3
#
#
#
# Elastic Constant Matrix: (Units=GPa)
#
#
# Indices 1 2 3 4 5 6 
#
# 1 19.1059 7.5057 1.5090 0.0000 9.2485 0.0000
# 2 7.5057 87.1573 26.5851 0.0000 20.5898 0.0000
# 3 1.5090 26.5851 70.8900 0.0000 16.9813 0.0000
# 4 0.0000 0.0000 0.0000 22.9976 0.0000 5.2637
# 5 9.2485 20.5898 16.9813 0.0000 19.8633 0.0000
# 6 0.0000 0.0000 0.0000 5.2637 0.0000 17.5167
#
#
#
# Elastic Compliance Matrix: (Units=1/GPa)
#
#
# Indices 1 2 3 4 5 6 
#
# 1 0.071143 0.001173 0.007887 0.000000 -0.041083 0.000000
# 2 0.001173 0.015551 -0.002345 0.000000 -0.014662 0.000000
# 3 0.007887 -0.002345 0.019008 0.000000 -0.017492 0.000000
# 4 0.000000 0.000000 0.000000 0.046694 0.000000 -0.014031
# 5 -0.041083 -0.014662 -0.017492 0.000000 0.099624 0.000000
# 6 0.000000 0.000000 0.000000 -0.014031 0.000000 0.061305
#
#
# Mechanical properties :
#
#
# Convention : Reuss Voigt Hill
#
# Bulk Modulus (GPa) = 8.39404 27.59476 17.99440
# Shear Modulus (GPa) = 14.72295 21.51242 18.11768
#
# Velocity S-wave (km/s) = 2.87483 3.47504 3.18909
# Velocity P-wave (km/s) = 3.96630 5.62062 4.86430
#
# Compressibility (1/GPa) = 0.11913220
#
# Stress axis : x y z
#
# Youngs Moduli (GPa) = 14.05622 64.30305 52.60980
#
# Poissons Ratio (x) = -0.07543 -0.41493
# Poissons Ratio (y) = -0.01649 0.12337
# Poissons Ratio (z) = -0.11086 0.15079
#
# Static dielectric constant tensor:
#      x y z
#    x 1.595840 0.000000 -0.013410 
#    y 0.000000 1.602200 0.000000 
#    z -0.013410 0.000000 1.633580 
# 
# From -- ./inp_files/263245.got.cif
#   From: 2010.05.17/outbox.cif.g08.bks.cpg/sg12_132_cif.got.tgz:263245.got - 2010.06.03 13:09:07.
