data_PCOD9180150
_publ_section_title
;
Structure prediction by ZEFSAII (Michael W. Deem and Ramdas Pophale) SiO2 
 PCOD9180150
Probable space group: C 2/M
;
_chemical_formula_sum "Si O2"
_cell_formula_units_Z 56
_cell_length_a 20.884455
_cell_length_b 8.987303
_cell_length_c 30.659821
_cell_angle_alpha 90.000000
_cell_angle_beta 146.256289
_cell_angle_gamma 90.000000
_cell_volume 3196.610800
_symmetry_space_group_name_H-M "C 2/M"
_symmetry_group_IT_number 12
_symmetry_cell_setting 'monoclinic'
loop_
_space_group_symop_operation_xyz
x,y,z
-x,y,-z
-x,-y,-z
x,-y,z
1/2+x,1/2+y,z
1/2-x,1/2+y,-z
1/2-x,1/2-y,-z
1/2+x,1/2-y,z
loop_
_atom_site_type_symbol
_atom_site_label
_atom_site_fract_x
_atom_site_fract_y
_atom_site_fract_z
Si Si1 0.572321 0.177750 0.497049
Si Si2 0.787724 0.821911 0.087348
Si Si3 0.912177 0.821054 0.333732
Si Si4 0.815637 0.678368 0.656219
Si Si5 0.423985 0.322782 0.075511
Si Si6 0.461671 0.321054 0.261232
Si Si7 0.162393 0.678512 0.228954
O O1 0.500000 0.212556 0.500000
O O2 0.501797 0.241504 0.416359
O O3 0.697142 0.251933 0.571926
O O4 0.583711 0.000000 0.500264
O O5 0.869849 0.784763 0.092520
O O6 0.855327 0.780083 0.169394
O O7 0.770204 0.000000 0.077072
O O8 0.666535 0.742631 0.010329
O O9 0.936012 0.785819 0.296863
O O10 0.782385 0.779317 0.274153
O O11 0.922638 0.000000 0.345360
O O12 0.810889 0.500000 0.650355
O O13 0.829768 0.718406 0.715373
O O14 0.924158 0.741548 0.691466
O O15 0.429001 0.500000 0.074951
O O16 0.550531 0.254073 0.145036
O O17 0.477009 0.500000 0.266020
O O18 0.149878 0.500000 0.218936
#
# Coordination Sequence:
#
# PCOD9180150 Si02
#       7
#     8   8   8   8   8   8   8
#     4  11  23  38  59  86 115 147 187 235 282 329
#     4   9  18  33  53  80 113 145 182 230 278 330
#     4  10  22  40  61  83 113 151 188 230 282 338
#     4  11  22  36  60  86 113 148 187 233 280 332
#     4  10  19  31  54  84 111 144 186 233 278 323
#     4  10  21  39  60  84 115 150 187 231 283 335
#     4  10  20  35  56  84 112 145 187 230 277 332
#
# _framework density 17.518554000000002
#
# number of rings (size 3 to 8) (size 9 to 14) (size 15 to 20)
#    0.000    1.857    2.857    1.286    0.000    4.000 
#    0.000    0.714    0.000    4.286    0.000    0.000 
#    0.000    0.000    0.000    0.000    0.000    0.000 
#
# Total GULP energy -156374.570250 kJ/mol
# GULP energy per Si atom -5584.806080 kJ/mol
# Density = 1.747868 g / cm^3
# Si number density = 17.518554 Si / 1000 Ang^3
#
#
#
# Elastic Constant Matrix: (Units=GPa)
#
#
# Indices 1 2 3 4 5 6 
#
# 1 130.7238 54.4169 93.9728 0.0000 2.6475 -0.0001
# 2 54.4169 36.6209 68.5993 0.0001 1.8885 -0.0004
# 3 93.9728 68.5993 200.1109 0.0000 9.1791 0.0000
# 4 0.0000 0.0001 0.0000 27.3088 0.0000 0.9596
# 5 2.6475 1.8885 9.1791 0.0000 30.2288 0.0000
# 6 -0.0001 -0.0004 0.0000 0.9596 0.0000 20.5429
#
#
#
# Elastic Compliance Matrix: (Units=1/GPa)
#
#
# Indices 1 2 3 4 5 6 
#
# 1 0.020421 -0.034629 0.002296 0.000000 -0.000322 -0.000001
# 2 -0.034629 0.135342 -0.030308 0.000000 0.003781 0.000002
# 3 0.002296 -0.030308 0.014432 0.000000 -0.002690 -0.000001
# 4 0.000000 0.000000 0.000000 0.036678 0.000000 -0.001713
# 5 -0.000322 0.003781 -0.002690 0.000000 0.033690 0.000000
# 6 -0.000001 0.000002 -0.000001 -0.001713 0.000000 0.048759
#
#
# Mechanical properties :
#
#
# Convention : Reuss Voigt Hill
#
# Bulk Modulus (GPa) = 22.26481 89.04816 55.65649
# Shear Modulus (GPa) = 11.63946 25.64722 18.64334
#
# Velocity S-wave (km/s) = 2.58041 3.83038 3.26576
# Velocity P-wave (km/s) = 4.64918 8.39664 6.78669
#
# Compressibility (1/GPa) = 0.04491393
#
# Stress axis : x y z
#
# Youngs Moduli (GPa) = 48.96997 7.38870 69.29035
#
# Poissons Ratio (x) = 0.25586 -0.15910
# Poissons Ratio (y) = 1.69577 2.10003
# Poissons Ratio (z) = -0.11244 0.22393
#
# Static dielectric constant tensor:
#      x y z
#    x 1.577490 0.000000 -0.006390 
#    y 0.000000 1.581710 0.000000 
#    z -0.006390 0.000000 1.569250 
# 
# From -- ./inp_files/275511.got.cif
#   From: 2010.05.17/outbox.cif.g08.bks.cpg/sg12_138_cif.got.tgz:275511.got - 2010.06.03 13:09:07.
