data_PCOD9180459
_publ_section_title
;
Structure prediction by ZEFSAII (Michael W. Deem and Ramdas Pophale) SiO2 
 PCOD9180459
Probable space group: C 2/M
;
_chemical_formula_sum "Si O2"
_cell_formula_units_Z 58
_cell_length_a 8.685708
_cell_length_b 20.093023
_cell_length_c 14.483980
_cell_angle_alpha 90.000000
_cell_angle_beta 89.833969
_cell_angle_gamma 90.000000
_cell_volume 2527.764436
_symmetry_space_group_name_H-M "C 2/M"
_symmetry_group_IT_number 12
_symmetry_cell_setting 'monoclinic'
loop_
_space_group_symop_operation_xyz
x,y,z
-x,y,-z
-x,-y,-z
x,-y,z
1/2+x,1/2+y,z
1/2-x,1/2+y,-z
1/2-x,1/2-y,-z
1/2+x,1/2-y,z
loop_
_atom_site_type_symbol
_atom_site_label
_atom_site_fract_x
_atom_site_fract_y
_atom_site_fract_z
Si Si1 0.456749 0.923013 0.179877
Si Si2 0.500000 0.500000 0.000000
Si Si3 0.075101 0.722289 0.619410
Si Si4 0.262497 0.836833 0.536191
Si Si5 0.140311 0.318690 0.054103
Si Si6 0.623824 0.699068 0.796678
Si Si7 0.648634 0.623492 0.108145
Si Si8 0.272938 0.925353 0.689080
O O1 0.555802 0.879477 0.107424
O O2 0.283565 0.896925 0.179065
O O3 0.550940 0.919737 0.275259
O O4 0.456864 0.000000 0.149443
O O5 0.561171 0.558544 0.071213
O O6 0.121021 0.791266 0.567840
O O7 0.194684 0.671148 0.570881
O O8 0.090830 0.740837 0.726254
O O9 0.907265 0.697140 0.591043
O O10 0.254508 0.908998 0.581160
O O11 0.243315 0.283052 0.130814
O O12 0.260020 0.346743 0.979656
O O13 0.000000 0.283814 0.000000
O O14 0.473081 0.673549 0.848108
O O15 0.683685 0.633596 0.741569
O O16 0.221229 0.000000 0.712870
#
# Coordination Sequence:
#
# PCOD9180459 Si02
#       8
#     8   2   8   8   8   8   8   8
#     4   9  18  28  43  70 109 158 198 233 276 335
#     4  12  20  24  42  72 116 166 198 248 282 346
#     4   9  19  35  60  83 110 139 190 247 278 345
#     4   9  18  37  60  89 110 143 192 237 298 349
#     4   9  18  29  44  70 111 157 201 241 281 333
#     4  10  19  32  49  81 114 156 201 238 291 333
#     4  11  20  27  44  73 116 157 205 245 283 343
#     4   9  19  33  53  81 120 151 186 237 295 364
#
# _framework density 22.945174999999999
#
# number of rings (size 3 to 8) (size 9 to 14) (size 15 to 20)
#    0.000    2.483    2.069    0.000    1.931    1.931 
#    0.000    1.379    0.000    0.000    0.000  138.069 
#    0.000    0.000    0.000    0.000    0.000   12.414 
#
# Total GULP energy -161827.293003 kJ/mol
# GULP energy per Si atom -5580.251483 kJ/mol
# Density = 2.289295 g / cm^3
# Si number density = 22.945175 Si / 1000 Ang^3
#
#
#
# Elastic Constant Matrix: (Units=GPa)
#
#
# Indices 1 2 3 4 5 6 
#
# 1 100.4599 37.1075 36.1088 0.0000 -8.3263 0.0000
# 2 37.1075 94.4620 41.0130 0.0000 1.9416 0.0000
# 3 36.1088 41.0130 93.6903 0.0000 -1.8518 0.0000
# 4 0.0000 0.0000 0.0000 32.8928 0.0000 13.8112
# 5 -8.3263 1.9416 -1.8518 0.0000 14.9912 0.0000
# 6 0.0000 0.0000 0.0000 13.8112 0.0000 24.8300
#
#
#
# Elastic Compliance Matrix: (Units=1/GPa)
#
#
# Indices 1 2 3 4 5 6 
#
# 1 0.013177 -0.003936 -0.003209 0.000000 0.007432 0.000000
# 2 -0.003936 0.014333 -0.004849 0.000000 -0.004642 0.000000
# 3 -0.003209 -0.004849 0.014044 0.000000 0.000581 0.000000
# 4 0.000000 0.000000 0.000000 0.039666 0.000000 -0.022063
# 5 0.007432 -0.004642 0.000581 0.000000 0.071507 0.000000
# 6 0.000000 0.000000 0.000000 -0.022063 0.000000 0.052546
#
#
# Mechanical properties :
#
#
# Convention : Reuss Voigt Hill
#
# Bulk Modulus (GPa) = 56.92467 57.45232 57.18849
# Shear Modulus (GPa) = 21.26595 26.16832 23.71714
#
# Velocity S-wave (km/s) = 3.04767 3.38075 3.21852
# Velocity P-wave (km/s) = 6.10305 6.35080 6.22816
#
# Compressibility (1/GPa) = 0.01756708
#
# Stress axis : x y z
#
# Youngs Moduli (GPa) = 75.88711 69.76770 71.20320
#
# Poissons Ratio (x) = 0.27461 0.22847
# Poissons Ratio (y) = 0.29870 0.34527
# Poissons Ratio (z) = 0.24350 0.33831
#
# Static dielectric constant tensor:
#      x y z
#    x 1.858420 0.000000 0.001980 
#    y 0.000000 1.832100 0.000000 
#    z 0.001980 0.000000 1.935420 
# 
# From -- ./inp_files/198462.got.cif
#   From: 2010.05.17/outbox.cif.g08.bks.cpg/sg12_100_cif.got.tgz:198462.got - 2010.06.03 13:09:07.
