data_PCOD9180318
_publ_section_title
;
Structure prediction by ZEFSAII (Michael W. Deem and Ramdas Pophale) SiO2 
 PCOD9180318
Probable space group: C 2/M
;
_chemical_formula_sum "Si O2"
_cell_formula_units_Z 52
_cell_length_a 16.570210
_cell_length_b 31.869002
_cell_length_c 5.255328
_cell_angle_alpha 90.000000
_cell_angle_beta 78.343641
_cell_angle_gamma 90.000000
_cell_volume 2717.979626
_symmetry_space_group_name_H-M "C 2/M"
_symmetry_group_IT_number 12
_symmetry_cell_setting 'monoclinic'
loop_
_space_group_symop_operation_xyz
x,y,z
-x,y,-z
-x,-y,-z
x,-y,z
1/2+x,1/2+y,z
1/2-x,1/2+y,-z
1/2-x,1/2-y,-z
1/2+x,1/2-y,z
loop_
_atom_site_type_symbol
_atom_site_label
_atom_site_fract_x
_atom_site_fract_y
_atom_site_fract_z
Si Si1 0.905697 0.274320 0.987292
Si Si2 0.818609 0.189383 0.025242
Si Si3 0.753519 0.123022 0.666697
Si Si4 0.901780 0.115112 0.183382
Si Si5 0.500000 0.428251 0.500000
Si Si6 0.667380 0.452121 0.159958
Si Si7 0.662724 0.185793 0.451048
O O1 0.856550 0.233325 0.919893
O O2 0.866646 0.289539 0.279996
O O3 0.895438 0.306543 0.756621
O O4 0.000000 0.265536 0.000000
O O5 0.894567 0.158900 0.044253
O O6 0.754363 0.198528 0.294448
O O7 0.766300 0.159427 0.869434
O O8 0.837715 0.123743 0.453385
O O9 0.758249 0.076088 0.775223
O O10 0.678752 0.137956 0.536901
O O11 0.984816 0.101005 0.266446
O O12 0.862951 0.075806 0.058022
O O13 0.584892 0.452479 0.392544
O O14 0.688420 0.500000 0.088253
#
# Coordination Sequence:
#
# PCOD9180318 Si02
#       7
#     8   8   8   8   4   8   8
#     4  12  26  37  58  89 121 150 195 249 291 340
#     4  10  21  38  61  79 111 160 204 240 281 338
#     4   9  20  37  59  78 101 153 193 240 277 344
#     4   9  20  32  50  75 105 151 198 240 280 333
#     4  10  19  32  48  70 112 160 194 234 294 340
#     4  10  20  34  51  78 110 146 194 243 291 341
#     4  11  22  42  60  83 116 157 200 234 295 346
#
# _framework density 19.131858000000001
#
# number of rings (size 3 to 8) (size 9 to 14) (size 15 to 20)
#    0.000    1.846    1.538    2.077    4.308    7.385 
#    0.000    0.000    0.000    0.000    0.000    0.000 
#    0.000    3.692    0.000    0.000    0.000    0.000 
#
# Total GULP energy -144744.628349 kJ/mol
# GULP energy per Si atom -5567.101090 kJ/mol
# Density = 1.908831 g / cm^3
# Si number density = 19.131858 Si / 1000 Ang^3
#
#
#
# Elastic Constant Matrix: (Units=GPa)
#
#
# Indices 1 2 3 4 5 6 
#
# 1 45.2159 44.1751 10.3499 0.0000 9.6358 0.0000
# 2 44.1751 102.8972 39.8867 0.0000 4.7531 0.0000
# 3 10.3499 39.8867 80.5008 0.0000 8.1895 0.0000
# 4 0.0000 0.0000 0.0000 14.9713 0.0000 -4.1441
# 5 9.6358 4.7531 8.1895 0.0000 31.9095 0.0000
# 6 0.0000 0.0000 0.0000 -4.1441 0.0000 12.2083
#
#
#
# Elastic Compliance Matrix: (Units=1/GPa)
#
#
# Indices 1 2 3 4 5 6 
#
# 1 0.042824 -0.020019 0.005571 0.000000 -0.011379 0.000000
# 2 -0.020019 0.021389 -0.008538 0.000000 0.005050 0.000000
# 3 0.005571 -0.008538 0.016407 0.000000 -0.004621 0.000000
# 4 0.000000 0.000000 0.000000 0.073721 0.000000 0.025024
# 5 -0.011379 0.005050 -0.004621 0.000000 0.035209 0.000000
# 6 0.000000 0.000000 0.000000 0.025024 0.000000 0.090406
#
#
# Mechanical properties :
#
#
# Convention : Reuss Voigt Hill
#
# Bulk Modulus (GPa) = 28.86183 46.38193 37.62188
# Shear Modulus (GPa) = 14.81587 20.76463 17.79025
#
# Velocity S-wave (km/s) = 2.78584 3.29803 3.05269
# Velocity P-wave (km/s) = 5.04642 6.22885 5.66855
#
# Compressibility (1/GPa) = 0.03464784
#
# Stress axis : x y z
#
# Youngs Moduli (GPa) = 23.35142 46.75294 60.95144
#
# Poissons Ratio (x) = 0.93593 -0.33954
# Poissons Ratio (y) = 0.46746 0.52040
# Poissons Ratio (z) = -0.13008 0.39917
#
# Static dielectric constant tensor:
#      x y z
#    x 1.707730 0.000000 0.020120 
#    y 0.000000 1.680240 0.000000 
#    z 0.020120 0.000000 1.786680 
# 
# From -- ./inp_files/17969.got.cif
#   From: 2010.05.17/outbox.cif.g08.bks.cpg/sg12_9_cif.got.tgz:17969.got - 2010.06.03 13:09:07.
