data_PCOD9180577
_publ_section_title
;
Structure prediction by ZEFSAII (Michael W. Deem and Ramdas Pophale) SiO2 
 PCOD9180577
Probable space group: C 2/M
;
_chemical_formula_sum "Si O2"
_cell_formula_units_Z 64
_cell_length_a 31.046923
_cell_length_b 8.909478
_cell_length_c 26.357976
_cell_angle_alpha 90.000000
_cell_angle_beta 30.156337
_cell_angle_gamma 90.000000
_cell_volume 3662.679727
_symmetry_space_group_name_H-M "C 2/M"
_symmetry_group_IT_number 12
_symmetry_cell_setting 'monoclinic'
loop_
_space_group_symop_operation_xyz
x,y,z
-x,y,-z
-x,-y,-z
x,-y,z
1/2+x,1/2+y,z
1/2-x,1/2+y,-z
1/2-x,1/2-y,-z
1/2+x,1/2-y,z
loop_
_atom_site_type_symbol
_atom_site_label
_atom_site_fract_x
_atom_site_fract_y
_atom_site_fract_z
Si Si1 0.062480 0.180165 0.145442
Si Si2 0.386264 0.179088 0.800369
Si Si3 0.704259 0.322296 0.469841
Si Si4 0.525406 0.678586 0.384666
Si Si5 0.788811 0.821196 0.081681
Si Si6 0.202997 0.177392 0.263219
Si Si7 0.116978 0.322455 0.654387
Si Si8 0.655447 0.821344 0.413461
O O1 0.100989 0.248611 0.157897
O O2 0.967167 0.244795 0.237862
O O3 0.060731 0.000000 0.151272
O O4 0.124457 0.220817 0.035644
O O5 0.451361 0.252580 0.693751
O O6 0.291321 0.207704 0.874620
O O7 0.399655 0.000000 0.788948
O O8 0.687347 0.500000 0.483025
O O9 0.799916 0.301200 0.394685
O O10 0.640844 0.250116 0.575929
O O11 0.692772 0.244793 0.427556
O O12 0.511725 0.500000 0.394741
O O13 0.608604 0.704714 0.334970
O O14 0.441004 0.756512 0.491960
O O15 0.769159 0.735307 0.153577
O O16 0.789235 0.000000 0.091168
O O17 0.206780 0.263543 0.312288
O O18 0.211978 0.000000 0.262130
O O19 0.102549 0.500000 0.662685
O O20 0.653622 0.000000 0.416978
#
# Coordination Sequence:
#
# PCOD9180577 Si02
#       8
#     8   8   8   8   8   8   8   8
#     4  11  21  33  52  77 106 139 174 212 257 308
#     4  10  19  32  50  74 106 140 177 216 253 300
#     4  10  21  38  58  79 106 136 168 209 256 308
#     4  10  20  34  51  74 106 140 175 213 255 304
#     4   9  20  36  52  73 103 140 178 216 257 300
#     4  10  21  36  54  75 102 138 177 217 258 300
#     4  10  21  37  57  81 107 135 168 208 257 309
#     4  12  23  34  53  78 105 137 173 212 256 308
#
# _framework density 17.473545000000001
#
# number of rings (size 3 to 8) (size 9 to 14) (size 15 to 20)
#    0.000    1.750    0.000    4.875    0.000    6.000 
#    0.000    0.000    0.000    0.750    0.000    5.250 
#    0.000    0.000    0.000    0.000    0.000    0.000 
#
# Total GULP energy -178846.502081 kJ/mol
# GULP energy per Si atom -5588.953190 kJ/mol
# Density = 1.743377 g / cm^3
# Si number density = 17.473545 Si / 1000 Ang^3
#
#
#
# Elastic Constant Matrix: (Units=GPa)
#
#
# Indices 1 2 3 4 5 6 
#
# 1 56.8732 47.1645 42.1254 -0.0055 19.4355 0.0038
# 2 47.1645 96.3634 55.6421 0.0114 14.8332 -0.0039
# 3 42.1254 55.6421 114.1263 -0.0032 18.5360 0.0015
# 4 -0.0055 0.0114 -0.0032 30.7079 -0.0013 2.6161
# 5 19.4355 14.8332 18.5360 -0.0013 22.7395 -0.0008
# 6 0.0038 -0.0039 0.0015 2.6161 -0.0008 25.8527
#
#
#
# Elastic Compliance Matrix: (Units=1/GPa)
#
#
# Indices 1 2 3 4 5 6 
#
# 1 0.039213 -0.013312 -0.004553 0.000011 -0.021120 -0.000009
# 2 -0.013312 0.019327 -0.004967 -0.000010 0.002820 0.000006
# 3 -0.004553 -0.004967 0.013493 0.000002 -0.003867 -0.000001
# 4 0.000011 -0.000010 0.000002 0.032848 -0.000003 -0.003324
# 5 -0.021120 0.002820 -0.003867 -0.000003 0.063340 0.000006
# 6 -0.000009 0.000006 -0.000001 -0.003324 0.000006 0.039017
#
#
# Mechanical properties :
#
#
# Convention : Reuss Voigt Hill
#
# Bulk Modulus (GPa) = 37.92626 61.91410 49.92018
# Shear Modulus (GPa) = 19.10644 24.02209 21.56426
#
# Velocity S-wave (km/s) = 3.31032 3.71181 3.51680
# Velocity P-wave (km/s) = 6.03018 7.34030 6.71726
#
# Compressibility (1/GPa) = 0.02636695
#
# Stress axis : x y z
#
# Youngs Moduli (GPa) = 25.50196 51.74082 74.11469
#
# Poissons Ratio (x) = 0.68879 0.33746
# Poissons Ratio (y) = 0.33949 0.36814
# Poissons Ratio (z) = 0.11612 0.25700
#
# Static dielectric constant tensor:
#      x y z
#    x 1.584110 0.000000 -0.008510 
#    y 0.000000 1.577680 0.000000 
#    z -0.008510 0.000000 1.582740 
# 
# From -- ./inp_files/353381.got.cif
#   From: 2010.05.17/outbox.cif.g08.bks.cpg/sg12_177_cif.got.tgz:353381.got - 2010.06.03 13:09:07.
