data_PCOD9180056
_publ_section_title
;
Structure prediction by ZEFSAII (Michael W. Deem and Ramdas Pophale) SiO2 
 PCOD9180056
Probable space group: C 2/M
;
_chemical_formula_sum "Si O2"
_cell_formula_units_Z 64
_cell_length_a 24.900580
_cell_length_b 19.012807
_cell_length_c 11.844888
_cell_angle_alpha 90.000000
_cell_angle_beta 139.642094
_cell_angle_gamma 90.000000
_cell_volume 3631.339358
_symmetry_space_group_name_H-M "C 2/M"
_symmetry_group_IT_number 12
_symmetry_cell_setting 'monoclinic'
loop_
_space_group_symop_operation_xyz
x,y,z
-x,y,-z
-x,-y,-z
x,-y,z
1/2+x,1/2+y,z
1/2-x,1/2+y,-z
1/2-x,1/2-y,-z
1/2+x,1/2-y,z
loop_
_atom_site_type_symbol
_atom_site_label
_atom_site_fract_x
_atom_site_fract_y
_atom_site_fract_z
Si Si1 0.802103 0.316304 0.848012
Si Si2 0.761294 0.421015 0.461877
Si Si3 0.812273 0.152247 0.866885
Si Si4 0.762452 0.833721 0.023051
Si Si5 0.510706 0.583189 0.881658
Si Si6 0.649798 0.379414 0.494028
Si Si7 0.402180 0.080822 0.850956
Si Si8 0.598341 0.422525 0.654845
O O1 0.829972 0.235715 0.899498
O O2 0.792689 0.352297 0.956288
O O3 0.711394 0.318897 0.640663
O O4 0.863059 0.363380 0.872614
O O5 0.751937 0.500000 0.401360
O O6 0.732073 0.367477 0.320584
O O7 0.703806 0.415082 0.481554
O O8 0.854125 0.409600 0.655519
O O9 0.754128 0.137801 0.882842
O O10 0.898122 0.109099 0.006637
O O11 0.853614 0.860913 0.204098
O O12 0.750000 0.750000 0.000000
O O13 0.498979 0.500000 0.834547
O O14 0.439948 0.629660 0.707309
O O15 0.500000 0.589486 0.000000
O O16 0.629728 0.421523 0.576016
O O17 0.383668 0.000000 0.856387
O O18 0.500000 0.088962 0.000000
O O19 0.500000 0.412267 0.500000
O O20 0.616834 0.500000 0.733598
#
# Coordination Sequence:
#
# PCOD9180056 Si02
#       8
#     8   8   8   8   8   8   8   8
#     4   9  21  38  56  77 103 140 185 226 263 308
#     4  10  19  33  54  78 108 143 172 210 269 324
#     4  11  21  35  52  78 112 148 178 213 260 324
#     4   9  20  37  53  70 110 146 180 215 259 318
#     4  11  21  33  50  80 119 151 174 206 265 331
#     4  10  19  34  52  75 111 143 176 222 265 316
#     4   9  19  37  59  80 101 130 173 227 276 313
#     4  10  19  31  53  82 106 135 183 231 263 306
#
# _framework density 17.624351999999998
#
# number of rings (size 3 to 8) (size 9 to 14) (size 15 to 20)
#    0.000    2.125    1.250    2.250    0.000    8.000 
#    2.250    0.000    2.750    0.000    0.000    2.625 
#    0.000    0.000    0.000    0.000    0.000    0.000 
#
# Total GULP energy -178155.995896 kJ/mol
# GULP energy per Si atom -5567.374872 kJ/mol
# Density = 1.758424 g / cm^3
# Si number density = 17.624352 Si / 1000 Ang^3
#
#
#
# Elastic Constant Matrix: (Units=GPa)
#
#
# Indices 1 2 3 4 5 6 
#
# 1 80.8123 33.5290 31.1525 0.0000 -13.2143 0.0000
# 2 33.5290 51.4078 26.1350 0.0000 2.5362 0.0000
# 3 31.1525 26.1350 71.1294 0.0000 5.7951 0.0000
# 4 0.0000 0.0000 0.0000 20.8979 0.0000 10.0801
# 5 -13.2143 2.5362 5.7951 0.0000 25.8545 0.0000
# 6 0.0000 0.0000 0.0000 10.0801 0.0000 -22.3203
#
#
#
# Elastic Compliance Matrix: (Units=1/GPa)
#
#
# Indices 1 2 3 4 5 6 
#
# 1 0.021999 -0.011755 -0.006443 0.000000 0.013841 0.000000
# 2 -0.011755 0.030206 -0.005316 0.000000 -0.007779 0.000000
# 3 -0.006443 -0.005316 0.019414 0.000000 -0.007123 0.000000
# 4 0.000000 0.000000 0.000000 0.039292 0.000000 0.017745
# 5 0.013841 -0.007779 -0.007123 0.000000 0.048112 0.000000
# 6 0.000000 0.000000 0.000000 0.017745 0.000000 -0.036789
#
#
# Mechanical properties :
#
#
# Convention : Reuss Voigt Hill
#
# Bulk Modulus (GPa) = 40.66743 42.77584 41.72163
# Shear Modulus (GPa) = 28.17538 12.38864 20.28201
#
# Velocity S-wave (km/s) = 4.00266 2.65415 3.39602
# Velocity P-wave (km/s) = 6.66981 5.80657 6.25311
#
# Compressibility (1/GPa) = 0.02458970
#
# Stress axis : x y z
#
# Youngs Moduli (GPa) = 45.45750 33.10643 51.50793
#
# Poissons Ratio (x) = 0.38917 0.33188
# Poissons Ratio (y) = 0.53435 0.27383
# Poissons Ratio (z) = 0.29289 0.17600
#
# Static dielectric constant tensor:
#      x y z
#    x 1.618940 0.000000 -0.021030 
#    y 0.000000 1.596460 0.000000 
#    z -0.021030 0.000000 1.623130 
# 
# From -- ./inp_files/177762.got.cif
#   From: 2010.05.17/outbox.cif.g08.bks.cpg/sg12_89_cif.got.tgz:177762.got - 2010.06.03 13:09:07.
