data_PCOD9180029
_publ_section_title
;
Structure prediction by ZEFSAII (Michael W. Deem and Ramdas Pophale) SiO2 
 PCOD9180029
Probable space group: C 2/M
;
_chemical_formula_sum "Si O2"
_cell_formula_units_Z 58
_cell_length_a 34.502375
_cell_length_b 7.638256
_cell_length_c 11.853746
_cell_angle_alpha 90.000000
_cell_angle_beta 101.716626
_cell_angle_gamma 90.000000
_cell_volume 3058.822123
_symmetry_space_group_name_H-M "C 2/M"
_symmetry_group_IT_number 12
_symmetry_cell_setting 'monoclinic'
loop_
_space_group_symop_operation_xyz
x,y,z
-x,y,-z
-x,-y,-z
x,-y,z
1/2+x,1/2+y,z
1/2-x,1/2+y,-z
1/2-x,1/2-y,-z
1/2+x,1/2-y,z
loop_
_atom_site_type_symbol
_atom_site_label
_atom_site_fract_x
_atom_site_fract_y
_atom_site_fract_z
Si Si1 0.621389 0.297580 0.609283
Si Si2 0.465923 0.286879 0.392716
Si Si3 0.500000 0.500000 0.000000
Si Si4 0.725759 0.202825 0.308852
Si Si5 0.865786 0.288892 0.128016
Si Si6 0.288619 0.789044 0.948795
Si Si7 0.456367 0.204736 0.129013
Si Si8 0.302654 0.797532 0.471286
O O1 0.619305 0.500000 0.575417
O O2 0.576844 0.226272 0.586860
O O3 0.636538 0.282698 0.746654
O O4 0.652910 0.212340 0.545439
O O5 0.500000 0.236065 0.500000
O O6 0.465004 0.500000 0.385726
O O7 0.470498 0.220123 0.267923
O O8 0.520839 0.344588 0.933297
O O9 0.716757 0.280679 0.181548
O O10 0.704428 0.277769 0.407722
O O11 0.772324 0.210439 0.365843
O O12 0.713404 0.000000 0.295551
O O13 0.863676 0.500000 0.135827
O O14 0.909305 0.249031 0.104773
O O15 0.828946 0.226611 0.031725
O O16 0.291301 0.000000 0.944651
O O17 0.250000 0.750000 0.000000
O O18 0.460361 0.000000 0.096352
O O19 0.290209 0.000000 0.467267
#
# Coordination Sequence:
#
# PCOD9180029 Si02
#       8
#     8   8   2   8   8   8   8   8
#     4  10  19  31  53  80 106 138 177 218 271 338
#     4   9  18  36  60  85 117 149 184 240 299 348
#     4  12  22  40  62  86 120 156 202 250 288 366
#     4   9  19  34  51  70  99 140 178 218 271 321
#     4   9  19  35  55  79 111 141 182 236 282 329
#     4  10  20  34  51  76 107 141 182 230 273 322
#     4  10  21  38  62  90 117 156 200 244 297 357
#     4  10  19  32  50  72 102 137 176 221 267 323
#
# _framework density 18.961546999999999
#
# number of rings (size 3 to 8) (size 9 to 14) (size 15 to 20)
#    0.000    2.345    0.690    1.862    0.966    4.690 
#    0.000    1.379    0.000    1.655    0.000    0.000 
#    0.000    0.000    0.000    0.000    0.000    0.000 
#
# Total GULP energy -161492.124291 kJ/mol
# GULP energy per Si atom -5568.693941 kJ/mol
# Density = 1.891839 g / cm^3
# Si number density = 18.961547 Si / 1000 Ang^3
#
#
#
# Elastic Constant Matrix: (Units=GPa)
#
#
# Indices 1 2 3 4 5 6 
#
# 1 125.4736 28.4598 91.0199 0.0000 -7.6497 0.0000
# 2 28.4598 68.1948 18.2081 0.0000 -9.1515 0.0000
# 3 91.0199 18.2081 121.6887 0.0000 14.2975 0.0000
# 4 0.0000 0.0000 0.0000 18.1793 0.0000 -4.9388
# 5 -7.6497 -9.1515 14.2975 0.0000 31.0475 0.0000
# 6 0.0000 0.0000 0.0000 -4.9388 0.0000 22.4852
#
#
#
# Elastic Compliance Matrix: (Units=1/GPa)
#
#
# Indices 1 2 3 4 5 6 
#
# 1 0.022251 -0.002835 -0.017724 0.000000 0.012808 0.000000
# 2 -0.002835 0.016720 -0.000929 0.000000 0.004657 0.000000
# 3 -0.017724 -0.000929 0.023426 0.000000 -0.015428 0.000000
# 4 0.000000 0.000000 0.000000 0.058498 0.000000 0.012849
# 5 0.012808 0.004657 -0.015428 0.000000 0.043842 0.000000
# 6 0.000000 0.000000 0.000000 0.012849 0.000000 0.047296
#
#
# Mechanical properties :
#
#
# Convention : Reuss Voigt Hill
#
# Bulk Modulus (GPa) = 51.48650 65.63699 58.56174
# Shear Modulus (GPa) = 19.12181 26.18700 22.65440
#
# Velocity S-wave (km/s) = 3.17906 3.72029 3.46027
# Velocity P-wave (km/s) = 6.37866 7.29007 6.84954
#
# Compressibility (1/GPa) = 0.01942257
#
# Stress axis : x y z
#
# Youngs Moduli (GPa) = 44.94272 59.80902 42.68737
#
# Poissons Ratio (x) = 0.16955 0.75657
# Poissons Ratio (y) = 0.12740 0.03964
# Poissons Ratio (z) = 0.79654 0.05554
#
# Static dielectric constant tensor:
#      x y z
#    x 1.642790 0.000000 0.003190 
#    y 0.000000 1.702050 0.000000 
#    z 0.003190 0.000000 1.656220 
# 
# From -- ./inp_files/186751.got.cif
#   From: 2010.05.17/outbox.cif.g08.bks.cpg/sg12_94_cif.got.tgz:186751.got - 2010.06.03 13:09:07.
