data_PCOD9180353
_publ_section_title
;
Structure prediction by ZEFSAII (Michael W. Deem and Ramdas Pophale) SiO2 
 PCOD9180353
Probable space group: C 2/M
;
_chemical_formula_sum "Si O2"
_cell_formula_units_Z 56
_cell_length_a 19.791493
_cell_length_b 7.474898
_cell_length_c 25.991742
_cell_angle_alpha 90.000000
_cell_angle_beta 138.769417
_cell_angle_gamma 90.000000
_cell_volume 2534.338302
_symmetry_space_group_name_H-M "C 2/M"
_symmetry_group_IT_number 12
_symmetry_cell_setting 'monoclinic'
loop_
_space_group_symop_operation_xyz
x,y,z
-x,y,-z
-x,-y,-z
x,-y,z
1/2+x,1/2+y,z
1/2-x,1/2+y,-z
1/2-x,1/2-y,-z
1/2+x,1/2-y,z
loop_
_atom_site_type_symbol
_atom_site_label
_atom_site_fract_x
_atom_site_fract_y
_atom_site_fract_z
Si Si1 0.369522 0.784824 0.575824
Si Si2 0.467428 0.787176 0.252730
Si Si3 0.740450 0.284648 0.670744
Si Si4 0.708550 0.714643 0.765478
Si Si5 0.943118 0.718917 0.916050
Si Si6 0.021077 0.283392 0.175645
Si Si7 0.072217 0.706166 0.498571
O O1 0.250000 0.750000 0.500000
O O2 0.429751 0.717717 0.660170
O O3 0.424568 0.713240 0.555950
O O4 0.379510 0.000000 0.581904
O O5 0.374401 0.761274 0.239067
O O6 0.456974 0.718479 0.188297
O O7 0.480357 0.000000 0.254612
O O8 0.733549 0.500000 0.663251
O O9 0.688997 0.224178 0.695363
O O10 0.860190 0.241087 0.743520
O O11 0.683829 0.209835 0.588692
O O12 0.711442 0.500000 0.764281
O O13 0.823690 0.773854 0.846100
O O14 0.943526 0.500000 0.916514
O O15 0.995509 0.778425 0.892408
O O16 0.000000 0.778732 0.000000
O O17 0.012567 0.500000 0.168122
O O18 0.039592 0.500000 0.473800
O O19 0.000000 0.792586 0.500000
#
# Coordination Sequence:
#
# PCOD9180353 Si02
#       7
#     8   8   8   8   8   8   8
#     4  10  21  34  48  67  92 126 163 199 240 281
#     4  10  19  32  49  68  95 129 159 189 233 287
#     4   9  17  31  49  66  86 116 157 199 232 268
#     4   9  18  31  49  74  98 121 155 197 235 274
#     4   8  14  28  51  75  97 122 154 192 231 272
#     4   8  15  28  47  69  90 118 157 191 221 270
#     4  10  20  32  45  64  90 118 153 196 238 280
#
# _framework density 22.096498
#
# number of rings (size 3 to 8) (size 9 to 14) (size 15 to 20)
#    0.000    2.857    0.000    3.429    0.000    4.286 
#    0.000    1.429    0.000    1.286    0.000    0.000 
#    0.000    0.000    0.000    0.000    0.000    0.000 
#
# Total GULP energy -156243.399414 kJ/mol
# GULP energy per Si atom -5580.121408 kJ/mol
# Density = 2.204621 g / cm^3
# Si number density = 22.096498 Si / 1000 Ang^3
#
#
#
# Elastic Constant Matrix: (Units=GPa)
#
#
# Indices 1 2 3 4 5 6 
#
# 1 138.1615 2.6377 33.8186 0.0000 -34.9727 -0.0001
# 2 2.6377 63.8516 3.4887 0.0000 -5.0818 -0.0005
# 3 33.8186 3.4887 88.2943 0.0000 -33.1885 -0.0001
# 4 0.0000 0.0000 0.0000 6.7134 0.0000 -1.1989
# 5 -34.9727 -5.0818 -33.1885 0.0000 35.7297 0.0000
# 6 -0.0001 -0.0005 -0.0001 -1.1989 0.0000 8.5586
#
#
#
# Elastic Compliance Matrix: (Units=1/GPa)
#
#
# Indices 1 2 3 4 5 6 
#
# 1 0.009633 0.000352 -0.000216 0.000000 0.009278 0.000000
# 2 0.000352 0.015860 0.000332 0.000000 0.002909 0.000001
# 3 -0.000216 0.000332 0.017414 0.000000 0.016011 0.000000
# 4 0.000000 0.000000 0.000000 0.152777 0.000000 0.021401
# 5 0.009278 0.002909 0.016011 0.000000 0.052355 0.000000
# 6 0.000000 0.000001 0.000000 0.021401 0.000000 0.119839
#
#
# Mechanical properties :
#
#
# Convention : Reuss Voigt Hill
#
# Bulk Modulus (GPa) = 22.80889 41.13307 31.97098
# Shear Modulus (GPa) = 13.10424 26.89118 19.99771
#
# Velocity S-wave (km/s) = 2.43790 3.49232 3.01161
# Velocity P-wave (km/s) = 4.27425 5.90909 5.15687
#
# Compressibility (1/GPa) = 0.04384256
#
# Stress axis : x y z
#
# Youngs Moduli (GPa) = 103.81447 63.05118 57.42622
#
# Poissons Ratio (x) = -0.02221 0.01240
# Poissons Ratio (y) = -0.03657 -0.01905
# Poissons Ratio (z) = 0.02242 -0.02092
#
# Static dielectric constant tensor:
#      x y z
#    x 1.869710 0.000000 -0.018040 
#    y 0.000000 1.845150 0.000000 
#    z -0.018040 0.000000 1.791260 
# 
# From -- ./inp_files/280320.got.cif
#   From: 2010.05.17/outbox.cif.g08.bks.cpg/sg12_141_cif.got.tgz:280320.got - 2010.06.03 13:09:07.
