data_PCOD9180234
_publ_section_title
;
Structure prediction by ZEFSAII (Michael W. Deem and Ramdas Pophale) SiO2 
 PCOD9180234
Probable space group: C 2/M
;
_chemical_formula_sum "Si O2"
_cell_formula_units_Z 32
_cell_length_a 15.778282
_cell_length_b 12.226421
_cell_length_c 11.402963
_cell_angle_alpha 90.000000
_cell_angle_beta 36.833271
_cell_angle_gamma 90.000000
_cell_volume 1318.735240
_symmetry_space_group_name_H-M "C 2/M"
_symmetry_group_IT_number 12
_symmetry_cell_setting 'monoclinic'
loop_
_space_group_symop_operation_xyz
x,y,z
-x,y,-z
-x,-y,-z
x,-y,z
1/2+x,1/2+y,z
1/2-x,1/2+y,-z
1/2-x,1/2-y,-z
1/2+x,1/2-y,z
loop_
_atom_site_type_symbol
_atom_site_label
_atom_site_fract_x
_atom_site_fract_y
_atom_site_fract_z
Si Si1 0.291611 0.244529 0.282220
Si Si2 0.332495 0.000000 0.165698
Si Si3 0.417407 0.500000 0.717756
Si Si4 0.359982 0.125893 0.739411
Si Si5 0.489317 0.725261 0.263045
O O1 0.258948 0.305710 0.197159
O O2 0.433504 0.278232 0.192587
O O3 0.153907 0.267254 0.513660
O O4 0.288297 0.114235 0.271711
O O5 0.246853 0.000000 0.138424
O O6 0.500000 0.000000 0.000000
O O7 0.500000 0.500000 0.500000
O O8 0.461739 0.609012 0.738787
O O9 0.500000 0.129651 0.500000
O O10 0.399016 0.184653 0.817627
O O11 0.319709 0.000000 0.796133
#
# Coordination Sequence:
#
# PCOD9180234 Si02
#       5
#     8   4   4   8   8
#     4  10  20  34  54  87 115 148 193 242 293 339
#     4  12  24  40  60  83 121 164 199 239 290 355
#     4  12  18  38  62  87 116 153 199 247 293 344
#     4   9  17  30  48  81 119 143 172 234 302 344
#     4  10  19  31  59  87 114 144 192 250 290 337
#
# _framework density 24.265675000000002
#
# number of rings (size 3 to 8) (size 9 to 14) (size 15 to 20)
#    0.000    1.750    5.000    0.750    3.500    0.000 
#    0.000    1.250    0.000    0.750    0.000    0.000 
#    0.000    0.000    0.000    0.000    0.000    0.000 
#
# Total GULP energy -89505.258808 kJ/mol
# GULP energy per Si atom -5594.078675 kJ/mol
# Density = 2.421045 g / cm^3
# Si number density = 24.265675 Si / 1000 Ang^3
#
#
#
# Elastic Constant Matrix: (Units=GPa)
#
#
# Indices 1 2 3 4 5 6 
#
# 1 244.2541 99.8734 49.0049 0.0000 -44.2799 0.0000
# 2 99.8734 157.7620 15.1169 0.0000 -17.8003 0.0000
# 3 49.0049 15.1169 80.5268 0.0000 -17.1990 0.0000
# 4 0.0000 0.0000 0.0000 19.8121 0.0000 -11.5978
# 5 -44.2799 -17.8003 -17.1990 0.0000 40.7259 0.0000
# 6 0.0000 0.0000 0.0000 -11.5978 0.0000 49.0348
#
#
#
# Elastic Compliance Matrix: (Units=1/GPa)
#
#
# Indices 1 2 3 4 5 6 
#
# 1 0.006971 -0.003616 -0.002509 0.000000 0.004940 0.000000
# 2 -0.003616 0.008578 0.000606 0.000000 0.000074 0.000000
# 3 -0.002509 0.000606 0.014624 0.000000 0.003713 0.000000
# 4 0.000000 0.000000 0.000000 0.058586 0.000000 0.013857
# 5 0.004940 0.000074 0.003713 0.000000 0.031526 0.000000
# 6 0.000000 0.000000 0.000000 0.013857 0.000000 0.023671
#
#
# Mechanical properties :
#
#
# Convention : Reuss Voigt Hill
#
# Bulk Modulus (GPa) = 52.25593 90.05927 71.15760
# Shear Modulus (GPa) = 30.98436 43.15109 37.06772
#
# Velocity S-wave (km/s) = 3.57722 4.22154 3.91267
# Velocity P-wave (km/s) = 6.21641 7.80745 7.05691
#
# Compressibility (1/GPa) = 0.01913658
#
# Stress axis : x y z
#
# Youngs Moduli (GPa) = 143.44490 116.57975 68.37981
#
# Poissons Ratio (x) = 0.42150 0.17154
# Poissons Ratio (y) = 0.51863 -0.04142
# Poissons Ratio (z) = 0.35985 -0.07062
#
# Static dielectric constant tensor:
#      x y z
#    x 1.930610 0.000000 0.018770 
#    y 0.000000 1.856020 0.000000 
#    z 0.018770 0.000000 2.124880 
# 
# From -- ./inp_files/57002.got.cif
#   From: 2010.05.17/outbox.cif.g08.bks.cpg/sg12_29_cif.got.tgz:57002.got - 2010.06.03 13:09:07.
