data_PCOD9180230
_publ_section_title
;
Structure prediction by ZEFSAII (Michael W. Deem and Ramdas Pophale) SiO2 
 PCOD9180230
Probable space group: C 2/M
;
_chemical_formula_sum "Si O2"
_cell_formula_units_Z 56
_cell_length_a 11.674365
_cell_length_b 23.911793
_cell_length_c 10.262881
_cell_angle_alpha 90.000000
_cell_angle_beta 118.684736
_cell_angle_gamma 90.000000
_cell_volume 2513.332775
_symmetry_space_group_name_H-M "C 2/M"
_symmetry_group_IT_number 12
_symmetry_cell_setting 'monoclinic'
loop_
_space_group_symop_operation_xyz
x,y,z
-x,y,-z
-x,-y,-z
x,-y,z
1/2+x,1/2+y,z
1/2-x,1/2+y,-z
1/2-x,1/2-y,-z
1/2+x,1/2-y,z
loop_
_atom_site_type_symbol
_atom_site_label
_atom_site_fract_x
_atom_site_fract_y
_atom_site_fract_z
Si Si1 0.346423 0.788217 0.459679
Si Si2 0.840914 0.371110 0.685162
Si Si3 0.817213 0.065114 0.213542
Si Si4 0.949916 0.153097 0.117614
Si Si5 0.800636 0.674812 0.159364
Si Si6 0.047130 0.265046 0.171174
Si Si7 0.390071 0.064583 0.132802
O O1 0.500000 0.773791 0.500000
O O2 0.250000 0.750000 0.500000
O O3 0.350495 0.846624 0.543661
O O4 0.277986 0.795706 0.283167
O O5 0.717867 0.405875 0.668911
O O6 0.842987 0.313028 0.768921
O O7 0.963789 0.411021 0.786803
O O8 0.848529 0.000000 0.243675
O O9 0.925904 0.100946 0.197135
O O10 0.688273 0.068974 0.047357
O O11 0.810020 0.181233 0.008397
O O12 0.033517 0.203156 0.225030
O O13 0.000000 0.136180 0.000000
O O14 0.934304 0.699147 0.179685
O O15 0.815041 0.608073 0.185187
O O16 0.000000 0.255397 0.000000
O O17 0.388799 0.000000 0.170417
#
# Coordination Sequence:
#
# PCOD9180230 Si02
#       7
#     8   8   8   8   8   8   8
#     4  12  27  44  62  89 129 180 218 263 319 389
#     4  11  21  36  59  87 126 159 210 260 322 379
#     4  10  21  37  59  93 125 165 210 264 328 391
#     4  10  22  34  58  88 122 163 212 264 329 389
#     4  10  21  39  55  87 127 164 208 262 316 384
#     4  10  19  31  58  87 121 150 199 254 330 380
#     4   9  17  34  62  90 123 153 198 262 330 375
#
# _framework density 22.281174
#
# number of rings (size 3 to 8) (size 9 to 14) (size 15 to 20)
#    0.000    1.714    2.857    3.857    6.000    1.429 
#    0.000    2.143    0.000    0.000    0.000    1.000 
#    0.000    0.000    0.000    0.000    0.000    0.000 
#
# Total GULP energy -155919.950065 kJ/mol
# GULP energy per Si atom -5568.569645 kJ/mol
# Density = 2.223046 g / cm^3
# Si number density = 22.281174 Si / 1000 Ang^3
#
#
#
# Elastic Constant Matrix: (Units=GPa)
#
#
# Indices 1 2 3 4 5 6 
#
# 1 86.2779 52.2887 -3.8084 0.0000 -16.6349 0.0000
# 2 52.2887 172.9856 12.8367 0.0000 -11.9941 0.0000
# 3 -3.8084 12.8367 26.9236 0.0000 -15.7320 0.0000
# 4 0.0000 0.0000 0.0000 24.7614 0.0000 -6.4850
# 5 -16.6349 -11.9941 -15.7320 0.0000 28.5922 0.0000
# 6 0.0000 0.0000 0.0000 -6.4850 0.0000 34.3270
#
#
#
# Elastic Compliance Matrix: (Units=1/GPa)
#
#
# Indices 1 2 3 4 5 6 
#
# 1 0.019053 -0.005715 0.015470 0.000000 0.017199 0.000000
# 2 -0.005715 0.007744 -0.006699 0.000000 -0.003762 0.000000
# 3 0.015470 -0.006699 0.068005 0.000000 0.043608 0.000000
# 4 0.000000 0.000000 0.000000 0.042488 0.000000 0.008027
# 5 0.017199 -0.003762 0.043608 0.000000 0.067397 0.000000
# 6 0.000000 0.000000 0.000000 0.008027 0.000000 0.030648
#
#
# Mechanical properties :
#
#
# Convention : Reuss Voigt Hill
#
# Bulk Modulus (GPa) = 9.90934 45.42453 27.66694
# Shear Modulus (GPa) = 19.02146 32.52746 25.77446
#
# Velocity S-wave (km/s) = 2.92499 3.82496 3.40484
# Velocity P-wave (km/s) = 3.98302 6.31968 5.28218
#
# Compressibility (1/GPa) = 0.10091489
#
# Stress axis : x y z
#
# Youngs Moduli (GPa) = 52.48588 129.12499 14.70474
#
# Poissons Ratio (x) = 0.73789 -0.22748
# Poissons Ratio (y) = 0.29993 0.09850
# Poissons Ratio (z) = -0.81194 0.86499
#
# Static dielectric constant tensor:
#      x y z
#    x 1.981440 0.000000 0.083300 
#    y 0.000000 1.830530 0.000000 
#    z 0.083300 0.000000 1.907320 
# 
# From -- ./inp_files/134891.got.cif
#   From: 2010.05.17/outbox.cif.g08.bks.cpg/sg12_68_cif.got.tgz:134891.got - 2010.06.03 13:09:07.
