data_PCOD9180494
_publ_section_title
;
Structure prediction by ZEFSAII (Michael W. Deem and Ramdas Pophale) SiO2 
 PCOD9180494
Probable space group: C 2/M
;
_chemical_formula_sum "Si O2"
_cell_formula_units_Z 56
_cell_length_a 23.877110
_cell_length_b 7.816343
_cell_length_c 15.210528
_cell_angle_alpha 90.000000
_cell_angle_beta 85.750771
_cell_angle_gamma 90.000000
_cell_volume 2830.963167
_symmetry_space_group_name_H-M "C 2/M"
_symmetry_group_IT_number 12
_symmetry_cell_setting 'monoclinic'
loop_
_space_group_symop_operation_xyz
x,y,z
-x,y,-z
-x,-y,-z
x,-y,z
1/2+x,1/2+y,z
1/2-x,1/2+y,-z
1/2-x,1/2-y,-z
1/2+x,1/2-y,z
loop_
_atom_site_type_symbol
_atom_site_label
_atom_site_fract_x
_atom_site_fract_y
_atom_site_fract_z
Si Si1 0.781254 0.708941 0.368241
Si Si2 0.369694 0.800868 0.488820
Si Si3 0.071725 0.302762 0.345230
Si Si4 0.947678 0.798774 0.320693
Si Si5 0.818033 0.201515 0.736912
Si Si6 0.136670 0.199866 0.802385
Si Si7 0.265163 0.704867 0.097251
O O1 0.783052 0.500000 0.366887
O O2 0.811585 0.770428 0.454020
O O3 0.719612 0.761889 0.342563
O O4 0.821286 0.777207 0.285475
O O5 0.400012 0.723266 0.570231
O O6 0.415025 0.790055 0.404653
O O7 0.358871 0.000000 0.510211
O O8 0.057823 0.500000 0.365809
O O9 0.122013 0.290954 0.269666
O O10 0.013945 0.220208 0.322318
O O11 0.921452 0.732092 0.231602
O O12 0.933571 0.000000 0.329003
O O13 0.780946 0.230010 0.827894
O O14 0.827421 0.000000 0.726009
O O15 0.173582 0.272672 0.878070
O O16 0.127431 0.000000 0.823362
O O17 0.266153 0.500000 0.105837
O O18 0.250000 0.750000 0.000000
#
# Coordination Sequence:
#
# PCOD9180494 Si02
#       7
#     8   8   8   8   8   8   8
#     4   8  15  29  48  68  93 126 164 205 245 288
#     4   9  18  32  48  68  96 131 171 212 252 290
#     4  11  22  33  46  67  99 138 172 206 250 293
#     4  10  19  32  50  71  96 130 173 213 244 279
#     4  10  20  34  51  73 100 130 165 203 246 294
#     4   8  16  30  49  73  99 126 157 196 241 286
#     4  10  19  34  57  83 106 126 152 190 240 297
#
# _framework density 19.781254000000001
#
# number of rings (size 3 to 8) (size 9 to 14) (size 15 to 20)
#    0.000    2.571    0.000    2.143    0.000    5.143 
#    0.000    0.000    0.000    0.857    0.000    6.000 
#    0.000    0.000    0.000    0.000    0.000    0.000 
#
# Total GULP energy -156065.157634 kJ/mol
# GULP energy per Si atom -5573.755630 kJ/mol
# Density = 1.973623 g / cm^3
# Si number density = 19.781254 Si / 1000 Ang^3
#
#
#
# Elastic Constant Matrix: (Units=GPa)
#
#
# Indices 1 2 3 4 5 6 
#
# 1 136.5306 -1.0643 49.9378 0.0000 26.5961 0.0000
# 2 -1.0643 44.4828 -1.2352 0.0000 3.0390 0.0000
# 3 49.9378 -1.2352 103.3850 0.0000 31.6340 0.0000
# 4 0.0000 0.0000 0.0000 18.8074 0.0000 -0.0240
# 5 26.5961 3.0390 31.6340 0.0000 28.1194 0.0000
# 6 0.0000 0.0000 0.0000 -0.0240 0.0000 16.4749
#
#
#
# Elastic Compliance Matrix: (Units=1/GPa)
#
#
# Indices 1 2 3 4 5 6 
#
# 1 0.009495 0.000556 -0.002765 0.000000 -0.005930 0.000000
# 2 0.000556 0.022845 0.001404 0.000000 -0.004574 0.000000
# 3 -0.002765 0.001404 0.015663 0.000000 -0.015157 0.000000
# 4 0.000000 0.000000 0.000000 0.053171 0.000000 0.000077
# 5 -0.005930 -0.004574 -0.015157 0.000000 0.058717 0.000000
# 6 0.000000 0.000000 0.000000 0.000077 0.000000 0.060699
#
#
# Mechanical properties :
#
#
# Convention : Reuss Voigt Hill
#
# Bulk Modulus (GPa) = 21.55536 42.18612 31.87074
# Shear Modulus (GPa) = 21.03805 28.46435 24.75120
#
# Velocity S-wave (km/s) = 3.26473 3.79747 3.54113
# Velocity P-wave (km/s) = 5.01316 6.37184 5.73289
#
# Compressibility (1/GPa) = 0.04639218
#
# Stress axis : x y z
#
# Youngs Moduli (GPa) = 105.31489 43.77255 63.84568
#
# Poissons Ratio (x) = -0.02432 0.17656
# Poissons Ratio (y) = -0.05851 -0.08965
# Poissons Ratio (z) = 0.29124 -0.06147
#
# Static dielectric constant tensor:
#      x y z
#    x 1.735590 0.000000 0.053070 
#    y 0.000000 1.728550 0.000000 
#    z 0.053070 0.000000 1.707710 
# 
# From -- ./inp_files/230991.got.cif
#   From: 2010.05.17/outbox.cif.g08.bks.cpg/sg12_116_cif.got.tgz:230991.got - 2010.06.03 13:09:07.
