data_PCOD9180624
_publ_section_title
;
Structure prediction by ZEFSAII (Michael W. Deem and Ramdas Pophale) SiO2 
 PCOD9180624
Probable space group: C 2/M
;
_chemical_formula_sum "Si O2"
_cell_formula_units_Z 56
_cell_length_a 19.240147
_cell_length_b 9.066938
_cell_length_c 28.002464
_cell_angle_alpha 90.000000
_cell_angle_beta 40.122602
_cell_angle_gamma 90.000000
_cell_volume 3148.022871
_symmetry_space_group_name_H-M "C 2/M"
_symmetry_group_IT_number 12
_symmetry_cell_setting 'monoclinic'
loop_
_space_group_symop_operation_xyz
x,y,z
-x,y,-z
-x,-y,-z
x,-y,z
1/2+x,1/2+y,z
1/2-x,1/2+y,-z
1/2-x,1/2-y,-z
1/2+x,1/2-y,z
loop_
_atom_site_type_symbol
_atom_site_label
_atom_site_fract_x
_atom_site_fract_y
_atom_site_fract_z
Si Si1 0.809800 0.172321 0.897363
Si Si2 0.860588 0.174861 0.183613
Si Si3 0.897804 0.173580 0.959477
Si Si4 0.863628 0.175421 0.706028
Si Si5 0.533017 0.174697 0.259683
Si Si6 0.398585 0.175347 0.586420
Si Si7 0.156996 0.172155 0.693108
O O1 0.864488 0.187432 0.921067
O O2 0.877385 0.267160 0.824637
O O3 0.813364 0.000000 0.882439
O O4 0.688083 0.230838 0.966471
O O5 0.757771 0.265492 0.220221
O O6 0.866245 0.193844 0.238192
O O7 0.977010 0.215979 0.101376
O O8 0.842548 0.000000 0.184612
O O9 0.886760 0.000000 0.977423
O O10 0.941977 0.246571 0.703680
O O11 0.895009 0.233702 0.637083
O O12 0.865974 0.000000 0.706825
O O13 0.419036 0.225730 0.298064
O O14 0.538958 0.000000 0.261489
O O15 0.500000 0.210496 0.500000
O O16 0.284211 0.199697 0.620292
O O17 0.401862 0.000000 0.596549
O O18 0.133419 0.000000 0.694992
#
# Coordination Sequence:
#
# PCOD9180624 Si02
#       7
#     8   8   8   8   8   8   8
#     4  10  19  32  50  76 109 143 181 230 280 321
#     4   9  17  34  56  78 108 144 184 227 273 327
#     4   9  17  31  51  77 107 142 182 226 276 326
#     4  11  23  37  56  82 113 145 181 226 274 321
#     4  12  23  36  54  78 110 148 189 227 272 327
#     4   9  19  39  65  89 114 144 176 213 263 324
#     4   9  17  33  57  84 111 141 178 222 268 316
#
# _framework density 17.788943
#
# number of rings (size 3 to 8) (size 9 to 14) (size 15 to 20)
#    0.000    2.143    1.429    3.857    0.000    3.714 
#    0.000    1.429    0.000    4.286    0.000    0.000 
#    0.000    0.000    0.000    0.000    0.000    0.000 
#
# Total GULP energy -156329.156838 kJ/mol
# GULP energy per Si atom -5583.184173 kJ/mol
# Density = 1.774845 g / cm^3
# Si number density = 17.788943 Si / 1000 Ang^3
#
#
#
# Elastic Constant Matrix: (Units=GPa)
#
#
# Indices 1 2 3 4 5 6 
#
# 1 65.7893 61.1423 32.0864 0.0000 -6.9610 0.0003
# 2 61.1423 107.9869 47.8977 0.0000 -6.2583 0.0005
# 3 32.0864 47.8977 90.4648 0.0000 -24.8483 0.0000
# 4 0.0000 0.0000 0.0000 25.4048 0.0000 -2.9251
# 5 -6.9610 -6.2583 -24.8483 0.0000 16.1546 0.0000
# 6 0.0003 0.0005 0.0000 -2.9251 0.0000 29.0562
#
#
#
# Elastic Compliance Matrix: (Units=1/GPa)
#
#
# Indices 1 2 3 4 5 6 
#
# 1 0.032862 -0.018136 -0.000163 0.000000 0.006884 0.000000
# 2 -0.018136 0.022907 -0.009359 0.000000 -0.013336 0.000000
# 3 -0.000163 -0.009359 0.026063 0.000000 0.036394 0.000000
# 4 0.000000 0.000000 0.000000 0.039824 0.000000 0.004009
# 5 0.006884 -0.013336 0.036394 0.000000 0.115681 0.000000
# 6 0.000000 0.000000 0.000000 0.004009 0.000000 0.034820
#
#
# Mechanical properties :
#
#
# Convention : Reuss Voigt Hill
#
# Bulk Modulus (GPa) = 37.71010 60.72151 49.21580
# Shear Modulus (GPa) = 14.86714 22.33077 18.59895
#
# Velocity S-wave (km/s) = 2.89407 3.54689 3.23698
# Velocity P-wave (km/s) = 5.69317 7.14020 6.45734
#
# Compressibility (1/GPa) = 0.02651810
#
# Stress axis : x y z
#
# Youngs Moduli (GPa) = 30.42992 43.65446 38.36784
#
# Poissons Ratio (x) = 0.79170 0.00624
# Poissons Ratio (y) = 0.55186 0.35909
# Poissons Ratio (z) = 0.00495 0.40857
#
# Static dielectric constant tensor:
#      x y z
#    x 1.605290 0.000000 -0.008320 
#    y 0.000000 1.588460 0.000000 
#    z -0.008320 0.000000 1.599630 
# 
# From -- ./inp_files/342614.got.cif
#   From: 2010.05.17/outbox.cif.g08.bks.cpg/sg12_172_cif.got.tgz:342614.got - 2010.06.03 13:09:07.
