data_PCOD9180381
_publ_section_title
;
Structure prediction by ZEFSAII (Michael W. Deem and Ramdas Pophale) SiO2 
 PCOD9180381
Probable space group: C 2/M
;
_chemical_formula_sum "Si O2"
_cell_formula_units_Z 40
_cell_length_a 30.334501
_cell_length_b 7.620432
_cell_length_c 28.490037
_cell_angle_alpha 90.000000
_cell_angle_beta 166.678436
_cell_angle_gamma 90.000000
_cell_volume 1517.476846
_symmetry_space_group_name_H-M "C 2/M"
_symmetry_group_IT_number 12
_symmetry_cell_setting 'monoclinic'
loop_
_space_group_symop_operation_xyz
x,y,z
-x,y,-z
-x,-y,-z
x,-y,z
1/2+x,1/2+y,z
1/2-x,1/2+y,-z
1/2-x,1/2-y,-z
1/2+x,1/2-y,z
loop_
_atom_site_type_symbol
_atom_site_label
_atom_site_fract_x
_atom_site_fract_y
_atom_site_fract_z
Si Si1 0.267574 0.190253 0.572904
Si Si2 0.859767 0.698672 0.159739
Si Si3 0.746206 0.714249 0.652088
Si Si4 0.790797 0.210852 0.183535
Si Si5 0.768088 0.789227 0.260565
O O1 0.250000 0.250000 0.500000
O O2 0.327436 0.276343 0.685609
O O3 0.042284 0.178820 0.351209
O O4 0.363361 0.000000 0.670114
O O5 0.930751 0.500000 0.230510
O O6 0.726191 0.718129 0.066531
O O7 0.750000 0.750000 0.000000
O O8 0.766416 0.500000 0.672158
O O9 0.518314 0.755490 0.418627
O O10 0.811307 0.774399 0.771673
O O11 0.706220 0.275892 0.145022
O O12 0.773741 0.000000 0.165457
O O13 0.000000 0.766036 0.500000
O O14 0.735938 0.000000 0.227203
#
# Coordination Sequence:
#
# PCOD9180381 Si02
#       5
#     8   8   8   8   8
#     4  10  19  32  49  70  96 125 158 193 230 272
#     4  11  21  33  48  67  93 124 158 194 233 276
#     4   7  11  20  37  61  87 115 147 182 218 262
#     4   8  13  23  40  62  87 114 146 184 225 268
#     4   7   9  16  34  59  84 111 143 178 217 262
#
# _framework density 26.359546999999999
#
# number of rings (size 3 to 8) (size 9 to 14) (size 15 to 20)
#    0.000    3.400    0.000    6.000    0.000    0.000 
#    0.000    0.000    0.000   16.200    0.000    1.400 
#    0.000   11.200    0.000    0.000    0.000    0.000 
#
# Total GULP energy -111404.414967 kJ/mol
# GULP energy per Si atom -5570.220748 kJ/mol
# Density = 2.629955 g / cm^3
# Si number density = 26.359547 Si / 1000 Ang^3
#
#
#
# Elastic Constant Matrix: (Units=GPa)
#
#
# Indices 1 2 3 4 5 6 
#
# 1 356.6258 18.6870 62.5718 -0.0077 -65.7366 -0.0052
# 2 18.6870 80.3557 -3.8749 0.0058 -5.3797 -0.0139
# 3 62.5718 -3.8749 48.9253 -0.0074 -4.9845 -0.0171
# 4 -0.0077 0.0058 -0.0074 0.6236 -0.0064 -6.1850
# 5 -65.7366 -5.3797 -4.9845 -0.0064 74.0263 -0.0092
# 6 -0.0052 -0.0139 -0.0171 -6.1850 -0.0092 14.0132
#
#
#
# Elastic Compliance Matrix: (Units=1/GPa)
#
#
# Indices 1 2 3 4 5 6 
#
# 1 0.004461 -0.001064 -0.005432 0.000000 0.003519 -0.000004
# 2 -0.001064 0.012817 0.002391 -0.000015 0.000148 0.000009
# 3 -0.005432 0.002391 0.027289 -0.000154 -0.002812 -0.000036
# 4 0.000000 -0.000015 -0.000154 -0.474762 -0.000078 -0.209546
# 5 0.003519 0.000148 -0.002812 -0.000078 0.016455 -0.000026
# 6 -0.000004 0.000009 -0.000036 -0.209546 -0.000026 -0.021126
#
#
# Mechanical properties :
#
#
# Convention : Reuss Voigt Hill
#
# Bulk Modulus (GPa) = 27.50421 71.18607 49.34514
# Shear Modulus (GPa) = -12.06163 44.96746 16.45292
#
# Velocity S-wave (km/s) = -2.14144 4.13477 2.50106
# Velocity P-wave (km/s) = 2.08388 7.06113 5.20587
#
# Compressibility (1/GPa) = 0.03635807
#
# Stress axis : x y z
#
# Youngs Moduli (GPa) = 224.14383 78.01985 36.64511
#
# Poissons Ratio (x) = 0.08300 0.19904
# Poissons Ratio (y) = 0.23846 -0.08761
# Poissons Ratio (z) = 1.21746 -0.18653
#
# Static dielectric constant tensor:
#      x y z
#    x 2.417630 -0.000770 0.015690 
#    y -0.000770 2.056100 -0.000450 
#    z 0.015690 -0.000450 2.291290 
# 
# From -- ./inp_files/107517.got.cif
#   From: 2010.05.17/outbox.cif.g08.bks.cpg/sg12_54_cif.got.tgz:107517.got - 2010.06.03 13:09:07.
