data_PCOD9180829
_publ_section_title
;
Structure prediction by ZEFSAII (Michael W. Deem and Ramdas Pophale) SiO2 
 PCOD9180829
Probable space group: C 2/M
;
_chemical_formula_sum "Si O2"
_cell_formula_units_Z 56
_cell_length_a 18.063881
_cell_length_b 10.055594
_cell_length_c 23.868516
_cell_angle_alpha 90.000000
_cell_angle_beta 137.085283
_cell_angle_gamma 90.000000
_cell_volume 2952.115134
_symmetry_space_group_name_H-M "C 2/M"
_symmetry_group_IT_number 12
_symmetry_cell_setting 'monoclinic'
loop_
_space_group_symop_operation_xyz
x,y,z
-x,y,-z
-x,-y,-z
x,-y,z
1/2+x,1/2+y,z
1/2-x,1/2+y,-z
1/2-x,1/2-y,-z
1/2+x,1/2-y,z
loop_
_atom_site_type_symbol
_atom_site_label
_atom_site_fract_x
_atom_site_fract_y
_atom_site_fract_z
Si Si1 0.815408 0.146878 0.113292
Si Si2 0.150324 0.147802 0.998405
Si Si3 0.788705 0.656528 0.736821
Si Si4 0.430251 0.653232 0.736394
Si Si5 0.471528 0.147574 0.918841
Si Si6 0.040191 0.161254 0.583673
Si Si7 0.851766 0.845308 0.565148
O O1 0.805873 0.134106 0.040566
O O2 0.940576 0.180360 0.194286
O O3 0.789933 0.000000 0.123481
O O4 0.732659 0.264485 0.081033
O O5 0.041420 0.233443 0.932469
O O6 0.131971 0.000000 0.010709
O O7 0.791038 0.500000 0.721395
O O8 0.862626 0.744532 0.736543
O O9 0.847768 0.663455 0.830073
O O10 0.663748 0.702383 0.665591
O O11 0.419396 0.500000 0.751297
O O12 0.386580 0.658449 0.649054
O O13 0.506486 0.000000 0.917330
O O14 0.500000 0.149999 0.000000
O O15 0.000000 0.205817 0.500000
O O16 0.952148 0.198914 0.581592
O O17 0.041837 0.000000 0.584077
O O18 0.750000 0.750000 0.500000
O O19 0.826244 0.000000 0.536665
#
# Coordination Sequence:
#
# PCOD9180829 Si02
#       7
#     8   8   8   8   8   8   8
#     4   9  18  32  51  74 103 140 179 223 275 327
#     4  10  19  32  51  75 104 139 181 226 275 325
#     4  10  20  35  58  83 107 144 190 232 278 335
#     4  10  20  35  56  83 113 147 183 230 287 336
#     4  10  21  35  52  76 107 145 188 232 277 332
#     4   9  18  34  56  82 110 141 179 223 271 326
#     4  10  21  37  59  85 114 146 183 225 276 335
#
# _framework density 18.969449000000001
#
# number of rings (size 3 to 8) (size 9 to 14) (size 15 to 20)
#    0.000    2.286    1.429    1.286    0.000    4.286 
#    0.000    5.000    0.000    2.571    0.000    0.000 
#    0.000    0.000    0.000    0.000    0.000    0.000 
#
# Total GULP energy -156087.357486 kJ/mol
# GULP energy per Si atom -5574.548482 kJ/mol
# Density = 1.892627 g / cm^3
# Si number density = 18.969449 Si / 1000 Ang^3
#
#
#
# Elastic Constant Matrix: (Units=GPa)
#
#
# Indices 1 2 3 4 5 6 
#
# 1 54.0581 36.3048 45.6783 0.0000 8.4830 0.0000
# 2 36.3048 98.5089 60.4485 0.0000 22.9986 0.0000
# 3 45.6783 60.4485 145.9439 0.0000 29.2117 0.0000
# 4 0.0000 0.0000 0.0000 -7.7825 0.0000 -6.0071
# 5 8.4830 22.9986 29.2117 0.0000 31.3051 0.0000
# 6 0.0000 0.0000 0.0000 -6.0071 0.0000 15.4115
#
#
#
# Elastic Compliance Matrix: (Units=1/GPa)
#
#
# Indices 1 2 3 4 5 6 
#
# 1 0.028403 -0.007293 -0.006641 0.000000 0.003859 0.000000
# 2 -0.007293 0.016407 -0.003069 0.000000 -0.007213 0.000000
# 3 -0.006641 -0.003069 0.011547 0.000000 -0.006720 0.000000
# 4 0.000000 0.000000 0.000000 -0.098776 0.000000 -0.038501
# 5 0.003859 -0.007213 -0.006720 0.000000 0.042468 0.000000
# 6 0.000000 0.000000 0.000000 -0.038501 0.000000 0.049880
#
#
# Mechanical properties :
#
#
# Convention : Reuss Voigt Hill
#
# Bulk Modulus (GPa) = 44.74407 64.81933 54.78170
# Shear Modulus (GPa) = 54.71356 18.19212 36.45284
#
# Velocity S-wave (km/s) = 5.37639 3.10017 4.38843
# Velocity P-wave (km/s) = 7.88539 6.85998 7.39049
#
# Compressibility (1/GPa) = 0.02234933
#
# Stress axis : x y z
#
# Youngs Moduli (GPa) = 35.20772 60.95145 86.60401
#
# Poissons Ratio (x) = 0.44453 0.57515
# Poissons Ratio (y) = 0.25678 0.26579
# Poissons Ratio (z) = 0.23382 0.18706
#
# Static dielectric constant tensor:
#      x y z
#    x 1.670100 0.000000 -0.001720 
#    y 0.000000 1.688990 0.000000 
#    z -0.001720 0.000000 1.670350 
# 
# From -- ./inp_files/363191.got.cif
#   From: 2010.05.17/outbox.cif.g08.bks.cpg/sg12_182_cif.got.tgz:363191.got - 2010.06.03 13:09:07.
