data_PCOD9180644
_publ_section_title
;
Structure prediction by ZEFSAII (Michael W. Deem and Ramdas Pophale) SiO2 
 PCOD9180644
Probable space group: C 2/M
;
_chemical_formula_sum "Si O2"
_cell_formula_units_Z 56
_cell_length_a 18.980675
_cell_length_b 20.695400
_cell_length_c 20.351561
_cell_angle_alpha 90.000000
_cell_angle_beta 158.880293
_cell_angle_gamma 90.000000
_cell_volume 2880.505932
_symmetry_space_group_name_H-M "C 2/M"
_symmetry_group_IT_number 12
_symmetry_cell_setting 'monoclinic'
loop_
_space_group_symop_operation_xyz
x,y,z
-x,y,-z
-x,-y,-z
x,-y,z
1/2+x,1/2+y,z
1/2-x,1/2+y,-z
1/2-x,1/2-y,-z
1/2+x,1/2-y,z
loop_
_atom_site_type_symbol
_atom_site_label
_atom_site_fract_x
_atom_site_fract_y
_atom_site_fract_z
Si Si1 0.537733 0.573490 0.332570
Si Si2 0.494604 0.072154 0.753482
Si Si3 0.574412 0.267443 0.993217
Si Si4 0.455339 0.881006 0.868180
Si Si5 0.023821 0.699042 0.708519
Si Si6 0.315793 0.426166 0.264389
Si Si7 0.574039 0.309422 0.274043
O O1 0.459248 0.500000 0.255928
O O2 0.770602 0.568539 0.534399
O O3 0.474122 0.598469 0.349564
O O4 0.487813 0.626760 0.234751
O O5 0.473734 0.096179 0.809975
O O6 0.586168 0.128834 0.789795
O O7 0.579667 0.000000 0.823620
O O8 0.513007 0.193151 0.928341
O O9 0.483848 0.304773 0.852093
O O10 0.500000 0.287918 0.000000
O O11 0.808036 0.274086 0.191945
O O12 0.246665 0.892452 0.722163
O O13 0.618810 0.921562 0.049328
O O14 0.809197 0.693840 0.489290
O O15 0.005958 0.747649 0.754952
O O16 0.364145 0.500000 0.321272
#
# Coordination Sequence:
#
# PCOD9180644 Si02
#       7
#     8   8   8   8   8   8   8
#     4   9  20  36  57  84 113 150 192 236 289 346
#     4  10  20  36  57  84 114 150 194 236 289 345
#     4  12  24  39  59  84 117 156 197 238 292 350
#     4  11  20  33  48  81 115 155 190 223 277 342
#     4  10  22  39  61  87 116 153 195 246 291 338
#     4  10  19  32  50  77 118 157 186 222 273 343
#     4  10  21  39  61  86 117 151 195 246 291 340
#
# _framework density 19.441030000000001
#
# number of rings (size 3 to 8) (size 9 to 14) (size 15 to 20)
#    0.000    1.714    2.857    3.000    2.000    1.143 
#    0.000    3.571    0.000    1.714    0.000    4.000 
#    0.000    0.000    0.000    0.000    0.000    0.000 
#
# Total GULP energy -156298.095070 kJ/mol
# GULP energy per Si atom -5582.074824 kJ/mol
# Density = 1.939678 g / cm^3
# Si number density = 19.441030 Si / 1000 Ang^3
#
#
#
# Elastic Constant Matrix: (Units=GPa)
#
#
# Indices 1 2 3 4 5 6 
#
# 1 109.7949 52.7151 30.8649 0.0216 11.0871 -0.0018
# 2 52.7151 103.6200 14.4600 0.0441 5.0868 0.0356
# 3 30.8649 14.4600 47.6460 0.1328 0.7342 0.0755
# 4 0.0216 0.0441 0.1328 5.8569 0.0458 6.4089
# 5 11.0871 5.0868 0.7342 0.0458 27.1075 0.0433
# 6 -0.0018 0.0356 0.0755 6.4089 0.0433 48.7854
#
#
#
# Elastic Compliance Matrix: (Units=1/GPa)
#
#
# Indices 1 2 3 4 5 6 
#
# 1 0.014667 -0.006180 -0.007555 0.000207 -0.004635 -0.000006
# 2 -0.006180 0.012771 0.000126 -0.000078 0.000128 0.000000
# 3 -0.007555 0.000126 0.025809 -0.000619 0.002368 0.000039
# 4 0.000207 -0.000078 -0.000619 0.199423 -0.000349 -0.026197
# 5 -0.004635 0.000128 0.002368 -0.000349 0.038698 0.000007
# 6 -0.000006 0.000000 0.000039 -0.026197 0.000007 0.023939
#
#
# Mechanical properties :
#
#
# Convention : Reuss Voigt Hill
#
# Bulk Modulus (GPa) = 38.41873 50.79344 44.60609
# Shear Modulus (GPa) = 14.23689 27.21802 20.72745
#
# Velocity S-wave (km/s) = 2.70906 3.74576 3.26877
# Velocity P-wave (km/s) = 5.43966 6.70009 6.10251
#
# Compressibility (1/GPa) = 0.02602897
#
# Stress axis : x y z
#
# Youngs Moduli (GPa) = 68.18193 78.30413 38.74613
#
# Poissons Ratio (x) = 0.48390 0.29271
# Poissons Ratio (y) = 0.42135 -0.00487
# Poissons Ratio (z) = 0.51509 -0.00984
#
# Static dielectric constant tensor:
#      x y z
#    x 1.677080 -0.000010 0.003290 
#    y -0.000010 1.710300 -0.000030 
#    z 0.003290 -0.000030 1.734970 
# 
# From -- ./inp_files/272412.got.cif
#   From: 2010.05.17/outbox.cif.g08.bks.cpg/sg12_137_cif.got.tgz:272412.got - 2010.06.03 13:09:07.
