data_PCOD9180567
_publ_section_title
;
Structure prediction by ZEFSAII (Michael W. Deem and Ramdas Pophale) SiO2 
 PCOD9180567
Probable space group: C 2/M
;
_chemical_formula_sum "Si O2"
_cell_formula_units_Z 64
_cell_length_a 25.408558
_cell_length_b 7.864675
_cell_length_c 16.913959
_cell_angle_alpha 90.000000
_cell_angle_beta 88.858618
_cell_angle_gamma 90.000000
_cell_volume 3379.246665
_symmetry_space_group_name_H-M "C 2/M"
_symmetry_group_IT_number 12
_symmetry_cell_setting 'monoclinic'
loop_
_space_group_symop_operation_xyz
x,y,z
-x,y,-z
-x,-y,-z
x,-y,z
1/2+x,1/2+y,z
1/2-x,1/2+y,-z
1/2-x,1/2-y,-z
1/2+x,1/2-y,z
loop_
_atom_site_type_symbol
_atom_site_label
_atom_site_fract_x
_atom_site_fract_y
_atom_site_fract_z
Si Si1 0.541909 0.703731 0.237478
Si Si2 0.631730 0.798019 0.125389
Si Si3 0.807738 0.798915 0.029509
Si Si4 0.791090 0.704191 0.738004
Si Si5 0.677424 0.291128 0.792434
Si Si6 0.119131 0.795332 0.375128
Si Si7 0.428313 0.291625 0.291507
Si Si8 0.441997 0.292288 0.471908
O O1 0.540274 0.500000 0.244823
O O2 0.574449 0.744599 0.157763
O O3 0.577301 0.767823 0.310232
O O4 0.482214 0.764620 0.247223
O O5 0.674170 0.729539 0.188619
O O6 0.634247 0.000000 0.129534
O O7 0.649601 0.747271 0.037882
O O8 0.819100 0.730827 0.116835
O O9 0.807373 0.000000 0.037362
O O10 0.750000 0.750000 0.000000
O O11 0.789999 0.500000 0.744334
O O12 0.731221 0.763267 0.747458
O O13 0.823492 0.748012 0.658518
O O14 0.676798 0.500000 0.792419
O O15 0.624468 0.235006 0.750619
O O16 0.100525 0.736217 0.461648
O O17 0.116021 0.000000 0.375468
O O18 0.427989 0.500000 0.291173
O O19 0.431040 0.237340 0.382949
O O20 0.500000 0.240938 0.500000
O O21 0.442076 0.500000 0.470900
#
# Coordination Sequence:
#
# PCOD9180567 Si02
#       8
#     8   8   8   8   8   8   8   8
#     4   9  16  28  48  75  99 125 162 202 243 286
#     4  10  19  32  50  73  99 129 163 203 246 289
#     4  11  20  33  52  75 100 125 164 210 247 289
#     4   9  17  31  47  66  96 129 162 197 239 289
#     4   9  18  32  48  69  97 129 164 200 241 294
#     4   9  16  26  45  74 101 121 155 203 242 278
#     4   9  16  28  49  73  99 131 164 200 244 289
#     4   9  14  24  44  73 103 125 155 203 246 280
#
# _framework density 18.939132000000001
#
# number of rings (size 3 to 8) (size 9 to 14) (size 15 to 20)
#    0.000    2.625    2.500    0.750    0.000    0.500 
#    0.000    1.250    0.000    7.125    0.000    0.000 
#    0.000    0.000    0.000    0.000    0.000    0.000 
#
# Total GULP energy -178442.405844 kJ/mol
# GULP energy per Si atom -5576.325183 kJ/mol
# Density = 1.889603 g / cm^3
# Si number density = 18.939132 Si / 1000 Ang^3
#
#
#
# Elastic Constant Matrix: (Units=GPa)
#
#
# Indices 1 2 3 4 5 6 
#
# 1 177.2233 13.2499 119.2643 0.0000 -20.1076 0.0000
# 2 13.2499 15.3860 3.9976 0.0000 -2.9428 0.0000
# 3 119.2643 3.9976 156.9389 0.0000 -25.6728 0.0000
# 4 0.0000 0.0000 0.0000 11.6256 0.0000 -6.7417
# 5 -20.1076 -2.9428 -25.6728 0.0000 32.8483 0.0000
# 6 0.0000 0.0000 0.0000 -6.7417 0.0000 16.5023
#
#
#
# Elastic Compliance Matrix: (Units=1/GPa)
#
#
# Indices 1 2 3 4 5 6 
#
# 1 0.012541 -0.008441 -0.009383 0.000000 -0.000413 0.000000
# 2 -0.008441 0.071901 0.005494 0.000000 0.005568 0.000000
# 3 -0.009383 0.005494 0.014337 0.000000 0.005953 0.000000
# 4 0.000000 0.000000 0.000000 0.112721 0.000000 0.046049
# 5 -0.000413 0.005568 0.005953 0.000000 0.035342 0.000000
# 6 0.000000 0.000000 0.000000 0.046049 0.000000 0.079410
#
#
# Mechanical properties :
#
#
# Convention : Reuss Voigt Hill
#
# Bulk Modulus (GPa) = 13.49191 69.17462 41.33327
# Shear Modulus (GPa) = 13.31140 26.39767 19.85454
#
# Velocity S-wave (km/s) = 2.65401 3.73744 3.24131
# Velocity P-wave (km/s) = 4.06583 7.43159 5.98997
#
# Compressibility (1/GPa) = 0.07411847
#
# Stress axis : x y z
#
# Youngs Moduli (GPa) = 79.73574 13.90802 69.75189
#
# Poissons Ratio (x) = 0.11740 0.65450
# Poissons Ratio (y) = 0.67307 -0.38324
# Poissons Ratio (z) = 0.74818 -0.07641
#
# Static dielectric constant tensor:
#      x y z
#    x 1.644320 0.000000 -0.012070 
#    y 0.000000 1.706460 0.000000 
#    z -0.012070 0.000000 1.657140 
# 
# From -- ./inp_files/287613.got.cif
#   From: 2010.05.17/outbox.cif.g08.bks.cpg/sg12_144_cif.got.tgz:287613.got - 2010.06.03 13:09:07.
