data_PCOD9180669
_publ_section_title
;
Structure prediction by ZEFSAII (Michael W. Deem and Ramdas Pophale) SiO2 
 PCOD9180669
Probable space group: C 2/M
;
_chemical_formula_sum "Si O2"
_cell_formula_units_Z 56
_cell_length_a 20.174824
_cell_length_b 7.580041
_cell_length_c 18.660452
_cell_angle_alpha 90.000000
_cell_angle_beta 97.577167
_cell_angle_gamma 90.000000
_cell_volume 2828.750400
_symmetry_space_group_name_H-M "C 2/M"
_symmetry_group_IT_number 12
_symmetry_cell_setting 'monoclinic'
loop_
_space_group_symop_operation_xyz
x,y,z
-x,y,-z
-x,-y,-z
x,-y,z
1/2+x,1/2+y,z
1/2-x,1/2+y,-z
1/2-x,1/2-y,-z
1/2+x,1/2-y,z
loop_
_atom_site_type_symbol
_atom_site_label
_atom_site_fract_x
_atom_site_fract_y
_atom_site_fract_z
Si Si1 0.010338 0.784842 0.419126
Si Si2 0.783260 0.210901 0.927481
Si Si3 0.856208 0.293904 0.134084
Si Si4 0.393539 0.713572 0.296270
Si Si5 0.157858 0.787027 0.439018
Si Si6 0.705243 0.292442 0.601161
Si Si7 0.575782 0.294876 0.004126
O O1 0.084335 0.730020 0.407536
O O2 0.000000 0.728220 0.500000
O O3 0.955003 0.727660 0.354857
O O4 0.007415 0.000000 0.420198
O O5 0.721034 0.273936 0.869415
O O6 0.859892 0.280241 0.941890
O O7 0.789828 0.000000 0.918750
O O8 0.750000 0.250000 0.000000
O O9 0.851432 0.500000 0.114633
O O10 0.892151 0.275664 0.214986
O O11 0.897452 0.211098 0.074186
O O12 0.394630 0.500000 0.292941
O O13 0.328878 0.775882 0.332147
O O14 0.216070 0.731094 0.394265
O O15 0.175342 0.720373 0.521913
O O16 0.158782 0.000000 0.442036
O O17 0.689452 0.500000 0.597295
O O18 0.569860 0.500000 0.024982
O O19 0.500000 0.219661 0.000000
#
# Coordination Sequence:
#
# PCOD9180669 Si02
#       7
#     8   8   8   8   8   8   8
#     4   9  15  28  50  72  91 120 168 216 251 288
#     4   8  15  29  49  72  96 124 157 192 230 275
#     4  10  20  33  49  72 104 135 161 196 243 294
#     4  10  19  32  51  71  94 128 169 209 247 290
#     4   9  16  28  48  70  90 115 154 204 250 291
#     4   9  17  29  46  68  93 121 153 196 247 295
#     4   9  17  32  56  81 101 125 162 203 237 279
#
# _framework density 19.796727000000001
#
# number of rings (size 3 to 8) (size 9 to 14) (size 15 to 20)
#    0.000    2.857    1.429    0.429    0.000    1.429 
#    0.000    2.143    0.000    7.714    0.000    0.000 
#    0.000    0.000    0.000    0.000    0.000    0.000 
#
# Total GULP energy -155896.721988 kJ/mol
# GULP energy per Si atom -5567.740071 kJ/mol
# Density = 1.975167 g / cm^3
# Si number density = 19.796727 Si / 1000 Ang^3
#
#
#
# Elastic Constant Matrix: (Units=GPa)
#
#
# Indices 1 2 3 4 5 6 
#
# 1 151.7550 -3.4710 40.9616 0.0000 13.6888 0.0000
# 2 -3.4710 42.8406 -7.5316 0.0000 0.1578 0.0000
# 3 40.9616 -7.5316 75.4581 0.0000 15.5569 0.0000
# 4 0.0000 0.0000 0.0000 8.2510 0.0000 -4.9739
# 5 13.6888 0.1578 15.5569 0.0000 25.6877 0.0000
# 6 0.0000 0.0000 0.0000 -4.9739 0.0000 13.7257
#
#
#
# Elastic Compliance Matrix: (Units=1/GPa)
#
#
# Indices 1 2 3 4 5 6 
#
# 1 0.007795 -0.000041 -0.003861 0.000000 -0.001815 0.000000
# 2 -0.000041 0.023833 0.002773 0.000000 -0.001804 0.000000
# 3 -0.003861 0.002773 0.017374 0.000000 -0.008481 0.000000
# 4 0.000000 0.000000 0.000000 0.155072 0.000000 0.056194
# 5 -0.001815 -0.001804 -0.008481 0.000000 0.045044 0.000000
# 6 0.000000 0.000000 0.000000 0.056194 0.000000 0.093220
#
#
# Mechanical properties :
#
#
# Convention : Reuss Voigt Hill
#
# Bulk Modulus (GPa) = 21.39328 36.66354 29.02841
# Shear Modulus (GPa) = 13.88212 25.53920 19.71066
#
# Velocity S-wave (km/s) = 2.65095 3.59565 3.15882
# Velocity P-wave (km/s) = 4.49444 5.98319 5.29143
#
# Compressibility (1/GPa) = 0.04674365
#
# Stress axis : x y z
#
# Youngs Moduli (GPa) = 128.29504 41.95835 57.55856
#
# Poissons Ratio (x) = 0.00170 0.22223
# Poissons Ratio (y) = 0.00521 -0.15960
# Poissons Ratio (z) = 0.49535 -0.11634
#
# Static dielectric constant tensor:
#      x y z
#    x -3.207510 0.000000 -4.849270 
#    y 0.000000 1.787310 0.000000 
#    z -4.849270 0.000000 -3.146210 
# 
# From -- ./inp_files/280391.got.cif
#   From: 2010.05.17/outbox.cif.g08.bks.cpg/sg12_141_cif.got.tgz:280391.got - 2010.06.03 13:09:07.
