data_PCOD9180688
_publ_section_title
;
Structure prediction by ZEFSAII (Michael W. Deem and Ramdas Pophale) SiO2 
 PCOD9180688
Probable space group: C 2/M
;
_chemical_formula_sum "Si O2"
_cell_formula_units_Z 64
_cell_length_a 26.411888
_cell_length_b 8.854399
_cell_length_c 17.414540
_cell_angle_alpha 90.000000
_cell_angle_beta 90.866754
_cell_angle_gamma 90.000000
_cell_volume 4072.122620
_symmetry_space_group_name_H-M "C 2/M"
_symmetry_group_IT_number 12
_symmetry_cell_setting 'monoclinic'
loop_
_space_group_symop_operation_xyz
x,y,z
-x,y,-z
-x,-y,-z
x,-y,z
1/2+x,1/2+y,z
1/2-x,1/2+y,-z
1/2-x,1/2-y,-z
1/2+x,1/2-y,z
loop_
_atom_site_type_symbol
_atom_site_label
_atom_site_fract_x
_atom_site_fract_y
_atom_site_fract_z
Si Si1 0.092421 0.318448 0.320563
Si Si2 0.438558 0.825729 0.992588
Si Si3 0.307103 0.818347 0.585793
Si Si4 0.944484 0.682166 0.160852
Si Si5 0.556769 0.320870 0.165750
Si Si6 0.002487 0.180475 0.590617
Si Si7 0.400814 0.817984 0.322733
Si Si8 0.199669 0.681810 0.592371
O O1 0.089665 0.500000 0.318960
O O2 0.144151 0.271911 0.364180
O O3 0.088316 0.254637 0.234666
O O4 0.044569 0.255551 0.366644
O O5 0.424736 0.728290 0.918418
O O6 0.423628 0.000000 0.979492
O O7 0.500000 0.822866 0.000000
O O8 0.421889 0.774968 0.077167
O O9 0.254150 0.750541 0.612965
O O10 0.312772 0.774217 0.496199
O O11 0.304040 0.000000 0.588218
O O12 0.952713 0.500000 0.158505
O O13 0.910313 0.717280 0.233518
O O14 0.999125 0.759404 0.172246
O O15 0.556806 0.500000 0.173495
O O16 0.054237 0.243039 0.627831
O O17 0.000000 0.215055 0.500000
O O18 0.000111 0.000000 0.600533
O O19 0.346349 0.771025 0.354017
O O20 0.404865 0.000000 0.331516
O O21 0.203346 0.500000 0.594904
#
# Coordination Sequence:
#
# PCOD9180688 Si02
#       8
#     8   8   8   8   8   8   8   8
#     4  11  21  34  51  69  94 129 167 200 237 289
#     4   8  15  28  45  64  91 127 163 192 229 281
#     4   9  19  34  51  70  92 123 163 204 244 284
#     4   9  17  30  47  68  95 129 163 195 231 283
#     4  11  20  29  44  69  99 127 159 197 242 285
#     4  11  23  34  45  68 100 130 160 196 241 287
#     4  10  19  32  51  72  96 129 164 195 235 288
#     4   9  18  33  52  73  94 120 160 204 243 284
#
# _framework density 15.716620000000001
#
# number of rings (size 3 to 8) (size 9 to 14) (size 15 to 20)
#    0.000    2.250    1.250    3.375    0.000    5.750 
#    0.000    2.500    0.000    0.000    0.000    0.875 
#    0.000    0.000    0.000    0.000    0.000    0.000 
#
# Total GULP energy -178472.693040 kJ/mol
# GULP energy per Si atom -5577.271658 kJ/mol
# Density = 1.568085 g / cm^3
# Si number density = 15.716620 Si / 1000 Ang^3
#
#
#
# Elastic Constant Matrix: (Units=GPa)
#
#
# Indices 1 2 3 4 5 6 
#
# 1 95.3125 25.6402 55.8628 0.0000 -11.1194 0.0000
# 2 25.6402 32.4367 37.3220 0.0000 -3.6753 0.0000
# 3 55.8628 37.3220 111.9860 0.0000 -15.7417 0.0000
# 4 0.0000 0.0000 0.0000 19.5519 0.0000 0.9183
# 5 -11.1194 -3.6753 -15.7417 0.0000 17.8926 0.0000
# 6 0.0000 0.0000 0.0000 0.9183 0.0000 21.8055
#
#
#
# Elastic Compliance Matrix: (Units=1/GPa)
#
#
# Indices 1 2 3 4 5 6 
#
# 1 0.015615 -0.005784 -0.005323 0.000000 0.003833 0.000000
# 2 -0.005784 0.052544 -0.015536 0.000000 -0.006470 0.000000
# 3 -0.005323 -0.015536 0.018085 0.000000 0.009412 0.000000
# 4 0.000000 0.000000 0.000000 0.051247 0.000000 -0.002158
# 5 0.003833 -0.006470 0.009412 0.000000 0.065223 0.000000
# 6 0.000000 0.000000 0.000000 -0.002158 0.000000 0.045951
#
#
# Mechanical properties :
#
#
# Convention : Reuss Voigt Hill
#
# Bulk Modulus (GPa) = 30.34059 53.04282 41.69171
# Shear Modulus (GPa) = 15.97768 19.91068 17.94418
#
# Velocity S-wave (km/s) = 3.19189 3.56315 3.38262
# Velocity P-wave (km/s) = 5.73855 7.12396 6.46845
#
# Compressibility (1/GPa) = 0.03295914
#
# Stress axis : x y z
#
# Youngs Moduli (GPa) = 64.04267 19.03167 55.29300
#
# Poissons Ratio (x) = 0.11009 0.29430
# Poissons Ratio (y) = 0.37044 0.85901
# Poissons Ratio (z) = 0.34087 0.29567
#
# Static dielectric constant tensor:
#      x y z
#    x 1.491810 0.000000 -0.015210 
#    y 0.000000 1.525720 0.000000 
#    z -0.015210 0.000000 1.546840 
# 
# From -- ./inp_files/287731.got.cif
#   From: 2010.05.17/outbox.cif.g08.bks.cpg/sg12_144_cif.got.tgz:287731.got - 2010.06.03 13:09:07.
