data_PCOD9180714
_publ_section_title
;
Structure prediction by ZEFSAII (Michael W. Deem and Ramdas Pophale) SiO2 
 PCOD9180714
Probable space group: C 2/M
;
_chemical_formula_sum "Si O2"
_cell_formula_units_Z 56
_cell_length_a 27.812906
_cell_length_b 14.507502
_cell_length_c 11.520461
_cell_angle_alpha 90.000000
_cell_angle_beta 138.797492
_cell_angle_gamma 90.000000
_cell_volume 3062.043060
_symmetry_space_group_name_H-M "C 2/M"
_symmetry_group_IT_number 12
_symmetry_cell_setting 'monoclinic'
loop_
_space_group_symop_operation_xyz
x,y,z
-x,y,-z
-x,-y,-z
x,-y,z
1/2+x,1/2+y,z
1/2-x,1/2+y,-z
1/2-x,1/2-y,-z
1/2+x,1/2-y,z
loop_
_atom_site_type_symbol
_atom_site_label
_atom_site_fract_x
_atom_site_fract_y
_atom_site_fract_z
Si Si1 0.900565 0.726879 0.918557
Si Si2 0.233703 0.390212 0.383809
Si Si3 0.657966 0.389555 0.046294
Si Si4 0.808086 0.609591 0.428090
Si Si5 0.553152 0.777310 0.266518
Si Si6 0.117454 0.108192 0.478244
Si Si7 0.582958 0.610814 0.670564
O O1 0.829227 0.664116 0.797163
O O2 0.881910 0.828653 0.929209
O O3 0.922401 0.727357 0.823228
O O4 0.970340 0.687901 0.114896
O O5 0.222813 0.500000 0.353410
O O6 0.226667 0.367496 0.507880
O O7 0.311706 0.368752 0.469619
O O8 0.647913 0.500000 0.044263
O O9 0.744632 0.371397 0.219802
O O10 0.624575 0.359465 0.862072
O O11 0.822831 0.500000 0.454876
O O12 0.884067 0.663922 0.555916
O O13 0.554250 0.674516 0.319113
O O14 0.127178 0.127466 0.632323
O O15 0.100593 0.000000 0.434422
O O16 0.500000 0.645986 0.500000
O O17 0.576632 0.500000 0.670950
#
# Coordination Sequence:
#
# PCOD9180714 Si02
#       7
#     8   8   8   8   8   8   8
#     4  10  20  32  48  72 101 131 161 196 239 286
#     4   9  18  33  52  72  96 128 164 201 238 279
#     4  10  19  32  51  73  97 126 159 197 243 290
#     4   9  18  33  52  72  96 128 164 201 238 279
#     4  10  20  32  48  72 101 131 161 196 239 286
#     4  10  19  32  51  73  97 126 159 197 243 290
#     4   9  18  32  49  70  98 130 161 195 236 286
#
# _framework density 18.288443000000001
#
# number of rings (size 3 to 8) (size 9 to 14) (size 15 to 20)
#    0.000    2.429    0.000    2.571    0.000    6.286 
#    0.000    7.143    0.000    0.000    0.000    0.000 
#    0.000    9.143    0.000    0.000    0.000    0.000 
#
# Total GULP energy -156100.009316 kJ/mol
# GULP energy per Si atom -5575.000333 kJ/mol
# Density = 1.824682 g / cm^3
# Si number density = 18.288443 Si / 1000 Ang^3
#
#
#
# Elastic Constant Matrix: (Units=GPa)
#
#
# Indices 1 2 3 4 5 6 
#
# 1 13.8047 8.5462 15.5881 0.0000 2.6590 0.0000
# 2 8.5462 28.8357 35.6210 0.0000 5.9626 0.0000
# 3 15.5881 35.6210 137.2858 0.0000 10.6632 0.0000
# 4 0.0000 0.0000 0.0000 26.2545 0.0000 -1.3091
# 5 2.6590 5.9626 10.6632 0.0000 11.3155 0.0000
# 6 0.0000 0.0000 0.0000 -1.3091 0.0000 7.8901
#
#
#
# Elastic Compliance Matrix: (Units=1/GPa)
#
#
# Indices 1 2 3 4 5 6 
#
# 1 0.091330 -0.019916 -0.004694 0.000000 -0.006543 0.000000
# 2 -0.019916 0.058051 -0.011640 0.000000 -0.014940 0.000000
# 3 -0.004694 -0.011640 0.011087 0.000000 -0.003211 0.000000
# 4 0.000000 0.000000 0.000000 0.038406 0.000000 0.006372
# 5 -0.006543 -0.014940 -0.003211 0.000000 0.100810 0.000000
# 6 0.000000 0.000000 0.000000 0.006372 0.000000 0.127799
#
#
# Mechanical properties :
#
#
# Convention : Reuss Voigt Hill
#
# Bulk Modulus (GPa) = 11.36806 33.27074 22.31940
# Shear Modulus (GPa) = 9.44632 17.10340 13.27486
#
# Velocity S-wave (km/s) = 2.27517 3.06143 2.69710
# Velocity P-wave (km/s) = 3.62372 5.54330 4.68292
#
# Compressibility (1/GPa) = 0.08796575
#
# Stress axis : x y z
#
# Youngs Moduli (GPa) = 10.94930 17.22635 90.19783
#
# Poissons Ratio (x) = 0.34308 0.42341
# Poissons Ratio (y) = 0.21807 1.04993
# Poissons Ratio (z) = 0.05140 0.20052
#
# Static dielectric constant tensor:
#      x y z
#    x 1.628830 0.000000 0.007840 
#    y 0.000000 1.633190 0.000000 
#    z 0.007840 0.000000 1.655580 
# 
# From -- ./inp_files/183568.got.cif
#   From: 2010.05.17/outbox.cif.g08.bks.cpg/sg12_92_cif.got.tgz:183568.got - 2010.06.03 13:09:07.
