data_PCOD9180033
_publ_section_title
;
Structure prediction by ZEFSAII (Michael W. Deem and Ramdas Pophale) SiO2 
 PCOD9180033
Probable space group: C 2/M
;
_chemical_formula_sum "Si O2"
_cell_formula_units_Z 64
_cell_length_a 10.909021
_cell_length_b 17.779601
_cell_length_c 23.589621
_cell_angle_alpha 90.000000
_cell_angle_beta 55.093922
_cell_angle_gamma 90.000000
_cell_volume 3752.242442
_symmetry_space_group_name_H-M "C 2/M"
_symmetry_group_IT_number 12
_symmetry_cell_setting 'monoclinic'
loop_
_space_group_symop_operation_xyz
x,y,z
-x,y,-z
-x,-y,-z
x,-y,z
1/2+x,1/2+y,z
1/2-x,1/2+y,-z
1/2-x,1/2-y,-z
1/2+x,1/2-y,z
loop_
_atom_site_type_symbol
_atom_site_label
_atom_site_fract_x
_atom_site_fract_y
_atom_site_fract_z
Si Si1 0.132040 0.687304 0.011495
Si Si2 0.183370 0.353823 0.404187
Si Si3 0.658237 0.675306 0.428485
Si Si4 0.683544 0.584584 0.119371
Si Si5 0.709562 0.589780 0.297799
Si Si6 0.352006 0.088259 0.466361
Si Si7 0.554079 0.085784 0.856269
Si Si8 0.460927 0.409350 0.267746
O O1 0.055330 0.645805 0.085621
O O2 0.250000 0.750000 0.000000
O O3 0.237201 0.628577 0.951031
O O4 0.000000 0.708469 0.000000
O O5 0.169831 0.265132 0.418896
O O6 0.224645 0.393711 0.452802
O O7 0.306510 0.371543 0.324837
O O8 0.024583 0.388655 0.428574
O O9 0.500000 0.657835 0.500000
O O10 0.679353 0.636230 0.362226
O O11 0.781496 0.640776 0.437509
O O12 0.649839 0.500000 0.109771
O O13 0.807132 0.580817 0.136576
O O14 0.537132 0.616980 0.188989
O O15 0.708375 0.500000 0.309610
O O16 0.866948 0.606527 0.224146
O O17 0.577612 0.605644 0.287741
O O18 0.337474 0.000000 0.457181
O O19 0.492165 0.000000 0.868895
O O20 0.444121 0.500000 0.268854
#
# Coordination Sequence:
#
# PCOD9180033 Si02
#       8
#     8   8   8   8   8   8   8   8
#     4  10  19  31  53  80 112 142 174 219 268 319
#     4  11  22  36  56  75 107 142 176 220 276 323
#     4  12  24  36  55  79 110 137 177 226 281 319
#     4   8  15  29  52  82 103 131 180 226 253 302
#     4   9  19  34  54  80 106 134 173 222 270 325
#     4  11  23  39  57  77 102 141 187 223 263 331
#     4   8  15  31  54  78 103 137 179 219 261 308
#     4   9  17  32  56  79 104 135 175 219 267 318
#
# _framework density 17.056466
#
# number of rings (size 3 to 8) (size 9 to 14) (size 15 to 20)
#    0.000    2.250    1.250    4.875    1.750    4.500 
#    0.000    0.000    2.750    1.500    0.000    0.000 
#    0.000    0.000    0.000    0.000    0.000    0.000 
#
# Total GULP energy -178317.797870 kJ/mol
# GULP energy per Si atom -5572.431183 kJ/mol
# Density = 1.701765 g / cm^3
# Si number density = 17.056466 Si / 1000 Ang^3
#
#
#
# Elastic Constant Matrix: (Units=GPa)
#
#
# Indices 1 2 3 4 5 6 
#
# 1 31.2522 14.9590 23.9240 0.0000 -7.0496 0.0000
# 2 14.9590 40.6743 37.8883 0.0000 -9.5046 0.0000
# 3 23.9240 37.8883 127.7026 0.0000 -19.0716 0.0000
# 4 0.0000 0.0000 0.0000 22.2570 0.0000 -11.2279
# 5 -7.0496 -9.5046 -19.0716 0.0000 19.8195 0.0000
# 6 0.0000 0.0000 0.0000 -11.2279 0.0000 15.3011
#
#
#
# Elastic Compliance Matrix: (Units=1/GPa)
#
#
# Indices 1 2 3 4 5 6 
#
# 1 0.041141 -0.010188 -0.003771 0.000000 0.006119 0.000000
# 2 -0.010188 0.037535 -0.008269 0.000000 0.006420 0.000000
# 3 -0.003771 -0.008269 0.011909 0.000000 0.006153 0.000000
# 4 0.000000 0.000000 0.000000 0.071337 0.000000 0.052347
# 5 0.006119 0.006420 0.006153 0.000000 0.061632 0.000000
# 6 0.000000 0.000000 0.000000 0.052347 0.000000 0.103767
#
#
# Mechanical properties :
#
#
# Convention : Reuss Voigt Hill
#
# Bulk Modulus (GPa) = 21.67799 39.24132 30.45966
# Shear Modulus (GPa) = 12.91475 19.66604 16.29039
#
# Velocity S-wave (km/s) = 2.75467 3.39926 3.09380
# Velocity P-wave (km/s) = 4.78066 6.20188 5.53706
#
# Compressibility (1/GPa) = 0.04612973
#
# Stress axis : x y z
#
# Youngs Moduli (GPa) = 24.30643 26.64161 83.96716
#
# Poissons Ratio (x) = 0.27143 0.31662
# Poissons Ratio (y) = 0.24764 0.69432
# Poissons Ratio (z) = 0.09165 0.22030
#
# Static dielectric constant tensor:
#      x y z
#    x 1.573620 0.000000 -0.004540 
#    y 0.000000 1.579030 0.000000 
#    z -0.004540 0.000000 1.608850 
# 
# From -- ./inp_files/336274.got.cif
#   From: 2010.05.17/outbox.cif.g08.bks.cpg/sg12_169_cif.got.tgz:336274.got - 2010.06.03 13:09:07.
