data_PCOD9180882
_publ_section_title
;
Structure prediction by ZEFSAII (Michael W. Deem and Ramdas Pophale) SiO2 
 PCOD9180882
Probable space group: C 2/M
;
_chemical_formula_sum "Si O2"
_cell_formula_units_Z 56
_cell_length_a 32.681104
_cell_length_b 7.585930
_cell_length_c 12.175107
_cell_angle_alpha 90.000000
_cell_angle_beta 55.872439
_cell_angle_gamma 90.000000
_cell_volume 2498.611895
_symmetry_space_group_name_H-M "C 2/M"
_symmetry_group_IT_number 12
_symmetry_cell_setting 'monoclinic'
loop_
_space_group_symop_operation_xyz
x,y,z
-x,y,-z
-x,-y,-z
x,-y,z
1/2+x,1/2+y,z
1/2-x,1/2+y,-z
1/2-x,1/2-y,-z
1/2+x,1/2-y,z
loop_
_atom_site_type_symbol
_atom_site_label
_atom_site_fract_x
_atom_site_fract_y
_atom_site_fract_z
Si Si1 0.320333 0.216114 0.145320
Si Si2 0.384141 0.293224 0.679111
Si Si3 0.192036 0.710962 0.592115
Si Si4 0.603653 0.212750 0.583350
Si Si5 0.508993 0.784054 0.861300
Si Si6 0.914800 0.293367 0.869054
Si Si7 0.727230 0.711135 0.153217
O O1 0.327912 0.271434 0.259281
O O2 0.266957 0.276943 0.181918
O O3 0.319454 0.000000 0.144252
O O4 0.364151 0.277525 0.999270
O O5 0.379907 0.500000 0.706914
O O6 0.406916 0.266903 0.525199
O O7 0.412769 0.221353 0.741149
O O8 0.328291 0.217079 0.757549
O O9 0.187653 0.500000 0.597467
O O10 0.250000 0.750000 0.500000
O O11 0.157019 0.777730 0.546951
O O12 0.560935 0.271774 0.730857
O O13 0.604155 0.000000 0.582952
O O14 0.463871 0.722250 0.852548
O O15 0.509864 0.000000 0.860123
O O16 0.500000 0.728879 0.000000
O O17 0.914508 0.500000 0.896807
O O18 0.724287 0.500000 0.171498
O O19 0.750000 0.750000 0.000000
#
# Coordination Sequence:
#
# PCOD9180882 Si02
#       7
#     8   8   8   8   8   8   8
#     4   9  17  31  53  79 106 138 175 221 277 325
#     4  11  23  37  54  80 116 152 186 227 276 333
#     4  10  20  35  55  80 111 145 181 222 272 331
#     4  10  21  37  58  83 112 147 186 230 277 329
#     4   9  18  35  61  90 111 135 183 240 284 323
#     4  10  19  34  59  84 108 141 184 233 278 328
#     4  10  19  32  51  76 108 144 180 221 267 321
#
# _framework density 22.412443
#
# number of rings (size 3 to 8) (size 9 to 14) (size 15 to 20)
#    0.000    2.143    1.429    2.143    0.000    6.286 
#    0.000    5.000    0.000    3.429    0.000    0.000 
#    0.000    0.000    0.000    0.000    0.000    0.000 
#
# Total GULP energy -156451.353312 kJ/mol
# GULP energy per Si atom -5587.548333 kJ/mol
# Density = 2.236143 g / cm^3
# Si number density = 22.412443 Si / 1000 Ang^3
#
#
#
# Elastic Constant Matrix: (Units=GPa)
#
#
# Indices 1 2 3 4 5 6 
#
# 1 153.1687 -1.0585 48.8756 0.0000 10.6345 0.0000
# 2 -1.0585 44.5196 -16.5303 0.0000 -5.4804 0.0000
# 3 48.8756 -16.5303 117.0953 0.0000 10.8395 0.0000
# 4 0.0000 0.0000 0.0000 5.0997 0.0000 -2.0490
# 5 10.6345 -5.4804 10.8395 0.0000 36.4225 0.0000
# 6 0.0000 0.0000 0.0000 -2.0490 0.0000 7.5519
#
#
#
# Elastic Compliance Matrix: (Units=1/GPa)
#
#
# Indices 1 2 3 4 5 6 
#
# 1 0.007651 -0.001196 -0.003228 0.000000 -0.001453 0.000000
# 2 -0.001196 0.024141 0.003639 0.000000 0.002899 0.000000
# 3 -0.003228 0.003639 0.010554 0.000000 -0.001651 0.000000
# 4 0.000000 0.000000 0.000000 0.220081 0.000000 0.059712
# 5 -0.001453 0.002899 -0.001651 0.000000 0.028807 0.000000
# 6 0.000000 0.000000 0.000000 0.059712 0.000000 0.148617
#
#
# Mechanical properties :
#
#
# Convention : Reuss Voigt Hill
#
# Bulk Modulus (GPa) = 24.52343 41.92857 33.22600
# Shear Modulus (GPa) = 10.98865 28.71461 19.85163
#
# Velocity S-wave (km/s) = 2.21666 3.58326 2.97937
# Velocity P-wave (km/s) = 4.18534 5.98899 5.16648
#
# Compressibility (1/GPa) = 0.04077733
#
# Stress axis : x y z
#
# Youngs Moduli (GPa) = 130.69481 41.42245 94.75176
#
# Poissons Ratio (x) = 0.04952 0.30585
# Poissons Ratio (y) = 0.15625 -0.34478
# Poissons Ratio (z) = 0.42188 -0.15073
#
# Static dielectric constant tensor:
#      x y z
#    x 1.836080 0.000000 -0.010040 
#    y 0.000000 1.875500 0.000000 
#    z -0.010040 0.000000 1.791810 
# 
# From -- ./inp_files/180841.got.cif
#   From: 2010.05.17/outbox.cif.g08.bks.cpg/sg12_91_cif.got.tgz:180841.got - 2010.06.03 13:09:07.
