data_PCOD9180090
_publ_section_title
;
Structure prediction by ZEFSAII (Michael W. Deem and Ramdas Pophale) SiO2 
 PCOD9180090
Probable space group: C 2/M
;
_chemical_formula_sum "Si O2"
_cell_formula_units_Z 64
_cell_length_a 35.184048
_cell_length_b 7.734887
_cell_length_c 27.013489
_cell_angle_alpha 90.000000
_cell_angle_beta 156.415875
_cell_angle_gamma 90.000000
_cell_volume 2941.329726
_symmetry_space_group_name_H-M "C 2/M"
_symmetry_group_IT_number 12
_symmetry_cell_setting 'monoclinic'
loop_
_space_group_symop_operation_xyz
x,y,z
-x,y,-z
-x,-y,-z
x,-y,z
1/2+x,1/2+y,z
1/2-x,1/2+y,-z
1/2-x,1/2-y,-z
1/2+x,1/2-y,z
loop_
_atom_site_type_symbol
_atom_site_label
_atom_site_fract_x
_atom_site_fract_y
_atom_site_fract_z
Si Si1 0.806238 0.292194 0.711715
Si Si2 0.595821 0.797442 0.490045
Si Si3 0.528051 0.792621 0.155521
Si Si4 0.357101 0.791255 0.881549
Si Si5 0.911356 0.801582 0.216052
Si Si6 0.855408 0.699462 0.345245
Si Si7 0.903023 0.791435 0.094548
Si Si8 0.799228 0.703072 0.177739
O O1 0.794179 0.500000 0.694332
O O2 0.701580 0.217313 0.594221
O O3 0.864601 0.256553 0.831988
O O4 0.870047 0.229856 0.742190
O O5 0.518625 0.707663 0.363855
O O6 0.599468 0.725260 0.550782
O O7 0.569931 0.000000 0.461559
O O8 0.493790 0.751538 0.169676
O O9 0.530337 0.000000 0.153168
O O10 0.444939 0.729875 0.019227
O O11 0.257925 0.708990 0.780148
O O12 0.348507 0.000000 0.876800
O O13 0.905460 0.727051 0.153830
O O14 0.847741 0.717049 0.182490
O O15 0.879686 0.000000 0.175689
O O16 0.887681 0.500000 0.382640
O O17 0.862182 0.776636 0.298169
O O18 0.896880 0.000000 0.089120
O O19 0.807205 0.723809 0.953672
O O20 0.789982 0.500000 0.178262
#
# Coordination Sequence:
#
# PCOD9180090 Si02
#       8
#     8   8   8   8   8   8   8   8
#     4   9  18  33  53  80 115 149 181 221 268 320
#     4  10  21  38  58  81 110 147 188 226 267 322
#     4  10  19  31  53  84 114 146 182 221 270 325
#     4   9  16  28  49  79 115 149 178 213 265 325
#     4  11  24  40  58  80 106 144 188 231 275 323
#     4   9  18  33  55  82 113 145 177 218 272 326
#     4  10  22  39  58  81 112 145 181 226 276 324
#     4  10  20  37  60  84 111 141 175 224 279 330
#
# _framework density 21.758866000000001
#
# number of rings (size 3 to 8) (size 9 to 14) (size 15 to 20)
#    0.000    2.250    1.250    1.500    0.000    5.000 
#    0.000    3.125    0.000    3.750    0.000    0.000 
#    0.000    0.000    0.000    0.000    0.000    0.000 
#
# Total GULP energy -178638.924843 kJ/mol
# GULP energy per Si atom -5582.466401 kJ/mol
# Density = 2.170934 g / cm^3
# Si number density = 21.758866 Si / 1000 Ang^3
#
#
#
# Elastic Constant Matrix: (Units=GPa)
#
#
# Indices 1 2 3 4 5 6 
#
# 1 140.9519 4.0041 29.1001 0.0000 -7.9714 0.0000
# 2 4.0041 37.5367 -2.9142 0.0001 -6.4374 -0.0001
# 3 29.1001 -2.9142 55.5353 0.0000 -5.4704 0.0000
# 4 0.0000 0.0001 0.0000 4.3619 0.0000 6.4315
# 5 -7.9714 -6.4374 -5.4704 0.0000 40.2607 0.0000
# 6 0.0000 -0.0001 0.0000 6.4315 0.0000 19.4753
#
#
#
# Elastic Compliance Matrix: (Units=1/GPa)
#
#
# Indices 1 2 3 4 5 6 
#
# 1 0.008036 -0.001035 -0.004180 0.000000 0.000858 0.000000
# 2 -0.001035 0.027723 0.002446 -0.000001 0.004560 0.000001
# 3 -0.004180 0.002446 0.020558 0.000000 0.002357 0.000000
# 4 0.000000 -0.000001 0.000000 0.446838 0.000000 -0.147564
# 5 0.000858 0.004560 0.002357 0.000000 0.026057 0.000000
# 6 0.000000 0.000001 0.000000 -0.147564 0.000000 0.100079
#
#
# Mechanical properties :
#
#
# Convention : Reuss Voigt Hill
#
# Bulk Modulus (GPa) = 19.69353 32.71154 26.20253
# Shear Modulus (GPa) = 7.67161 26.40851 17.04006
#
# Velocity S-wave (km/s) = 1.87973 3.48758 2.80149
# Velocity P-wave (km/s) = 3.71236 5.59321 4.74687
#
# Compressibility (1/GPa) = 0.05077810
#
# Stress axis : x y z
#
# Youngs Moduli (GPa) = 124.44677 36.07126 48.64396
#
# Poissons Ratio (x) = 0.03732 0.20335
# Poissons Ratio (y) = 0.12876 -0.11899
# Poissons Ratio (z) = 0.52024 -0.08823
#
# Static dielectric constant tensor:
#      x y z
#    x 1.822700 0.000000 -0.013930 
#    y 0.000000 1.821570 0.000000 
#    z -0.013930 0.000000 1.790010 
# 
# From -- ./inp_files/244176.got.cif
#   From: 2010.05.17/outbox.cif.g08.bks.cpg/sg12_123_cif.got.tgz:244176.got - 2010.06.03 13:09:07.
