data_PCOD9180341
_publ_section_title
;
Structure prediction by ZEFSAII (Michael W. Deem and Ramdas Pophale) SiO2 
 PCOD9180341
Probable space group: C 2/M
;
_chemical_formula_sum "Si O2"
_cell_formula_units_Z 56
_cell_length_a 32.014336
_cell_length_b 7.448075
_cell_length_c 19.051616
_cell_angle_alpha 90.000000
_cell_angle_beta 141.945658
_cell_angle_gamma 90.000000
_cell_volume 2800.199913
_symmetry_space_group_name_H-M "C 2/M"
_symmetry_group_IT_number 12
_symmetry_cell_setting 'monoclinic'
loop_
_space_group_symop_operation_xyz
x,y,z
-x,y,-z
-x,-y,-z
x,-y,z
1/2+x,1/2+y,z
1/2-x,1/2+y,-z
1/2-x,1/2-y,-z
1/2+x,1/2-y,z
loop_
_atom_site_type_symbol
_atom_site_label
_atom_site_fract_x
_atom_site_fract_y
_atom_site_fract_z
Si Si1 0.196763 0.213218 0.367885
Si Si2 0.700945 0.207093 0.215084
Si Si3 0.949687 0.288700 0.992670
Si Si4 0.660003 0.720643 0.659420
Si Si5 0.058853 0.209585 0.637465
Si Si6 0.952369 0.780214 0.603058
Si Si7 0.443836 0.283267 0.751892
O O1 0.250000 0.250000 0.500000
O O2 0.217202 0.290175 0.319649
O O3 0.122838 0.280440 0.294550
O O4 0.192429 0.000000 0.352642
O O5 0.626036 0.288227 0.107490
O O6 0.764463 0.284292 0.256940
O O7 0.696183 0.000000 0.185709
O O8 0.941867 0.500000 0.965402
O O9 0.000000 0.211228 0.000000
O O10 0.989070 0.270030 0.117591
O O11 0.659704 0.500000 0.659861
O O12 0.624864 0.782734 0.685284
O O13 0.610351 0.772403 0.529554
O O14 0.000000 0.216029 0.500000
O O15 0.021816 0.282904 0.657424
O O16 0.072871 0.000000 0.670317
O O17 0.943821 0.721442 0.671522
O O18 0.953645 0.000000 0.604211
O O19 0.440601 0.500000 0.746560
#
# Coordination Sequence:
#
# PCOD9180341 Si02
#       7
#     8   8   8   8   8   8   8
#     4  11  22  33  47  69  96 123 150 183 228 277
#     4  10  19  32  49  67  91 121 155 194 231 268
#     4  10  20  34  49  64  86 121 162 199 232 267
#     4   8  13  23  42  67  93 118 145 181 227 275
#     4   7  10  18  36  63  92 117 140 175 224 273
#     4   8  13  23  40  66  95 116 141 182 231 274
#     4  10  20  32  48  68  91 121 156 194 229 269
#
# _framework density 19.998573
#
# number of rings (size 3 to 8) (size 9 to 14) (size 15 to 20)
#    0.000    2.857    1.429    3.000    0.000    3.714 
#    0.000    0.000    0.000    0.857    0.000    1.000 
#    0.000    4.571    0.000    0.000    0.000    0.000 
#
# Total GULP energy -156152.532246 kJ/mol
# GULP energy per Si atom -5576.876152 kJ/mol
# Density = 1.995305 g / cm^3
# Si number density = 19.998573 Si / 1000 Ang^3
#
#
#
# Elastic Constant Matrix: (Units=GPa)
#
#
# Indices 1 2 3 4 5 6 
#
# 1 134.9902 11.2992 21.8052 0.0000 41.7667 0.0000
# 2 11.2992 61.9549 -1.9240 0.0000 5.4638 0.0000
# 3 21.8052 -1.9240 63.6212 0.0000 31.4113 0.0000
# 4 0.0000 0.0000 0.0000 11.0491 0.0000 -7.3626
# 5 41.7667 5.4638 31.4113 0.0000 32.8690 0.0000
# 6 0.0000 0.0000 0.0000 -7.3626 0.0000 -3.3335
#
#
#
# Elastic Compliance Matrix: (Units=1/GPa)
#
#
# Indices 1 2 3 4 5 6 
#
# 1 0.013859 -0.000118 0.007444 0.000000 -0.024705 0.000000
# 2 -0.000118 0.016800 0.003509 0.000000 -0.005996 0.000000
# 3 0.007444 0.003509 0.034517 0.000000 -0.043029 0.000000
# 4 0.000000 0.000000 0.000000 0.036616 0.000000 -0.080872
# 5 -0.024705 -0.005996 -0.043029 0.000000 0.103934 0.000000
# 6 0.000000 0.000000 0.000000 -0.080872 0.000000 -0.121365
#
#
# Mechanical properties :
#
#
# Convention : Reuss Voigt Hill
#
# Bulk Modulus (GPa) = 11.51449 35.88081 23.69765
# Shear Modulus (GPa) = 54.56129 23.40930 38.98530
#
# Velocity S-wave (km/s) = 5.22894 3.42504 4.42000
# Velocity P-wave (km/s) = 6.49815 5.79843 6.15824
#
# Compressibility (1/GPa) = 0.08684708
#
# Stress axis : x y z
#
# Youngs Moduli (GPa) = 72.15343 59.52369 28.97113
#
# Poissons Ratio (x) = 0.00701 -0.21566
# Poissons Ratio (y) = 0.00849 -0.10166
# Poissons Ratio (z) = -0.53711 -0.20887
#
# Static dielectric constant tensor:
#      x y z
#    x 1.739520 0.000000 0.031160 
#    y 0.000000 1.867180 0.000000 
#    z 0.031160 0.000000 1.669090 
# 
# From -- ./inp_files/287310.got.cif
#   From: 2010.05.17/outbox.cif.g08.bks.cpg/sg12_144_cif.got.tgz:287310.got - 2010.06.03 13:09:07.
