data_PCOD9180253
_publ_section_title
;
Structure prediction by ZEFSAII (Michael W. Deem and Ramdas Pophale) SiO2 
 PCOD9180253
Probable space group: C 2/M
;
_chemical_formula_sum "Si O2"
_cell_formula_units_Z 64
_cell_length_a 30.591141
_cell_length_b 18.438362
_cell_length_c 9.480729
_cell_angle_alpha 90.000000
_cell_angle_beta 134.152292
_cell_angle_gamma 90.000000
_cell_volume 3836.861475
_symmetry_space_group_name_H-M "C 2/M"
_symmetry_group_IT_number 12
_symmetry_cell_setting 'monoclinic'
loop_
_space_group_symop_operation_xyz
x,y,z
-x,y,-z
-x,-y,-z
x,-y,z
1/2+x,1/2+y,z
1/2-x,1/2+y,-z
1/2-x,1/2-y,-z
1/2+x,1/2-y,z
loop_
_atom_site_type_symbol
_atom_site_label
_atom_site_fract_x
_atom_site_fract_y
_atom_site_fract_z
Si Si1 0.265437 0.414378 0.304597
Si Si2 0.273303 0.808538 0.250210
Si Si3 0.928468 0.773431 0.339015
Si Si4 0.702581 0.585008 0.297906
Si Si5 0.959081 0.079436 0.770627
Si Si6 0.180062 0.318348 0.955391
Si Si7 0.364471 0.690841 0.482711
Si Si8 0.078188 0.083053 0.855901
O O1 0.268498 0.500000 0.293019
O O2 0.282349 0.396319 0.505462
O O3 0.315362 0.370164 0.326292
O O4 0.201864 0.381460 0.108620
O O5 0.243366 0.867860 0.283362
O O6 0.302839 0.836362 0.169420
O O7 0.324075 0.758564 0.443154
O O8 0.220388 0.752465 0.085418
O O9 0.888926 0.708627 0.183350
O O10 0.902522 0.780511 0.437236
O O11 0.914976 0.850926 0.235878
O O12 0.000000 0.760157 0.500000
O O13 0.716915 0.500000 0.313534
O O14 0.631247 0.592581 0.093388
O O15 0.912361 0.144962 0.679851
O O16 0.009272 0.088469 0.760640
O O17 0.928219 0.000000 0.684421
O O18 0.000000 0.076133 0.000000
O O19 0.085357 0.000000 0.817227
#
# Coordination Sequence:
#
# PCOD9180253 Si02
#       8
#     8   8   8   8   8   8   8   8
#     4  10  21  35  53  77 102 133 169 211 258 304
#     4   9  18  34  50  73 102 133 169 209 256 296
#     4  11  20  35  51  72 103 135 172 211 247 294
#     4  10  20  35  53  76 105 134 169 209 254 303
#     4  10  19  32  46  66 102 140 172 208 244 288
#     4   9  19  34  52  73 102 132 168 213 254 299
#     4  10  20  32  50  72 102 136 170 208 247 298
#     4  10  20  31  48  72 101 138 174 203 238 294
#
# _framework density 16.680299999999999
#
# number of rings (size 3 to 8) (size 9 to 14) (size 15 to 20)
#    0.000    2.125    2.500    1.875    0.000    5.750 
#    2.250    0.000    0.000    0.375    0.000    0.000 
#    0.000    8.500    0.000    0.000    0.000    0.000 
#
# Total GULP energy -178260.872676 kJ/mol
# GULP energy per Si atom -5570.652271 kJ/mol
# Density = 1.664233 g / cm^3
# Si number density = 16.680300 Si / 1000 Ang^3
#
#
#
# Elastic Constant Matrix: (Units=GPa)
#
#
# Indices 1 2 3 4 5 6 
#
# 1 58.4555 30.4717 22.8574 0.0000 16.9374 0.0000
# 2 30.4717 53.1364 36.8802 0.0000 14.1926 0.0000
# 3 22.8574 36.8802 75.3328 0.0000 25.1608 0.0000
# 4 0.0000 0.0000 0.0000 32.3602 0.0000 2.2363
# 5 16.9374 14.1926 25.1608 0.0000 16.9097 0.0000
# 6 0.0000 0.0000 0.0000 2.2363 0.0000 21.1148
#
#
#
# Elastic Compliance Matrix: (Units=1/GPa)
#
#
# Indices 1 2 3 4 5 6 
#
# 1 0.030506 -0.015162 0.008194 0.000000 -0.030022 0.000000
# 2 -0.015162 0.036381 -0.016071 0.000000 0.008564 0.000000
# 3 0.008194 -0.016071 0.033581 0.000000 -0.044686 0.000000
# 4 0.000000 0.000000 0.000000 0.031130 0.000000 -0.003297
# 5 -0.030022 0.008564 -0.044686 0.000000 0.148512 0.000000
# 6 0.000000 0.000000 0.000000 -0.003297 0.000000 0.047709
#
#
# Mechanical properties :
#
#
# Convention : Reuss Voigt Hill
#
# Bulk Modulus (GPa) = 18.38582 40.81595 29.60088
# Shear Modulus (GPa) = 12.75425 20.52462 16.63943
#
# Velocity S-wave (km/s) = 2.76819 3.51161 3.16183
# Velocity P-wave (km/s) = 4.61125 6.40036 5.57800
#
# Compressibility (1/GPa) = 0.05438975
#
# Stress axis : x y z
#
# Youngs Moduli (GPa) = 32.78081 27.48671 29.77903
#
# Poissons Ratio (x) = 0.41676 -0.24402
# Poissons Ratio (y) = 0.49703 0.47858
# Poissons Ratio (z) = -0.26861 0.44174
#
# Static dielectric constant tensor:
#      x y z
#    x 1.592420 0.000000 -0.005430 
#    y 0.000000 1.563030 0.000000 
#    z -0.005430 0.000000 1.618020 
# 
# From -- ./inp_files/112857.got.cif
#   From: 2010.05.17/outbox.cif.g08.bks.cpg/sg12_57_cif.got.tgz:112857.got - 2010.06.03 13:09:07.
