data_PCOD9180492
_publ_section_title
;
Structure prediction by ZEFSAII (Michael W. Deem and Ramdas Pophale) SiO2 
 PCOD9180492
Probable space group: C 2/M
;
_chemical_formula_sum "Si O2"
_cell_formula_units_Z 64
_cell_length_a 26.144418
_cell_length_b 8.982132
_cell_length_c 21.990344
_cell_angle_alpha 90.000000
_cell_angle_beta 52.816695
_cell_angle_gamma 90.000000
_cell_volume 4114.229861
_symmetry_space_group_name_H-M "C 2/M"
_symmetry_group_IT_number 12
_symmetry_cell_setting 'monoclinic'
loop_
_space_group_symop_operation_xyz
x,y,z
-x,y,-z
-x,-y,-z
x,-y,z
1/2+x,1/2+y,z
1/2-x,1/2+y,-z
1/2-x,1/2-y,-z
1/2+x,1/2-y,z
loop_
_atom_site_type_symbol
_atom_site_label
_atom_site_fract_x
_atom_site_fract_y
_atom_site_fract_z
Si Si1 0.688045 0.679539 0.820431
Si Si2 0.394285 0.322056 0.332332
Si Si3 0.305397 0.677935 0.501858
Si Si4 0.256452 0.678687 0.089711
Si Si5 0.047915 0.679267 0.911406
Si Si6 0.008789 0.321893 0.179854
Si Si7 0.232851 0.178440 0.656007
Si Si8 0.352117 0.322376 0.911435
O O1 0.681963 0.500000 0.824786
O O2 0.724440 0.723014 0.855921
O O3 0.617274 0.748340 0.869690
O O4 0.724612 0.721394 0.732081
O O5 0.404343 0.500000 0.320409
O O6 0.370329 0.287654 0.418031
O O7 0.456854 0.237085 0.265316
O O8 0.334286 0.285009 0.330515
O O9 0.298151 0.500000 0.507456
O O10 0.250000 0.750000 0.500000
O O11 0.290789 0.743313 0.578546
O O12 0.246508 0.500000 0.095083
O O13 0.194107 0.759149 0.107858
O O14 0.315095 0.712703 0.001361
O O15 0.054566 0.500000 0.908215
O O16 0.017825 0.720582 0.867917
O O17 0.000000 0.723790 0.000000
O O18 0.013253 0.500000 0.179282
O O19 0.078328 0.251109 0.139525
O O20 0.240611 0.000000 0.645770
O O21 0.357468 0.500000 0.902784
#
# Coordination Sequence:
#
# PCOD9180492 Si02
#       8
#     8   8   8   8   8   8   8   8
#     4  10  19  32  50  71  96 127 162 198 238 285
#     4   9  17  30  45  65  95 127 159 195 231 278
#     4   9  17  28  44  65  92 127 161 194 233 279
#     4   9  19  35  53  72  93 122 163 206 245 285
#     4  10  21  33  44  65  98 131 161 195 238 286
#     4  11  21  31  47  70  96 128 162 198 239 284
#     4   9  17  29  45  68  97 127 158 195 234 281
#     4  10  20  34  52  71  93 124 162 206 249 285
#
# _framework density 15.555766999999999
#
# number of rings (size 3 to 8) (size 9 to 14) (size 15 to 20)
#    0.000    2.375    1.250    2.625    0.000    4.750 
#    0.000    0.000    0.000    0.000    0.000    0.875 
#    0.000    7.000    0.000    0.000    0.000    0.000 
#
# Total GULP energy -178427.985132 kJ/mol
# GULP energy per Si atom -5575.874535 kJ/mol
# Density = 1.552036 g / cm^3
# Si number density = 15.555767 Si / 1000 Ang^3
#
#
#
# Elastic Constant Matrix: (Units=GPa)
#
#
# Indices 1 2 3 4 5 6 
#
# 1 97.7675 40.3917 78.0697 -0.0015 5.1732 0.0016
# 2 40.3917 33.3017 51.8153 -0.0014 -0.7757 0.0005
# 3 78.0697 51.8153 154.4575 0.0010 9.3814 -0.0023
# 4 -0.0015 -0.0014 0.0010 27.4819 -0.0005 -5.0104
# 5 5.1732 -0.7757 9.3814 -0.0005 16.4249 0.0014
# 6 0.0016 0.0005 -0.0023 -5.0104 0.0014 22.4990
#
#
#
# Elastic Compliance Matrix: (Units=1/GPa)
#
#
# Indices 1 2 3 4 5 6 
#
# 1 0.022422 -0.021461 -0.003774 0.000000 -0.005920 -0.000001
# 2 -0.021461 0.087437 -0.019834 0.000004 0.022218 -0.000003
# 3 -0.003774 -0.019834 0.015560 -0.000002 -0.008636 0.000002
# 4 0.000000 0.000004 -0.000002 0.037927 0.000002 0.008446
# 5 -0.005920 0.022218 -0.008636 0.000002 0.068729 -0.000005
# 6 -0.000001 -0.000003 0.000002 0.008446 -0.000005 0.046327
#
#
# Mechanical properties :
#
#
# Convention : Reuss Voigt Hill
#
# Bulk Modulus (GPa) = 28.34452 69.56445 48.95449
# Shear Modulus (GPa) = 13.14745 20.96449 17.05597
#
# Velocity S-wave (km/s) = 2.91035 3.67508 3.31485
# Velocity P-wave (km/s) = 5.43639 7.92621 6.79629
#
# Compressibility (1/GPa) = 0.03528019
#
# Stress axis : x y z
#
# Youngs Moduli (GPa) = 44.59998 11.43675 64.26775
#
# Poissons Ratio (x) = 0.24545 0.24253
# Poissons Ratio (y) = 0.95718 1.27470
# Poissons Ratio (z) = 0.16831 0.22684
#
# Static dielectric constant tensor:
#      x y z
#    x 1.485640 0.000000 0.019650 
#    y 0.000000 1.516820 0.000000 
#    z 0.019650 0.000000 1.537470 
# 
# From -- ./inp_files/326893.got.cif
#   From: 2010.05.17/outbox.cif.g08.bks.cpg/sg12_164_cif.got.tgz:326893.got - 2010.06.03 13:09:07.
